REMARK  5 active torsions:
REMARK  status: ('A' for Active; 'I' for Inactive)
REMARK    1  A    between atoms: C24_13  and  C28_18 
REMARK    2  A    between atoms: C2_14  and  N8_26 
REMARK    3  A    between atoms: C9_17  and  C18_19 
REMARK    4  A    between atoms: N26_24  and  C27_20 
REMARK    5  A    between atoms: N20_25  and  C21_21 
ROOT
ATOM      1  C12 IV7 d   1      34.554  46.948   8.790  0.00  0.00    -0.064 A 
ATOM      2  C13 IV7 d   1      35.013  46.766  10.115  0.00  0.00    -0.045 A 
ATOM      3  C6  IV7 d   1      30.002  45.664   8.486  0.00  0.00    -0.035 A 
ATOM      4  C15 IV7 d   1      33.724  44.673  10.292  0.00  0.00    -0.036 A 
ATOM      5  C4  IV7 d   1      27.903  46.236   9.398  0.00  0.00     0.015 A 
ATOM      6  C5  IV7 d   1      28.953  46.596   8.528  0.00  0.00    -0.001 A 
ATOM      7  C23 IV7 d   1      28.985  47.855   7.717  0.00  0.00     0.028 A 
ATOM      8  C11 IV7 d   1      33.669  45.992   8.201  0.00  0.00     0.041 A 
ATOM      9  C10 IV7 d   1      33.231  44.816   8.948  0.00  0.00    -0.011 A 
ATOM     10  C1  IV7 d   1      30.047  44.461   9.231  0.00  0.00     0.116 A 
ATOM     11  C14 IV7 d   1      34.597  45.637  10.851  0.00  0.00     0.117 A 
ATOM     12  C22 IV7 d   1      30.162  48.552   7.281  0.00  0.00     0.061 A 
ATOM     13  C24 IV7 d   1      27.901  48.656   7.188  0.00  0.00     0.064 A 
ATOM     14  C2  IV7 d   1      28.938  44.198  10.072  0.00  0.00     0.154 A 
ATOM     15  C17 IV7 d   1      33.234  46.265   6.797  0.00  0.00     0.254 C 
ATOM     16  C29 IV7 d   1      31.674  48.307   7.456  0.00  0.00     0.038 C 
ATOM     17  C9  IV7 d   1      32.271  43.740   8.374  0.00  0.00     0.068 C 
ATOM     18  N3  IV7 d   1      27.879  45.078  10.151  0.00  0.00    -0.240 NA
ATOM     19  N25 IV7 d   1      28.342  49.719   6.510  0.00  0.00    -0.177 NA
ATOM     20  N26 IV7 d   1      29.678  49.648   6.571  0.00  0.00    -0.276 N 
ATOM     21  N20 IV7 d   1      32.313  47.335   6.478  0.00  0.00    -0.347 N 
ATOM     22  O19 IV7 d   1      33.734  45.497   5.967  0.00  0.00    -0.267 OA
ATOM     23  O7  IV7 d   1      31.084  43.536   9.205  0.00  0.00    -0.338 OA
ATOM     24  F16 IV7 d   1      35.033  45.476  12.103  0.00  0.00    -0.206 F 
ATOM     25  H   IV7 d   1      34.873  47.813   8.220  0.00  0.00     0.085 H 
ATOM     26  H   IV7 d   1      35.682  47.492  10.563  0.00  0.00     0.088 H 
ATOM     27  H   IV7 d   1      30.840  45.882   7.834  0.00  0.00     0.089 H 
ATOM     28  H   IV7 d   1      33.423  43.816  10.884  0.00  0.00     0.089 H 
ATOM     29  H   IV7 d   1      27.060  46.912   9.481  0.00  0.00     0.116 H 
ATOM     30  H   IV7 d   1      31.835  47.916   8.472  0.00  0.00     0.074 H 
ATOM     31  H   IV7 d   1      32.185  49.275   7.350  0.00  0.00     0.074 H 
ATOM     32  H   IV7 d   1      31.957  44.064   7.371  0.00  0.00     0.091 H 
ENDROOT
BRANCH  17  33
ATOM     33  C18 IV7 d   1      32.956  42.367   8.276  0.00  0.00    -0.048 C 
ATOM     34  H   IV7 d   1      32.247  41.632   7.866  0.00  0.00     0.031 H 
ATOM     35  H   IV7 d   1      33.279  42.046   9.277  0.00  0.00     0.031 H 
ATOM     36  H   IV7 d   1      33.831  42.440   7.614  0.00  0.00     0.031 H 
ENDBRANCH  17  33
BRANCH  14  37
ATOM     37  N8  IV7 d   1      28.903  43.024  10.850  0.00  0.00    -0.382 N 
ATOM     38  H   IV7 d   1      28.096  42.835  11.461  0.00  0.00     0.157 HD
ATOM     39  H   IV7 d   1      29.685  42.355  10.808  0.00  0.00     0.157 HD
ENDBRANCH  14  37
BRANCH  21  40
ATOM     40  C21 IV7 d   1      31.977  47.484   5.049  0.00  0.00    -0.015 C 
ATOM     41  H   IV7 d   1      32.509  46.718   4.465  0.00  0.00     0.056 H 
ATOM     42  H   IV7 d   1      32.279  48.484   4.704  0.00  0.00     0.056 H 
ATOM     43  H   IV7 d   1      30.892  47.361   4.913  0.00  0.00     0.056 H 
ENDBRANCH  21  40
BRANCH  13  44
ATOM     44  C28 IV7 d   1      26.425  48.477   7.287  0.00  0.00    -0.033 C 
ATOM     45  H   IV7 d   1      25.920  49.295   6.753  0.00  0.00     0.035 H 
ATOM     46  H   IV7 d   1      26.124  48.489   8.345  0.00  0.00     0.035 H 
ATOM     47  H   IV7 d   1      26.141  47.515   6.836  0.00  0.00     0.035 H 
ENDBRANCH  13  44
BRANCH  20  48
ATOM     48  C27 IV7 d   1      30.430  50.697   5.907  0.00  0.00     0.003 C 
ATOM     49  H   IV7 d   1      29.733  51.409   5.441  0.00  0.00     0.059 H 
ATOM     50  H   IV7 d   1      31.073  50.253   5.133  0.00  0.00     0.059 H 
ATOM     51  H   IV7 d   1      31.054  51.224   6.644  0.00  0.00     0.059 H 
ENDBRANCH  20  48
TORSDOF 5
