REMARK  9 active torsions:
REMARK  status: ('A' for Active; 'I' for Inactive)
REMARK    1  A    between atoms: C5_7  and  C20_12 
REMARK    2  A    between atoms: C9_17  and  C10_8 
REMARK    3  A    between atoms: C15_9  and  O17_23 
REMARK    4  A    between atoms: O8_24  and  C1_10 
REMARK    5  A    between atoms: C2_13  and  N7_22 
REMARK    6  A    between atoms: C9_17  and  C16_14 
REMARK    7  A    between atoms: N21_21  and  C25_15 
REMARK    8  A    between atoms: O17_23  and  C18_16 
REMARK    9  A    between atoms: C9_17  and  O8_24 
ROOT
ATOM      1  O8  3U9 d   1      44.891  -1.189 -44.511  0.00  0.00    -0.338 OA
ENDROOT
BRANCH   1   2
ATOM      2  C1  3U9 d   1      43.846  -1.164 -45.437  0.00  0.00     0.116 A 
ATOM      3  C6  3U9 d   1      43.732  -1.926 -46.638  0.00  0.00    -0.033 A 
ATOM      4  C5  3U9 d   1      42.628  -1.819 -47.520  0.00  0.00     0.014 A 
ATOM      5  H   3U9 d   1      44.527  -2.619 -46.887  0.00  0.00     0.089 H 
ATOM      6  C4  3U9 d   1      41.633  -0.897 -47.130  0.00  0.00     0.017 A 
ATOM      7  N3  3U9 d   1      41.697  -0.142 -45.980  0.00  0.00    -0.240 NA
ATOM      8  H   3U9 d   1      40.769  -0.776 -47.773  0.00  0.00     0.116 H 
ATOM      9  C2  3U9 d   1      42.787  -0.271 -45.146  0.00  0.00     0.154 A 
BRANCH   4  10
ATOM     10  C20 3U9 d   1      42.593  -2.641 -48.757  0.00  0.00     0.085 A 
ATOM     11  C24 3U9 d   1      43.668  -3.119 -49.504  0.00  0.00     0.053 A 
ATOM     12  N23 3U9 d   1      43.244  -3.834 -50.574  0.00  0.00    -0.142 NA
ATOM     13  H   3U9 d   1      44.714  -2.941 -49.259  0.00  0.00     0.121 H 
ATOM     14  N22 3U9 d   1      41.927  -3.842 -50.557  0.00  0.00    -0.066 NA
ATOM     15  N21 3U9 d   1      41.515  -3.139 -49.484  0.00  0.00    -0.254 N 
BRANCH  15  16
ATOM     16  C25 3U9 d   1      40.084  -3.028 -49.284  0.00  0.00     0.004 C 
ATOM     17  H   3U9 d   1      39.559  -3.567 -50.086  0.00  0.00     0.059 H 
ATOM     18  H   3U9 d   1      39.792  -1.968 -49.303  0.00  0.00     0.059 H 
ATOM     19  H   3U9 d   1      39.815  -3.465 -48.311  0.00  0.00     0.059 H 
ENDBRANCH  15  16
ENDBRANCH   4  10
BRANCH   9  20
ATOM     20  N7  3U9 d   1      42.838   0.513 -43.980  0.00  0.00    -0.382 N 
ATOM     21  H   3U9 d   1      42.070   1.164 -43.763  0.00  0.00     0.157 HD
ATOM     22  H   3U9 d   1      43.643   0.436 -43.342  0.00  0.00     0.157 HD
ENDBRANCH   9  20
ENDBRANCH   1   2
BRANCH   1  23
ATOM     23  C9  3U9 d   1      46.069  -2.045 -44.659  0.00  0.00     0.070 C 
ATOM     24  H   3U9 d   1      45.742  -3.071 -44.884  0.00  0.00     0.091 H 
BRANCH  23  25
ATOM     25  C10 3U9 d   1      47.016  -1.580 -45.794  0.00  0.00     0.007 A 
ATOM     26  C13 3U9 d   1      47.559  -0.253 -45.783  0.00  0.00    -0.034 A 
ATOM     27  C12 3U9 d   1      48.413   0.183 -46.821  0.00  0.00     0.117 A 
ATOM     28  H   3U9 d   1      47.312   0.422 -44.971  0.00  0.00     0.089 H 
ATOM     29  C11 3U9 d   1      48.750  -0.674 -47.889  0.00  0.00    -0.043 A 
ATOM     30  F19 3U9 d   1      48.908   1.428 -46.789  0.00  0.00    -0.206 F 
ATOM     31  C14 3U9 d   1      48.231  -1.991 -47.928  0.00  0.00    -0.047 A 
ATOM     32  H   3U9 d   1      49.405  -0.325 -48.679  0.00  0.00     0.088 H 
ATOM     33  C15 3U9 d   1      47.360  -2.466 -46.889  0.00  0.00     0.077 A 
ATOM     34  H   3U9 d   1      48.493  -2.647 -48.750  0.00  0.00     0.087 H 
BRANCH  33  35
ATOM     35  O17 3U9 d   1      46.792  -3.739 -46.835  0.00  0.00    -0.355 OA
BRANCH  35  36
ATOM     36  C18 3U9 d   1      47.066  -4.689 -47.872  0.00  0.00     0.010 C 
ATOM     37  H   3U9 d   1      46.535  -5.628 -47.659  0.00  0.00     0.066 H 
ATOM     38  H   3U9 d   1      48.148  -4.882 -47.916  0.00  0.00     0.066 H 
ATOM     39  H   3U9 d   1      46.726  -4.286 -48.837  0.00  0.00     0.066 H 
ENDBRANCH  35  36
ENDBRANCH  33  35
ENDBRANCH  23  25
BRANCH  23  40
ATOM     40  C16 3U9 d   1      46.788  -2.021 -43.301  0.00  0.00    -0.048 C 
ATOM     41  H   3U9 d   1      46.096  -2.355 -42.514  0.00  0.00     0.031 H 
ATOM     42  H   3U9 d   1      47.125  -0.997 -43.083  0.00  0.00     0.031 H 
ATOM     43  H   3U9 d   1      47.657  -2.694 -43.334  0.00  0.00     0.031 H 
ENDBRANCH  23  40
ENDBRANCH   1  23
TORSDOF 9
