REMARK  30 active torsions:
REMARK  status: ('A' for Active; 'I' for Inactive)
REMARK    1  A    between atoms: CBD_3  and  CAO_2 
REMARK    2  A    between atoms: CBS_4  and  CBD_3 
REMARK    3  A    between atoms: CBH_10  and  CBU_9 
REMARK    4  A    between atoms: CCC_31  and  CBH_10 
REMARK       I    between atoms: CBR_11  and  N_13 
REMARK    5  A    between atoms: CCC_31  and  CBR_11 
REMARK    6  A    between atoms: N_13  and  CA_14 
REMARK    7  A    between atoms: CA_14  and  CB_15 
REMARK    8  A    between atoms: CA_14  and  C_18 
REMARK    9  A    between atoms: CB_15  and  CG1_16 
REMARK   10  A    between atoms: CB_15  and  CG2_17 
REMARK       I    between atoms: C_18  and  NBJ_20 
REMARK   11  A    between atoms: NBJ_20  and  CBB_21 
REMARK   12  A    between atoms: CBB_21  and  CAN_22 
REMARK   13  A    between atoms: CAN_22  and  CAA_23 
REMARK   14  A    between atoms: CCC_31  and  OAM_24 
REMARK   15  A    between atoms: CBF_25  and  CBC_26 
REMARK   16  A    between atoms: CBF_25  and  CCC_31 
REMARK   17  A    between atoms: CBC_26  and  CBE_27 
REMARK   18  A    between atoms: CBE_27  and  NCA_28 
REMARK   19  A    between atoms: NCA_28  and  NBM_29 
REMARK   20  A    between atoms: NCA_28  and  CBG_43 
REMARK       I    between atoms: NBM_29  and  CBQ_30 
REMARK   21  A    between atoms: CBQ_30  and  CBZ_33 
REMARK   22  A    between atoms: CBZ_33  and  CCB_34 
REMARK   23  A    between atoms: CBZ_33  and  NBK_38 
REMARK   24  A    between atoms: CCB_34  and  CAG_35 
REMARK   25  A    between atoms: CCB_34  and  CAH_36 
REMARK   26  A    between atoms: CCB_34  and  CAF_37 
REMARK       I    between atoms: NBK_38  and  CBO_39 
REMARK   27  A    between atoms: CBO_39  and  OBN_41 
REMARK   28  A    between atoms: OBN_41  and  CAC_42 
REMARK   29  A    between atoms: CBG_43  and  CBT_44 
REMARK   30  A    between atoms: CBW_49  and  CAR_51 
ROOT
ATOM      1  CBC 9MW d   1      13.775  24.000   6.360  0.00  0.00    -0.037 C 
ATOM      2  H   9MW d   1      13.273  23.505   7.205  0.00  0.00     0.035 H 
ATOM      3  H   9MW d   1      13.628  25.088   6.432  0.00  0.00     0.035 H 
ENDROOT
BRANCH   1   4
ATOM      4  CBF 9MW d   1      13.193  23.488   5.043  0.00  0.00    -0.026 C 
ATOM      5  H   9MW d   1      12.790  22.475   5.193  0.00  0.00     0.038 H 
ATOM      6  H   9MW d   1      13.987  23.458   4.282  0.00  0.00     0.038 H 
BRANCH   4   7
ATOM      7  CCC 9MW d   1      12.072  24.412   4.567  0.00  0.00     0.142 C 
BRANCH   7   8
ATOM      8  CBH 9MW d   1      11.599  23.914   3.198  0.00  0.00    -0.004 C 
ATOM      9  H   9MW d   1      12.228  24.357   2.412  0.00  0.00     0.045 H 
ATOM     10  H   9MW d   1      11.682  22.818   3.160  0.00  0.00     0.045 H 
BRANCH   8  11
ATOM     11  CBU 9MW d   1      10.279  24.281   2.990  0.00  0.00    -0.055 A 
ATOM     12  CAV 9MW d   1       9.255  23.387   3.277  0.00  0.00    -0.076 A 
ATOM     13  CAT 9MW d   1       7.931  23.772   3.102  0.00  0.00    -0.076 A 
ATOM     14  H   9MW d   1       9.488  22.391   3.637  0.00  0.00     0.084 H 
ATOM     15  CBS 9MW d   1       7.634  25.010   2.546  0.00  0.00    -0.055 A 
ATOM     16  H   9MW d   1       7.129  23.106   3.400  0.00  0.00     0.084 H 
ATOM     17  CAU 9MW d   1       8.660  25.892   2.228  0.00  0.00    -0.076 A 
ATOM     18  CAW 9MW d   1       9.985  25.515   2.423  0.00  0.00    -0.076 A 
ATOM     19  H   9MW d   1       8.428  26.873   1.829  0.00  0.00     0.084 H 
ATOM     20  H   9MW d   1      10.787  26.183   2.133  0.00  0.00     0.084 H 
BRANCH  15  21
ATOM     21  CBD 9MW d   1       6.307  25.392   2.379  0.00  0.00    -0.027 C 
ATOM     22  H   9MW d   1       5.647  24.593   2.749  0.00  0.00     0.045 H 
ATOM     23  H   9MW d   1       6.119  26.316   2.946  0.00  0.00     0.045 H 
BRANCH  21  24
ATOM     24  CAO 9MW d   1       6.024  25.638   0.898  0.00  0.00    -0.108 C 
ATOM     25  CAB 9MW d   1       4.952  25.059   0.343  0.00  0.00    -0.124 C 
ATOM     26  H   9MW d   1       4.731  25.220  -0.711  0.00  0.00     0.066 H 
ATOM     27  H   9MW d   1       4.301  24.427   0.946  0.00  0.00     0.066 H 
ATOM     28  H   9MW d   1       6.682  26.272   0.305  0.00  0.00     0.076 H 
ENDBRANCH  21  24
ENDBRANCH  15  21
ENDBRANCH   8  11
ENDBRANCH   7   8
BRANCH   7  29
ATOM     29  CBR 9MW d   1      10.910  24.392   5.567  0.00  0.00     0.253 C 
ATOM     30  OAL 9MW d   1      10.520  23.334   6.057  0.00  0.00    -0.270 OA
ATOM     31  N   9MW d   1      10.350  25.584   5.837  0.00  0.00    -0.345 N 
ATOM     32  H   9MW d   1      10.765  26.420   5.477  0.00  0.00     0.163 HD
BRANCH  31  33
ATOM     33  CA  9MW d   1       9.128  25.669   6.660  0.00  0.00     0.092 C 
ATOM     34  H   9MW d   1       8.664  24.673   6.698  0.00  0.00     0.088 H 
BRANCH  33  35
ATOM     35  CB  9MW d   1       9.458  26.108   8.096  0.00  0.00    -0.033 C 
ATOM     36  H   9MW d   1       8.788  25.581   8.791  0.00  0.00     0.042 H 
BRANCH  35  37
ATOM     37  CG1 9MW d   1       9.250  27.615   8.250  0.00  0.00    -0.071 C 
ATOM     38  H   9MW d   1       9.489  27.915   9.281  0.00  0.00     0.028 H 
ATOM     39  H   9MW d   1       8.202  27.865   8.030  0.00  0.00     0.028 H 
ATOM     40  H   9MW d   1       9.909  28.150   7.550  0.00  0.00     0.028 H 
ENDBRANCH  35  37
BRANCH  35  41
ATOM     41  CG2 9MW d   1      10.908  25.758   8.440  0.00  0.00    -0.071 C 
ATOM     42  H   9MW d   1      11.060  24.674   8.330  0.00  0.00     0.028 H 
ATOM     43  H   9MW d   1      11.120  26.054   9.478  0.00  0.00     0.028 H 
ATOM     44  H   9MW d   1      11.586  26.294   7.760  0.00  0.00     0.028 H 
ENDBRANCH  35  41
ENDBRANCH  33  35
BRANCH  33  45
ATOM     45  C   9MW d   1       8.134  26.650   6.025  0.00  0.00     0.241 C 
ATOM     46  O   9MW d   1       8.498  27.750   5.613  0.00  0.00    -0.271 OA
ATOM     47  NBJ 9MW d   1       6.891  26.172   5.873  0.00  0.00    -0.356 N 
ATOM     48  H   9MW d   1       6.684  25.252   6.204  0.00  0.00     0.162 HD
BRANCH  47  49
ATOM     49  CBB 9MW d   1       5.822  26.955   5.236  0.00  0.00     0.010 C 
ATOM     50  H   9MW d   1       5.043  26.276   4.860  0.00  0.00     0.070 H 
ATOM     51  H   9MW d   1       6.239  27.534   4.399  0.00  0.00     0.070 H 
BRANCH  49  52
ATOM     52  CAN 9MW d   1       5.215  27.908   6.263  0.00  0.00    -0.095 C 
ATOM     53  H   9MW d   1       5.267  28.986   6.117  0.00  0.00     0.078 H 
BRANCH  52  54
ATOM     54  CAA 9MW d   1       4.617  27.395   7.347  0.00  0.00    -0.123 C 
ATOM     55  H   9MW d   1       4.178  28.058   8.091  0.00  0.00     0.066 H 
ATOM     56  H   9MW d   1       4.570  26.316   7.484  0.00  0.00     0.066 H 
ENDBRANCH  52  54
ENDBRANCH  49  52
ENDBRANCH  47  49
ENDBRANCH  33  45
ENDBRANCH  31  33
ENDBRANCH   7  29
BRANCH   7  57
ATOM     57  OAM 9MW d   1      12.573  25.743   4.450  0.00  0.00    -0.380 OA
ATOM     58  H   9MW d   1      13.293  25.756   3.830  0.00  0.00     0.211 HD
ENDBRANCH   7  57
ENDBRANCH   4   7
ENDBRANCH   1   4
BRANCH   1  59
ATOM     59  CBE 9MW d   1      15.268  23.679   6.389  0.00  0.00     0.105 C 
ATOM     60  H   9MW d   1      15.777  24.395   7.051  0.00  0.00     0.079 H 
ATOM     61  H   9MW d   1      15.675  23.767   5.371  0.00  0.00     0.079 H 
BRANCH  59  62
ATOM     62  NCA 9MW d   1      15.503  22.314   6.885  0.00  0.00     0.015 N 
ATOM     63  H   9MW d   1      14.631  21.877   7.141  0.00  0.00     0.309 HD
BRANCH  62  64
ATOM     64  NBM 9MW d   1      16.040  21.686   6.049  0.00  0.00    -0.185 N 
ATOM     65  CBQ 9MW d   1      15.386  20.637   5.519  0.00  0.00     0.265 C 
ATOM     66  OAK 9MW d   1      14.286  20.244   5.910  0.00  0.00    -0.269 OA
ATOM     67  H   9MW d   1      16.960  21.926   5.739  0.00  0.00     0.197 HD
BRANCH  65  68
ATOM     68  CBZ 9MW d   1      16.251  19.773   4.589  0.00  0.00     0.099 C 
ATOM     69  H   9MW d   1      17.008  20.413   4.112  0.00  0.00     0.088 H 
BRANCH  68  70
ATOM     70  CCB 9MW d   1      15.411  19.104   3.492  0.00  0.00    -0.022 C 
BRANCH  70  71
ATOM     71  CAG 9MW d   1      16.348  18.379   2.524  0.00  0.00    -0.067 C 
ATOM     72  H   9MW d   1      15.756  17.896   1.733  0.00  0.00     0.028 H 
ATOM     73  H   9MW d   1      16.921  17.616   3.071  0.00  0.00     0.028 H 
ATOM     74  H   9MW d   1      17.041  19.104   2.072  0.00  0.00     0.028 H 
ENDBRANCH  70  71
BRANCH  70  75
ATOM     75  CAH 9MW d   1      14.617  20.163   2.724  0.00  0.00    -0.067 C 
ATOM     76  H   9MW d   1      13.941  20.688   3.416  0.00  0.00     0.028 H 
ATOM     77  H   9MW d   1      14.027  19.677   1.933  0.00  0.00     0.028 H 
ATOM     78  H   9MW d   1      15.312  20.886   2.272  0.00  0.00     0.028 H 
ENDBRANCH  70  75
BRANCH  70  79
ATOM     79  CAF 9MW d   1      14.446  18.090   4.111  0.00  0.00    -0.067 C 
ATOM     80  H   9MW d   1      15.018  17.329   4.663  0.00  0.00     0.028 H 
ATOM     81  H   9MW d   1      13.864  17.604   3.314  0.00  0.00     0.028 H 
ATOM     82  H   9MW d   1      13.763  18.608   4.801  0.00  0.00     0.028 H 
ENDBRANCH  70  79
ENDBRANCH  68  70
BRANCH  68  83
ATOM     83  NBK 9MW d   1      16.925  18.740   5.388  0.00  0.00    -0.323 N 
ATOM     84  CBO 9MW d   1      18.239  18.807   5.643  0.00  0.00     0.360 C 
ATOM     85  OAI 9MW d   1      18.929  19.679   5.113  0.00  0.00    -0.239 OA
ATOM     86  H   9MW d   1      16.393  17.973   5.748  0.00  0.00     0.165 HD
BRANCH  84  87
ATOM     87  OBN 9MW d   1      18.802  17.924   6.515  0.00  0.00    -0.309 OA
BRANCH  87  88
ATOM     88  CAC 9MW d   1      20.215  18.131   6.591  0.00  0.00     0.015 C 
ATOM     89  H   9MW d   1      20.654  17.411   7.298  0.00  0.00     0.067 H 
ATOM     90  H   9MW d   1      20.418  19.155   6.938  0.00  0.00     0.067 H 
ATOM     91  H   9MW d   1      20.661  17.986   5.596  0.00  0.00     0.067 H 
ENDBRANCH  87  88
ENDBRANCH  84  87
ENDBRANCH  68  83
ENDBRANCH  65  68
ENDBRANCH  62  64
BRANCH  62  92
ATOM     92  CBG 9MW d   1      16.390  22.415   8.054  0.00  0.00     0.128 C 
ATOM     93  H   9MW d   1      15.999  23.184   8.736  0.00  0.00     0.086 H 
ATOM     94  H   9MW d   1      17.397  22.702   7.717  0.00  0.00     0.086 H 
BRANCH  92  95
ATOM     95  CBT 9MW d   1      16.466  21.205   8.730  0.00  0.00    -0.030 A 
ATOM     96  CAX 9MW d   1      17.677  20.527   8.811  0.00  0.00    -0.074 A 
ATOM     97  CAZ 9MW d   1      17.754  19.324   9.504  0.00  0.00    -0.072 A 
ATOM     98  H   9MW d   1      18.561  20.936   8.334  0.00  0.00     0.084 H 
ATOM     99  CBW 9MW d   1      16.616  18.793  10.103  0.00  0.00    -0.025 A 
ATOM    100  H   9MW d   1      18.700  18.800   9.578  0.00  0.00     0.084 H 
ATOM    101  CBA 9MW d   1      15.412  19.484  10.040  0.00  0.00    -0.072 A 
ATOM    102  CAY 9MW d   1      15.336  20.691   9.356  0.00  0.00    -0.074 A 
ATOM    103  H   9MW d   1      14.531  19.081  10.525  0.00  0.00     0.084 H 
ATOM    104  H   9MW d   1      14.397  21.231   9.310  0.00  0.00     0.084 H 
BRANCH  99 105
ATOM    105  CAR 9MW d   1      16.689  17.596  10.807  0.00  0.00    -0.008 A 
ATOM    106  CBV 9MW d   1      17.858  17.252  11.480  0.00  0.00    -0.070 A 
ATOM    107  CAS 9MW d   1      17.920  16.079  12.223  0.00  0.00    -0.065 A 
ATOM    108  H   9MW d   1      18.724  17.902  11.424  0.00  0.00     0.085 H 
ATOM    109  CAQ 9MW d   1      16.807  15.253  12.317  0.00  0.00     0.002 A 
ATOM    110  H   9MW d   1      18.839  15.808  12.730  0.00  0.00     0.085 H 
ATOM    111  NBI 9MW d   1      15.616  15.612  11.671  0.00  0.00    -0.272 NA
ATOM    112  H   9MW d   1      16.860  14.333  12.888  0.00  0.00     0.114 H 
ATOM    113  CAP 9MW d   1      15.561  16.790  10.918  0.00  0.00     0.012 A 
ATOM    114  H   9MW d   1      14.640  17.074  10.422  0.00  0.00     0.116 H 
ENDBRANCH  99 105
ENDBRANCH  92  95
ENDBRANCH  62  92
ENDBRANCH  59  62
ENDBRANCH   1  59
TORSDOF 30
