REMARK  19 active torsions:
REMARK  status: ('A' for Active; 'I' for Inactive)
REMARK    1  A    between atoms: CA_15  and  CB_16 
REMARK    2  A    between atoms: CB_16  and  CG1_17 
REMARK    3  A    between atoms: CB_16  and  CG2_18 
REMARK    4  A    between atoms: CCA_22  and  OAK_23 
REMARK    5  A    between atoms: CCA_22  and  CBD_24 
REMARK    6  A    between atoms: CBD_24  and  CBA_25 
REMARK    7  A    between atoms: CBA_25  and  CBC_26 
REMARK    8  A    between atoms: CBC_26  and  NBY_27 
REMARK    9  A    between atoms: NBY_27  and  NBK_28 
REMARK       I    between atoms: NBK_28  and  CBO_29 
REMARK   10  A    between atoms: CBO_29  and  CBX_31 
REMARK   11  A    between atoms: CBX_31  and  CBZ_32 
REMARK   12  A    between atoms: CBX_31  and  NBI_36 
REMARK   13  A    between atoms: CBZ_32  and  CAD_33 
REMARK   14  A    between atoms: CBZ_32  and  CAE_34 
REMARK   15  A    between atoms: CBZ_32  and  CAF_35 
REMARK       I    between atoms: NBI_36  and  CBM_37 
REMARK   16  A    between atoms: CBM_37  and  OBL_39 
REMARK   17  A    between atoms: OBL_39  and  CAA_40 
REMARK   18  A    between atoms: CBE_41  and  CXQ_42 
REMARK   19  A    between atoms: CXA_47  and  CXY_48 
ROOT
ATOM      1  CBC V78 d   1      15.237  23.783   6.490  0.00  0.00     0.015 C 
ATOM      2  H   V78 d   1      15.670  24.534   7.168  0.00  0.00     0.067 H 
ATOM      3  H   V78 d   1      15.685  23.889   5.491  0.00  0.00     0.067 H 
ENDROOT
BRANCH   1   4
ATOM      4  CBA V78 d   1      13.728  24.003   6.391  0.00  0.00    -0.045 C 
ATOM      5  H   V78 d   1      13.230  23.550   7.261  0.00  0.00     0.035 H 
ATOM      6  H   V78 d   1      13.513  25.081   6.365  0.00  0.00     0.035 H 
BRANCH   4   7
ATOM      7  CBD V78 d   1      13.217  23.346   5.107  0.00  0.00    -0.026 C 
ATOM      8  H   V78 d   1      14.036  23.296   4.374  0.00  0.00     0.038 H 
ATOM      9  H   V78 d   1      12.866  22.329   5.334  0.00  0.00     0.038 H 
BRANCH   7  10
ATOM     10  CCA V78 d   1      12.063  24.160   4.521  0.00  0.00     0.142 C 
ATOM     11  CBF V78 d   1      11.562  23.497   3.398  0.00  0.00    -0.004 C 
ATOM     12  CBS V78 d   1      10.329  23.868   2.868  0.00  0.00    -0.055 A 
ATOM     13  H   V78 d   1      12.304  23.623   2.596  0.00  0.00     0.045 H 
ATOM     14  H   V78 d   1      11.487  22.432   3.664  0.00  0.00     0.045 H 
ATOM     15  CAT V78 d   1       9.220  23.044   3.030  0.00  0.00    -0.076 A 
ATOM     16  CAU V78 d   1      10.162  25.150   2.360  0.00  0.00    -0.076 A 
ATOM     17  CAR V78 d   1       7.954  23.493   2.666  0.00  0.00    -0.076 A 
ATOM     18  H   V78 d   1       9.342  22.049   3.441  0.00  0.00     0.084 H 
ATOM     19  CBQ V78 d   1       7.780  24.793   2.201  0.00  0.00    -0.055 A 
ATOM     20  H   V78 d   1       7.101  22.828   2.745  0.00  0.00     0.084 H 
ATOM     21  CAS V78 d   1       8.898  25.589   1.978  0.00  0.00    -0.076 A 
ATOM     22  CBB V78 d   1       6.543  25.213   1.713  0.00  0.00    -0.026 C 
ATOM     23  H   V78 d   1       8.784  26.557   1.504  0.00  0.00     0.084 H 
ATOM     24  CAM V78 d   1       5.503  24.862   2.574  0.00  0.00    -0.101 C 
ATOM     25  H   V78 d   1       6.368  24.744   0.733  0.00  0.00     0.045 H 
ATOM     26  H   V78 d   1       6.558  26.307   1.599  0.00  0.00     0.045 H 
ATOM     27  CAL V78 d   1       5.298  25.477   3.811  0.00  0.00    -0.089 C 
ATOM     28  H   V78 d   1       4.819  24.072   2.267  0.00  0.00     0.076 H 
ATOM     29  CAZ V78 d   1       6.167  26.439   4.322  0.00  0.00     0.010 C 
ATOM     30  H   V78 d   1       4.426  25.194   4.399  0.00  0.00     0.078 H 
ATOM     31  NBH V78 d   1       7.093  25.804   5.293  0.00  0.00    -0.356 N 
ATOM     32  H   V78 d   1       5.587  27.225   4.828  0.00  0.00     0.070 H 
ATOM     33  H   V78 d   1       6.747  26.883   3.499  0.00  0.00     0.070 H 
ATOM     34  C   V78 d   1       8.251  26.481   5.693  0.00  0.00     0.241 C 
ATOM     35  H   V78 d   1       6.890  24.896   5.660  0.00  0.00     0.162 HD
ATOM     36  O   V78 d   1       8.460  27.608   5.245  0.00  0.00    -0.271 OA
ATOM     37  CA  V78 d   1       9.234  25.805   6.423  0.00  0.00     0.092 C 
ATOM     38  N   V78 d   1      10.419  25.588   5.552  0.00  0.00    -0.345 N 
ATOM     39  H   V78 d   1       8.842  24.831   6.752  0.00  0.00     0.088 H 
ATOM     40  CBP V78 d   1      11.046  24.340   5.469  0.00  0.00     0.253 C 
ATOM     41  H   V78 d   1      10.776  26.351   5.013  0.00  0.00     0.163 HD
ATOM     42  OAJ V78 d   1      10.551  23.384   6.067  0.00  0.00    -0.270 OA
ATOM     43  H   V78 d   1      11.017  25.809   2.261  0.00  0.00     0.084 H 
BRANCH  37  44
ATOM     44  CB  V78 d   1       9.618  26.635   7.653  0.00  0.00    -0.033 C 
ATOM     45  H   V78 d   1      10.176  27.526   7.330  0.00  0.00     0.042 H 
BRANCH  44  46
ATOM     46  CG1 V78 d   1       8.354  27.074   8.399  0.00  0.00    -0.071 C 
ATOM     47  H   V78 d   1       8.636  27.669   9.280  0.00  0.00     0.028 H 
ATOM     48  H   V78 d   1       7.791  26.186   8.721  0.00  0.00     0.028 H 
ATOM     49  H   V78 d   1       7.727  27.683   7.731  0.00  0.00     0.028 H 
ENDBRANCH  44  46
BRANCH  44  50
ATOM     50  CG2 V78 d   1      10.500  25.794   8.578  0.00  0.00    -0.071 C 
ATOM     51  H   V78 d   1      11.406  25.482   8.037  0.00  0.00     0.028 H 
ATOM     52  H   V78 d   1       9.943  24.904   8.906  0.00  0.00     0.028 H 
ATOM     53  H   V78 d   1      10.785  26.392   9.456  0.00  0.00     0.028 H 
ENDBRANCH  44  50
ENDBRANCH  37  44
BRANCH  10  54
ATOM     54  OAK V78 d   1      12.565  25.439   4.132  0.00  0.00    -0.380 OA
ATOM     55  H   V78 d   1      13.255  25.325   3.489  0.00  0.00     0.211 HD
ENDBRANCH  10  54
ENDBRANCH   7  10
ENDBRANCH   4   7
ENDBRANCH   1   4
BRANCH   1  56
ATOM     56  NBY V78 d   1      15.523  22.439   7.010  0.00  0.00    -0.300 N 
ATOM     57  CBE V78 d   1      15.655  22.278   8.334  0.00  0.00     0.006 C 
ATOM     58  H   V78 d   1      15.531  23.112   9.023  0.00  0.00     0.115 H 
BRANCH  56  59
ATOM     59  NBK V78 d   1      16.093  21.624   6.311  0.00  0.00    -0.266 N 
ATOM     60  CBO V78 d   1      15.364  20.668   5.692  0.00  0.00     0.259 C 
ATOM     61  OAI V78 d   1      14.289  20.250   6.119  0.00  0.00    -0.269 OA
ATOM     62  H   V78 d   1      17.086  21.660   6.196  0.00  0.00     0.190 HD
BRANCH  60  63
ATOM     63  CBX V78 d   1      16.233  19.775   4.788  0.00  0.00     0.099 C 
ATOM     64  H   V78 d   1      17.010  20.407   4.333  0.00  0.00     0.088 H 
BRANCH  63  65
ATOM     65  CBZ V78 d   1      15.458  19.086   3.653  0.00  0.00    -0.022 C 
BRANCH  65  66
ATOM     66  CAD V78 d   1      14.542  17.993   4.208  0.00  0.00    -0.067 C 
ATOM     67  H   V78 d   1      13.999  17.515   3.380  0.00  0.00     0.028 H 
ATOM     68  H   V78 d   1      13.822  18.439   4.910  0.00  0.00     0.028 H 
ATOM     69  H   V78 d   1      15.147  17.239   4.733  0.00  0.00     0.028 H 
ENDBRANCH  65  66
BRANCH  65  70
ATOM     70  CAE V78 d   1      14.626  20.111   2.876  0.00  0.00    -0.067 C 
ATOM     71  H   V78 d   1      15.288  20.895   2.479  0.00  0.00     0.028 H 
ATOM     72  H   V78 d   1      13.882  20.565   3.548  0.00  0.00     0.028 H 
ATOM     73  H   V78 d   1      14.111  19.610   2.044  0.00  0.00     0.028 H 
ENDBRANCH  65  70
BRANCH  65  74
ATOM     74  CAF V78 d   1      16.475  18.440   2.706  0.00  0.00    -0.067 C 
ATOM     75  H   V78 d   1      17.075  17.703   3.260  0.00  0.00     0.028 H 
ATOM     76  H   V78 d   1      17.137  19.216   2.294  0.00  0.00     0.028 H 
ATOM     77  H   V78 d   1      15.943  17.937   1.885  0.00  0.00     0.028 H 
ENDBRANCH  65  74
ENDBRANCH  63  65
BRANCH  63  78
ATOM     78  NBI V78 d   1      16.876  18.751   5.615  0.00  0.00    -0.323 N 
ATOM     79  CBM V78 d   1      18.204  18.733   5.753  0.00  0.00     0.360 C 
ATOM     80  OAG V78 d   1      18.897  19.504   5.086  0.00  0.00    -0.239 OA
ATOM     81  H   V78 d   1      16.318  18.062   6.078  0.00  0.00     0.165 HD
BRANCH  79  82
ATOM     82  OBL V78 d   1      18.780  17.874   6.638  0.00  0.00    -0.309 OA
BRANCH  82  83
ATOM     83  CAA V78 d   1      20.170  18.172   6.782  0.00  0.00     0.015 C 
ATOM     84  H   V78 d   1      20.623  17.471   7.499  0.00  0.00     0.067 H 
ATOM     85  H   V78 d   1      20.288  19.201   7.151  0.00  0.00     0.067 H 
ATOM     86  H   V78 d   1      20.669  18.072   5.807  0.00  0.00     0.067 H 
ENDBRANCH  82  83
ENDBRANCH  79  82
ENDBRANCH  63  78
ENDBRANCH  60  63
ENDBRANCH  56  59
BRANCH  57  87
ATOM     87  CXQ V78 d   1      15.957  21.000   8.788  0.00  0.00    -0.019 C 
ATOM     88  CXV V78 d   1      17.279  20.569   8.857  0.00  0.00    -0.071 C 
ATOM     89  CXW V78 d   1      17.580  19.338   9.434  0.00  0.00    -0.072 C 
ATOM     90  H   V78 d   1      18.074  21.191   8.462  0.00  0.00     0.084 H 
ATOM     91  CXA V78 d   1      16.567  18.580  10.014  0.00  0.00    -0.029 C 
ATOM     92  H   V78 d   1      18.600  18.971   9.431  0.00  0.00     0.084 H 
ATOM     93  CXR V78 d   1      15.263  19.054  10.014  0.00  0.00    -0.072 C 
ATOM     94  CXP V78 d   1      14.966  20.282   9.442  0.00  0.00    -0.071 C 
ATOM     95  H   V78 d   1      14.473  18.462  10.463  0.00  0.00     0.084 H 
ATOM     96  H   V78 d   1      13.960  20.681   9.506  0.00  0.00     0.084 H 
BRANCH  91  97
ATOM     97  CXY V78 d   1      16.818  17.385  10.544  0.00  0.00    -0.042 C 
ATOM     98  CXZ V78 d   1      15.827  16.474  10.645  0.00  0.00    -0.086 C 
ATOM     99  CXT V78 d   1      16.174  15.384  11.341  0.00  0.00    -0.007 C 
ATOM    100  H   V78 d   1      14.841  16.612  10.203  0.00  0.00     0.079 H 
ATOM    101  SAI V78 d   1      17.642  15.691  12.035  0.00  0.00    -0.161 SA
ATOM    102  H   V78 d   1      16.249  14.516  10.669  0.00  0.00     0.054 H 
ATOM    103  H   V78 d   1      15.425  15.180  12.120  0.00  0.00     0.054 H 
ATOM    104  CXG V78 d   1      17.836  17.205  11.392  0.00  0.00     0.001 C 
ATOM    105  H   V78 d   1      17.808  17.963  12.188  0.00  0.00     0.056 H 
ATOM    106  H   V78 d   1      18.794  17.271  10.856  0.00  0.00     0.056 H 
ENDBRANCH  91  97
ENDBRANCH  57  87
ENDBRANCH   1  56
TORSDOF 19
