REMARK  20 active torsions:
REMARK  status: ('A' for Active; 'I' for Inactive)
REMARK    1  A    between atoms: CA_15  and  CB_16 
REMARK    2  A    between atoms: CB_16  and  CG1_17 
REMARK    3  A    between atoms: CB_16  and  CG2_18 
REMARK    4  A    between atoms: CCA_22  and  OAK_23 
REMARK    5  A    between atoms: CBD_24  and  CCA_22 
REMARK    6  A    between atoms: CBA_25  and  CBD_24 
REMARK    7  A    between atoms: CBC_26  and  CBA_25 
REMARK    8  A    between atoms: NBY_27  and  CBC_26 
REMARK    9  A    between atoms: NBY_27  and  NBK_28 
REMARK   10  A    between atoms: CBE_41  and  NBY_27 
REMARK       I    between atoms: NBK_28  and  CBO_29 
REMARK   11  A    between atoms: CBO_29  and  CBX_31 
REMARK   12  A    between atoms: CBX_31  and  CBZ_32 
REMARK   13  A    between atoms: CBX_31  and  NBI_36 
REMARK   14  A    between atoms: CBZ_32  and  CAD_33 
REMARK   15  A    between atoms: CBZ_32  and  CAE_34 
REMARK   16  A    between atoms: CBZ_32  and  CAF_35 
REMARK       I    between atoms: NBI_36  and  CBM_37 
REMARK   17  A    between atoms: CBM_37  and  OBL_39 
REMARK   18  A    between atoms: OBL_39  and  CAA_40 
REMARK   19  A    between atoms: CXQ_42  and  CBE_41 
REMARK   20  A    between atoms: CXT_50  and  CXA_47 
ROOT
ATOM      1  CBC V78 d   1      15.245  23.735   6.765  0.00  0.00     0.105 C 
ATOM      2  H   V78 d   1      15.614  24.362   7.590  0.00  0.00     0.079 H 
ATOM      3  H   V78 d   1      15.859  23.910   5.869  0.00  0.00     0.079 H 
ENDROOT
BRANCH   1   4
ATOM      4  CBA V78 d   1      13.795  24.124   6.456  0.00  0.00    -0.037 C 
ATOM      5  H   V78 d   1      13.137  23.748   7.254  0.00  0.00     0.035 H 
ATOM      6  H   V78 d   1      13.714  25.220   6.400  0.00  0.00     0.035 H 
BRANCH   4   7
ATOM      7  CBD V78 d   1      13.371  23.512   5.115  0.00  0.00    -0.026 C 
ATOM      8  H   V78 d   1      14.211  23.569   4.407  0.00  0.00     0.038 H 
ATOM      9  H   V78 d   1      13.091  22.459   5.268  0.00  0.00     0.038 H 
BRANCH   7  10
ATOM     10  CCA V78 d   1      12.171  24.279   4.543  0.00  0.00     0.142 C 
ATOM     11  CBF V78 d   1      11.656  23.592   3.442  0.00  0.00    -0.004 C 
ATOM     12  CBS V78 d   1      10.421  23.959   2.920  0.00  0.00    -0.055 A 
ATOM     13  H   V78 d   1      12.390  23.695   2.629  0.00  0.00     0.045 H 
ATOM     14  H   V78 d   1      11.578  22.534   3.733  0.00  0.00     0.045 H 
ATOM     15  CAT V78 d   1      10.271  25.199   2.314  0.00  0.00    -0.076 A 
ATOM     16  CAU V78 d   1       9.299  23.168   3.159  0.00  0.00    -0.076 A 
ATOM     17  CAR V78 d   1       9.003  25.656   1.976  0.00  0.00    -0.076 A 
ATOM     18  H   V78 d   1      11.142  25.810   2.105  0.00  0.00     0.084 H 
ATOM     19  CBQ V78 d   1       7.880  24.879   2.236  0.00  0.00    -0.055 A 
ATOM     20  H   V78 d   1       8.889  26.626   1.506  0.00  0.00     0.084 H 
ATOM     21  CAS V78 d   1       8.035  23.611   2.784  0.00  0.00    -0.076 A 
ATOM     22  CBB V78 d   1       6.629  25.336   1.830  0.00  0.00    -0.026 C 
ATOM     23  H   V78 d   1       7.172  22.969   2.919  0.00  0.00     0.084 H 
ATOM     24  CAM V78 d   1       5.624  24.908   2.695  0.00  0.00    -0.101 C 
ATOM     25  H   V78 d   1       6.419  24.953   0.821  0.00  0.00     0.045 H 
ATOM     26  H   V78 d   1       6.639  26.436   1.810  0.00  0.00     0.045 H 
ATOM     27  CAL V78 d   1       5.310  25.588   3.871  0.00  0.00    -0.089 C 
ATOM     28  H   V78 d   1       5.063  24.009   2.443  0.00  0.00     0.076 H 
ATOM     29  CAZ V78 d   1       6.158  26.549   4.416  0.00  0.00     0.010 C 
ATOM     30  H   V78 d   1       4.374  25.361   4.379  0.00  0.00     0.078 H 
ATOM     31  NBH V78 d   1       7.127  25.872   5.302  0.00  0.00    -0.356 N 
ATOM     32  H   V78 d   1       5.571  27.276   4.996  0.00  0.00     0.070 H 
ATOM     33  H   V78 d   1       6.694  27.071   3.610  0.00  0.00     0.070 H 
ATOM     34  C   V78 d   1       8.308  26.517   5.680  0.00  0.00     0.241 C 
ATOM     35  H   V78 d   1       6.937  24.948   5.633  0.00  0.00     0.162 HD
ATOM     36  O   V78 d   1       8.560  27.620   5.201  0.00  0.00    -0.271 OA
ATOM     37  CA  V78 d   1       9.269  25.821   6.414  0.00  0.00     0.092 C 
ATOM     38  N   V78 d   1      10.489  25.664   5.575  0.00  0.00    -0.345 N 
ATOM     39  H   V78 d   1       8.883  24.826   6.681  0.00  0.00     0.088 H 
ATOM     40  CBP V78 d   1      11.168  24.448   5.515  0.00  0.00     0.253 C 
ATOM     41  H   V78 d   1      10.826  26.443   5.046  0.00  0.00     0.163 HD
ATOM     42  OAJ V78 d   1      10.668  23.484   6.096  0.00  0.00    -0.270 OA
ATOM     43  H   V78 d   1       9.412  22.203   3.639  0.00  0.00     0.084 H 
BRANCH  37  44
ATOM     44  CB  V78 d   1       9.576  26.603   7.698  0.00  0.00    -0.033 C 
ATOM     45  H   V78 d   1      10.035  27.568   7.437  0.00  0.00     0.042 H 
BRANCH  44  46
ATOM     46  CG1 V78 d   1      10.540  25.803   8.579  0.00  0.00    -0.071 C 
ATOM     47  H   V78 d   1      10.755  26.370   9.497  0.00  0.00     0.028 H 
ATOM     48  H   V78 d   1      11.477  25.625   8.030  0.00  0.00     0.028 H 
ATOM     49  H   V78 d   1      10.081  24.839   8.843  0.00  0.00     0.028 H 
ENDBRANCH  44  46
BRANCH  44  50
ATOM     50  CG2 V78 d   1       8.272  26.848   8.468  0.00  0.00    -0.071 C 
ATOM     51  H   V78 d   1       7.577  27.422   7.838  0.00  0.00     0.028 H 
ATOM     52  H   V78 d   1       8.489  27.414   9.386  0.00  0.00     0.028 H 
ATOM     53  H   V78 d   1       7.815  25.883   8.732  0.00  0.00     0.028 H 
ENDBRANCH  44  50
ENDBRANCH  37  44
BRANCH  10  54
ATOM     54  OAK V78 d   1      12.620  25.562   4.101  0.00  0.00    -0.380 OA
ATOM     55  H   V78 d   1      13.297  25.450   3.444  0.00  0.00     0.211 HD
ENDBRANCH  10  54
ENDBRANCH   7  10
ENDBRANCH   4   7
ENDBRANCH   1   4
BRANCH   1  56
ATOM     56  NBY V78 d   1      15.362  22.319   7.154  0.00  0.00     0.015 N 
ATOM     57  H   V78 d   1      14.450  21.918   7.305  0.00  0.00     0.309 HD
BRANCH  56  58
ATOM     58  NBK V78 d   1      15.937  21.725   6.277  0.00  0.00    -0.185 N 
ATOM     59  CBO V78 d   1      15.304  20.697   5.681  0.00  0.00     0.265 C 
ATOM     60  OAI V78 d   1      14.222  20.259   6.070  0.00  0.00    -0.269 OA
ATOM     61  H   V78 d   1      16.861  21.989   5.999  0.00  0.00     0.197 HD
BRANCH  59  62
ATOM     62  CBX V78 d   1      16.224  19.851   4.781  0.00  0.00     0.099 C 
ATOM     63  H   V78 d   1      17.000  20.510   4.364  0.00  0.00     0.088 H 
BRANCH  62  64
ATOM     64  CBZ V78 d   1      15.480  19.179   3.617  0.00  0.00    -0.022 C 
BRANCH  64  65
ATOM     65  CAD V78 d   1      14.612  20.199   2.871  0.00  0.00    -0.067 C 
ATOM     66  H   V78 d   1      14.089  19.699   2.043  0.00  0.00     0.028 H 
ATOM     67  H   V78 d   1      15.250  21.000   2.471  0.00  0.00     0.028 H 
ATOM     68  H   V78 d   1      13.874  20.629   3.564  0.00  0.00     0.028 H 
ENDBRANCH  64  65
BRANCH  64  69
ATOM     69  CAE V78 d   1      16.514  18.604   2.652  0.00  0.00    -0.067 C 
ATOM     70  H   V78 d   1      17.141  17.871   3.181  0.00  0.00     0.028 H 
ATOM     71  H   V78 d   1      17.147  19.417   2.266  0.00  0.00     0.028 H 
ATOM     72  H   V78 d   1      15.999  18.110   1.815  0.00  0.00     0.028 H 
ENDBRANCH  64  69
BRANCH  64  73
ATOM     73  CAF V78 d   1      14.605  18.037   4.143  0.00  0.00    -0.067 C 
ATOM     74  H   V78 d   1      13.856  18.440   4.840  0.00  0.00     0.028 H 
ATOM     75  H   V78 d   1      15.235  17.303   4.667  0.00  0.00     0.028 H 
ATOM     76  H   V78 d   1      14.095  17.547   3.300  0.00  0.00     0.028 H 
ENDBRANCH  64  73
ENDBRANCH  62  64
BRANCH  62  77
ATOM     77  NBI V78 d   1      16.861  18.806   5.592  0.00  0.00    -0.323 N 
ATOM     78  CBM V78 d   1      18.185  18.780   5.767  0.00  0.00     0.360 C 
ATOM     79  OAG V78 d   1      18.900  19.563   5.142  0.00  0.00    -0.239 OA
ATOM     80  H   V78 d   1      16.294  18.102   6.020  0.00  0.00     0.165 HD
BRANCH  78  81
ATOM     81  OBL V78 d   1      18.730  17.915   6.667  0.00  0.00    -0.309 OA
BRANCH  81  82
ATOM     82  CAA V78 d   1      20.159  17.938   6.559  0.00  0.00     0.015 C 
ATOM     83  H   V78 d   1      20.593  17.238   7.288  0.00  0.00     0.067 H 
ATOM     84  H   V78 d   1      20.526  18.955   6.764  0.00  0.00     0.067 H 
ATOM     85  H   V78 d   1      20.455  17.639   5.543  0.00  0.00     0.067 H 
ENDBRANCH  81  82
ENDBRANCH  78  81
ENDBRANCH  62  77
ENDBRANCH  59  62
ENDBRANCH  56  58
BRANCH  56  86
ATOM     86  CBE V78 d   1      16.087  22.262   8.276  0.00  0.00     0.128 C 
ATOM     87  H   V78 d   1      15.546  22.828   9.049  0.00  0.00     0.086 H 
ATOM     88  H   V78 d   1      17.051  22.750   8.072  0.00  0.00     0.086 H 
BRANCH  86  89
ATOM     89  CXQ V78 d   1      16.360  20.996   8.797  0.00  0.00    -0.030 A 
ATOM     90  CXV V78 d   1      17.672  20.544   8.878  0.00  0.00    -0.075 A 
ATOM     91  CXW V78 d   1      17.957  19.307   9.445  0.00  0.00    -0.075 A 
ATOM     92  H   V78 d   1      18.478  21.160   8.497  0.00  0.00     0.084 H 
ATOM     93  CXA V78 d   1      16.926  18.480   9.873  0.00  0.00    -0.041 A 
ATOM     94  H   V78 d   1      18.987  18.987   9.553  0.00  0.00     0.084 H 
ATOM     95  CXR V78 d   1      15.613  18.936   9.809  0.00  0.00    -0.075 A 
ATOM     96  CXP V78 d   1      15.331  20.195   9.285  0.00  0.00    -0.075 A 
ATOM     97  H   V78 d   1      14.806  18.308  10.169  0.00  0.00     0.084 H 
ATOM     98  H   V78 d   1      14.308  20.552   9.257  0.00  0.00     0.084 H 
BRANCH  93  99
ATOM     99  CXT V78 d   1      17.214  17.315  10.458  0.00  0.00     0.032 C 
ATOM    100  CXZ V78 d   1      16.458  16.785  11.433  0.00  0.00    -0.088 C 
ATOM    101  CXY V78 d   1      16.877  15.578  11.875  0.00  0.00    -0.096 C 
ATOM    102  H   V78 d   1      15.579  17.287  11.835  0.00  0.00     0.078 H 
ATOM    103  CXG V78 d   1      17.744  14.899  11.004  0.00  0.00    -0.007 C 
ATOM    104  H   V78 d   1      16.566  15.164  12.833  0.00  0.00     0.077 H 
ATOM    105  SAI V78 d   1      18.106  16.115   9.713  0.00  0.00    -0.152 SA
ATOM    106  H   V78 d   1      17.254  14.011  10.578  0.00  0.00     0.054 H 
ATOM    107  H   V78 d   1      18.664  14.596  11.525  0.00  0.00     0.054 H 
ATOM    108  H   V78 d   1      18.015  17.718  11.095  0.00  0.00     0.070 H 
ENDBRANCH  93  99
ENDBRANCH  86  89
ENDBRANCH  56  86
ENDBRANCH   1  56
TORSDOF 20
