REMARK  1 active torsions:
REMARK  status: ('A' for Active; 'I' for Inactive)
REMARK    1  A    between atoms: C7_7  and  N8_8 
ROOT
ATOM      1  O1  SXS d   1      17.086   0.381  14.075  0.00  0.00    -0.267 OA
ATOM      2  C2  SXS d   1      16.477   0.932  14.951  0.00  0.00     0.266 C 
ATOM      3  N3  SXS d   1      15.684   0.321  15.907  0.00  0.00    -0.246 N 
ATOM      4  C4  SXS d   1      16.374   2.424  14.842  0.00  0.00     0.056 A 
ATOM      5  C5  SXS d   1      16.926   3.298  13.949  0.00  0.00    -0.064 A 
ATOM      6  C6  SXS d   1      16.551   4.613  14.111  0.00  0.00    -0.057 A 
ATOM      7  C7  SXS d   1      15.590   4.928  15.064  0.00  0.00     0.027 A 
ATOM      8  C11 SXS d   1      15.068   4.066  15.971  0.00  0.00    -0.034 A 
ATOM      9  C12 SXS d   1      15.536   2.838  15.779  0.00  0.00     0.097 A 
ATOM     10  S13 SXS d   1      15.033   1.526  16.759  0.00  0.00     0.266 S 
ATOM     11  O14 SXS d   1      13.559   1.533  16.751  0.00  0.00    -0.200 OA
ATOM     12  O15 SXS d   1      15.662   1.615  18.064  0.00  0.00    -0.200 OA
ATOM     13  H   SXS d   1      15.544  -0.660  16.041  0.00  0.00     0.182 HD
ATOM     14  H   SXS d   1      17.609   2.980  13.170  0.00  0.00     0.085 H 
ATOM     15  H   SXS d   1      16.999   5.391  13.504  0.00  0.00     0.086 H 
ATOM     16  H   SXS d   1      14.364   4.342  16.748  0.00  0.00     0.089 H 
ENDROOT
BRANCH   7  17
ATOM     17  N8  SXS d   1      15.273   6.250  15.135  0.00  0.00    -0.399 N 
ATOM     18  H   SXS d   1      14.570   6.575  15.814  0.00  0.00     0.156 HD
ATOM     19  H   SXS d   1      15.736   6.925  14.510  0.00  0.00     0.156 HD
ENDBRANCH   7  17
TORSDOF 1
