REMARK  9 active torsions:
REMARK  status: ('A' for Active; 'I' for Inactive)
REMARK    1  A    between atoms: C12_8  and  S9_9 
REMARK    2  A    between atoms: S9_9  and  N8_12 
REMARK    3  A    between atoms: N8_12  and  C5_13 
REMARK    4  A    between atoms: C1_19  and  C20_20 
REMARK    5  A    between atoms: C22_22  and  C25_23 
REMARK    6  A    between atoms: N28_28  and  C37_29 
REMARK    7  A    between atoms: C24_33  and  C31_34 
REMARK    8  A    between atoms: C35_39  and  N40_40 
REMARK       I    between atoms: N40_40  and  C41_41 
REMARK    9  A    between atoms: C41_41  and  C43_43 
ROOT
ATOM      1  C20 CQE d   1      -1.626  50.095  21.745  0.00  0.00     0.089 A 
ATOM      2  N21 CQE d   1      -1.644  49.395  22.897  0.00  0.00    -0.243 NA
ATOM      3  C22 CQE d   1      -2.828  49.004  23.360  0.00  0.00     0.080 A 
ATOM      4  S23 CQE d   1      -3.987  49.491  22.388  0.00  0.00    -0.071 SA
ATOM      5  C24 CQE d   1      -2.890  50.323  21.253  0.00  0.00     0.046 A 
ENDROOT
BRANCH   1   6
ATOM      6  C1  CQE d   1      -0.369  50.496  21.387  0.00  0.00     0.035 A 
ATOM      7  C6  CQE d   1       0.672  49.552  21.343  0.00  0.00     0.156 A 
ATOM      8  C5  CQE d   1       1.987  49.876  21.043  0.00  0.00     0.082 A 
ATOM      9  F7  CQE d   1       0.425  48.316  21.545  0.00  0.00    -0.203 F 
ATOM     10  C4  CQE d   1       2.323  51.204  20.782  0.00  0.00    -0.053 A 
ATOM     11  C3  CQE d   1       1.290  52.167  20.843  0.00  0.00    -0.080 A 
ATOM     12  H   CQE d   1       3.341  51.488  20.541  0.00  0.00     0.087 H 
ATOM     13  C2  CQE d   1      -0.044  51.840  21.154  0.00  0.00    -0.068 A 
ATOM     14  H   CQE d   1       1.536  53.203  20.641  0.00  0.00     0.083 H 
ATOM     15  H   CQE d   1      -0.804  52.611  21.212  0.00  0.00     0.085 H 
BRANCH   8  16
ATOM     16  N8  CQE d   1       2.826  48.814  21.025  0.00  0.00    -0.277 N 
ATOM     17  H   CQE d   1       2.458  47.885  21.073  0.00  0.00     0.179 HD
BRANCH  16  18
ATOM     18  S9  CQE d   1       4.416  49.046  20.927  0.00  0.00     0.266 S 
ATOM     19  O10 CQE d   1       5.177  47.753  21.175  0.00  0.00    -0.200 OA
ATOM     20  O11 CQE d   1       4.822  50.184  21.825  0.00  0.00    -0.200 OA
BRANCH  18  21
ATOM     21  C12 CQE d   1       4.864  49.534  19.263  0.00  0.00     0.121 A 
ATOM     22  C13 CQE d   1       4.794  48.602  18.251  0.00  0.00     0.139 A 
ATOM     23  F18 CQE d   1       4.384  47.353  18.573  0.00  0.00    -0.204 F 
ATOM     24  C14 CQE d   1       5.136  48.941  16.930  0.00  0.00    -0.041 A 
ATOM     25  C15 CQE d   1       5.550  50.257  16.637  0.00  0.00    -0.043 A 
ATOM     26  H   CQE d   1       5.082  48.197  16.143  0.00  0.00     0.088 H 
ATOM     27  C16 CQE d   1       5.622  51.195  17.661  0.00  0.00     0.118 A 
ATOM     28  H   CQE d   1       5.810  50.535  15.622  0.00  0.00     0.088 H 
ATOM     29  F19 CQE d   1       6.035  52.521  17.349  0.00  0.00    -0.206 F 
ATOM     30  C17 CQE d   1       5.274  50.833  18.973  0.00  0.00    -0.020 A 
ATOM     31  H   CQE d   1       5.325  51.571  19.766  0.00  0.00     0.090 H 
ENDBRANCH  18  21
ENDBRANCH  16  18
ENDBRANCH   8  16
ENDBRANCH   1   6
BRANCH   5  32
ATOM     32  C31 CQE d   1      -3.370  50.889  20.115  0.00  0.00    -0.012 A 
ATOM     33  C36 CQE d   1      -4.751  51.155  19.941  0.00  0.00    -0.027 A 
ATOM     34  C35 CQE d   1      -5.282  51.693  18.741  0.00  0.00     0.130 A 
ATOM     35  H   CQE d   1      -5.429  50.938  20.758  0.00  0.00     0.090 H 
ATOM     36  N34 CQE d   1      -4.424  51.910  17.725  0.00  0.00    -0.243 NA
ATOM     37  C33 CQE d   1      -3.049  51.639  17.827  0.00  0.00     0.005 A 
ATOM     38  C32 CQE d   1      -2.526  51.107  19.017  0.00  0.00    -0.055 A 
ATOM     39  H   CQE d   1      -2.393  51.840  16.988  0.00  0.00     0.114 H 
ATOM     40  H   CQE d   1      -1.472  50.865  19.086  0.00  0.00     0.087 H 
BRANCH  34  41
ATOM     41  N40 CQE d   1      -6.609  51.978  18.483  0.00  0.00    -0.312 N 
ATOM     42  C41 CQE d   1      -7.615  51.689  19.371  0.00  0.00     0.219 C 
ATOM     43  O42 CQE d   1      -7.443  51.288  20.526  0.00  0.00    -0.274 OA
ATOM     44  H   CQE d   1      -6.846  52.412  17.614  0.00  0.00     0.170 HD
BRANCH  42  45
ATOM     45  C43 CQE d   1      -9.066  51.935  18.883  0.00  0.00    -0.002 C 
ATOM     46  H   CQE d   1      -9.772  51.666  19.682  0.00  0.00     0.040 H 
ATOM     47  H   CQE d   1      -9.264  51.316  17.995  0.00  0.00     0.040 H 
ATOM     48  H   CQE d   1      -9.191  52.997  18.625  0.00  0.00     0.040 H 
ENDBRANCH  42  45
ENDBRANCH  34  41
ENDBRANCH   5  32
BRANCH   3  49
ATOM     49  C25 CQE d   1      -2.993  48.186  24.648  0.00  0.00    -0.002 C 
ATOM     50  C30 CQE d   1      -3.959  48.890  25.606  0.00  0.00    -0.033 C 
ATOM     51  C29 CQE d   1      -4.039  48.095  26.905  0.00  0.00     0.085 C 
ATOM     52  H   CQE d   1      -4.957  48.947  25.147  0.00  0.00     0.036 H 
ATOM     53  H   CQE d   1      -3.594  49.906  25.817  0.00  0.00     0.036 H 
ATOM     54  N28 CQE d   1      -4.458  46.697  26.635  0.00  0.00    -0.067 N 
ATOM     55  H   CQE d   1      -4.771  48.569  27.575  0.00  0.00     0.076 H 
ATOM     56  H   CQE d   1      -3.050  48.090  27.387  0.00  0.00     0.076 H 
ATOM     57  C27 CQE d   1      -3.684  45.934  25.606  0.00  0.00     0.085 C 
ATOM     58  H   CQE d   1      -4.063  46.273  27.460  0.00  0.00     0.280 HD
ATOM     59  C26 CQE d   1      -3.442  46.732  24.317  0.00  0.00    -0.033 C 
ATOM     60  H   CQE d   1      -2.709  45.659  26.035  0.00  0.00     0.076 H 
ATOM     61  H   CQE d   1      -4.244  45.022  25.353  0.00  0.00     0.076 H 
ATOM     62  H   CQE d   1      -2.657  46.237  23.727  0.00  0.00     0.036 H 
ATOM     63  H   CQE d   1      -4.373  46.766  23.733  0.00  0.00     0.036 H 
ATOM     64  H   CQE d   1      -2.013  48.128  25.144  0.00  0.00     0.050 H 
BRANCH  54  65
ATOM     65  C37 CQE d   1      -5.885  46.292  26.858  0.00  0.00     0.104 A 
ATOM     66  C38 CQE d   1      -6.936  47.368  27.192  0.00  0.00    -0.036 A 
ATOM     67  C39 CQE d   1      -6.945  46.705  25.815  0.00  0.00    -0.036 A 
ATOM     68  H   CQE d   1      -6.631  48.420  27.293  0.00  0.00     0.036 H 
ATOM     69  H   CQE d   1      -7.737  47.148  27.913  0.00  0.00     0.036 H 
ATOM     70  H   CQE d   1      -7.752  46.008  25.546  0.00  0.00     0.036 H 
ATOM     71  H   CQE d   1      -6.646  47.280  24.926  0.00  0.00     0.036 H 
ATOM     72  H   CQE d   1      -5.926  45.304  27.340  0.00  0.00     0.084 H 
ENDBRANCH  54  65
ENDBRANCH   3  49
TORSDOF 9
