REMARK  10 active torsions:
REMARK  status: ('A' for Active; 'I' for Inactive)
REMARK    1  A    between atoms: C01_1  and  N02_2 
REMARK    2  A    between atoms: N02_2  and  C03_3 
REMARK    3  A    between atoms: N02_2  and  C33_33 
REMARK    4  A    between atoms: C03_3  and  C04_4 
REMARK    5  A    between atoms: C07_7  and  N10_10 
REMARK    6  A    between atoms: N10_10  and  C11_11 
REMARK    7  A    between atoms: C12_12  and  C30_30 
REMARK    8  A    between atoms: C18_18  and  C21_21 
REMARK    9  A    between atoms: C25_25  and  O29_29 
REMARK   10  A    between atoms: C30_30  and  C32_32 
ROOT
ATOM      1  C11 OT5 d   1       6.599  -7.089  29.336  0.00  0.00     0.075 A 
ATOM      2  C12 OT5 d   1       7.167  -5.772  29.392  0.00  0.00     0.056 A 
ATOM      3  C13 OT5 d   1       6.602  -4.874  28.488  0.00  0.00     0.019 A 
ATOM      4  N14 OT5 d   1       5.613  -5.201  27.627  0.00  0.00    -0.258 NA
ATOM      5  C15 OT5 d   1       5.056  -6.474  27.604  0.00  0.00     0.087 A 
ATOM      6  C16 OT5 d   1       5.540  -7.399  28.454  0.00  0.00     0.113 A 
ATOM      7  N17 OT5 d   1       5.033  -8.641  28.505  0.00  0.00    -0.244 NA
ATOM      8  C18 OT5 d   1       4.077  -9.111  27.721  0.00  0.00     0.068 A 
ATOM      9  C19 OT5 d   1       3.515  -8.175  26.826  0.00  0.00    -0.052 A 
ATOM     10  C20 OT5 d   1       4.011  -6.875  26.769  0.00  0.00    -0.051 A 
ATOM     11  H   OT5 d   1       6.977  -3.857  28.475  0.00  0.00     0.116 H 
ATOM     12  H   OT5 d   1       2.695  -8.469  26.181  0.00  0.00     0.087 H 
ATOM     13  H   OT5 d   1       3.582  -6.167  26.069  0.00  0.00     0.087 H 
ENDROOT
BRANCH   1  14
ATOM     14  N10 OT5 d   1       6.813  -8.382  30.162  0.00  0.00    -0.383 N 
ATOM     15  H   OT5 d   1       5.970  -8.968  30.244  0.00  0.00     0.160 HD
BRANCH  14  16
ATOM     16  C07 OT5 d   1       8.044  -8.960  30.884  0.00  0.00     0.010 C 
ATOM     17  C06 OT5 d   1       8.730 -10.193  30.466  0.00  0.00    -0.046 C 
ATOM     18  C05 OT5 d   1       8.634 -11.287  31.490  0.00  0.00    -0.058 C 
ATOM     19  H   OT5 d   1       8.276 -10.548  29.529  0.00  0.00     0.036 H 
ATOM     20  H   OT5 d   1       9.792  -9.964  30.295  0.00  0.00     0.036 H 
ATOM     21  C04 OT5 d   1       7.199 -11.607  31.925  0.00  0.00    -0.031 C 
ATOM     22  H   OT5 d   1       9.079 -12.199  31.065  0.00  0.00     0.033 H 
ATOM     23  H   OT5 d   1       9.205 -10.980  32.379  0.00  0.00     0.033 H 
ATOM     24  C09 OT5 d   1       6.456 -10.333  32.154  0.00  0.00    -0.058 C 
ATOM     25  H   OT5 d   1       6.643 -12.300  31.276  0.00  0.00     0.042 H 
ATOM     26  C08 OT5 d   1       7.378  -9.144  32.209  0.00  0.00    -0.046 C 
ATOM     27  H   OT5 d   1       5.913 -10.405  33.108  0.00  0.00     0.033 H 
ATOM     28  H   OT5 d   1       5.738 -10.188  31.333  0.00  0.00     0.033 H 
ATOM     29  H   OT5 d   1       6.798  -8.242  32.455  0.00  0.00     0.036 H 
ATOM     30  H   OT5 d   1       8.142  -9.310  32.982  0.00  0.00     0.036 H 
ATOM     31  H   OT5 d   1       8.821  -8.183  30.930  0.00  0.00     0.072 H 
BRANCH  21  32
ATOM     32  C03 OT5 d   1       7.691 -12.193  33.251  0.00  0.00     0.086 C 
ATOM     33  H   OT5 d   1       8.737 -12.480  33.070  0.00  0.00     0.076 H 
ATOM     34  H   OT5 d   1       7.658 -11.358  33.967  0.00  0.00     0.076 H 
BRANCH  32  35
ATOM     35  N02 OT5 d   1       7.043 -13.430  34.019  0.00  0.00    -0.078 N 
ATOM     36  H   OT5 d   1       7.842 -13.956  34.336  0.00  0.00     0.278 HD
BRANCH  35  37
ATOM     37  C01 OT5 d   1       6.331 -13.183  35.225  0.00  0.00     0.066 C 
ATOM     38  H   OT5 d   1       5.950 -14.133  35.627  0.00  0.00     0.068 H 
ATOM     39  H   OT5 d   1       5.488 -12.507  35.021  0.00  0.00     0.068 H 
ATOM     40  H   OT5 d   1       7.005 -12.718  35.960  0.00  0.00     0.068 H 
ENDBRANCH  35  37
BRANCH  35  41
ATOM     41  C33 OT5 d   1       6.337 -14.371  33.034  0.00  0.00     0.066 C 
ATOM     42  H   OT5 d   1       5.898 -15.216  33.585  0.00  0.00     0.068 H 
ATOM     43  H   OT5 d   1       7.066 -14.749  32.302  0.00  0.00     0.068 H 
ATOM     44  H   OT5 d   1       5.541 -13.822  32.509  0.00  0.00     0.068 H 
ENDBRANCH  35  41
ENDBRANCH  32  35
ENDBRANCH  21  32
ENDBRANCH  14  16
ENDBRANCH   1  14
BRANCH   2  45
ATOM     45  C30 OT5 d   1       8.276  -5.243  30.300  0.00  0.00     0.159 C 
ATOM     46  O31 OT5 d   1       8.496  -4.021  30.342  0.00  0.00    -0.293 OA
BRANCH  45  47
ATOM     47  C32 OT5 d   1       9.142  -6.093  31.262  0.00  0.00    -0.016 C 
ATOM     48  H   OT5 d   1       9.857  -5.441  31.785  0.00  0.00     0.038 H 
ATOM     49  H   OT5 d   1       9.692  -6.852  30.686  0.00  0.00     0.038 H 
ATOM     50  H   OT5 d   1       8.493  -6.590  31.998  0.00  0.00     0.038 H 
ENDBRANCH  45  47
ENDBRANCH   2  45
BRANCH   8  51
ATOM     51  C21 OT5 d   1       3.652 -10.388  27.916  0.00  0.00    -0.004 A 
ATOM     52  C22 OT5 d   1       4.404 -11.335  28.575  0.00  0.00    -0.047 A 
ATOM     53  C23 OT5 d   1       3.897 -12.602  28.800  0.00  0.00     0.069 A 
ATOM     54  H   OT5 d   1       5.401 -11.085  28.920  0.00  0.00     0.087 H 
ATOM     55 CL4  OT5 d   1       4.882 -13.805  29.569  0.00  0.00    -0.081 Cl
ATOM     56  C25 OT5 d   1       2.604 -12.922  28.388  0.00  0.00     0.109 A 
ATOM     57  C26 OT5 d   1       1.832 -11.982  27.757  0.00  0.00     0.069 A 
ATOM     58  C27 OT5 d   1       2.347 -10.722  27.543  0.00  0.00    -0.047 A 
ATOM     59 CL8  OT5 d   1       0.222 -12.371  27.254  0.00  0.00    -0.081 Cl
ATOM     60  H   OT5 d   1       1.724  -9.970  27.073  0.00  0.00     0.087 H 
BRANCH  56  61
ATOM     61  O29 OT5 d   1       2.076 -14.152  28.584  0.00  0.00    -0.357 OA
ATOM     62  H   OT5 d   1       1.854 -14.538  27.745  0.00  0.00     0.217 HD
ENDBRANCH  56  61
ENDBRANCH   8  51
TORSDOF 10
