REMARK  10 active torsions:
REMARK  status: ('A' for Active; 'I' for Inactive)
REMARK    1  A    between atoms: C14_14  and  C9_9 
REMARK    2  A    between atoms: C20_20  and  C10_10 
REMARK    3  A    between atoms: C11_11  and  N28_28 
REMARK    4  A    between atoms: C12_12  and  N29_29 
REMARK    5  A    between atoms: C21_21  and  C16_16 
REMARK    6  A    between atoms: C17_17  and  C22_22 
REMARK       I    between atoms: N30_30  and  C17_17 
REMARK       I    between atoms: N29_29  and  C18_18 
REMARK    7  A    between atoms: C18_18  and  O33_33 
REMARK    8  A    between atoms: O33_33  and  C19_19 
REMARK    9  A    between atoms: C22_22  and  C20_20 
REMARK   10  A    between atoms: C21_21  and  N30_30 
ROOT
ATOM      1  C21 OTJ d   1     -25.501 -52.535 -11.784  0.00  0.00     0.050 C 
ATOM      2  H14 OTJ d   1     -26.353 -51.840 -11.824  0.00  0.00     0.075 H 
ATOM      3  H15 OTJ d   1     -25.357 -52.996 -12.772  0.00  0.00     0.075 H 
ENDROOT
BRANCH   1   4
ATOM      4  C16 OTJ d   1     -25.802 -53.597 -10.805  0.00  0.00     0.124 A 
ATOM      5  N24 OTJ d   1     -26.723 -53.594  -9.851  0.00  0.00    -0.340 N 
ATOM      6  C14 OTJ d   1     -26.617 -54.802  -9.210  0.00  0.00     0.085 A 
ATOM      7  H18 OTJ d   1     -27.386 -52.836  -9.634  0.00  0.00     0.167 HD
ATOM      8  C15 OTJ d   1     -25.613 -55.530  -9.805  0.00  0.00     0.155 A 
ATOM      9  N27 OTJ d   1     -25.105 -54.771 -10.805  0.00  0.00    -0.219 NA
ATOM     10 CL5  OTJ d   1     -24.951 -57.106  -9.501  0.00  0.00    -0.060 Cl
BRANCH   6  11
ATOM     11  C9  OTJ d   1     -27.465 -55.214  -8.086  0.00  0.00    -0.006 A 
ATOM     12  C1  OTJ d   1     -28.720 -54.642  -7.994  0.00  0.00    -0.069 A 
ATOM     13  C4  OTJ d   1     -29.581 -55.011  -6.985  0.00  0.00    -0.056 A 
ATOM     14  H1  OTJ d   1     -29.028 -53.899  -8.720  0.00  0.00     0.085 H 
ATOM     15  C12 OTJ d   1     -29.201 -55.947  -6.045  0.00  0.00     0.036 A 
ATOM     16  H4  OTJ d   1     -30.566 -54.562  -6.928  0.00  0.00     0.086 H 
ATOM     17  C5  OTJ d   1     -27.934 -56.519  -6.089  0.00  0.00    -0.056 A 
ATOM     18  C2  OTJ d   1     -27.081 -56.142  -7.126  0.00  0.00    -0.069 A 
ATOM     19  H5  OTJ d   1     -27.619 -57.236  -5.340  0.00  0.00     0.086 H 
ATOM     20  H2  OTJ d   1     -26.093 -56.584  -7.184  0.00  0.00     0.085 H 
BRANCH  15  21
ATOM     21  N29 OTJ d   1     -30.166 -56.228  -5.058  0.00  0.00    -0.303 N 
ATOM     22  C18 OTJ d   1     -30.115 -57.288  -4.179  0.00  0.00     0.364 C 
ATOM     23  O32 OTJ d   1     -29.190 -58.085  -4.023  0.00  0.00    -0.238 OA
ATOM     24  H19 OTJ d   1     -30.949 -55.610  -4.990  0.00  0.00     0.171 HD
BRANCH  22  25
ATOM     25  O33 OTJ d   1     -31.254 -57.307  -3.453  0.00  0.00    -0.309 OA
BRANCH  25  26
ATOM     26  C19 OTJ d   1     -31.104 -58.085  -2.257  0.00  0.00     0.015 C 
ATOM     27  H9  OTJ d   1     -32.049 -58.077  -1.694  0.00  0.00     0.067 H 
ATOM     28  H10 OTJ d   1     -30.304 -57.654  -1.637  0.00  0.00     0.067 H 
ATOM     29  H11 OTJ d   1     -30.844 -59.120  -2.523  0.00  0.00     0.067 H 
ENDBRANCH  25  26
ENDBRANCH  22  25
ENDBRANCH  15  21
ENDBRANCH   6  11
ENDBRANCH   1   4
BRANCH   1  30
ATOM     30  N30 OTJ d   1     -24.291 -51.777 -11.437  0.00  0.00    -0.354 N 
ATOM     31  C17 OTJ d   1     -24.257 -50.904 -10.380  0.00  0.00     0.218 C 
ATOM     32  O31 OTJ d   1     -25.177 -50.817  -9.569  0.00  0.00    -0.274 OA
ATOM     33  H20 OTJ d   1     -23.466 -51.902 -11.989  0.00  0.00     0.162 HD
BRANCH  31  34
ATOM     34  C22 OTJ d   1     -22.982 -50.093 -10.239  0.00  0.00     0.013 C 
ATOM     35  H16 OTJ d   1     -22.315 -50.634  -9.552  0.00  0.00     0.047 H 
ATOM     36  H17 OTJ d   1     -23.250 -49.120  -9.801  0.00  0.00     0.047 H 
BRANCH  34  37
ATOM     37  C20 OTJ d   1     -22.207 -49.826 -11.527  0.00  0.00    -0.031 C 
ATOM     38  H12 OTJ d   1     -21.891 -50.782 -11.971  0.00  0.00     0.040 H 
ATOM     39  H13 OTJ d   1     -22.850 -49.286 -12.238  0.00  0.00     0.040 H 
BRANCH  37  40
ATOM     40  C10 OTJ d   1     -20.990 -48.990 -11.210  0.00  0.00    -0.028 A 
ATOM     41  C7  OTJ d   1     -21.090 -47.615 -11.312  0.00  0.00    -0.054 A 
ATOM     42  C13 OTJ d   1     -19.997 -46.815 -11.034  0.00  0.00     0.034 A 
ATOM     43  H7  OTJ d   1     -22.029 -47.162 -11.611  0.00  0.00     0.087 H 
ATOM     44  C6  OTJ d   1     -18.788 -47.369 -10.648  0.00  0.00    -0.060 A 
ATOM     45 CL3  OTJ d   1     -20.153 -45.105 -11.175  0.00  0.00    -0.084 Cl
ATOM     46  C3  OTJ d   1     -18.665 -48.745 -10.531  0.00  0.00    -0.053 A 
ATOM     47  H6  OTJ d   1     -17.939 -46.728 -10.438  0.00  0.00     0.086 H 
ATOM     48  C11 OTJ d   1     -19.772 -49.522 -10.819  0.00  0.00     0.061 A 
ATOM     49  H3  OTJ d   1     -17.730 -49.198 -10.223  0.00  0.00     0.087 H 
BRANCH  48  50
ATOM     50  N28 OTJ d   1     -19.611 -50.915 -10.702  0.00  0.00    -0.234 N 
ATOM     51  C8  OTJ d   1     -18.711 -51.695 -11.367  0.00  0.00     0.101 A 
ATOM     52  N23 OTJ d   1     -18.820 -52.922 -10.918  0.00  0.00    -0.156 NA
ATOM     53  H8  OTJ d   1     -18.021 -51.357 -12.138  0.00  0.00     0.148 H 
ATOM     54  N25 OTJ d   1     -19.806 -52.912  -9.962  0.00  0.00     0.017 NA
ATOM     55  N26 OTJ d   1     -20.287 -51.672  -9.836  0.00  0.00     0.002 NA
ENDBRANCH  48  50
ENDBRANCH  37  40
ENDBRANCH  34  37
ENDBRANCH  31  34
ENDBRANCH   1  30
TORSDOF 10
