REMARK  7 active torsions:
REMARK  status: ('A' for Active; 'I' for Inactive)
REMARK    1  A    between atoms: S1_4  and  C3_14 
REMARK    2  A    between atoms: C6_20  and  S1_4 
REMARK    3  A    between atoms: C11_6  and  O3_15 
REMARK    4  A    between atoms: O3_15  and  C14_9 
REMARK    5  A    between atoms: C5_18  and  N5_19 
REMARK    6  A    between atoms: C7_21  and  C6_20 
REMARK    7  A    between atoms: C7_21  and  C8_22 
ROOT
ATOM      1  C6  YH5 d   1      31.314 -30.434   4.542  0.00  0.00     0.043 C 
ATOM      2  H11 YH5 d   1      32.030 -29.767   5.044  0.00  0.00     0.061 H 
ATOM      3  H12 YH5 d   1      30.915 -29.936   3.646  0.00  0.00     0.061 H 
ENDROOT
BRANCH   1   4
ATOM      4  S1  YH5 d   1      29.944 -30.782   5.678  0.00  0.00    -0.084 SA
BRANCH   4   5
ATOM      5  C3  YH5 d   1      29.116 -31.842   4.574  0.00  0.00     0.169 A 
ATOM      6  N1  YH5 d   1      28.355 -31.468   3.569  0.00  0.00    -0.329 N 
ATOM      7  C2  YH5 d   1      27.959 -32.650   3.007  0.00  0.00     0.138 A 
ATOM      8  H1  YH5 d   1      28.114 -30.511   3.275  0.00  0.00     0.168 HD
ATOM      9  C1  YH5 d   1      27.151 -32.930   1.929  0.00  0.00     0.224 A 
ATOM     10  C4  YH5 d   1      28.491 -33.720   3.677  0.00  0.00     0.202 A 
ATOM     11  O1  YH5 d   1      26.574 -31.936   1.191  0.00  0.00    -0.169 OA
ATOM     12  N4  YH5 d   1      26.937 -34.199   1.587  0.00  0.00    -0.164 N 
ATOM     13  C5  YH5 d   1      27.512 -35.155   2.326  0.00  0.00     0.702 A 
ATOM     14  H8  YH5 d   1      26.364 -34.431   0.801  0.00  0.00     0.186 HD
ATOM     15  N3  YH5 d   1      28.299 -35.000   3.394  0.00  0.00    -0.043 NA
ATOM     16  N2  YH5 d   1      29.238 -33.196   4.682  0.00  0.00    -0.202 NA
BRANCH  13  17
ATOM     17  N5  YH5 d   1      27.255 -36.454   1.942  0.00  0.00    -0.233 N 
ATOM     18  H9  YH5 d   1      27.667 -37.238   2.468  0.00  0.00     0.174 HD
ATOM     19  H10 YH5 d   1      26.651 -36.641   1.129  0.00  0.00     0.174 HD
ENDBRANCH  13  17
ENDBRANCH   4   5
ENDBRANCH   1   4
BRANCH   1  20
ATOM     20  C7  YH5 d   1      32.034 -31.692   4.119  0.00  0.00     0.169 C 
ATOM     21  O2  YH5 d   1      31.653 -32.370   3.174  0.00  0.00    -0.291 OA
BRANCH  20  22
ATOM     22  C8  YH5 d   1      33.247 -32.155   4.812  0.00  0.00     0.011 A 
ATOM     23  C13 YH5 d   1      33.885 -33.237   4.248  0.00  0.00    -0.067 A 
ATOM     24  C12 YH5 d   1      35.022 -33.742   4.832  0.00  0.00    -0.050 A 
ATOM     25  H4  YH5 d   1      33.491 -33.690   3.345  0.00  0.00     0.085 H 
ATOM     26  C11 YH5 d   1      35.529 -33.174   5.973  0.00  0.00     0.068 A 
ATOM     27  H3  YH5 d   1      35.522 -34.595   4.388  0.00  0.00     0.087 H 
ATOM     28  C10 YH5 d   1      34.889 -32.087   6.538  0.00  0.00    -0.050 A 
ATOM     29  C9  YH5 d   1      33.745 -31.573   5.959  0.00  0.00    -0.067 A 
ATOM     30  H2  YH5 d   1      35.287 -31.636   7.440  0.00  0.00     0.087 H 
ATOM     31  H13 YH5 d   1      33.243 -30.720   6.402  0.00  0.00     0.085 H 
BRANCH  26  32
ATOM     32  O3  YH5 d   1      36.683 -33.794   6.446  0.00  0.00    -0.356 OA
BRANCH  32  33
ATOM     33  C14 YH5 d   1      37.123 -33.228   7.669  0.00  0.00     0.010 C 
ATOM     34  H5  YH5 d   1      38.033 -33.745   8.006  0.00  0.00     0.066 H 
ATOM     35  H6  YH5 d   1      36.336 -33.340   8.429  0.00  0.00     0.066 H 
ATOM     36  H7  YH5 d   1      37.341 -32.160   7.521  0.00  0.00     0.066 H 
ENDBRANCH  32  33
ENDBRANCH  26  32
ENDBRANCH  20  22
ENDBRANCH   1  20
TORSDOF 7
