REMARK  11 active torsions:
REMARK  status: ('A' for Active; 'I' for Inactive)
REMARK    1  A    between atoms: C1_1  and  C2_2 
REMARK    2  A    between atoms: C2_2  and  C4_3 
REMARK    3  A    between atoms: C2_2  and  N22_21 
REMARK    4  A    between atoms: C4_3  and  N5_4 
REMARK    5  A    between atoms: N5_4  and  C6_5 
REMARK    6  A    between atoms: N11_10  and  C15_14 
REMARK    7  A    between atoms: N22_21  and  S23_22 
REMARK    8  A    between atoms: S23_22  and  C26_25 
REMARK    9  A    between atoms: C27_26  and  C28_27 
REMARK   10  A    between atoms: C30_29  and  C31_30 
REMARK   11  A    between atoms: C33_32  and  C34_33 
ROOT
ATOM      1  C2  NN7 d   1      32.943  18.237   6.556  0.00  0.00     0.032 C 
ATOM      2  H   NN7 d   1      32.289  19.099   6.755  0.00  0.00     0.075 H 
ENDROOT
BRANCH   1   3
ATOM      3  C1  NN7 d   1      32.390  17.013   7.298  0.00  0.00    -0.055 C 
ATOM      4  H   NN7 d   1      32.385  17.211   8.380  0.00  0.00     0.030 H 
ATOM      5  H   NN7 d   1      33.025  16.139   7.088  0.00  0.00     0.030 H 
ATOM      6  H   NN7 d   1      31.364  16.811   6.958  0.00  0.00     0.030 H 
ENDBRANCH   1   3
BRANCH   1   7
ATOM      7  C4  NN7 d   1      34.384  18.606   6.971  0.00  0.00     0.012 C 
ATOM      8  H   NN7 d   1      34.618  19.598   6.557  0.00  0.00     0.067 H 
ATOM      9  H   NN7 d   1      35.068  17.859   6.542  0.00  0.00     0.067 H 
BRANCH   7  10
ATOM     10  N5  NN7 d   1      34.605  18.651   8.428  0.00  0.00    -0.387 N 
ATOM     11  H   NN7 d   1      35.071  17.842   8.863  0.00  0.00     0.159 HD
BRANCH  10  12
ATOM     12  C6  NN7 d   1      34.229  19.715   9.272  0.00  0.00     0.042 A 
ATOM     13  C7  NN7 d   1      33.277  20.685   8.940  0.00  0.00    -0.057 A 
ATOM     14  C8  NN7 d   1      32.900  21.681   9.837  0.00  0.00    -0.079 A 
ATOM     15  H   NN7 d   1      32.820  20.660   7.957  0.00  0.00     0.086 H 
ATOM     16  C9  NN7 d   1      33.491  21.775  11.077  0.00  0.00    -0.054 A 
ATOM     17  H   NN7 d   1      32.131  22.392   9.555  0.00  0.00     0.083 H 
ATOM     18  C10 NN7 d   1      34.461  20.825  11.440  0.00  0.00     0.072 A 
ATOM     19  H   NN7 d   1      33.213  22.568  11.762  0.00  0.00     0.087 H 
ATOM     20  N11 NN7 d   1      35.220  20.628  12.566  0.00  0.00    -0.234 N 
ATOM     21  C14 NN7 d   1      34.833  19.793  10.541  0.00  0.00     0.038 A 
ATOM     22  N12 NN7 d   1      36.025  19.506  12.357  0.00  0.00    -0.178 NA
ATOM     23  C13 NN7 d   1      35.817  19.007  11.174  0.00  0.00     0.036 A 
ATOM     24  H   NN7 d   1      36.315  18.137  10.748  0.00  0.00     0.118 H 
BRANCH  20  25
ATOM     25  C15 NN7 d   1      35.224  21.412  13.733  0.00  0.00     0.059 A 
ATOM     26  C16 NN7 d   1      34.055  21.582  14.495  0.00  0.00    -0.052 A 
ATOM     27  C17 NN7 d   1      34.121  22.358  15.644  0.00  0.00    -0.043 A 
ATOM     28  H   NN7 d   1      33.123  21.118  14.192  0.00  0.00     0.087 H 
ATOM     29  C18 NN7 d   1      35.342  22.900  16.067  0.00  0.00     0.116 A 
ATOM     30  H   NN7 d   1      33.221  22.546  16.218  0.00  0.00     0.088 H 
ATOM     31  F19 NN7 d   1      35.370  23.665  17.175  0.00  0.00    -0.206 F 
ATOM     32  C20 NN7 d   1      36.513  22.702  15.339  0.00  0.00    -0.043 A 
ATOM     33  C21 NN7 d   1      36.438  21.964  14.161  0.00  0.00    -0.052 A 
ATOM     34  H   NN7 d   1      37.457  23.111  15.680  0.00  0.00     0.088 H 
ATOM     35  H   NN7 d   1      37.332  21.814  13.566  0.00  0.00     0.087 H 
ENDBRANCH  20  25
ENDBRANCH  10  12
ENDBRANCH   7  10
ENDBRANCH   1   7
BRANCH   1  36
ATOM     36  N22 NN7 d   1      32.928  17.922   5.122  0.00  0.00    -0.309 N 
ATOM     37  H   NN7 d   1      33.160  16.998   4.819  0.00  0.00     0.172 HD
BRANCH  36  38
ATOM     38  S23 NN7 d   1      32.533  19.073   3.998  0.00  0.00     0.260 S 
ATOM     39  O24 NN7 d   1      32.706  18.443   2.715  0.00  0.00    -0.200 OA
ATOM     40  O25 NN7 d   1      31.249  19.524   4.423  0.00  0.00    -0.200 OA
BRANCH  38  41
ATOM     41  C26 NN7 d   1      33.696  20.435   4.101  0.00  0.00     0.091 A 
ATOM     42  C27 NN7 d   1      35.065  20.238   3.818  0.00  0.00    -0.038 A 
ATOM     43  C29 NN7 d   1      35.985  21.271   3.934  0.00  0.00    -0.070 A 
ATOM     44  C30 NN7 d   1      35.578  22.524   4.347  0.00  0.00    -0.061 A 
ATOM     45  H   NN7 d   1      37.028  21.093   3.699  0.00  0.00     0.085 H 
ATOM     46  C32 NN7 d   1      34.233  22.746   4.602  0.00  0.00    -0.070 A 
ATOM     47  C33 NN7 d   1      33.295  21.725   4.488  0.00  0.00    -0.038 A 
ATOM     48  H   NN7 d   1      33.906  23.736   4.896  0.00  0.00     0.085 H 
BRANCH  42  49
ATOM     49  C28 NN7 d   1      35.649  18.924   3.379  0.00  0.00    -0.050 C 
ATOM     50  H   NN7 d   1      36.732  19.038   3.225  0.00  0.00     0.033 H 
ATOM     51  H   NN7 d   1      35.176  18.609   2.438  0.00  0.00     0.033 H 
ATOM     52  H   NN7 d   1      35.467  18.165   4.154  0.00  0.00     0.033 H 
ENDBRANCH  42  49
BRANCH  44  53
ATOM     53  C31 NN7 d   1      36.586  23.644   4.449  0.00  0.00    -0.051 C 
ATOM     54  H   NN7 d   1      36.083  24.560   4.791  0.00  0.00     0.033 H 
ATOM     55  H   NN7 d   1      37.039  23.821   3.462  0.00  0.00     0.033 H 
ATOM     56  H   NN7 d   1      37.371  23.367   5.168  0.00  0.00     0.033 H 
ENDBRANCH  44  53
BRANCH  47  57
ATOM     57  C34 NN7 d   1      31.887  22.081   4.909  0.00  0.00    -0.050 C 
ATOM     58  H   NN7 d   1      31.233  21.206   4.778  0.00  0.00     0.033 H 
ATOM     59  H   NN7 d   1      31.517  22.911   4.289  0.00  0.00     0.033 H 
ATOM     60  H   NN7 d   1      31.886  22.385   5.966  0.00  0.00     0.033 H 
ENDBRANCH  47  57
ENDBRANCH  38  41
ENDBRANCH  36  38
ENDBRANCH   1  36
TORSDOF 11
