REMARK  1 active torsions:
REMARK  status: ('A' for Active; 'I' for Inactive)
REMARK    1  A    between atoms: C2_3  and  C1_1 
ROOT
ATOM      1  C2  3A9 d   1      52.040  49.197  14.319  0.00  0.00     0.041 A 
ATOM      2  C3  3A9 d   1      53.167  48.455  13.961  0.00  0.00    -0.064 A 
ATOM      3  O3  3A9 d   1      55.051  49.093  17.068  0.00  0.00    -0.322 OA
ATOM      4  C4  3A9 d   1      54.253  48.366  14.873  0.00  0.00    -0.048 A 
ATOM      5  C5  3A9 d   1      54.116  49.071  16.071  0.00  0.00     0.085 A 
ATOM      6  C6  3A9 d   1      54.609  49.959  18.139  0.00  0.00     0.020 A 
ATOM      7  C7  3A9 d   1      53.201  50.524  17.720  0.00  0.00    -0.049 A 
ATOM      8  C8  3A9 d   1      52.984  49.827  16.402  0.00  0.00     0.001 A 
ATOM      9  C9  3A9 d   1      51.928  49.885  15.540  0.00  0.00    -0.054 A 
ATOM     10  H   3A9 d   1      53.213  47.954  13.001  0.00  0.00     0.085 H 
ATOM     11  H   3A9 d   1      55.139  47.783  14.651  0.00  0.00     0.087 H 
ATOM     12  H   3A9 d   1      55.148  50.178  19.060  0.00  0.00     0.123 H 
ATOM     13  H   3A9 d   1      52.557  51.229  18.242  0.00  0.00     0.087 H 
ATOM     14  H   3A9 d   1      51.032  50.443  15.788  0.00  0.00     0.086 H 
ENDROOT
BRANCH   1  15
ATOM     15  C1  3A9 d   1      50.883  49.246  13.472  0.00  0.00     0.209 C 
ATOM     16  O1  3A9 d   1      49.756  49.570  13.868  0.00  0.00    -0.644 OA
ATOM     17  O2  3A9 d   1      51.018  48.888  12.181  0.00  0.00    -0.644 OA
ENDBRANCH   1  15
TORSDOF 1
