REMARK  0 active torsions:
REMARK  status: ('A' for Active; 'I' for Inactive)
ROOT
ATOM      1  CAD SVN d   1      30.815  52.807  13.105  0.00  0.00    -0.015 A 
ATOM      2  SAG SVN d   1      31.124  51.236  12.528  0.00  0.00    -0.078 SA
ATOM      3  CAI SVN d   1      30.626  51.689  10.934  0.00  0.00     0.128 A 
ATOM      4  NAE SVN d   1      30.608  50.862   9.821  0.00  0.00    -0.250 NA
ATOM      5  CAB SVN d   1      30.224  51.433   8.641  0.00  0.00     0.020 A 
ATOM      6  CAC SVN d   1      29.861  52.828   8.555  0.00  0.00     0.020 A 
ATOM      7  NAF SVN d   1      29.855  53.646   9.656  0.00  0.00    -0.254 NA
ATOM      8  CAJ SVN d   1      30.236  53.062  10.855  0.00  0.00     0.118 A 
ATOM      9  CAH SVN d   1      30.342  53.697  12.168  0.00  0.00     0.064 A 
ATOM     10  NAA SVN d   1      29.962  54.984  12.399  0.00  0.00    -0.397 N 
ATOM     11  H   SVN d   1      30.980  53.089  14.144  0.00  0.00     0.098 H 
ATOM     12  H   SVN d   1      30.191  50.823   7.746  0.00  0.00     0.117 H 
ATOM     13  H   SVN d   1      29.585  53.241   7.591  0.00  0.00     0.117 H 
ATOM     14  H   SVN d   1      30.056  55.387  13.342  0.00  0.00     0.156 HD
ATOM     15  H   SVN d   1      29.581  55.554  11.631  0.00  0.00     0.156 HD
ENDROOT
TORSDOF 0
