REMARK  3 active torsions:
REMARK  status: ('A' for Active; 'I' for Inactive)
REMARK    1  A    between atoms: C2_7  and  C1_6 
REMARK    2  A    between atoms: C3_8  and  C2_7 
REMARK    3  A    between atoms: C3_8  and  C4_9 
ROOT
ATOM      1  C2  OAA d   1      38.091  -3.907  13.630  0.00  0.00     0.081 C 
ATOM      2  H1  OAA d   1      37.965  -3.739  12.550  0.00  0.00     0.061 H 
ATOM      3  H2  OAA d   1      38.806  -3.175  14.034  0.00  0.00     0.061 H 
ENDROOT
BRANCH   1   4
ATOM      4  C1  OAA d   1      38.626  -5.303  13.858  0.00  0.00     0.180 C 
ATOM      5  O1  OAA d   1      38.461  -5.828  14.978  0.00  0.00    -0.648 OA
ATOM      6  O2  OAA d   1      39.667  -5.600  13.234  0.00  0.00    -0.648 OA
ENDBRANCH   1   4
BRANCH   1   7
ATOM      7  C3  OAA d   1      36.764  -3.734  14.316  0.00  0.00     0.234 C 
ATOM      8  O3  OAA d   1      35.730  -4.237  13.836  0.00  0.00    -0.285 OA
BRANCH   7   9
ATOM      9  C4  OAA d   1      36.669  -2.853  15.350  0.00  0.00     0.247 C 
ATOM     10  O4  OAA d   1      37.707  -2.254  15.772  0.00  0.00    -0.642 OA
ATOM     11  O5  OAA d   1      35.523  -2.551  15.793  0.00  0.00    -0.642 OA
ENDBRANCH   7   9
ENDBRANCH   1   7
TORSDOF 3
