REMARK  11 active torsions:
REMARK  status: ('A' for Active; 'I' for Inactive)
REMARK    1  A    between atoms: C22_2  and  N22_1 
REMARK    2  A    between atoms: C24_4  and  C27_5 
REMARK    3  A    between atoms: C28_9  and  C26_8 
REMARK    4  A    between atoms: C29_10  and  C28_9 
REMARK    5  A    between atoms: C15_11  and  C29_10 
REMARK    6  A    between atoms: C29_10  and  C18_27 
REMARK    7  A    between atoms: C18_27  and  N18_13 
REMARK    8  A    between atoms: C11_16  and  C09_17 
REMARK    9  A    between atoms: C08_18  and  C06_19 
REMARK   10  A    between atoms: C02_21  and  N02_22 
REMARK   11  A    between atoms: C04_24  and  C07_26 
ROOT
ATOM      1  C15 71S d   1      12.228  15.237  35.785  0.00  0.00    -0.034 A 
ATOM      2  C14 71S d   1      11.991  16.530  35.329  0.00  0.00     0.008 A 
ATOM      3  C12 71S d   1      10.736  15.718  33.543  0.00  0.00     0.012 A 
ATOM      4  C16 71S d   1      11.704  14.119  35.081  0.00  0.00    -0.064 A 
ATOM      5  C11 71S d   1      10.934  14.391  33.938  0.00  0.00    -0.018 A 
ATOM      6  N11 71S d   1      11.252  16.745  34.237  0.00  0.00    -0.272 NA
ATOM      7  H   71S d   1      12.411  17.373  35.866  0.00  0.00     0.115 H 
ATOM      8  H   71S d   1      10.151  15.923  32.654  0.00  0.00     0.116 H 
ATOM      9  H   71S d   1      11.890  13.103  35.411  0.00  0.00     0.085 H 
ENDROOT
BRANCH   1  10
ATOM     10  C29 71S d   1      13.035  15.149  37.035  0.00  0.00     0.001 C 
ATOM     11  H   71S d   1      13.561  16.104  37.181  0.00  0.00     0.050 H 
BRANCH  10  12
ATOM     12  C28 71S d   1      14.037  14.009  36.966  0.00  0.00    -0.016 C 
ATOM     13  H   71S d   1      13.984  13.442  37.907  0.00  0.00     0.043 H 
ATOM     14  H   71S d   1      13.761  13.353  36.127  0.00  0.00     0.043 H 
BRANCH  12  15
ATOM     15  C26 71S d   1      15.448  14.464  36.766  0.00  0.00     0.038 A 
ATOM     16  C25 71S d   1      16.190  14.967  37.841  0.00  0.00    -0.053 A 
ATOM     17  C24 71S d   1      17.506  15.371  37.619  0.00  0.00    -0.057 A 
ATOM     18  H   71S d   1      15.749  15.041  38.829  0.00  0.00     0.087 H 
ATOM     19  C23 71S d   1      18.048  15.248  36.330  0.00  0.00    -0.033 A 
ATOM     20  C22 71S d   1      17.260  14.725  35.290  0.00  0.00     0.121 A 
ATOM     21  H   71S d   1      19.070  15.555  36.137  0.00  0.00     0.090 H 
ATOM     22  N21 71S d   1      15.980  14.343  35.529  0.00  0.00    -0.236 NA
BRANCH  17  23
ATOM     23  C27 71S d   1      18.323  15.932  38.756  0.00  0.00    -0.051 C 
ATOM     24  H   71S d   1      17.716  15.942  39.673  0.00  0.00     0.033 H 
ATOM     25  H   71S d   1      18.636  16.958  38.512  0.00  0.00     0.033 H 
ATOM     26  H   71S d   1      19.213  15.305  38.912  0.00  0.00     0.033 H 
ENDBRANCH  17  23
BRANCH  20  27
ATOM     27  N22 71S d   1      17.756  14.590  34.038  0.00  0.00    -0.384 N 
ATOM     28  H   71S d   1      18.725  14.874  33.835  0.00  0.00     0.157 HD
ATOM     29  H   71S d   1      17.164  14.204  33.289  0.00  0.00     0.157 HD
ENDBRANCH  20  27
ENDBRANCH  12  15
ENDBRANCH  10  12
BRANCH  10  30
ATOM     30  C18 71S d   1      12.166  14.841  38.260  0.00  0.00     0.087 C 
ATOM     31  H   71S d   1      12.720  15.204  39.138  0.00  0.00     0.076 H 
ATOM     32  H   71S d   1      12.072  13.746  38.313  0.00  0.00     0.076 H 
BRANCH  30  33
ATOM     33  N18 71S d   1      10.798  15.388  38.366  0.00  0.00    -0.079 N 
ATOM     34  H   71S d   1      10.380  15.083  39.231  0.00  0.00     0.274 HD
ATOM     35  H   71S d   1      10.243  15.059  37.591  0.00  0.00     0.274 HD
ATOM     36  H   71S d   1      10.836  16.395  38.348  0.00  0.00     0.274 HD
ENDBRANCH  30  33
ENDBRANCH  10  30
ENDBRANCH   1  10
BRANCH   5  37
ATOM     37  C09 71S d   1      10.290  13.370  33.081  0.00  0.00    -0.069 C 
ATOM     38  C08 71S d   1       8.965  13.472  32.868  0.00  0.00    -0.054 C 
ATOM     39  H   71S d   1       8.436  14.281  33.369  0.00  0.00     0.087 H 
ATOM     40  H   71S d   1      10.870  12.562  32.637  0.00  0.00     0.085 H 
BRANCH  38  41
ATOM     41  C06 71S d   1       8.163  12.556  31.994  0.00  0.00     0.059 A 
ATOM     42  N01 71S d   1       6.820  12.489  32.166  0.00  0.00    -0.232 NA
ATOM     43  C02 71S d   1       6.030  11.736  31.382  0.00  0.00     0.122 A 
ATOM     44  C03 71S d   1       6.558  10.990  30.325  0.00  0.00    -0.033 A 
ATOM     45  C04 71S d   1       7.947  11.031  30.120  0.00  0.00    -0.056 A 
ATOM     46  H   71S d   1       5.916  10.398  29.683  0.00  0.00     0.090 H 
ATOM     47  C05 71S d   1       8.744  11.833  30.958  0.00  0.00    -0.049 A 
ATOM     48  H   71S d   1       9.814  11.887  30.795  0.00  0.00     0.087 H 
BRANCH  43  49
ATOM     49  N02 71S d   1       4.705  11.734  31.645  0.00  0.00    -0.384 N 
ATOM     50  H   71S d   1       4.066  11.170  31.067  0.00  0.00     0.157 HD
ATOM     51  H   71S d   1       4.334  12.297  32.424  0.00  0.00     0.157 HD
ENDBRANCH  43  49
BRANCH  45  52
ATOM     52  C07 71S d   1       8.581  10.241  28.995  0.00  0.00    -0.051 C 
ATOM     53  H   71S d   1       7.803   9.681  28.456  0.00  0.00     0.033 H 
ATOM     54  H   71S d   1       9.318   9.538  29.411  0.00  0.00     0.033 H 
ATOM     55  H   71S d   1       9.083  10.930  28.300  0.00  0.00     0.033 H 
ENDBRANCH  45  52
ENDBRANCH  38  41
ENDBRANCH   5  37
TORSDOF 11
