REMARK  6 active torsions:
REMARK  status: ('A' for Active; 'I' for Inactive)
REMARK    1  A    between atoms: C16_11  and  C19_10 
REMARK    2  A    between atoms: C11_18  and  C13_12 
REMARK    3  A    between atoms: S9_27  and  C7_15 
REMARK    4  A    between atoms: C2_17  and  N1_24 
REMARK    5  A    between atoms: C10_19  and  C11_18 
REMARK    6  A    between atoms: C10_19  and  S9_27 
ROOT
ATOM      1  C11 X6L d   1      42.604 -11.739 -21.933  0.00  0.00     0.169 C 
ATOM      2  O12 X6L d   1      42.436 -11.576 -20.747  0.00  0.00    -0.291 OA
ENDROOT
BRANCH   1   3
ATOM      3  C13 X6L d   1      43.815 -12.427 -22.414  0.00  0.00     0.011 A 
ATOM      4  C14 X6L d   1      43.878 -12.974 -23.672  0.00  0.00    -0.069 A 
ATOM      5  C15 X6L d   1      45.003 -13.653 -24.090  0.00  0.00    -0.071 A 
ATOM      6  H8  X6L d   1      43.034 -12.871 -24.344  0.00  0.00     0.085 H 
ATOM      7  C16 X6L d   1      46.096 -13.796 -23.266  0.00  0.00    -0.026 A 
ATOM      8  H6  X6L d   1      45.027 -14.082 -25.085  0.00  0.00     0.084 H 
ATOM      9  C17 X6L d   1      46.016 -13.221 -22.001  0.00  0.00    -0.071 A 
ATOM     10  C18 X6L d   1      44.898 -12.554 -21.574  0.00  0.00    -0.069 A 
ATOM     11  H7  X6L d   1      46.865 -13.303 -21.332  0.00  0.00     0.084 H 
ATOM     12  H9  X6L d   1      44.866 -12.128 -20.578  0.00  0.00     0.085 H 
BRANCH   7  13
ATOM     13  C19 X6L d   1      47.257 -14.598 -23.649  0.00  0.00    -0.026 A 
ATOM     14  C20 X6L d   1      48.542 -14.359 -23.223  0.00  0.00    -0.072 A 
ATOM     15  C21 X6L d   1      49.591 -15.183 -23.565  0.00  0.00    -0.082 A 
ATOM     16  H4  X6L d   1      48.736 -13.495 -22.598  0.00  0.00     0.084 H 
ATOM     17  C22 X6L d   1      49.374 -16.294 -24.344  0.00  0.00    -0.083 A 
ATOM     18  H2  X6L d   1      50.592 -14.954 -23.218  0.00  0.00     0.083 H 
ATOM     19  C23 X6L d   1      48.098 -16.549 -24.774  0.00  0.00    -0.082 A 
ATOM     20  H1  X6L d   1      50.192 -16.953 -24.612  0.00  0.00     0.083 H 
ATOM     21  C24 X6L d   1      47.054 -15.723 -24.433  0.00  0.00    -0.072 A 
ATOM     22  H3  X6L d   1      47.909 -17.418 -25.394  0.00  0.00     0.083 H 
ATOM     23  H5  X6L d   1      46.055 -15.955 -24.783  0.00  0.00     0.084 H 
ENDBRANCH   7  13
ENDBRANCH   1   3
BRANCH   1  24
ATOM     24  C10 X6L d   1      41.526 -11.260 -22.851  0.00  0.00     0.043 C 
ATOM     25  H10 X6L d   1      40.649 -10.972 -22.252  0.00  0.00     0.061 H 
ATOM     26  H11 X6L d   1      41.251 -12.077 -23.535  0.00  0.00     0.061 H 
BRANCH  24  27
ATOM     27  S9  X6L d   1      42.055  -9.856 -23.812  0.00  0.00    -0.084 SA
BRANCH  27  28
ATOM     28  C7  X6L d   1      42.684  -8.900 -22.490  0.00  0.00     0.169 A 
ATOM     29  N6  X6L d   1      42.026  -8.492 -21.431  0.00  0.00    -0.328 N 
ATOM     30  C5  X6L d   1      42.966  -7.765 -20.736  0.00  0.00     0.150 A 
ATOM     31  H12 X6L d   1      41.043  -8.672 -21.180  0.00  0.00     0.168 HD
ATOM     32  C4  X6L d   1      44.161  -7.754 -21.374  0.00  0.00     0.178 A 
ATOM     33  C25 X6L d   1      42.847  -7.036 -19.505  0.00  0.00     0.290 A 
ATOM     34  N3  X6L d   1      45.302  -7.151 -21.040  0.00  0.00    -0.172 N 
ATOM     35  N8  X6L d   1      43.987  -8.510 -22.501  0.00  0.00    -0.204 NA
ATOM     36  C2  X6L d   1      45.188  -6.485 -19.927  0.00  0.00     0.680 A 
ATOM     37  H13 X6L d   1      46.168  -7.205 -21.595  0.00  0.00     0.186 HD
ATOM     38  N27 X6L d   1      44.042  -6.413 -19.177  0.00  0.00    -0.154 N 
ATOM     39  H14 X6L d   1      44.070  -5.874 -18.335  0.00  0.00     0.187 HD
ATOM     40  O26 X6L d   1      41.845  -6.952 -18.826  0.00  0.00    -0.265 OA
BRANCH  36  41
ATOM     41  N1  X6L d   1      46.212  -5.779 -19.408  0.00  0.00    -0.234 N 
ATOM     42  H15 X6L d   1      47.122  -5.762 -19.890  0.00  0.00     0.174 HD
ATOM     43  H16 X6L d   1      46.084  -5.256 -18.530  0.00  0.00     0.174 HD
ENDBRANCH  36  41
ENDBRANCH  27  28
ENDBRANCH  24  27
ENDBRANCH   1  24
TORSDOF 6
