REMARK  7 active torsions:
REMARK  status: ('A' for Active; 'I' for Inactive)
REMARK    1  A    between atoms: CAS_2  and  CAE_4 
REMARK    2  A    between atoms: CAE_4  and  CAF_5 
REMARK    3  A    between atoms: CAF_5  and  CAT_6 
REMARK       I    between atoms: CAT_6  and  NAQ_8 
REMARK    4  A    between atoms: NAQ_8  and  NAR_9 
REMARK       I    between atoms: NAR_9  and  CAU_10 
REMARK    5  A    between atoms: CAU_10  and  CAX_12 
REMARK    6  A    between atoms: CAW_17  and  CAO_18 
REMARK    7  A    between atoms: CAO_18  and  CAV_19 
ROOT
ATOM      1  CAX 6MK d   1      27.729  -6.886 -30.249  0.00  0.00     0.057 A 
ATOM      2  CAN 6MK d   1      26.333  -6.622 -30.003  0.00  0.00     0.018 A 
ATOM      3  NAP 6MK d   1      25.474  -6.110 -30.947  0.00  0.00    -0.272 NA
ATOM      4  CAJ 6MK d   1      25.992  -5.836 -32.206  0.00  0.00     0.002 A 
ATOM      5  CAM 6MK d   1      27.353  -6.062 -32.529  0.00  0.00    -0.059 A 
ATOM      6  CAW 6MK d   1      28.222  -6.607 -31.530  0.00  0.00    -0.035 A 
ATOM      7  H   6MK d   1      25.938  -6.840 -29.017  0.00  0.00     0.116 H 
ATOM      8  H   6MK d   1      25.333  -5.436 -32.968  0.00  0.00     0.114 H 
ATOM      9  H   6MK d   1      27.730  -5.826 -33.517  0.00  0.00     0.086 H 
ENDROOT
BRANCH   1  10
ATOM     10  CAU 6MK d   1      28.694  -7.469 -29.207  0.00  0.00     0.272 C 
ATOM     11  NAR 6MK d   1      29.901  -6.839 -28.890  0.00  0.00    -0.263 N 
ATOM     12  H   6MK d   1      30.147  -5.966 -29.312  0.00  0.00     0.190 HD
ATOM     13  OAC 6MK d   1      28.423  -8.533 -28.666  0.00  0.00    -0.266 OA
BRANCH  11  14
ATOM     14  NAQ 6MK d   1      30.747  -7.444 -27.983  0.00  0.00    -0.267 N 
ATOM     15  CAT 6MK d   1      31.605  -6.729 -27.148  0.00  0.00     0.236 C 
ATOM     16  OAB 6MK d   1      31.585  -5.513 -27.226  0.00  0.00    -0.272 OA
ATOM     17  H   6MK d   1      30.745  -8.442 -27.922  0.00  0.00     0.190 HD
BRANCH  15  18
ATOM     18  CAF 6MK d   1      32.483  -7.483 -26.218  0.00  0.00     0.020 C 
ATOM     19  H   6MK d   1      31.856  -8.054 -25.517  0.00  0.00     0.048 H 
ATOM     20  H   6MK d   1      33.108  -8.177 -26.799  0.00  0.00     0.048 H 
BRANCH  18  21
ATOM     21  CAE 6MK d   1      33.364  -6.571 -25.445  0.00  0.00     0.024 C 
ATOM     22  H   6MK d   1      34.062  -6.055 -26.121  0.00  0.00     0.049 H 
ATOM     23  H   6MK d   1      32.759  -5.828 -24.905  0.00  0.00     0.049 H 
BRANCH  21  24
ATOM     24  CAS 6MK d   1      34.104  -7.403 -24.497  0.00  0.00     0.172 C 
ATOM     25  OAA 6MK d   1      34.377  -6.886 -23.394  0.00  0.00    -0.648 OA
ATOM     26  OAD 6MK d   1      34.360  -8.561 -24.899  0.00  0.00    -0.648 OA
ENDBRANCH  21  24
ENDBRANCH  18  21
ENDBRANCH  15  18
ENDBRANCH  11  14
ENDBRANCH   1  10
BRANCH   6  27
ATOM     27  CAO 6MK d   1      29.660  -6.896 -31.769  0.00  0.00    -0.016 C 
ATOM     28  H   6MK d   1      29.859  -7.846 -31.252  0.00  0.00     0.047 H 
ATOM     29  H   6MK d   1      30.210  -6.085 -31.270  0.00  0.00     0.047 H 
BRANCH  27  30
ATOM     30  CAV 6MK d   1      30.279  -7.033 -33.100  0.00  0.00    -0.054 A 
ATOM     31  CAK 6MK d   1      30.735  -8.281 -33.588  0.00  0.00    -0.077 A 
ATOM     32  CAH 6MK d   1      31.354  -8.378 -34.857  0.00  0.00    -0.082 A 
ATOM     33  H   6MK d   1      30.609  -9.172 -32.983  0.00  0.00     0.084 H 
ATOM     34  CAG 6MK d   1      31.530  -7.230 -35.652  0.00  0.00    -0.083 A 
ATOM     35  H   6MK d   1      31.694  -9.342 -35.219  0.00  0.00     0.083 H 
ATOM     36  CAI 6MK d   1      31.081  -5.979 -35.159  0.00  0.00    -0.082 A 
ATOM     37  H   6MK d   1      32.001  -7.301 -36.626  0.00  0.00     0.083 H 
ATOM     38  CAL 6MK d   1      30.470  -5.890 -33.899  0.00  0.00    -0.077 A 
ATOM     39  H   6MK d   1      31.210  -5.086 -35.759  0.00  0.00     0.083 H 
ATOM     40  H   6MK d   1      30.139  -4.924 -33.535  0.00  0.00     0.084 H 
ENDBRANCH  27  30
ENDBRANCH   6  27
TORSDOF 7
