REMARK  11 active torsions:
REMARK  status: ('A' for Active; 'I' for Inactive)
REMARK    1  A    between atoms: CAU_2  and  CAH_4 
REMARK    2  A    between atoms: CAH_4  and  CAI_5 
REMARK    3  A    between atoms: CAI_5  and  CAV_6 
REMARK       I    between atoms: CAV_6  and  NAS_8 
REMARK    4  A    between atoms: NAS_8  and  NAT_9 
REMARK       I    between atoms: NAT_9  and  CAW_10 
REMARK    5  A    between atoms: CAW_10  and  CBA_12 
REMARK    6  A    between atoms: CAZ_17  and  CAQ_18 
REMARK    7  A    between atoms: CAQ_18  and  CAX_19 
REMARK    8  A    between atoms: CAY_22  and  CBB_23 
REMARK    9  A    between atoms: CBB_23  and  CAB_24 
REMARK   10  A    between atoms: CBB_23  and  CAC_25 
REMARK   11  A    between atoms: CBB_23  and  CAA_26 
ROOT
ATOM      1  CBA 640 d   1      27.936  -6.959 718.509  0.00  0.00     0.057 A 
ATOM      2  CAP 640 d   1      26.598  -6.854 718.820  0.00  0.00     0.018 A 
ATOM      3  NAR 640 d   1      25.749  -6.269 717.986  0.00  0.00    -0.272 NA
ATOM      4  CAJ 640 d   1      26.188  -5.782 716.809  0.00  0.00     0.002 A 
ATOM      5  CAM 640 d   1      27.527  -5.856 716.403  0.00  0.00    -0.059 A 
ATOM      6  CAZ 640 d   1      28.440  -6.505 717.273  0.00  0.00    -0.035 A 
ATOM      7  H   640 d   1      26.234  -7.255 719.759  0.00  0.00     0.116 H 
ATOM      8  H   640 d   1      25.472  -5.311 716.145  0.00  0.00     0.114 H 
ATOM      9  H   640 d   1      27.853  -5.433 715.460  0.00  0.00     0.086 H 
ENDROOT
BRANCH   6  10
ATOM     10  CAQ 640 d   1      29.967  -6.644 716.996  0.00  0.00    -0.016 C 
ATOM     11  H   640 d   1      30.352  -7.440 717.650  0.00  0.00     0.047 H 
ATOM     12  H   640 d   1      30.442  -5.688 717.263  0.00  0.00     0.047 H 
BRANCH  10  13
ATOM     13  CAX 640 d   1      30.388  -6.986 715.542  0.00  0.00    -0.054 A 
ATOM     14  CAK 640 d   1      30.345  -8.278 715.062  0.00  0.00    -0.076 A 
ATOM     15  CAN 640 d   1      30.799  -8.500 713.768  0.00  0.00    -0.076 A 
ATOM     16  H   640 d   1      29.970  -9.091 715.673  0.00  0.00     0.084 H 
ATOM     17  CAY 640 d   1      31.284  -7.449 713.004  0.00  0.00    -0.051 A 
ATOM     18  H   640 d   1      30.774  -9.501 713.353  0.00  0.00     0.084 H 
ATOM     19  CAO 640 d   1      31.323  -6.177 713.527  0.00  0.00    -0.076 A 
ATOM     20  CAL 640 d   1      30.886  -5.939 714.803  0.00  0.00    -0.076 A 
ATOM     21  H   640 d   1      31.702  -5.359 712.926  0.00  0.00     0.084 H 
ATOM     22  H   640 d   1      30.932  -4.941 715.224  0.00  0.00     0.084 H 
BRANCH  17  23
ATOM     23  CBB 640 d   1      31.781  -7.590 711.537  0.00  0.00    -0.024 C 
BRANCH  23  24
ATOM     24  CAB 640 d   1      32.049  -9.051 711.300  0.00  0.00    -0.066 C 
ATOM     25  H   640 d   1      32.404  -9.196 710.269  0.00  0.00     0.028 H 
ATOM     26  H   640 d   1      31.122  -9.623 711.452  0.00  0.00     0.028 H 
ATOM     27  H   640 d   1      32.817  -9.402 712.005  0.00  0.00     0.028 H 
ENDBRANCH  23  24
BRANCH  23  28
ATOM     28  CAC 640 d   1      30.786  -7.028 710.552  0.00  0.00    -0.066 C 
ATOM     29  H   640 d   1      30.623  -5.961 710.764  0.00  0.00     0.028 H 
ATOM     30  H   640 d   1      29.833  -7.570 710.644  0.00  0.00     0.028 H 
ATOM     31  H   640 d   1      31.177  -7.143 709.530  0.00  0.00     0.028 H 
ENDBRANCH  23  28
BRANCH  23  32
ATOM     32  CAA 640 d   1      33.148  -6.863 711.361  0.00  0.00    -0.066 C 
ATOM     33  H   640 d   1      33.875  -7.271 712.078  0.00  0.00     0.028 H 
ATOM     34  H   640 d   1      33.017  -5.786 711.544  0.00  0.00     0.028 H 
ATOM     35  H   640 d   1      33.517  -7.018 710.336  0.00  0.00     0.028 H 
ENDBRANCH  23  32
ENDBRANCH  17  23
ENDBRANCH  10  13
ENDBRANCH   6  10
BRANCH   1  36
ATOM     36  CAW 640 d   1      28.833  -7.649 719.483  0.00  0.00     0.272 C 
ATOM     37  NAT 640 d   1      29.210  -6.974 720.723  0.00  0.00    -0.263 N 
ATOM     38  H   640 d   1      28.881  -6.046 720.900  0.00  0.00     0.190 HD
ATOM     39  OAF 640 d   1      29.176  -8.769 719.246  0.00  0.00    -0.266 OA
BRANCH  37  40
ATOM     40  NAS 640 d   1      30.015  -7.602 721.653  0.00  0.00    -0.267 N 
ATOM     41  CAV 640 d   1      31.178  -6.908 722.075  0.00  0.00     0.236 C 
ATOM     42  OAE 640 d   1      31.494  -5.798 721.639  0.00  0.00    -0.272 OA
ATOM     43  H   640 d   1      29.788  -8.507 722.013  0.00  0.00     0.190 HD
BRANCH  41  44
ATOM     44  CAI 640 d   1      32.001  -7.587 723.118  0.00  0.00     0.020 C 
ATOM     45  H   640 d   1      31.345  -7.890 723.947  0.00  0.00     0.048 H 
ATOM     46  H   640 d   1      32.470  -8.479 722.676  0.00  0.00     0.048 H 
BRANCH  44  47
ATOM     47  CAH 640 d   1      33.104  -6.666 723.668  0.00  0.00     0.024 C 
ATOM     48  H   640 d   1      33.761  -6.319 722.856  0.00  0.00     0.049 H 
ATOM     49  H   640 d   1      32.664  -5.797 724.180  0.00  0.00     0.049 H 
BRANCH  47  50
ATOM     50  CAU 640 d   1      33.866  -7.521 724.636  0.00  0.00     0.172 C 
ATOM     51  OAD 640 d   1      33.956  -7.164 725.823  0.00  0.00    -0.648 OA
ATOM     52  OAG 640 d   1      34.374  -8.582 724.255  0.00  0.00    -0.648 OA
ENDBRANCH  47  50
ENDBRANCH  44  47
ENDBRANCH  41  44
ENDBRANCH  37  40
ENDBRANCH   1  36
TORSDOF 11
