REMARK  5 active torsions:
REMARK  status: ('A' for Active; 'I' for Inactive)
REMARK    1  A    between atoms: CAN_2  and  CAE_4 
REMARK    2  A    between atoms: CAE_4  and  CAF_5 
REMARK    3  A    between atoms: CAF_5  and  CAO_6 
REMARK       I    between atoms: CAO_6  and  NAL_8 
REMARK    4  A    between atoms: NAL_8  and  NAM_9 
REMARK       I    between atoms: NAM_9  and  CAP_10 
REMARK    5  A    between atoms: CAP_10  and  CAQ_12 
ROOT
ATOM      1  NAM DGR d   1     -20.346 -22.437   1.695  0.00  0.00    -0.263 N 
ATOM      2  CAP DGR d   1     -20.700 -21.868   0.444  0.00  0.00     0.271 C 
ATOM      3  OAC DGR d   1     -21.788 -21.991  -0.030  0.00  0.00    -0.266 OA
ATOM      4  H   DGR d   1     -19.421 -22.364   2.068  0.00  0.00     0.190 HD
ENDROOT
BRANCH   1   5
ATOM      5  NAL DGR d   1     -21.371 -23.107   2.377  0.00  0.00    -0.267 N 
ATOM      6  CAO DGR d   1     -21.321 -24.423   2.921  0.00  0.00     0.236 C 
ATOM      7  OAB DGR d   1     -20.300 -25.026   2.861  0.00  0.00    -0.272 OA
ATOM      8  H   DGR d   1     -22.230 -22.608   2.494  0.00  0.00     0.190 HD
BRANCH   6   9
ATOM      9  CAF DGR d   1     -22.560 -24.936   3.608  0.00  0.00     0.020 C 
ATOM     10  H   DGR d   1     -23.326 -24.147   3.597  0.00  0.00     0.048 H 
ATOM     11  H   DGR d   1     -22.932 -25.816   3.062  0.00  0.00     0.048 H 
BRANCH   9  12
ATOM     12  CAE DGR d   1     -22.286 -25.325   5.023  0.00  0.00     0.024 C 
ATOM     13  H   DGR d   1     -21.477 -26.071   5.013  0.00  0.00     0.049 H 
ATOM     14  H   DGR d   1     -21.948 -24.424   5.556  0.00  0.00     0.049 H 
BRANCH  12  15
ATOM     15  CAN DGR d   1     -23.495 -25.940   5.839  0.00  0.00     0.172 C 
ATOM     16  OAA DGR d   1     -24.608 -25.657   5.412  0.00  0.00    -0.648 OA
ATOM     17  OAD DGR d   1     -23.184 -26.608   6.813  0.00  0.00    -0.648 OA
ENDBRANCH  12  15
ENDBRANCH   9  12
ENDBRANCH   6   9
ENDBRANCH   1   5
BRANCH   2  18
ATOM     18  CAQ DGR d   1     -19.688 -21.105  -0.404  0.00  0.00     0.051 A 
ATOM     19  CAI DGR d   1     -19.431 -21.481  -1.705  0.00  0.00    -0.065 A 
ATOM     20  CAG DGR d   1     -18.501 -20.768  -2.478  0.00  0.00    -0.065 A 
ATOM     21  H   DGR d   1     -19.949 -22.331  -2.133  0.00  0.00     0.085 H 
ATOM     22  CAH DGR d   1     -17.851 -19.660  -1.917  0.00  0.00     0.002 A 
ATOM     23  H   DGR d   1     -18.288 -21.071  -3.497  0.00  0.00     0.085 H 
ATOM     24  NAK DGR d   1     -18.095 -19.244  -0.648  0.00  0.00    -0.272 NA
ATOM     25  H   DGR d   1     -17.129 -19.117  -2.517  0.00  0.00     0.114 H 
ATOM     26  CAJ DGR d   1     -18.991 -19.959   0.081  0.00  0.00     0.017 A 
ATOM     27  H   DGR d   1     -19.189 -19.638   1.097  0.00  0.00     0.116 H 
ENDBRANCH   2  18
TORSDOF 5
