REMARK WARNING: 32 MAX_TORS EXCEEDED!!!
REMARK  60 active torsions:
REMARK  status: ('A' for Active; 'I' for Inactive)
REMARK    1  A    between atoms: N_1  and  CA_2 
REMARK    2  A    between atoms: CA_2  and  C_3 
REMARK       I    between atoms: C_3  and  N_5 
REMARK    3  A    between atoms: N_5  and  CA_6 
REMARK    4  A    between atoms: CA_6  and  C_7 
REMARK    5  A    between atoms: CA_6  and  CB_9 
REMARK       I    between atoms: C_7  and  N_12 
REMARK    6  A    between atoms: CB_9  and  OG1_10 
REMARK    7  A    between atoms: CB_9  and  CG2_11 
REMARK    8  A    between atoms: N_12  and  CA_13 
REMARK    9  A    between atoms: CA_13  and  C_14 
REMARK   10  A    between atoms: CA_13  and  CB_16 
REMARK       I    between atoms: C_14  and  N_18 
REMARK   11  A    between atoms: CB_16  and  SG_17 
REMARK   12  A    between atoms: N_18  and  CA_19 
REMARK   13  A    between atoms: CA_19  and  C_20 
REMARK   14  A    between atoms: CA_19  and  CB_22 
REMARK       I    between atoms: C_20  and  N_25 
REMARK   15  A    between atoms: CB_22  and  CG1_23 
REMARK   16  A    between atoms: CB_22  and  CG2_24 
REMARK   17  A    between atoms: N_25  and  CA_26 
REMARK   18  A    between atoms: CA_26  and  C_27 
REMARK   19  A    between atoms: CA_26  and  CB_29 
REMARK       I    between atoms: C_27  and  N_30 
REMARK   20  A    between atoms: N_30  and  CA_31 
REMARK   21  A    between atoms: CA_31  and  C_32 
REMARK   22  A    between atoms: CA_31  and  CB_34 
REMARK       I    between atoms: C_32  and  N_35 
REMARK   23  A    between atoms: N_35  and  CA_36 
REMARK   24  A    between atoms: CA_36  and  C_37 
REMARK   25  A    between atoms: CA_36  and  CB_39 
REMARK       I    between atoms: C_37  and  N_46 
REMARK   26  A    between atoms: CB_39  and  CG_40 
REMARK   27  A    between atoms: CG_40  and  CD_41 
REMARK   28  A    between atoms: CD_41  and  NE_42 
REMARK       I    between atoms: NE_42  and  CZ_43 
REMARK       I    between atoms: CZ_43  and  NH1_44 
REMARK       I    between atoms: CZ_43  and  NH2_45 
REMARK   29  A    between atoms: N_46  and  CA_47 
REMARK   30  A    between atoms: CA_47  and  C_48 
REMARK   31  A    between atoms: CA_47  and  CB_50 
REMARK       I    between atoms: C_48  and  N_53 
REMARK   32  A    between atoms: CB_50  and  OG1_51 
REMARK   33  A    between atoms: CB_50  and  CG2_52 
REMARK   34  A    between atoms: N_53  and  CA_54 
REMARK   35  A    between atoms: CA_54  and  C_55 
REMARK   36  A    between atoms: CA_54  and  CB_57 
REMARK       I    between atoms: C_55  and  N_64 
REMARK   37  A    between atoms: CB_57  and  CG_58 
REMARK   38  A    between atoms: CG_58  and  CD_59 
REMARK   39  A    between atoms: CD_59  and  NE_60 
REMARK       I    between atoms: NE_60  and  CZ_61 
REMARK       I    between atoms: CZ_61  and  NH1_62 
REMARK   40  A    between atoms: CA_65  and  C_66 
REMARK       I    between atoms: C_66  and  N_71 
REMARK   41  A    between atoms: N_71  and  CA_72 
REMARK   42  A    between atoms: CA_72  and  C_73 
REMARK   43  A    between atoms: CA_72  and  CB_75 
REMARK       I    between atoms: C_73  and  N_78 
REMARK   44  A    between atoms: CB_75  and  CG1_76 
REMARK   45  A    between atoms: CB_75  and  CG2_77 
REMARK   46  A    between atoms: N_78  and  CA_79 
REMARK   47  A    between atoms: CA_79  and  C_80 
REMARK   48  A    between atoms: CA_79  and  CB_82 
REMARK       I    between atoms: C_80  and  N_86 
REMARK   49  A    between atoms: CB_82  and  CG_83 
REMARK   50  A    between atoms: CG_83  and  CD1_84 
REMARK   51  A    between atoms: CG_83  and  CD2_85 
REMARK   52  A    between atoms: N_86  and  CA_87 
REMARK   53  A    between atoms: CA_87  and  C_88 
REMARK   54  A    between atoms: CA_87  and  CB_90 
REMARK       I    between atoms: C_88  and  N_92 
REMARK   55  A    between atoms: CB_90  and  OG_91 
REMARK   56  A    between atoms: N_92  and  CA_93 
REMARK   57  A    between atoms: CA_93  and  C_94 
REMARK   58  A    between atoms: CA_93  and  CB_96 
REMARK   59  A    between atoms: CB_96  and  CG_97 
REMARK   60  A    between atoms: CZ_102  and  OH_103 
ROOT
ATOM      1  C   THR d   1      12.320 -13.995 -27.524  0.00  0.00     0.243 C 
ATOM      2  O   THR d   1      12.749 -13.360 -26.558  0.00  0.00    -0.271 OA
ATOM      3  N   ARG d   1      12.945 -14.041 -28.702  0.00  0.00    -0.346 N 
ATOM      4  H   ARG d   1      12.566 -14.626 -29.419  0.00  0.00     0.163 HD
ENDROOT
BRANCH   1   5
ATOM      5  CA  THR d   1      11.001 -14.768 -27.407  0.00  0.00     0.113 C 
ATOM      6  H   THR d   1      10.211 -14.038 -27.176  0.00  0.00     0.091 H 
BRANCH   5   7
ATOM      7  N   THR d   1      10.616 -15.442 -28.652  0.00  0.00    -0.344 N 
ATOM      8  C   ARG d   1       9.903 -14.817 -29.588  0.00  0.00     0.241 C 
ATOM      9  O   ARG d   1       9.581 -13.633 -29.498  0.00  0.00    -0.271 OA
ATOM     10  H   THR d   1      10.895 -16.391 -28.801  0.00  0.00     0.163 HD
BRANCH   8  11
ATOM     11  CA  ARG d   1       9.493 -15.631 -30.818  0.00  0.00     0.089 C 
ATOM     12  H   ARG d   1       9.536 -14.960 -31.688  0.00  0.00     0.087 H 
BRANCH  11  13
ATOM     13  N   ARG d   1      10.404 -16.750 -31.092  0.00  0.00    -0.346 N 
ATOM     14  C   ALA d   1      11.676 -16.523 -31.419  0.00  0.00     0.240 C 
ATOM     15  O   ALA d   1      12.159 -15.392 -31.438  0.00  0.00    -0.271 OA
ATOM     16  H   ARG d   1      10.067 -17.690 -31.033  0.00  0.00     0.163 HD
BRANCH  14  17
ATOM     17  CA  ALA d   1      12.550 -17.732 -31.756  0.00  0.00     0.086 C 
ATOM     18  H   ALA d   1      13.597 -17.430 -31.607  0.00  0.00     0.086 H 
BRANCH  17  19
ATOM     19  N   ALA d   1      12.303 -18.884 -30.892  0.00  0.00    -0.346 N 
ATOM     20  C   ALA d   1      12.405 -18.805 -29.568  0.00  0.00     0.240 C 
ATOM     21  O   ALA d   1      12.568 -17.743 -28.969  0.00  0.00    -0.271 OA
ATOM     22  H   ALA d   1      12.050 -19.757 -31.308  0.00  0.00     0.163 HD
BRANCH  20  23
ATOM     23  CA  ALA d   1      12.285 -20.114 -28.801  0.00  0.00     0.086 C 
ATOM     24  H   ALA d   1      12.353 -20.949 -29.514  0.00  0.00     0.086 H 
BRANCH  23  25
ATOM     25  N   ALA d   1      13.381 -20.229 -27.840  0.00  0.00    -0.346 N 
ATOM     26  C   VAL d   1      13.918 -21.399 -27.505  0.00  0.00     0.241 C 
ATOM     27  O   VAL d   1      13.513 -22.477 -27.942  0.00  0.00    -0.271 OA
ATOM     28  H   ALA d   1      13.741 -19.396 -27.419  0.00  0.00     0.163 HD
BRANCH  26  29
ATOM     29  CA  VAL d   1      15.089 -21.350 -26.526  0.00  0.00     0.092 C 
ATOM     30  H   VAL d   1      15.033 -20.410 -25.957  0.00  0.00     0.088 H 
BRANCH  29  31
ATOM     31  N   VAL d   1      15.009 -22.462 -25.581  0.00  0.00    -0.346 N 
ATOM     32  C   CYS d   1      15.166 -22.317 -24.267  0.00  0.00     0.241 C 
ATOM     33  O   CYS d   1      15.317 -21.225 -23.713  0.00  0.00    -0.271 OA
ATOM     34  H   VAL d   1      14.827 -23.378 -25.939  0.00  0.00     0.163 HD
BRANCH  32  35
ATOM     35  CA  CYS d   1      15.121 -23.619 -23.465  0.00  0.00     0.097 C 
ATOM     36  H   CYS d   1      14.246 -24.190 -23.808  0.00  0.00     0.088 H 
BRANCH  35  37
ATOM     37  N   CYS d   1      16.311 -24.436 -23.708  0.00  0.00    -0.345 N 
ATOM     38  C   THR d   1      16.363 -25.277 -24.738  0.00  0.00     0.243 C 
ATOM     39  O   THR d   1      15.457 -25.361 -25.566  0.00  0.00    -0.271 OA
ATOM     40  H   CYS d   1      17.095 -24.361 -23.092  0.00  0.00     0.163 HD
BRANCH  38  41
ATOM     41  CA  THR d   1      17.600 -26.165 -24.868  0.00  0.00     0.113 C 
ATOM     42  H   THR d   1      17.963 -26.093 -25.904  0.00  0.00     0.091 H 
BRANCH  41  43
ATOM     43  N   THR d   1      18.701 -25.771 -23.991  0.00  0.00    -0.344 N 
ATOM     44  C   GLY d   1      19.570 -24.825 -24.340  0.00  0.00     0.243 C 
ATOM     45  O   GLY d   1      19.480 -24.205 -25.400  0.00  0.00    -0.272 OA
ATOM     46  H   THR d   1      18.804 -26.224 -23.105  0.00  0.00     0.163 HD
BRANCH  44  47
ATOM     47  CA  GLY d   1      20.713 -24.529 -23.379  0.00  0.00     0.152 C 
ATOM     48  H   GLY d   1      21.625 -24.979 -23.797  0.00  0.00     0.090 H 
ATOM     49  H   GLY d   1      20.832 -23.437 -23.329  0.00  0.00     0.090 H 
BRANCH  47  50
ATOM     50  N   GLY d   1      20.560 -25.032 -21.982  0.00  0.00    -0.071 N 
ATOM     51  H   GLY d   1      21.373 -24.778 -21.442  0.00  0.00     0.274 HD
ATOM     52  H   GLY d   1      20.465 -26.035 -21.995  0.00  0.00     0.274 HD
ATOM     53  H   GLY d   1      19.739 -24.622 -21.565  0.00  0.00     0.274 HD
ENDBRANCH  47  50
ENDBRANCH  44  47
ENDBRANCH  41  43
BRANCH  41  54
ATOM     54  CB  THR d   1      17.166 -27.619 -24.601  0.00  0.00     0.060 C 
ATOM     55  H   THR d   1      16.371 -27.886 -25.313  0.00  0.00     0.086 H 
BRANCH  54  56
ATOM     56  OG1 THR d   1      16.654 -27.737 -23.268  0.00  0.00    -0.393 OA
ATOM     57  H   THR d   1      16.389 -28.635 -23.110  0.00  0.00     0.210 HD
ENDBRANCH  54  56
BRANCH  54  58
ATOM     58  CG2 THR d   1      18.337 -28.578 -24.794  0.00  0.00    -0.050 C 
ATOM     59  H   THR d   1      18.004 -29.608 -24.598  0.00  0.00     0.031 H 
ATOM     60  H   THR d   1      19.145 -28.315 -24.096  0.00  0.00     0.031 H 
ATOM     61  H   THR d   1      18.706 -28.502 -25.827  0.00  0.00     0.031 H 
ENDBRANCH  54  58
ENDBRANCH  41  54
ENDBRANCH  38  41
ENDBRANCH  35  37
BRANCH  35  62
ATOM     62  CB  CYS d   1      14.946 -23.354 -21.969  0.00  0.00     0.001 C 
ATOM     63  H   CYS d   1      14.119 -22.642 -21.833  0.00  0.00     0.052 H 
ATOM     64  H   CYS d   1      15.876 -22.915 -21.579  0.00  0.00     0.052 H 
BRANCH  62  65
ATOM     65  SG  CYS d   1      14.578 -24.853 -21.030  0.00  0.00    -0.180 SA
ATOM     66  H   CYS d   1      14.473 -24.620 -20.055  0.00  0.00     0.101 HD
ENDBRANCH  62  65
ENDBRANCH  35  62
ENDBRANCH  32  35
ENDBRANCH  29  31
BRANCH  29  67
ATOM     67  CB  VAL d   1      16.422 -21.365 -27.314  0.00  0.00    -0.033 C 
ATOM     68  H   VAL d   1      16.378 -20.570 -28.072  0.00  0.00     0.042 H 
BRANCH  67  69
ATOM     69  CG1 VAL d   1      17.590 -21.076 -26.383  0.00  0.00    -0.071 C 
ATOM     70  H   VAL d   1      18.528 -21.090 -26.957  0.00  0.00     0.028 H 
ATOM     71  H   VAL d   1      17.630 -21.843 -25.596  0.00  0.00     0.028 H 
ATOM     72  H   VAL d   1      17.456 -20.086 -25.923  0.00  0.00     0.028 H 
ENDBRANCH  67  69
BRANCH  67  73
ATOM     73  CG2 VAL d   1      16.642 -22.693 -28.033  0.00  0.00    -0.071 C 
ATOM     74  H   VAL d   1      15.793 -22.892 -28.703  0.00  0.00     0.028 H 
ATOM     75  H   VAL d   1      16.722 -23.502 -27.292  0.00  0.00     0.028 H 
ATOM     76  H   VAL d   1      17.570 -22.642 -28.622  0.00  0.00     0.028 H 
ENDBRANCH  67  73
ENDBRANCH  29  67
ENDBRANCH  26  29
ENDBRANCH  23  25
BRANCH  23  77
ATOM     77  CB  ALA d   1      10.946 -20.190 -28.094  0.00  0.00    -0.049 C 
ATOM     78  H   ALA d   1      10.136 -20.102 -28.833  0.00  0.00     0.030 H 
ATOM     79  H   ALA d   1      10.869 -19.369 -27.366  0.00  0.00     0.030 H 
ATOM     80  H   ALA d   1      10.862 -21.154 -27.571  0.00  0.00     0.030 H 
ENDBRANCH  23  77
ENDBRANCH  20  23
ENDBRANCH  17  19
BRANCH  17  81
ATOM     81  CB  ALA d   1      12.380 -18.123 -33.215  0.00  0.00    -0.049 C 
ATOM     82  H   ALA d   1      12.569 -17.247 -33.854  0.00  0.00     0.030 H 
ATOM     83  H   ALA d   1      11.354 -18.484 -33.381  0.00  0.00     0.030 H 
ATOM     84  H   ALA d   1      13.094 -18.921 -33.466  0.00  0.00     0.030 H 
ENDBRANCH  17  81
ENDBRANCH  14  17
ENDBRANCH  11  13
BRANCH  11  85
ATOM     85  CB  ARG d   1       8.043 -16.101 -30.663  0.00  0.00    -0.036 C 
ATOM     86  H   ARG d   1       7.948 -16.631 -29.704  0.00  0.00     0.036 H 
ATOM     87  H   ARG d   1       7.809 -16.791 -31.488  0.00  0.00     0.036 H 
BRANCH  85  88
ATOM     88  CG  ARG d   1       7.034 -14.956 -30.687  0.00  0.00    -0.048 C 
ATOM     89  H   ARG d   1       7.105 -14.444 -31.658  0.00  0.00     0.035 H 
ATOM     90  H   ARG d   1       7.283 -14.250 -29.881  0.00  0.00     0.035 H 
BRANCH  88  91
ATOM     91  CD  ARG d   1       5.609 -15.433 -30.492  0.00  0.00     0.009 C 
ATOM     92  H   ARG d   1       4.949 -14.556 -30.426  0.00  0.00     0.064 H 
ATOM     93  H   ARG d   1       5.553 -16.005 -29.554  0.00  0.00     0.064 H 
BRANCH  91  94
ATOM     94  NE  ARG d   1       5.150 -16.283 -31.588  0.00  0.00    -0.227 N 
ATOM     95  CZ  ARG d   1       4.553 -15.858 -32.701  0.00  0.00     0.665 C 
ATOM     96  NH1 ARG d   1       4.328 -14.563 -32.915  0.00  0.00    -0.235 N 
ATOM     97  NH2 ARG d   1       4.179 -16.745 -33.615  0.00  0.00    -0.235 N 
ATOM     98  H   ARG d   1       3.865 -14.257 -33.783  0.00  0.00     0.174 HD
ATOM     99  H   ARG d   1       4.617 -13.867 -32.213  0.00  0.00     0.174 HD
ATOM    100  H   ARG d   1       4.349 -17.749 -33.458  0.00  0.00     0.174 HD
ATOM    101  H   ARG d   1       3.719 -16.430 -34.481  0.00  0.00     0.174 HD
ATOM    102  H   ARG d   1       5.301 -17.297 -31.492  0.00  0.00     0.177 HD
ENDBRANCH  91  94
ENDBRANCH  88  91
ENDBRANCH  85  88
ENDBRANCH  11  85
ENDBRANCH   8  11
ENDBRANCH   5   7
BRANCH   5 103
ATOM    103  CB  THR d   1      11.080 -15.766 -26.230  0.00  0.00     0.060 C 
ATOM    104  H   THR d   1      11.325 -15.211 -25.312  0.00  0.00     0.086 H 
BRANCH 103 105
ATOM    105  OG1 THR d   1      12.108 -16.733 -26.476  0.00  0.00    -0.393 OA
ATOM    106  H   THR d   1      11.911 -17.207 -27.276  0.00  0.00     0.210 HD
ENDBRANCH 103 105
BRANCH 103 107
ATOM    107  CG2 THR d   1       9.740 -16.474 -26.035  0.00  0.00    -0.050 C 
ATOM    108  H   THR d   1       9.817 -17.179 -25.194  0.00  0.00     0.031 H 
ATOM    109  H   THR d   1       9.479 -17.024 -26.951  0.00  0.00     0.031 H 
ATOM    110  H   THR d   1       8.960 -15.729 -25.819  0.00  0.00     0.031 H 
ENDBRANCH 103 107
ENDBRANCH   5 103
ENDBRANCH   1   5
BRANCH   3 111
ATOM    111  CA  ARG d   1      14.158 -13.277 -28.996  0.00  0.00     0.089 C 
ATOM    112  H   ARG d   1      14.558 -12.859 -28.060  0.00  0.00     0.087 H 
BRANCH 111 113
ATOM    113  C   ARG d   1      13.828 -12.138 -29.961  0.00  0.00     0.243 C 
ATOM    114  O   ARG d   1      12.987 -12.305 -30.842  0.00  0.00    -0.271 OA
ATOM    115  N   PRO d   1      14.498 -10.980 -29.813  0.00  0.00    -0.337 N 
ATOM    116  CA  PRO d   1      14.212  -9.833 -30.677  0.00  0.00     0.091 C 
ATOM    117  CD  PRO d   1      15.595 -10.696 -28.868  0.00  0.00    -0.001 C 
ATOM    118  CB  PRO d   1      14.934  -8.684 -29.972  0.00  0.00    -0.036 C 
ATOM    119  H   PRO d   1      13.129  -9.648 -30.730  0.00  0.00     0.087 H 
ATOM    120  CG  PRO d   1      16.085  -9.338 -29.290  0.00  0.00    -0.048 C 
ATOM    121  H   PRO d   1      14.272  -8.198 -29.240  0.00  0.00     0.036 H 
ATOM    122  H   PRO d   1      15.285  -7.939 -30.701  0.00  0.00     0.036 H 
ATOM    123  H   PRO d   1      16.393  -8.752 -28.411  0.00  0.00     0.035 H 
ATOM    124  H   PRO d   1      16.935  -9.436 -29.982  0.00  0.00     0.035 H 
ATOM    125  H   PRO d   1      16.394 -11.447 -28.957  0.00  0.00     0.064 H 
ATOM    126  H   PRO d   1      15.225 -10.675 -27.832  0.00  0.00     0.064 H 
BRANCH 116 127
ATOM    127  C   PRO d   1      14.763 -10.012 -32.091  0.00  0.00     0.241 C 
ATOM    128  O   PRO d   1      15.702 -10.784 -32.290  0.00  0.00    -0.271 OA
ATOM    129  N   VAL d   1      14.180  -9.310 -33.060  0.00  0.00    -0.346 N 
ATOM    130  H   VAL d   1      13.371  -8.760 -32.852  0.00  0.00     0.163 HD
BRANCH 129 131
ATOM    131  CA  VAL d   1      14.707  -9.331 -34.428  0.00  0.00     0.092 C 
ATOM    132  H   VAL d   1      14.792 -10.383 -34.738  0.00  0.00     0.088 H 
BRANCH 131 133
ATOM    133  C   VAL d   1      16.096  -8.701 -34.454  0.00  0.00     0.241 C 
ATOM    134  O   VAL d   1      16.362  -7.736 -33.736  0.00  0.00    -0.271 OA
ATOM    135  N   LEU d   1      16.974  -9.261 -35.282  0.00  0.00    -0.346 N 
ATOM    136  H   LEU d   1      16.683 -10.036 -35.843  0.00  0.00     0.163 HD
BRANCH 135 137
ATOM    137  CA  LEU d   1      18.345  -8.784 -35.400  0.00  0.00     0.089 C 
ATOM    138  H   LEU d   1      18.525  -8.028 -34.622  0.00  0.00     0.087 H 
BRANCH 137 139
ATOM    139  C   LEU d   1      18.545  -8.133 -36.766  0.00  0.00     0.241 C 
ATOM    140  O   LEU d   1      18.958  -8.786 -37.727  0.00  0.00    -0.271 OA
ATOM    141  N   SER d   1      18.229  -6.842 -36.841  0.00  0.00    -0.344 N 
ATOM    142  H   SER d   1      17.873  -6.386 -36.025  0.00  0.00     0.163 HD
BRANCH 141 143
ATOM    143  CA  SER d   1      18.382  -6.064 -38.069  0.00  0.00     0.109 C 
ATOM    144  H   SER d   1      18.687  -6.740 -38.881  0.00  0.00     0.090 H 
BRANCH 143 145
ATOM    145  C   SER d   1      19.461  -5.002 -37.880  0.00  0.00     0.243 C 
ATOM    146  O   SER d   1      19.293  -4.070 -37.093  0.00  0.00    -0.271 OA
ATOM    147  N   TYR d   1      20.566  -5.154 -38.605  0.00  0.00    -0.344 N 
ATOM    148  H   TYR d   1      20.618  -5.917 -39.249  0.00  0.00     0.163 HD
BRANCH 147 149
ATOM    149  CA  TYR d   1      21.706  -4.247 -38.495  0.00  0.00     0.100 C 
ATOM    150  H   TYR d   1      21.331  -3.216 -38.408  0.00  0.00     0.090 H 
BRANCH 149 151
ATOM    151  C   TYR d   1      22.583  -4.349 -39.736  0.00  0.00     0.197 C 
ATOM    152  O   TYR d   1      22.372  -5.219 -40.581  0.00  0.00    -0.646 OA
ATOM    153  OXT TYR d   1      23.524  -3.577 -39.916  0.00  0.00    -0.646 OA
ENDBRANCH 149 151
BRANCH 149 154
ATOM    154  CB  TYR d   1      22.531  -4.580 -37.250  0.00  0.00    -0.013 C 
ATOM    155  H   TYR d   1      21.900  -4.425 -36.362  0.00  0.00     0.043 H 
ATOM    156  H   TYR d   1      23.393  -3.898 -37.211  0.00  0.00     0.043 H 
BRANCH 154 157
ATOM    157  CG  TYR d   1      23.045  -6.003 -37.229  0.00  0.00    -0.056 A 
ATOM    158  CD1 TYR d   1      22.248  -7.043 -36.758  0.00  0.00    -0.074 A 
ATOM    159  CE1 TYR d   1      22.709  -8.347 -36.742  0.00  0.00    -0.051 A 
ATOM    160  H   TYR d   1      21.249  -6.827 -36.398  0.00  0.00     0.084 H 
ATOM    161  CZ  TYR d   1      23.981  -8.628 -37.201  0.00  0.00     0.065 A 
ATOM    162  H   TYR d   1      22.075  -9.144 -36.371  0.00  0.00     0.087 H 
ATOM    163  CE2 TYR d   1      24.791  -7.616 -37.677  0.00  0.00    -0.051 A 
ATOM    164  CD2 TYR d   1      24.322  -6.312 -37.688  0.00  0.00    -0.074 A 
ATOM    165  H   TYR d   1      25.788  -7.840 -38.040  0.00  0.00     0.087 H 
ATOM    166  H   TYR d   1      24.961  -5.519 -38.060  0.00  0.00     0.084 H 
BRANCH 161 167
ATOM    167  OH  TYR d   1      24.439  -9.924 -37.187  0.00  0.00    -0.361 OA
ATOM    168  H   TYR d   1      23.766 -10.493 -36.833  0.00  0.00     0.217 HD
ENDBRANCH 161 167
ENDBRANCH 154 157
ENDBRANCH 149 154
ENDBRANCH 147 149
ENDBRANCH 143 145
BRANCH 143 169
ATOM    169  CB  SER d   1      17.057  -5.403 -38.452  0.00  0.00     0.044 C 
ATOM    170  H   SER d   1      16.300  -6.184 -38.615  0.00  0.00     0.077 H 
ATOM    171  H   SER d   1      17.197  -4.829 -39.380  0.00  0.00     0.077 H 
BRANCH 169 172
ATOM    172  OG  SER d   1      16.607  -4.529 -37.432  0.00  0.00    -0.398 OA
ATOM    173  H   SER d   1      17.256  -3.849 -37.290  0.00  0.00     0.209 HD
ENDBRANCH 169 172
ENDBRANCH 143 169
ENDBRANCH 141 143
ENDBRANCH 137 139
BRANCH 137 174
ATOM    174  CB  LEU d   1      19.329  -9.941 -35.189  0.00  0.00    -0.035 C 
ATOM    175  H   LEU d   1      20.344  -9.518 -35.163  0.00  0.00     0.037 H 
ATOM    176  H   LEU d   1      19.237 -10.622 -36.048  0.00  0.00     0.037 H 
BRANCH 174 177
ATOM    177  CG  LEU d   1      19.133 -10.769 -33.912  0.00  0.00    -0.059 C 
ATOM    178  H   LEU d   1      18.153 -11.264 -33.974  0.00  0.00     0.038 H 
BRANCH 177 179
ATOM    179  CD1 LEU d   1      20.205 -11.841 -33.806  0.00  0.00    -0.073 C 
ATOM    180  H   LEU d   1      20.050 -12.425 -32.886  0.00  0.00     0.028 H 
ATOM    181  H   LEU d   1      21.197 -11.366 -33.776  0.00  0.00     0.028 H 
ATOM    182  H   LEU d   1      20.144 -12.508 -34.678  0.00  0.00     0.028 H 
ENDBRANCH 177 179
BRANCH 177 183
ATOM    183  CD2 LEU d   1      19.142  -9.893 -32.669  0.00  0.00    -0.073 C 
ATOM    184  H   LEU d   1      18.363  -9.122 -32.758  0.00  0.00     0.028 H 
ATOM    185  H   LEU d   1      20.125  -9.410 -32.568  0.00  0.00     0.028 H 
ATOM    186  H   LEU d   1      18.945 -10.513 -31.782  0.00  0.00     0.028 H 
ENDBRANCH 177 183
ENDBRANCH 174 177
ENDBRANCH 137 174
ENDBRANCH 135 137
ENDBRANCH 131 133
BRANCH 131 187
ATOM    187  CB  VAL d   1      13.803  -8.604 -35.455  0.00  0.00    -0.033 C 
ATOM    188  H   VAL d   1      14.295  -8.674 -36.436  0.00  0.00     0.042 H 
BRANCH 187 189
ATOM    189  CG1 VAL d   1      12.451  -9.292 -35.569  0.00  0.00    -0.071 C 
ATOM    190  H   VAL d   1      11.829  -8.758 -36.303  0.00  0.00     0.028 H 
ATOM    191  H   VAL d   1      11.951  -9.283 -34.589  0.00  0.00     0.028 H 
ATOM    192  H   VAL d   1      12.595 -10.332 -35.898  0.00  0.00     0.028 H 
ENDBRANCH 187 189
BRANCH 187 193
ATOM    193  CG2 VAL d   1      13.648  -7.123 -35.127  0.00  0.00    -0.071 C 
ATOM    194  H   VAL d   1      14.642  -6.658 -35.052  0.00  0.00     0.028 H 
ATOM    195  H   VAL d   1      13.119  -7.013 -34.169  0.00  0.00     0.028 H 
ATOM    196  H   VAL d   1      13.072  -6.630 -35.923  0.00  0.00     0.028 H 
ENDBRANCH 187 193
ENDBRANCH 131 187
ENDBRANCH 129 131
ENDBRANCH 116 127
ENDBRANCH 111 113
BRANCH 111 197
ATOM    197  CB  ARG d   1      15.210 -14.183 -29.636  0.00  0.00    -0.036 C 
ATOM    198  H   ARG d   1      16.149 -13.615 -29.715  0.00  0.00     0.036 H 
ATOM    199  H   ARG d   1      14.861 -14.456 -30.643  0.00  0.00     0.036 H 
BRANCH 197 200
ATOM    200  CG  ARG d   1      15.495 -15.466 -28.869  0.00  0.00    -0.048 C 
ATOM    201  H   ARG d   1      14.629 -16.138 -28.962  0.00  0.00     0.035 H 
ATOM    202  H   ARG d   1      15.657 -15.220 -27.809  0.00  0.00     0.035 H 
BRANCH 200 203
ATOM    203  CD  ARG d   1      16.731 -16.175 -29.407  0.00  0.00     0.009 C 
ATOM    204  H   ARG d   1      17.046 -16.933 -28.675  0.00  0.00     0.064 H 
ATOM    205  H   ARG d   1      17.533 -15.432 -29.533  0.00  0.00     0.064 H 
BRANCH 203 206
ATOM    206  NE  ARG d   1      16.503 -16.838 -30.695  0.00  0.00    -0.227 N 
ATOM    207  CZ  ARG d   1      16.005 -18.067 -30.849  0.00  0.00     0.665 C 
ATOM    208  NH1 ARG d   1      15.643 -18.798 -29.797  0.00  0.00    -0.235 N 
ATOM    209  NH2 ARG d   1      15.854 -18.569 -32.071  0.00  0.00    -0.235 N 
ATOM    210  H   ARG d   1      15.261 -19.744 -29.935  0.00  0.00     0.174 HD
ATOM    211  H   ARG d   1      15.745 -18.417 -28.846  0.00  0.00     0.174 HD
ATOM    212  H   ARG d   1      16.130 -18.014 -32.894  0.00  0.00     0.174 HD
ATOM    213  H   ARG d   1      15.461 -19.513 -32.195  0.00  0.00     0.174 HD
ATOM    214  H   ARG d   1      16.746 -16.314 -31.548  0.00  0.00     0.177 HD
ENDBRANCH 203 206
ENDBRANCH 200 203
ENDBRANCH 197 200
ENDBRANCH 111 197
ENDBRANCH   3 111
TORSDOF 60
