REMARK  9 active torsions:
REMARK  status: ('A' for Active; 'I' for Inactive)
REMARK    1  A    between atoms: C32_1  and  C31_2 
REMARK    2  A    between atoms: C31_2  and  C30_3 
REMARK    3  A    between atoms: C30_3  and  C29_4 
REMARK    4  A    between atoms: C29_4  and  O28_5 
REMARK    5  A    between atoms: O28_5  and  C26_6 
REMARK    6  A    between atoms: C22_11  and  C9_12 
REMARK    7  A    between atoms: C6_16  and  C14_17 
REMARK    8  A    between atoms: C12_22  and  C15_26 
REMARK    9  A    between atoms: C15_26  and  N16_27 
ROOT
ATOM      1  C9  Q2T d   1      -2.198  22.136  22.825  0.00  0.00     0.170 A 
ATOM      2  N8  Q2T d   1      -3.153  21.352  23.272  0.00  0.00    -0.129 NA
ATOM      3  N7  Q2T d   1      -3.162  21.421  24.660  0.00  0.00    -0.127 NA
ATOM      4  C1  Q2T d   1      -2.207  22.261  25.018  0.00  0.00     0.183 A 
ATOM      5  C6  Q2T d   1      -1.746  22.646  26.317  0.00  0.00     0.079 A 
ATOM      6  N5  Q2T d   1      -0.769  23.469  26.473  0.00  0.00    -0.248 NA
ATOM      7  N2  Q2T d   1      -1.584  22.777  23.882  0.00  0.00    -0.273 N 
ATOM      8  C3  Q2T d   1      -0.544  23.743  24.046  0.00  0.00     0.072 A 
ATOM      9  C13 Q2T d   1       0.022  24.460  22.992  0.00  0.00    -0.047 A 
ATOM     10  C12 Q2T d   1       0.959  25.465  23.212  0.00  0.00    -0.030 A 
ATOM     11  C11 Q2T d   1       1.367  25.712  24.513  0.00  0.00    -0.073 A 
ATOM     12  C10 Q2T d   1       0.817  25.023  25.579  0.00  0.00    -0.052 A 
ATOM     13  C4  Q2T d   1      -0.159  24.047  25.366  0.00  0.00     0.084 A 
ATOM     14  H   Q2T d   1      -0.276  24.229  21.976  0.00  0.00     0.088 H 
ATOM     15  H   Q2T d   1       2.131  26.459  24.699  0.00  0.00     0.084 H 
ATOM     16  H   Q2T d   1       1.146  25.242  26.588  0.00  0.00     0.087 H 
ENDROOT
BRANCH   1  17
ATOM     17  C22 Q2T d   1      -1.779  22.167  21.416  0.00  0.00     0.032 A 
ATOM     18  C23 Q2T d   1      -0.495  21.843  20.999  0.00  0.00     0.016 A 
ATOM     19  N24 Q2T d   1      -0.128  21.775  19.716  0.00  0.00    -0.269 NA
ATOM     20  H   Q2T d   1       0.252  21.634  21.757  0.00  0.00     0.116 H 
ATOM     21  C25 Q2T d   1      -1.057  22.036  18.789  0.00  0.00     0.034 A 
ATOM     22  C26 Q2T d   1      -2.363  22.381  19.102  0.00  0.00     0.087 A 
ATOM     23  H   Q2T d   1      -0.775  21.975  17.744  0.00  0.00     0.119 H 
ATOM     24  C27 Q2T d   1      -2.724  22.449  20.439  0.00  0.00    -0.034 A 
ATOM     25  H   Q2T d   1      -3.736  22.720  20.719  0.00  0.00     0.089 H 
BRANCH  22  26
ATOM     26  O28 Q2T d   1      -3.188  22.640  18.035  0.00  0.00    -0.350 OA
BRANCH  26  27
ATOM     27  C29 Q2T d   1      -4.551  23.035  18.273  0.00  0.00     0.026 C 
ATOM     28  H   Q2T d   1      -5.144  22.888  17.358  0.00  0.00     0.075 H 
ATOM     29  H   Q2T d   1      -4.975  22.428  19.086  0.00  0.00     0.075 H 
BRANCH  27  30
ATOM     30  C30 Q2T d   1      -4.573  24.493  18.663  0.00  0.00    -0.045 C 
ATOM     31  H   Q2T d   1      -4.202  24.586  19.694  0.00  0.00     0.036 H 
ATOM     32  H   Q2T d   1      -3.910  25.048  17.983  0.00  0.00     0.036 H 
BRANCH  30  33
ATOM     33  C31 Q2T d   1      -5.965  25.105  18.591  0.00  0.00    -0.067 C 
ATOM     34  H   Q2T d   1      -6.404  24.864  17.611  0.00  0.00     0.032 H 
ATOM     35  H   Q2T d   1      -6.583  24.666  19.388  0.00  0.00     0.032 H 
BRANCH  33  36
ATOM     36  C32 Q2T d   1      -5.956  26.608  18.760  0.00  0.00    -0.076 C 
ATOM     37  H   Q2T d   1      -6.986  26.990  18.699  0.00  0.00     0.027 H 
ATOM     38  H   Q2T d   1      -5.348  27.063  17.964  0.00  0.00     0.027 H 
ATOM     39  H   Q2T d   1      -5.527  26.864  19.740  0.00  0.00     0.027 H 
ENDBRANCH  33  36
ENDBRANCH  30  33
ENDBRANCH  27  30
ENDBRANCH  26  27
ENDBRANCH  22  26
ENDBRANCH   1  17
BRANCH   5  40
ATOM     40  C14 Q2T d   1      -2.423  22.066  27.515  0.00  0.00    -0.032 C 
ATOM     41  H   Q2T d   1      -1.953  22.460  28.428  0.00  0.00     0.035 H 
ATOM     42  H   Q2T d   1      -2.326  20.970  27.496  0.00  0.00     0.035 H 
ATOM     43  H   Q2T d   1      -3.488  22.340  27.503  0.00  0.00     0.035 H 
ENDBRANCH   5  40
BRANCH  10  44
ATOM     44  C15 Q2T d   1       1.397  26.375  22.086  0.00  0.00     0.107 C 
ATOM     45  H   Q2T d   1       1.885  27.253  22.534  0.00  0.00     0.083 H 
ATOM     46  H   Q2T d   1       0.496  26.694  21.541  0.00  0.00     0.083 H 
BRANCH  44  47
ATOM     47  N16 Q2T d   1       2.332  25.791  21.107  0.00  0.00    -0.063 N 
ATOM     48  C21 Q2T d   1       2.882  24.502  21.544  0.00  0.00     0.103 C 
ATOM     49  C20 Q2T d   1       3.823  23.961  20.498  0.00  0.00     0.042 C 
ATOM     50  H   Q2T d   1       2.059  23.788  21.698  0.00  0.00     0.079 H 
ATOM     51  H   Q2T d   1       3.428  24.641  22.489  0.00  0.00     0.079 H 
ATOM     52  O19 Q2T d   1       4.886  24.868  20.228  0.00  0.00    -0.388 OA
ATOM     53  H   Q2T d   1       3.260  23.784  19.569  0.00  0.00     0.076 H 
ATOM     54  H   Q2T d   1       4.247  23.011  20.856  0.00  0.00     0.076 H 
ATOM     55  C18 Q2T d   1       4.361  26.117  19.796  0.00  0.00     0.042 C 
ATOM     56  C17 Q2T d   1       3.438  26.714  20.822  0.00  0.00     0.103 C 
ATOM     57  H   Q2T d   1       3.804  25.965  18.860  0.00  0.00     0.076 H 
ATOM     58  H   Q2T d   1       5.195  26.812  19.618  0.00  0.00     0.076 H 
ATOM     59  H   Q2T d   1       3.999  26.905  21.748  0.00  0.00     0.079 H 
ATOM     60  H   Q2T d   1       3.031  27.661  20.438  0.00  0.00     0.079 H 
ATOM     61  H   Q2T d   1       1.821  25.636  20.252  0.00  0.00     0.280 HD
ENDBRANCH  44  47
ENDBRANCH  10  44
TORSDOF 9
