REMARK  5 active torsions:
REMARK  status: ('A' for Active; 'I' for Inactive)
REMARK       I    between atoms: C14_2  and  N15_3 
REMARK    1  A    between atoms: C14_2  and  C3_11 
REMARK    2  A    between atoms: N15_3  and  C16_4 
REMARK    3  A    between atoms: C16_4  and  C17_5 
REMARK    4  A    between atoms: C11_16  and  C25_17 
REMARK    5  A    between atoms: C8_26  and  C24_27 
ROOT
ATOM      1  C3  788 d   1      36.595 -25.246  26.879  0.00  0.00     0.034 A 
ATOM      2  C2  788 d   1      37.012 -24.919  28.161  0.00  0.00    -0.065 A 
ATOM      3  C4  788 d   1      35.570 -26.169  26.711  0.00  0.00    -0.039 A 
ATOM      4  C5  788 d   1      34.968 -26.771  27.818  0.00  0.00     0.072 A 
ATOM      5  N10 788 d   1      33.882 -27.690  27.708  0.00  0.00    -0.273 N 
ATOM      6  C11 788 d   1      33.184 -28.317  26.690  0.00  0.00     0.169 A 
ATOM      7  N12 788 d   1      32.225 -29.057  27.198  0.00  0.00    -0.129 NA
ATOM      8  N13 788 d   1      32.289 -28.961  28.587  0.00  0.00    -0.127 NA
ATOM      9  C9  788 d   1      33.289 -28.153  28.880  0.00  0.00     0.183 A 
ATOM     10  C8  788 d   1      33.810 -27.759  30.159  0.00  0.00     0.079 A 
ATOM     11  N7  788 d   1      34.806 -26.950  30.264  0.00  0.00    -0.248 NA
ATOM     12  C6  788 d   1      35.395 -26.428  29.118  0.00  0.00     0.084 A 
ATOM     13  C1  788 d   1      36.422 -25.498  29.268  0.00  0.00    -0.052 A 
ATOM     14  H   788 d   1      37.812 -24.200  28.296  0.00  0.00     0.085 H 
ATOM     15  H   788 d   1      35.235 -26.424  25.712  0.00  0.00     0.088 H 
ATOM     16  H   788 d   1      36.761 -25.227  30.261  0.00  0.00     0.087 H 
ENDROOT
BRANCH   1  17
ATOM     17  C14 788 d   1      37.221 -24.553  25.709  0.00  0.00     0.252 C 
ATOM     18  O23 788 d   1      37.402 -25.142  24.643  0.00  0.00    -0.268 OA
ATOM     19  N15 788 d   1      37.559 -23.272  25.886  0.00  0.00    -0.353 N 
ATOM     20  H   788 d   1      37.207 -22.789  26.688  0.00  0.00     0.163 HD
BRANCH  19  21
ATOM     21  C16 788 d   1      38.419 -22.553  24.959  0.00  0.00     0.019 C 
ATOM     22  H   788 d   1      39.103 -23.269  24.480  0.00  0.00     0.071 H 
ATOM     23  H   788 d   1      39.003 -21.808  25.520  0.00  0.00     0.071 H 
BRANCH  21  24
ATOM     24  C17 788 d   1      37.627 -21.846  23.890  0.00  0.00    -0.041 A 
ATOM     25  C22 788 d   1      36.567 -21.022  24.231  0.00  0.00    -0.075 A 
ATOM     26  C21 788 d   1      35.793 -20.421  23.254  0.00  0.00    -0.082 A 
ATOM     27  H   788 d   1      36.341 -20.846  25.276  0.00  0.00     0.084 H 
ATOM     28  C20 788 d   1      36.072 -20.633  21.921  0.00  0.00    -0.083 A 
ATOM     29  H   788 d   1      34.965 -19.782  23.538  0.00  0.00     0.083 H 
ATOM     30  C19 788 d   1      37.131 -21.445  21.567  0.00  0.00    -0.082 A 
ATOM     31  H   788 d   1      35.464 -20.165  21.155  0.00  0.00     0.083 H 
ATOM     32  C18 788 d   1      37.905 -22.045  22.546  0.00  0.00    -0.075 A 
ATOM     33  H   788 d   1      37.357 -21.613  20.520  0.00  0.00     0.083 H 
ATOM     34  H   788 d   1      38.737 -22.677  22.259  0.00  0.00     0.084 H 
ENDBRANCH  21  24
ENDBRANCH  19  21
ENDBRANCH   1  17
BRANCH   6  35
ATOM     35  C25 788 d   1      33.495 -28.271  25.246  0.00  0.00     0.012 A 
ATOM     36  C30 788 d   1      34.784 -28.525  24.783  0.00  0.00    -0.069 A 
ATOM     37  C29 788 d   1      35.065 -28.482  23.427  0.00  0.00    -0.082 A 
ATOM     38  H   788 d   1      35.573 -28.758  25.489  0.00  0.00     0.085 H 
ATOM     39  C28 788 d   1      34.071 -28.191  22.519  0.00  0.00    -0.083 A 
ATOM     40  H   788 d   1      36.073 -28.678  23.079  0.00  0.00     0.083 H 
ATOM     41  C27 788 d   1      32.791 -27.943  22.962  0.00  0.00    -0.082 A 
ATOM     42  H   788 d   1      34.296 -28.157  21.459  0.00  0.00     0.083 H 
ATOM     43  C26 788 d   1      32.498 -27.984  24.314  0.00  0.00    -0.069 A 
ATOM     44  H   788 d   1      32.008 -27.714  22.248  0.00  0.00     0.083 H 
ATOM     45  H   788 d   1      31.486 -27.792  24.651  0.00  0.00     0.085 H 
ENDBRANCH   6  35
BRANCH  10  46
ATOM     46  C24 788 d   1      33.204 -28.344  31.391  0.00  0.00    -0.032 C 
ATOM     47  H   788 d   1      33.715 -27.941  32.278  0.00  0.00     0.035 H 
ATOM     48  H   788 d   1      33.315 -29.438  31.370  0.00  0.00     0.035 H 
ATOM     49  H   788 d   1      32.136 -28.084  31.433  0.00  0.00     0.035 H 
ENDBRANCH  10  46
TORSDOF 5
