REMARK  5 active torsions:
REMARK  status: ('A' for Active; 'I' for Inactive)
REMARK    1  A    between atoms: C19_4  and  N21_5 
REMARK    2  A    between atoms: C15_7  and  C11_8 
REMARK    3  A    between atoms: C9_11  and  C12_12 
REMARK       I    between atoms: C12_12  and  N14_14 
REMARK    4  A    between atoms: C8_15  and  C1_16 
REMARK    5  A    between atoms: C2_22  and  C22_23 
ROOT
ATOM      1  C11 VVQ d   1      31.868 -11.499   3.850  0.00  0.00     0.063 A 
ATOM      2  N7  VVQ d   1      32.346 -12.775   3.830  0.00  0.00    -0.353 N 
ATOM      3  C10 VVQ d   1      30.637 -11.479   4.483  0.00  0.00    -0.037 A 
ATOM      4  C9  VVQ d   1      30.356 -12.763   4.915  0.00  0.00     0.061 A 
ATOM      5  C8  VVQ d   1      31.425 -13.540   4.512  0.00  0.00     0.059 A 
ATOM      6  H   VVQ d   1      33.220 -13.102   3.393  0.00  0.00     0.166 HD
ATOM      7  H   VVQ d   1      30.001 -10.605   4.617  0.00  0.00     0.088 H 
ENDROOT
BRANCH   5   8
ATOM      8  C1  VVQ d   1      31.655 -14.891   4.600  0.00  0.00    -0.001 A 
ATOM      9  C6  VVQ d   1      32.303 -15.488   5.701  0.00  0.00    -0.049 A 
ATOM     10  C5  VVQ d   1      32.607 -16.847   5.748  0.00  0.00     0.035 A 
ATOM     11  H   VVQ d   1      32.576 -14.864   6.545  0.00  0.00     0.087 H 
ATOM     12 CL   VVQ d   1      33.458 -17.561   7.158  0.00  0.00    -0.084 Cl
ATOM     13  C4  VVQ d   1      32.339 -17.763   4.746  0.00  0.00    -0.061 A 
ATOM     14  C3  VVQ d   1      31.716 -17.179   3.641  0.00  0.00    -0.075 A 
ATOM     15  H   VVQ d   1      32.585 -18.817   4.811  0.00  0.00     0.086 H 
ATOM     16  C2  VVQ d   1      31.387 -15.807   3.560  0.00  0.00    -0.049 A 
ATOM     17  H   VVQ d   1      31.471 -17.814   2.797  0.00  0.00     0.084 H 
BRANCH  16  18
ATOM     18  C22 VVQ d   1      30.834 -15.416   2.329  0.00  0.00    -0.050 C 
ATOM     19  H   VVQ d   1      30.609 -14.339   2.353  0.00  0.00     0.033 H 
ATOM     20  H   VVQ d   1      29.907 -15.980   2.148  0.00  0.00     0.033 H 
ATOM     21  H   VVQ d   1      31.553 -15.622   1.522  0.00  0.00     0.033 H 
ENDBRANCH  16  18
ENDBRANCH   5   8
BRANCH   4  22
ATOM     22  C12 VVQ d   1      29.148 -13.208   5.568  0.00  0.00     0.251 C 
ATOM     23  O13 VVQ d   1      28.102 -12.552   5.687  0.00  0.00    -0.268 OA
ATOM     24  N14 VVQ d   1      29.015 -14.432   5.952  0.00  0.00    -0.366 N 
ATOM     25  H   VVQ d   1      28.172 -14.726   6.403  0.00  0.00     0.159 HD
ATOM     26  H   VVQ d   1      29.755 -15.087   5.799  0.00  0.00     0.159 HD
ENDBRANCH   4  22
BRANCH   1  27
ATOM     27  C15 VVQ d   1      32.529 -10.493   3.212  0.00  0.00     0.104 A 
ATOM     28  C16 VVQ d   1      32.099  -9.161   3.217  0.00  0.00    -0.035 A 
ATOM     29  C17 VVQ d   1      32.805  -8.184   2.511  0.00  0.00     0.023 A 
ATOM     30  H   VVQ d   1      31.210  -8.885   3.773  0.00  0.00     0.089 H 
ATOM     31  N18 VVQ d   1      33.889  -8.524   1.779  0.00  0.00    -0.075 NA
ATOM     32  H   VVQ d   1      32.482  -7.150   2.550  0.00  0.00     0.115 H 
ATOM     33  C19 VVQ d   1      34.351  -9.853   1.777  0.00  0.00     0.720 A 
ATOM     34  N20 VVQ d   1      33.699 -10.801   2.505  0.00  0.00    -0.061 NA
BRANCH  33  35
ATOM     35  N21 VVQ d   1      35.437 -10.167   1.033  0.00  0.00    -0.231 N 
ATOM     36  H   VVQ d   1      35.917  -9.436   0.489  0.00  0.00     0.174 HD
ATOM     37  H   VVQ d   1      35.783 -11.137   1.011  0.00  0.00     0.174 HD
ENDBRANCH  33  35
ENDBRANCH   1  27
TORSDOF 5
