REMARK  5 active torsions:
REMARK  status: ('A' for Active; 'I' for Inactive)
REMARK    1  A    between atoms: C18_5  and  C19_6 
REMARK    2  A    between atoms: C16_11  and  C15_12 
REMARK    3  A    between atoms: C11_14  and  C12_15 
REMARK       I    between atoms: C12_15  and  N14_16 
REMARK    4  A    between atoms: C2_19  and  C3_20 
REMARK    5  A    between atoms: C5_24  and  N6_26 
ROOT
ATOM      1  C15 953 d   1      31.360 -13.466   4.325  0.00  0.00     0.060 A 
ATOM      2  N1  953 d   1      32.263 -12.675   3.636  0.00  0.00    -0.353 N 
ATOM      3  C11 953 d   1      30.338 -12.630   4.825  0.00  0.00     0.061 A 
ATOM      4  C10 953 d   1      30.642 -11.310   4.466  0.00  0.00    -0.037 A 
ATOM      5  C2  953 d   1      31.868 -11.376   3.754  0.00  0.00     0.063 A 
ATOM      6  H   953 d   1      33.091 -13.010   3.123  0.00  0.00     0.166 HD
ATOM      7  H   953 d   1      30.058 -10.418   4.688  0.00  0.00     0.088 H 
ENDROOT
BRANCH   1   8
ATOM      8  C16 953 d   1      31.486 -14.933   4.374  0.00  0.00     0.014 A 
ATOM      9  C25 953 d   1      31.184 -15.741   3.249  0.00  0.00     0.046 A 
ATOM     10 CL   953 d   1      30.667 -14.969   1.784  0.00  0.00    -0.083 Cl
ATOM     11  C24 953 d   1      31.333 -17.124   3.227  0.00  0.00    -0.060 A 
ATOM     12  C23 953 d   1      31.835 -17.696   4.328  0.00  0.00    -0.067 A 
ATOM     13  H   953 d   1      31.055 -17.711   2.359  0.00  0.00     0.086 H 
ATOM     14  C18 953 d   1      32.149 -16.910   5.461  0.00  0.00     0.048 A 
ATOM     15  H   953 d   1      32.002 -18.767   4.351  0.00  0.00     0.084 H 
ATOM     16  C17 953 d   1      31.999 -15.536   5.493  0.00  0.00    -0.054 A 
ATOM     17  H   953 d   1      32.276 -14.959   6.368  0.00  0.00     0.086 H 
BRANCH  14  18
ATOM     18  C19 953 d   1      32.704 -17.631   6.652  0.00  0.00     0.417 C 
ATOM     19  F22 953 d   1      32.854 -16.839   7.695  0.00  0.00    -0.166 F 
ATOM     20  F21 953 d   1      33.964 -17.947   6.379  0.00  0.00    -0.166 F 
ATOM     21  F20 953 d   1      31.998 -18.725   6.892  0.00  0.00    -0.166 F 
ENDBRANCH  14  18
ENDBRANCH   1   8
BRANCH   3  22
ATOM     22  C12 953 d   1      29.108 -13.181   5.537  0.00  0.00     0.251 C 
ATOM     23  N14 953 d   1      29.052 -14.388   5.974  0.00  0.00    -0.366 N 
ATOM     24  H   953 d   1      28.228 -14.715   6.436  0.00  0.00     0.159 HD
ATOM     25  H   953 d   1      29.833 -15.001   5.852  0.00  0.00     0.159 HD
ATOM     26  O13 953 d   1      28.099 -12.459   5.691  0.00  0.00    -0.268 OA
ENDBRANCH   3  22
BRANCH   5  27
ATOM     27  C3  953 d   1      32.571 -10.260   3.113  0.00  0.00     0.104 A 
ATOM     28  C9  953 d   1      32.147  -8.949   3.197  0.00  0.00    -0.035 A 
ATOM     29  C8  953 d   1      32.877  -8.009   2.518  0.00  0.00     0.023 A 
ATOM     30  H   953 d   1      31.273  -8.675   3.776  0.00  0.00     0.089 H 
ATOM     31  N7  953 d   1      33.960  -8.364   1.789  0.00  0.00    -0.075 NA
ATOM     32  H   953 d   1      32.583  -6.967   2.566  0.00  0.00     0.115 H 
ATOM     33  C5  953 d   1      34.352  -9.671   1.707  0.00  0.00     0.720 A 
ATOM     34  N4  953 d   1      33.678 -10.620   2.389  0.00  0.00    -0.061 NA
BRANCH  33  35
ATOM     35  N6  953 d   1      35.458 -10.088   1.002  0.00  0.00    -0.231 N 
ATOM     36  H   953 d   1      36.012  -9.407   0.463  0.00  0.00     0.174 HD
ATOM     37  H   953 d   1      35.732 -11.081   1.014  0.00  0.00     0.174 HD
ENDBRANCH  33  35
ENDBRANCH   5  27
TORSDOF 5
