REMARK  2 active torsions:
REMARK  status: ('A' for Active; 'I' for Inactive)
REMARK    1  A    between atoms: C3_3  and  C10_10 
REMARK    2  A    between atoms: C10_10  and  C11_11 
ROOT
ATOM      1  N1  I5H d   1       2.486   6.909  27.750  0.00  0.00    -0.365 N 
ATOM      2  C2  I5H d   1       2.605   8.113  27.152  0.00  0.00    -0.015 A 
ATOM      3  C3  I5H d   1       2.399   9.119  28.077  0.00  0.00    -0.028 A 
ATOM      4  C4  I5H d   1       2.142   8.483  29.304  0.00  0.00    -0.002 A 
ATOM      5  C5  I5H d   1       1.862   8.943  30.591  0.00  0.00    -0.070 A 
ATOM      6  C6  I5H d   1       1.650   8.004  31.611  0.00  0.00    -0.082 A 
ATOM      7  C7  I5H d   1       1.714   6.649  31.356  0.00  0.00    -0.081 A 
ATOM      8  C8  I5H d   1       1.989   6.156  30.088  0.00  0.00    -0.056 A 
ATOM      9  C9  I5H d   1       2.199   7.095  29.075  0.00  0.00     0.042 A 
ATOM     10  H   I5H d   1       2.594   5.997  27.284  0.00  0.00     0.165 HD
ATOM     11  H   I5H d   1       2.830   8.269  26.098  0.00  0.00     0.112 H 
ATOM     12  H   I5H d   1       1.809  10.006  30.799  0.00  0.00     0.084 H 
ATOM     13  H   I5H d   1       1.432   8.348  32.616  0.00  0.00     0.083 H 
ATOM     14  H   I5H d   1       1.545   5.951  32.168  0.00  0.00     0.083 H 
ATOM     15  H   I5H d   1       2.039   5.091  29.893  0.00  0.00     0.086 H 
ENDROOT
BRANCH   3  16
ATOM     16  C10 I5H d   1       2.443  10.625  27.814  0.00  0.00    -0.012 C 
ATOM     17  H   I5H d   1       2.617  11.160  28.759  0.00  0.00     0.044 H 
ATOM     18  H   I5H d   1       1.488  10.952  27.377  0.00  0.00     0.044 H 
BRANCH  16  19
ATOM     19  C11 I5H d   1       3.536  10.910  26.878  0.00  0.00     0.095 A 
ATOM     20  C12 I5H d   1       3.271  12.217  26.222  0.00  0.00     0.248 A 
ATOM     21  N13 I5H d   1       4.338  13.097  26.558  0.00  0.00    -0.278 N 
ATOM     22  O16 I5H d   1       2.317  12.479  25.532  0.00  0.00    -0.271 OA
ATOM     23  C14 I5H d   1       5.275  12.366  27.413  0.00  0.00     0.323 A 
ATOM     24  H   I5H d   1       4.431  14.048  26.262  0.00  0.00     0.173 HD
ATOM     25  N15 I5H d   1       4.760  11.016  27.597  0.00  0.00    -0.329 N 
ATOM     26  O17 I5H d   1       6.291  12.794  27.885  0.00  0.00    -0.247 OA
ATOM     27  H   I5H d   1       5.191  10.291  28.134  0.00  0.00     0.165 HD
ATOM     28  H   I5H d   1       3.606  10.111  26.125  0.00  0.00     0.088 H 
ENDBRANCH  16  19
ENDBRANCH   3  16
TORSDOF 2
