REMARK  2 active torsions:
REMARK  status: ('A' for Active; 'I' for Inactive)
REMARK    1  A    between atoms: C4_8  and  C3_7 
REMARK    2  A    between atoms: C5_9  and  C4_8 
ROOT
ATOM      1  C4  5FH d   1       2.236  11.218 -24.600  0.00  0.00    -0.014 C 
ATOM      2  H   5FH d   1       1.344  11.096 -25.232  0.00  0.00     0.043 H 
ATOM      3  H   5FH d   1       2.103  12.090 -23.942  0.00  0.00     0.043 H 
ENDROOT
BRANCH   1   4
ATOM      4  C3  5FH d   1       3.430  11.435 -25.470  0.00  0.00     0.095 A 
ATOM      5  N1  5FH d   1       4.592  11.707 -24.686  0.00  0.00    -0.329 N 
ATOM      6  C1  5FH d   1       5.090  13.020 -25.049  0.00  0.00     0.323 A 
ATOM      7  H   5FH d   1       4.994  11.097 -24.003  0.00  0.00     0.165 HD
ATOM      8  O1  5FH d   1       6.072  13.575 -24.577  0.00  0.00    -0.247 OA
ATOM      9  N2  5FH d   1       4.215  13.561 -26.069  0.00  0.00    -0.278 N 
ATOM     10  C2  5FH d   1       3.196  12.601 -26.333  0.00  0.00     0.248 A 
ATOM     11  H   5FH d   1       4.310  14.453 -26.511  0.00  0.00     0.173 HD
ATOM     12  O2  5FH d   1       2.286  12.724 -27.141  0.00  0.00    -0.271 OA
ATOM     13  H   5FH d   1       3.600  10.539 -26.085  0.00  0.00     0.088 H 
ENDBRANCH   1   4
BRANCH   1  14
ATOM     14  C5  5FH d   1       2.419   9.993 -23.764  0.00  0.00    -0.056 A 
ATOM     15  C7  5FH d   1       2.820  10.126 -22.336  0.00  0.00    -0.077 A 
ATOM     16  C8  5FH d   1       2.985   9.016 -21.561  0.00  0.00    -0.082 A 
ATOM     17  H   5FH d   1       2.982  11.110 -21.910  0.00  0.00     0.084 H 
ATOM     18  C9  5FH d   1       2.766   7.663 -22.149  0.00  0.00    -0.083 A 
ATOM     19  H   5FH d   1       3.274   9.117 -20.521  0.00  0.00     0.083 H 
ATOM     20  C6  5FH d   1       2.399   7.539 -23.458  0.00  0.00    -0.082 A 
ATOM     21  H   5FH d   1       2.898   6.778 -21.537  0.00  0.00     0.083 H 
ATOM     22  C10 5FH d   1       2.218   8.755 -24.301  0.00  0.00    -0.077 A 
ATOM     23  H   5FH d   1       2.239   6.556 -23.885  0.00  0.00     0.083 H 
ATOM     24  H   5FH d   1       1.927   8.656 -25.340  0.00  0.00     0.084 H 
ENDBRANCH   1  14
TORSDOF 2
