REMARK  2 active torsions:
REMARK  status: ('A' for Active; 'I' for Inactive)
REMARK    1  A    between atoms: CA_2  and  CB_3 
REMARK    2  A    between atoms: CB_3  and  CG_4 
ROOT
ATOM      1  CG  B5H d   1       2.493   9.712 -24.105  0.00  0.00    -0.051 A 
ATOM      2  CD1 B5H d   1       2.767  10.223 -22.841  0.00  0.00    -0.076 A 
ATOM      3  CE1 B5H d   1       2.776   9.401 -21.724  0.00  0.00    -0.081 A 
ATOM      4  CZ  B5H d   1       2.507   8.052 -21.848  0.00  0.00    -0.066 A 
ATOM      5  CE2 B5H d   1       2.228   7.531 -23.099  0.00  0.00     0.011 A 
ATOM      6  CD2 B5H d   1       2.220   8.353 -24.215  0.00  0.00    -0.060 A 
ATOM      7 BR1  B5H d   1       1.847   5.640 -23.294  0.00  0.00    -0.051 Br
ATOM      8  H   B5H d   1       2.977  11.280 -22.727  0.00  0.00     0.084 H 
ATOM      9  H   B5H d   1       2.995   9.819 -20.748  0.00  0.00     0.083 H 
ATOM     10  H   B5H d   1       2.514   7.409 -20.975  0.00  0.00     0.085 H 
ATOM     11  H   B5H d   1       1.998   7.930 -25.188  0.00  0.00     0.086 H 
ENDROOT
BRANCH   1  12
ATOM     12  CB  B5H d   1       2.474  10.580 -25.320  0.00  0.00     0.005 C 
ATOM     13  H   B5H d   1       2.802   9.939 -26.151  0.00  0.00     0.049 H 
ATOM     14  H   B5H d   1       1.422  10.864 -25.469  0.00  0.00     0.049 H 
BRANCH  12  15
ATOM     15  CA  B5H d   1       3.193  11.740 -25.437  0.00  0.00     0.112 A 
ATOM     16  N10 B5H d   1       4.233  12.167 -24.678  0.00  0.00    -0.193 NA
ATOM     17  C2  B5H d   1       4.733  13.339 -25.033  0.00  0.00     0.349 A 
ATOM     18  N11 B5H d   1       3.984  13.681 -26.068  0.00  0.00    -0.272 N 
ATOM     19  O2  B5H d   1       5.660  13.954 -24.528  0.00  0.00    -0.245 OA
ATOM     20  C   B5H d   1       3.028  12.780 -26.389  0.00  0.00     0.274 A 
ATOM     21  H   B5H d   1       4.114  14.535 -26.572  0.00  0.00     0.174 HD
ATOM     22  O3  B5H d   1       2.212  12.857 -27.295  0.00  0.00    -0.266 OA
ENDBRANCH  12  15
ENDBRANCH   1  12
TORSDOF 2
