REMARK  2 active torsions:
REMARK  status: ('A' for Active; 'I' for Inactive)
REMARK    1  A    between atoms: CA_2  and  CB_3 
REMARK    2  A    between atoms: CB_3  and  CG_4 
ROOT
ATOM      1  CG  5ND d   1       2.833   8.989 -24.043  0.00  0.00    -0.055 A 
ATOM      2  CD1 5ND d   1       2.068   9.398 -22.959  0.00  0.00    -0.076 A 
ATOM      3  CE1 5ND d   1       1.877   8.556 -21.879  0.00  0.00    -0.072 A 
ATOM      4  CZ  5ND d   1       2.451   7.297 -21.869  0.00  0.00    -0.026 A 
ATOM      5  CE2 5ND d   1       3.218   6.880 -22.944  0.00  0.00    -0.025 A 
ATOM      6  CD2 5ND d   1       3.406   7.727 -24.027  0.00  0.00    -0.066 A 
ATOM      7  C1  5ND d   1       3.794   5.622 -22.936  0.00  0.00    -0.072 A 
ATOM      8  C3  5ND d   1       3.603   4.783 -21.854  0.00  0.00    -0.082 A 
ATOM      9  C5  5ND d   1       2.834   5.200 -20.778  0.00  0.00    -0.082 A 
ATOM     10  C6  5ND d   1       2.259   6.455 -20.785  0.00  0.00    -0.072 A 
ATOM     11  H   5ND d   1       1.617  10.384 -22.959  0.00  0.00     0.084 H 
ATOM     12  H   5ND d   1       1.276   8.883 -21.038  0.00  0.00     0.084 H 
ATOM     13  H   5ND d   1       4.006   7.399 -24.868  0.00  0.00     0.085 H 
ATOM     14  H   5ND d   1       4.394   5.295 -23.777  0.00  0.00     0.084 H 
ATOM     15  H   5ND d   1       4.055   3.798 -21.847  0.00  0.00     0.083 H 
ATOM     16  H   5ND d   1       2.684   4.540 -19.931  0.00  0.00     0.083 H 
ATOM     17  H   5ND d   1       1.658   6.782 -19.944  0.00  0.00     0.084 H 
ENDROOT
BRANCH   1  18
ATOM     18  CB  5ND d   1       3.045   9.902 -25.199  0.00  0.00    -0.014 C 
ATOM     19  H   5ND d   1       4.067   9.774 -25.586  0.00  0.00     0.043 H 
ATOM     20  H   5ND d   1       2.321   9.665 -25.992  0.00  0.00     0.043 H 
BRANCH  18  21
ATOM     21  CA  5ND d   1       2.853  11.317 -24.754  0.00  0.00     0.095 A 
ATOM     22  N10 5ND d   1       4.047  11.800 -24.141  0.00  0.00    -0.329 N 
ATOM     23  C2  5ND d   1       4.505  12.947 -24.901  0.00  0.00     0.323 A 
ATOM     24  H   5ND d   1       4.490  11.416 -23.331  0.00  0.00     0.165 HD
ATOM     25  N11 5ND d   1       3.579  13.156 -26.000  0.00  0.00    -0.278 N 
ATOM     26  O2  5ND d   1       5.502  13.618 -24.663  0.00  0.00    -0.247 OA
ATOM     27  C   5ND d   1       2.565  12.163 -25.916  0.00  0.00     0.248 A 
ATOM     28  H   5ND d   1       3.643  13.873 -26.694  0.00  0.00     0.173 HD
ATOM     29  O3  5ND d   1       1.618  12.036 -26.678  0.00  0.00    -0.271 OA
ATOM     30  H   5ND d   1       2.019  11.367 -24.038  0.00  0.00     0.088 H 
ENDBRANCH  18  21
ENDBRANCH   1  18
TORSDOF 2
