REMARK  9 active torsions:
REMARK  status: ('A' for Active; 'I' for Inactive)
REMARK    1  A    between atoms: N10_3  and  C35_4 
REMARK    2  A    between atoms: N7_7  and  C16_8 
REMARK    3  A    between atoms: C13_13  and  N34_14 
REMARK    4  A    between atoms: N34_14  and  C23_15 
REMARK    5  A    between atoms: C19_20  and  C29_21 
REMARK    6  A    between atoms: N25_22  and  C33_23 
REMARK    7  A    between atoms: C27_25  and  C30_26 
REMARK       I    between atoms: C30_26  and  N32_28 
REMARK    8  A    between atoms: C26_29  and  C1_30 
REMARK    9  A    between atoms: C6_36  and  C36_37 
ROOT
ATOM      1  C23 BJG d   1       7.533  -6.719   5.383  0.00  0.00     0.727 A 
ATOM      2  N24 BJG d   1       8.447  -5.800   4.995  0.00  0.00    -0.061 NA
ATOM      3  N22 BJG d   1       7.896  -7.976   5.742  0.00  0.00    -0.075 NA
ATOM      4  C21 BJG d   1       9.228  -8.388   5.739  0.00  0.00     0.023 A 
ATOM      5  C20 BJG d   1      10.156  -7.434   5.285  0.00  0.00    -0.035 A 
ATOM      6  C19 BJG d   1       9.785  -6.118   4.933  0.00  0.00     0.104 A 
ATOM      7  H   BJG d   1       9.528  -9.377   6.065  0.00  0.00     0.115 H 
ATOM      8  H   BJG d   1      11.198  -7.721   5.202  0.00  0.00     0.089 H 
ENDROOT
BRANCH   1   9
ATOM      9  N34 BJG d   1       6.173  -6.440   5.484  0.00  0.00    -0.188 N 
ATOM     10  H   BJG d   1       5.585  -7.219   5.814  0.00  0.00     0.184 HD
BRANCH   9  11
ATOM     11  C13 BJG d   1       5.507  -5.280   5.207  0.00  0.00     0.049 A 
ATOM     12  C18 BJG d   1       6.072  -4.092   4.739  0.00  0.00    -0.054 A 
ATOM     13  C17 BJG d   1       5.287  -2.967   4.487  0.00  0.00    -0.055 A 
ATOM     14  H   BJG d   1       7.141  -4.043   4.568  0.00  0.00     0.087 H 
ATOM     15  C16 BJG d   1       3.923  -3.067   4.697  0.00  0.00     0.030 A 
ATOM     16  H   BJG d   1       5.732  -2.042   4.137  0.00  0.00     0.087 H 
ATOM     17  C15 BJG d   1       3.308  -4.248   5.145  0.00  0.00    -0.055 A 
ATOM     18  C14 BJG d   1       4.125  -5.372   5.353  0.00  0.00    -0.054 A 
ATOM     19  H   BJG d   1       2.240  -4.291   5.324  0.00  0.00     0.087 H 
ATOM     20  H   BJG d   1       3.676  -6.319   5.630  0.00  0.00     0.087 H 
BRANCH  15  21
ATOM     21  N7  BJG d   1       3.130  -1.935   4.470  0.00  0.00    -0.378 N 
ATOM     22  C8  BJG d   1       1.986  -1.659   5.411  0.00  0.00     0.018 C 
ATOM     23  C9  BJG d   1       1.403  -0.180   5.202  0.00  0.00     0.098 C 
ATOM     24  H   BJG d   1       1.185  -2.389   5.225  0.00  0.00     0.066 H 
ATOM     25  H   BJG d   1       2.342  -1.761   6.447  0.00  0.00     0.066 H 
ATOM     26  N10 BJG d   1       1.526   0.257   3.791  0.00  0.00    -0.072 N 
ATOM     27  H   BJG d   1       1.962   0.518   5.843  0.00  0.00     0.078 H 
ATOM     28  H   BJG d   1       0.341  -0.171   5.488  0.00  0.00     0.078 H 
ATOM     29  C11 BJG d   1       2.927   0.258   3.366  0.00  0.00     0.098 C 
ATOM     30  H   BJG d   1       0.925  -0.266   3.174  0.00  0.00     0.279 HD
ATOM     31  C12 BJG d   1       3.455  -1.163   3.290  0.00  0.00     0.018 C 
ATOM     32  H   BJG d   1       3.526   0.829   4.091  0.00  0.00     0.078 H 
ATOM     33  H   BJG d   1       3.005   0.728   2.374  0.00  0.00     0.078 H 
ATOM     34  H   BJG d   1       4.549  -1.128   3.181  0.00  0.00     0.066 H 
ATOM     35  H   BJG d   1       3.014  -1.657   2.412  0.00  0.00     0.066 H 
BRANCH  26  36
ATOM     36  C35 BJG d   1       1.247   1.746   3.828  0.00  0.00     0.066 C 
ATOM     37  H   BJG d   1       1.318   2.158   2.810  0.00  0.00     0.068 H 
ATOM     38  H   BJG d   1       1.985   2.241   4.476  0.00  0.00     0.068 H 
ATOM     39  H   BJG d   1       0.236   1.920   4.224  0.00  0.00     0.068 H 
ENDBRANCH  26  36
ENDBRANCH  15  21
ENDBRANCH   9  11
ENDBRANCH   1   9
BRANCH   6  40
ATOM     40  C29 BJG d   1      10.697  -5.099   4.601  0.00  0.00     0.065 A 
ATOM     41  N25 BJG d   1      10.394  -3.843   4.122  0.00  0.00    -0.348 N 
ATOM     42  C26 BJG d   1      11.508  -3.055   4.056  0.00  0.00     0.061 A 
ATOM     43  C27 BJG d   1      12.501  -3.794   4.535  0.00  0.00     0.061 A 
ATOM     44  C28 BJG d   1      12.024  -5.064   4.889  0.00  0.00    -0.037 A 
ATOM     45  H   BJG d   1      12.611  -5.875   5.317  0.00  0.00     0.088 H 
BRANCH  41  46
ATOM     46  C33 BJG d   1       9.100  -3.475   3.614  0.00  0.00    -0.013 C 
ATOM     47  H   BJG d   1       8.387  -4.292   3.799  0.00  0.00     0.057 H 
ATOM     48  H   BJG d   1       9.170  -3.288   2.532  0.00  0.00     0.057 H 
ATOM     49  H   BJG d   1       8.752  -2.563   4.122  0.00  0.00     0.057 H 
ENDBRANCH  41  46
BRANCH  42  50
ATOM     50  C1  BJG d   1      11.486  -1.743   3.530  0.00  0.00    -0.001 A 
ATOM     51  C2  BJG d   1      12.173  -1.400   2.349  0.00  0.00    -0.049 A 
ATOM     52  C3  BJG d   1      12.056  -0.084   1.803  0.00  0.00     0.035 A 
ATOM     53  H   BJG d   1      12.793  -2.137   1.852  0.00  0.00     0.087 H 
ATOM     54 CL1  BJG d   1      12.995   0.161   0.397  0.00  0.00    -0.084 Cl
ATOM     55  C4  BJG d   1      11.272   0.962   2.365  0.00  0.00    -0.061 A 
ATOM     56  C5  BJG d   1      10.580   0.631   3.552  0.00  0.00    -0.075 A 
ATOM     57  H   BJG d   1      11.210   1.946   1.914  0.00  0.00     0.086 H 
ATOM     58  C6  BJG d   1      10.660  -0.685   4.097  0.00  0.00    -0.049 A 
ATOM     59  H   BJG d   1       9.983   1.384   4.053  0.00  0.00     0.084 H 
BRANCH  58  60
ATOM     60  C36 BJG d   1       9.899  -0.907   5.305  0.00  0.00    -0.050 C 
ATOM     61  H   BJG d   1      10.032  -1.948   5.636  0.00  0.00     0.033 H 
ATOM     62  H   BJG d   1       8.834  -0.718   5.107  0.00  0.00     0.033 H 
ATOM     63  H   BJG d   1      10.252  -0.224   6.092  0.00  0.00     0.033 H 
ENDBRANCH  58  60
ENDBRANCH  42  50
BRANCH  43  64
ATOM     64  C30 BJG d   1      13.814  -3.393   4.636  0.00  0.00     0.251 C 
ATOM     65  O31 BJG d   1      14.752  -4.186   4.461  0.00  0.00    -0.268 OA
ATOM     66  N32 BJG d   1      14.026  -2.055   4.940  0.00  0.00    -0.366 N 
ATOM     67  H   BJG d   1      14.958  -1.704   5.027  0.00  0.00     0.159 HD
ATOM     68  H   BJG d   1      13.246  -1.443   5.072  0.00  0.00     0.159 HD
ENDBRANCH  43  64
ENDBRANCH   6  40
TORSDOF 9
