REMARK  11 active torsions:
REMARK  status: ('A' for Active; 'I' for Inactive)
REMARK    1  A    between atoms: C7_11  and  C7M_12 
REMARK    2  A    between atoms: C8_13  and  C8M_14 
REMARK    3  A    between atoms: N10_17  and  C1'_19 
REMARK    4  A    between atoms: C1'_19  and  C2'_20 
REMARK    5  A    between atoms: C2'_20  and  O2'_21 
REMARK    6  A    between atoms: C2'_20  and  C3'_22 
REMARK    7  A    between atoms: C3'_22  and  O3'_23 
REMARK    8  A    between atoms: C3'_22  and  C4'_24 
REMARK    9  A    between atoms: C4'_24  and  O4'_25 
REMARK   10  A    between atoms: C4'_24  and  C5'_26 
REMARK   11  A    between atoms: C5'_26  and  O5'_27 
ROOT
ATOM      1  N1  RBF d   1     -35.043  -7.482  31.777  0.00  0.00    -0.173 NA
ATOM      2  C2  RBF d   1     -35.209  -6.861  32.973  0.00  0.00     0.350 A 
ATOM      3  O2  RBF d   1     -35.013  -7.509  34.024  0.00  0.00    -0.244 OA
ATOM      4  N3  RBF d   1     -35.571  -5.571  33.075  0.00  0.00    -0.272 N 
ATOM      5  C4  RBF d   1     -35.797  -4.804  32.003  0.00  0.00     0.282 A 
ATOM      6  O4  RBF d   1     -36.136  -3.609  32.136  0.00  0.00    -0.265 OA
ATOM      7  C4A RBF d   1     -35.643  -5.408  30.658  0.00  0.00     0.171 A 
ATOM      8  N5  RBF d   1     -35.857  -4.697  29.530  0.00  0.00    -0.237 NA
ATOM      9  C5A RBF d   1     -35.711  -5.272  28.315  0.00  0.00     0.085 A 
ATOM     10  C6  RBF d   1     -35.944  -4.520  27.170  0.00  0.00    -0.047 A 
ATOM     11  C7  RBF d   1     -35.798  -5.099  25.915  0.00  0.00    -0.054 A 
ATOM     12  C8  RBF d   1     -35.392  -6.525  25.795  0.00  0.00    -0.054 A 
ATOM     13  C9  RBF d   1     -35.159  -7.281  26.938  0.00  0.00    -0.048 A 
ATOM     14  C9A RBF d   1     -35.305  -6.703  28.195  0.00  0.00     0.065 A 
ATOM     15  N10 RBF d   1     -35.084  -7.467  29.361  0.00  0.00    -0.325 N 
ATOM     16  C10 RBF d   1     -35.238  -6.832  30.610  0.00  0.00     0.170 A 
ATOM     17  H   RBF d   1     -35.675  -5.170  33.985  0.00  0.00     0.174 HD
ATOM     18  H   RBF d   1     -36.240  -3.481  27.256  0.00  0.00     0.088 H 
ATOM     19  H   RBF d   1     -34.864  -8.320  26.850  0.00  0.00     0.087 H 
ENDROOT
BRANCH  15  20
ATOM     20  C1' RBF d   1     -34.669  -8.873  29.264  0.00  0.00     0.028 C 
ATOM     21  H   RBF d   1     -33.788  -9.020  29.906  0.00  0.00     0.069 H 
ATOM     22  H   RBF d   1     -34.400  -9.085  28.218  0.00  0.00     0.069 H 
BRANCH  20  23
ATOM     23  C2' RBF d   1     -35.747  -9.861  29.693  0.00  0.00     0.078 C 
ATOM     24  H   RBF d   1     -36.678  -9.648  29.148  0.00  0.00     0.089 H 
BRANCH  23  25
ATOM     25  O2' RBF d   1     -35.974  -9.734  31.099  0.00  0.00    -0.391 OA
ATOM     26  H   RBF d   1     -36.258  -8.849  31.294  0.00  0.00     0.210 HD
ENDBRANCH  23  25
BRANCH  23  27
ATOM     27  C3' RBF d   1     -35.293 -11.285  29.390  0.00  0.00     0.088 C 
ATOM     28  H   RBF d   1     -34.617 -11.611  30.195  0.00  0.00     0.091 H 
BRANCH  27  29
ATOM     29  O3' RBF d   1     -34.577 -11.313  28.148  0.00  0.00    -0.390 OA
ATOM     30  H   RBF d   1     -34.297 -12.202  27.965  0.00  0.00     0.210 HD
ENDBRANCH  27  29
BRANCH  27  31
ATOM     31  C4' RBF d   1     -36.468 -12.257  29.328  0.00  0.00     0.083 C 
ATOM     32  H   RBF d   1     -36.280 -12.987  28.527  0.00  0.00     0.090 H 
BRANCH  31  33
ATOM     33  O4' RBF d   1     -37.676 -11.544  29.039  0.00  0.00    -0.391 OA
ATOM     34  H   RBF d   1     -37.835 -10.903  29.722  0.00  0.00     0.210 HD
ENDBRANCH  31  33
BRANCH  31  35
ATOM     35  C5' RBF d   1     -36.634 -13.004  30.645  0.00  0.00     0.043 C 
ATOM     36  H   RBF d   1     -37.542 -13.623  30.604  0.00  0.00     0.078 H 
ATOM     37  H   RBF d   1     -36.721 -12.280  31.469  0.00  0.00     0.078 H 
BRANCH  35  38
ATOM     38  O5' RBF d   1     -35.494 -13.843  30.864  0.00  0.00    -0.398 OA
ATOM     39  H   RBF d   1     -35.598 -14.309  31.686  0.00  0.00     0.209 HD
ENDBRANCH  35  38
ENDBRANCH  31  35
ENDBRANCH  27  31
ENDBRANCH  23  27
ENDBRANCH  20  23
ENDBRANCH  15  20
BRANCH  12  40
ATOM     40  C8M RBF d   1     -35.236  -7.148  24.433  0.00  0.00    -0.051 C 
ATOM     41  H   RBF d   1     -34.933  -8.200  24.543  0.00  0.00     0.033 H 
ATOM     42  H   RBF d   1     -34.467  -6.603  23.866  0.00  0.00     0.033 H 
ATOM     43  H   RBF d   1     -36.194  -7.097  23.894  0.00  0.00     0.033 H 
ENDBRANCH  12  40
BRANCH  11  44
ATOM     44  C7M RBF d   1     -36.051  -4.278  24.679  0.00  0.00    -0.051 C 
ATOM     45  H   RBF d   1     -36.339  -3.257  24.970  0.00  0.00     0.033 H 
ATOM     46  H   RBF d   1     -36.863  -4.735  24.095  0.00  0.00     0.033 H 
ATOM     47  H   RBF d   1     -35.136  -4.242  24.069  0.00  0.00     0.033 H 
ENDBRANCH  11  44
TORSDOF 11
