REMARK  7 active torsions:
REMARK  status: ('A' for Active; 'I' for Inactive)
REMARK    1  A    between atoms: C1_1  and  O2_2 
REMARK    2  A    between atoms: O2_2  and  C3_3 
REMARK    3  A    between atoms: C5_5  and  O6_6 
REMARK    4  A    between atoms: C8_8  and  N9_9 
REMARK    5  A    between atoms: N9_9  and  C10_10 
REMARK    6  A    between atoms: C13_13  and  C16_16 
REMARK       I    between atoms: C16_16  and  N18_18 
REMARK    7  A    between atoms: N18_18  and  C19_19 
ROOT
ATOM      1  C10 6Z7 d   1     -10.366 -37.956 -17.729  0.00  0.00     0.032 A 
ATOM      2  C11 6Z7 d   1      -9.276 -38.540 -17.087  0.00  0.00    -0.056 A 
ATOM      3  C12 6Z7 d   1      -9.008 -39.889 -17.246  0.00  0.00    -0.066 A 
ATOM      4  C13 6Z7 d   1      -9.824 -40.685 -18.046  0.00  0.00     0.032 A 
ATOM      5  C14 6Z7 d   1     -10.908 -40.101 -18.693  0.00  0.00    -0.066 A 
ATOM      6  C15 6Z7 d   1     -11.174 -38.751 -18.538  0.00  0.00    -0.056 A 
ATOM      7  H   6Z7 d   1      -8.633 -37.934 -16.459  0.00  0.00     0.086 H 
ATOM      8  H   6Z7 d   1      -8.155 -40.330 -16.743  0.00  0.00     0.085 H 
ATOM      9  H   6Z7 d   1     -11.549 -40.707 -19.323  0.00  0.00     0.085 H 
ATOM     10  H   6Z7 d   1     -12.020 -38.308 -19.052  0.00  0.00     0.086 H 
ENDROOT
BRANCH   4  11
ATOM     11  C16 6Z7 d   1      -9.504 -42.141 -18.210  0.00  0.00     0.256 C 
ATOM     12  O17 6Z7 d   1      -8.416 -42.588 -17.850  0.00  0.00    -0.267 OA
ATOM     13  N18 6Z7 d   1     -10.470 -42.922 -18.765  0.00  0.00    -0.323 N 
ATOM     14  H   6Z7 d   1     -11.391 -42.533 -18.767  0.00  0.00     0.169 HD
BRANCH  13  15
ATOM     15  C19 6Z7 d   1     -10.349 -44.214 -19.342  0.00  0.00     0.035 A 
ATOM     16  C20 6Z7 d   1      -9.139 -44.891 -19.472  0.00  0.00    -0.057 A 
ATOM     17  C21 6Z7 d   1      -9.097 -46.146 -20.049  0.00  0.00    -0.074 A 
ATOM     18  H   6Z7 d   1      -8.224 -44.430 -19.118  0.00  0.00     0.086 H 
ATOM     19  C22 6Z7 d   1     -10.256 -46.752 -20.520  0.00  0.00    -0.049 A 
ATOM     20  H   6Z7 d   1      -8.149 -46.664 -20.135  0.00  0.00     0.084 H 
ATOM     21  C23 6Z7 d   1     -10.135 -48.115 -21.155  0.00  0.00    -0.018 C 
ATOM     22  C27 6Z7 d   1     -11.474 -46.082 -20.396  0.00  0.00    -0.024 A 
ATOM     23  C24 6Z7 d   1     -11.462 -48.687 -21.642  0.00  0.00     0.086 C 
ATOM     24  H   6Z7 d   1      -9.711 -48.807 -20.413  0.00  0.00     0.042 H 
ATOM     25  H   6Z7 d   1      -9.454 -48.038 -22.015  0.00  0.00     0.042 H 
ATOM     26  N25 6Z7 d   1     -12.382 -47.596 -22.060  0.00  0.00    -0.071 N 
ATOM     27  H   6Z7 d   1     -11.929 -49.261 -20.828  0.00  0.00     0.076 H 
ATOM     28  H   6Z7 d   1     -11.276 -49.351 -22.499  0.00  0.00     0.076 H 
ATOM     29  C26 6Z7 d   1     -12.738 -46.718 -20.913  0.00  0.00     0.106 C 
ATOM     30  H   6Z7 d   1     -13.224 -48.003 -22.436  0.00  0.00     0.277 HD
ATOM     31  H   6Z7 d   1     -11.931 -47.041 -22.770  0.00  0.00     0.277 HD
ATOM     32  H   6Z7 d   1     -13.206 -47.316 -20.117  0.00  0.00     0.083 H 
ATOM     33  H   6Z7 d   1     -13.438 -45.938 -21.245  0.00  0.00     0.083 H 
ATOM     34  C28 6Z7 d   1     -11.509 -44.816 -19.811  0.00  0.00    -0.049 A 
ATOM     35  H   6Z7 d   1     -12.455 -44.295 -19.721  0.00  0.00     0.087 H 
ENDBRANCH  13  15
ENDBRANCH   4  11
BRANCH   1  36
ATOM     36  N9  6Z7 d   1     -10.713 -36.585 -17.612  0.00  0.00    -0.356 N 
ATOM     37  H   6Z7 d   1     -11.475 -36.307 -18.247  0.00  0.00     0.166 HD
BRANCH  36  38
ATOM     38  C8  6Z7 d   1     -10.240 -35.516 -16.813  0.00  0.00     0.037 A 
ATOM     39  C7  6Z7 d   1     -10.443 -34.211 -17.257  0.00  0.00    -0.025 A 
ATOM     40  C5  6Z7 d   1      -9.989 -33.135 -16.509  0.00  0.00     0.070 A 
ATOM     41  H   6Z7 d   1     -10.960 -34.035 -18.194  0.00  0.00     0.091 H 
ATOM     42  C4  6Z7 d   1      -9.343 -33.352 -15.302  0.00  0.00    -0.019 A 
ATOM     43  C3  6Z7 d   1      -9.132 -34.643 -14.854  0.00  0.00     0.073 A 
ATOM     44  H   6Z7 d   1      -9.003 -32.510 -14.710  0.00  0.00     0.092 H 
ATOM     45  C29 6Z7 d   1      -9.590 -35.715 -15.598  0.00  0.00    -0.025 A 
ATOM     46  H   6Z7 d   1      -9.441 -36.724 -15.230  0.00  0.00     0.091 H 
BRANCH  40  47
ATOM     47  O6  6Z7 d   1     -10.175 -31.869 -16.977  0.00  0.00    -0.361 OA
ATOM     48  H   6Z7 d   1     -10.692 -31.375 -16.352  0.00  0.00     0.217 HD
ENDBRANCH  40  47
BRANCH  43  49
ATOM     49  O2  6Z7 d   1      -8.542 -35.051 -13.688  0.00  0.00    -0.356 OA
BRANCH  49  50
ATOM     50  C1  6Z7 d   1      -8.187 -34.053 -12.734  0.00  0.00     0.010 C 
ATOM     51  H   6Z7 d   1      -7.727 -34.531 -11.857  0.00  0.00     0.066 H 
ATOM     52  H   6Z7 d   1      -9.089 -33.506 -12.422  0.00  0.00     0.066 H 
ATOM     53  H   6Z7 d   1      -7.471 -33.351 -13.187  0.00  0.00     0.066 H 
ENDBRANCH  49  50
ENDBRANCH  43  49
ENDBRANCH  36  38
ENDBRANCH   1  36
TORSDOF 7
