REMARK  8 active torsions:
REMARK  status: ('A' for Active; 'I' for Inactive)
REMARK    1  A    between atoms: N_2  and  C_1 
REMARK    2  A    between atoms: O_3  and  C3_9 
REMARK    3  A    between atoms: C6_15  and  O_3 
REMARK    4  A    between atoms: N1_5  and  C9_18 
REMARK    5  A    between atoms: C13_22  and  N1_5 
REMARK    6  A    between atoms: C10_19  and  O1_6 
REMARK    7  A    between atoms: O1_6  and  C12_21 
REMARK    8  A    between atoms: C17_26  and  C16_25 
ROOT
ATOM      1  C6  DYK d   1       7.356  -4.168  53.186  0.00  0.00     0.072 A 
ATOM      2  C7  DYK d   1       8.544  -3.960  52.497  0.00  0.00    -0.048 A 
ATOM      3  C8  DYK d   1       9.625  -3.381  53.143  0.00  0.00    -0.051 A 
ATOM      4  C9  DYK d   1       9.553  -3.069  54.500  0.00  0.00     0.082 A 
ATOM      5  C10 DYK d   1       8.334  -3.310  55.197  0.00  0.00     0.098 A 
ATOM      6  C11 DYK d   1       7.255  -3.883  54.541  0.00  0.00    -0.016 A 
ATOM      7  H16 DYK d   1       8.626  -4.250  51.456  0.00  0.00     0.087 H 
ATOM      8  H17 DYK d   1      10.533  -3.169  52.589  0.00  0.00     0.087 H 
ATOM      9  H18 DYK d   1       6.342  -4.106  55.081  0.00  0.00     0.092 H 
ENDROOT
BRANCH   4  10
ATOM     10  N1  DYK d   1      10.619  -2.456  55.200  0.00  0.00    -0.185 N 
ATOM     11  H7  DYK d   1      10.325  -1.959  56.053  0.00  0.00     0.184 HD
BRANCH  10  12
ATOM     12  C13 DYK d   1      11.965  -2.396  54.963  0.00  0.00     0.727 A 
ATOM     13  N2  DYK d   1      12.672  -1.429  55.594  0.00  0.00    -0.075 NA
ATOM     14  C14 DYK d   1      13.987  -1.419  55.334  0.00  0.00     0.023 A 
ATOM     15  C15 DYK d   1      14.603  -2.322  54.486  0.00  0.00    -0.036 A 
ATOM     16  H22 DYK d   1      14.600  -0.664  55.813  0.00  0.00     0.115 H 
ATOM     17  C16 DYK d   1      13.783  -3.276  53.891  0.00  0.00     0.089 A 
ATOM     18  H23 DYK d   1      15.669  -2.288  54.295  0.00  0.00     0.089 H 
ATOM     19  N3  DYK d   1      12.461  -3.325  54.124  0.00  0.00    -0.062 NA
BRANCH  17  20
ATOM     20  C17 DYK d   1      14.322  -4.277  52.969  0.00  0.00     0.021 A 
ATOM     21  C18 DYK d   1      15.623  -4.418  52.554  0.00  0.00    -0.009 A 
ATOM     22  N4  DYK d   1      15.730  -5.466  51.678  0.00  0.00    -0.363 N 
ATOM     23  H24 DYK d   1      16.451  -3.788  52.875  0.00  0.00     0.112 H 
ATOM     24  C19 DYK d   1      14.489  -6.035  51.491  0.00  0.00     0.061 A 
ATOM     25  H13 DYK d   1      16.602  -5.780  51.229  0.00  0.00     0.165 HD
ATOM     26  C20 DYK d   1      13.564  -5.321  52.278  0.00  0.00     0.007 A 
ATOM     27  C23 DYK d   1      14.050  -7.107  50.715  0.00  0.00     0.028 A 
ATOM     28  C21 DYK d   1      12.226  -5.713  52.258  0.00  0.00    -0.053 A 
ATOM     29  C22 DYK d   1      11.891  -6.793  51.453  0.00  0.00     0.003 A 
ATOM     30  H25 DYK d   1      11.478  -5.195  52.847  0.00  0.00     0.087 H 
ATOM     31  N5  DYK d   1      12.764  -7.483  50.699  0.00  0.00    -0.271 NA
ATOM     32  H26 DYK d   1      10.852  -7.102  51.431  0.00  0.00     0.114 H 
ATOM     33  H27 DYK d   1      14.767  -7.650  50.110  0.00  0.00     0.118 H 
ENDBRANCH  17  20
ENDBRANCH  10  12
ENDBRANCH   4  10
BRANCH   5  34
ATOM     34  O1  DYK d   1       8.360  -3.010  56.532  0.00  0.00    -0.354 OA
BRANCH  34  35
ATOM     35  C12 DYK d   1       7.215  -3.358  57.324  0.00  0.00     0.010 C 
ATOM     36  H19 DYK d   1       7.386  -3.055  58.368  0.00  0.00     0.066 H 
ATOM     37  H20 DYK d   1       7.055  -4.445  57.279  0.00  0.00     0.066 H 
ATOM     38  H21 DYK d   1       6.327  -2.840  56.932  0.00  0.00     0.066 H 
ENDBRANCH  34  35
ENDBRANCH   5  34
BRANCH   1  39
ATOM     39  O   DYK d   1       6.215  -4.741  52.661  0.00  0.00    -0.346 OA
BRANCH  39  40
ATOM     40  C3  DYK d   1       5.491  -4.042  51.579  0.00  0.00     0.048 C 
ATOM     41  C2  DYK d   1       4.895  -2.727  52.049  0.00  0.00    -0.018 C 
ATOM     42  C1  DYK d   1       3.695  -2.980  52.971  0.00  0.00     0.085 C 
ATOM     43  H8  DYK d   1       5.660  -2.159  52.598  0.00  0.00     0.039 H 
ATOM     44  H9  DYK d   1       4.564  -2.147  51.175  0.00  0.00     0.039 H 
ATOM     45  N   DYK d   1       2.687  -3.813  52.312  0.00  0.00    -0.075 N 
ATOM     46  H5  DYK d   1       4.043  -3.490  53.881  0.00  0.00     0.076 H 
ATOM     47  H6  DYK d   1       3.241  -2.015  53.242  0.00  0.00     0.076 H 
ATOM     48  C5  DYK d   1       3.266  -5.113  51.971  0.00  0.00     0.085 C 
ATOM     49  H4  DYK d   1       2.397  -3.356  51.461  0.00  0.00     0.279 HD
ATOM     50  C4  DYK d   1       4.436  -4.959  50.995  0.00  0.00    -0.018 C 
ATOM     51  H14 DYK d   1       2.491  -5.740  51.506  0.00  0.00     0.076 H 
ATOM     52  H15 DYK d   1       3.627  -5.597  52.890  0.00  0.00     0.076 H 
ATOM     53  H11 DYK d   1       4.880  -5.947  50.802  0.00  0.00     0.039 H 
ATOM     54  H12 DYK d   1       4.067  -4.532  50.051  0.00  0.00     0.039 H 
ATOM     55  H10 DYK d   1       6.215  -3.810  50.784  0.00  0.00     0.084 H 
BRANCH  45  56
ATOM     56  C   DYK d   1       1.510  -3.980  53.174  0.00  0.00     0.066 C 
ATOM     57  H1  DYK d   1       1.091  -2.993  53.418  0.00  0.00     0.068 H 
ATOM     58  H2  DYK d   1       1.805  -4.493  54.102  0.00  0.00     0.068 H 
ATOM     59  H3  DYK d   1       0.753  -4.580  52.648  0.00  0.00     0.068 H 
ENDBRANCH  45  56
ENDBRANCH  39  40
ENDBRANCH   1  39
TORSDOF 8
