REMARK  8 active torsions:
REMARK  status: ('A' for Active; 'I' for Inactive)
REMARK    1  A    between atoms: N_2  and  C_1 
REMARK    2  A    between atoms: O_3  and  C3_9 
REMARK    3  A    between atoms: C6_15  and  O_3 
REMARK    4  A    between atoms: N1_5  and  C9_18 
REMARK    5  A    between atoms: C13_22  and  N1_5 
REMARK    6  A    between atoms: C10_19  and  O1_6 
REMARK    7  A    between atoms: O1_6  and  C12_21 
REMARK    8  A    between atoms: C17_26  and  C16_25 
ROOT
ATOM      1  C6  DYK d   1      -4.328  20.408   0.907  0.00  0.00     0.072 A 
ATOM      2  C7  DYK d   1      -5.716  20.498   0.889  0.00  0.00    -0.048 A 
ATOM      3  C8  DYK d   1      -6.327  21.727   0.720  0.00  0.00    -0.051 A 
ATOM      4  C9  DYK d   1      -5.558  22.879   0.539  0.00  0.00     0.082 A 
ATOM      5  C10 DYK d   1      -4.146  22.774   0.575  0.00  0.00     0.098 A 
ATOM      6  C11 DYK d   1      -3.537  21.542   0.777  0.00  0.00    -0.016 A 
ATOM      7  H16 DYK d   1      -6.319  19.605   1.007  0.00  0.00     0.087 H 
ATOM      8  H17 DYK d   1      -7.409  21.797   0.728  0.00  0.00     0.087 H 
ATOM      9  H18 DYK d   1      -2.457  21.467   0.833  0.00  0.00     0.092 H 
ENDROOT
BRANCH   4  10
ATOM     10  N1  DYK d   1      -6.142  24.157   0.358  0.00  0.00    -0.185 N 
ATOM     11  H7  DYK d   1      -5.667  24.953   0.807  0.00  0.00     0.184 HD
BRANCH  10  12
ATOM     12  C13 DYK d   1      -7.274  24.436  -0.355  0.00  0.00     0.727 A 
ATOM     13  N2  DYK d   1      -7.708  25.710  -0.436  0.00  0.00    -0.075 NA
ATOM     14  C14 DYK d   1      -8.821  25.893  -1.171  0.00  0.00     0.023 A 
ATOM     15  C15 DYK d   1      -9.495  24.862  -1.799  0.00  0.00    -0.036 A 
ATOM     16  H22 DYK d   1      -9.209  26.900  -1.276  0.00  0.00     0.115 H 
ATOM     17  C16 DYK d   1      -8.961  23.588  -1.649  0.00  0.00     0.089 A 
ATOM     18  H23 DYK d   1     -10.394  25.038  -2.379  0.00  0.00     0.089 H 
ATOM     19  N3  DYK d   1      -7.852  23.363  -0.929  0.00  0.00    -0.062 NA
BRANCH  17  20
ATOM     20  C17 DYK d   1      -9.584  22.407  -2.265  0.00  0.00     0.021 A 
ATOM     21  C18 DYK d   1      -9.071  21.133  -2.278  0.00  0.00    -0.009 A 
ATOM     22  N4  DYK d   1      -9.923  20.286  -2.934  0.00  0.00    -0.363 N 
ATOM     23  H24 DYK d   1      -8.123  20.839  -1.831  0.00  0.00     0.112 H 
ATOM     24  C19 DYK d   1     -11.025  20.991  -3.368  0.00  0.00     0.061 A 
ATOM     25  H13 DYK d   1      -9.765  19.279  -3.080  0.00  0.00     0.165 HD
ATOM     26  C20 DYK d   1     -10.860  22.334  -2.976  0.00  0.00     0.007 A 
ATOM     27  C23 DYK d   1     -12.164  20.618  -4.076  0.00  0.00     0.028 A 
ATOM     28  C21 DYK d   1     -11.852  23.252  -3.310  0.00  0.00    -0.053 A 
ATOM     29  C22 DYK d   1     -12.950  22.782  -4.019  0.00  0.00     0.003 A 
ATOM     30  H25 DYK d   1     -11.770  24.295  -3.027  0.00  0.00     0.087 H 
ATOM     31  N5  DYK d   1     -13.120  21.504  -4.395  0.00  0.00    -0.271 NA
ATOM     32  H26 DYK d   1     -13.722  23.495  -4.287  0.00  0.00     0.114 H 
ATOM     33  H27 DYK d   1     -12.282  19.584  -4.378  0.00  0.00     0.118 H 
ENDBRANCH  17  20
ENDBRANCH  10  12
ENDBRANCH   4  10
BRANCH   5  34
ATOM     34  O1  DYK d   1      -3.478  23.960   0.426  0.00  0.00    -0.354 OA
BRANCH  34  35
ATOM     35  C12 DYK d   1      -2.061  23.964   0.614  0.00  0.00     0.010 C 
ATOM     36  H19 DYK d   1      -1.674  24.982   0.461  0.00  0.00     0.066 H 
ATOM     37  H20 DYK d   1      -1.593  23.281  -0.111  0.00  0.00     0.066 H 
ATOM     38  H21 DYK d   1      -1.826  23.632   1.636  0.00  0.00     0.066 H 
ENDBRANCH  34  35
ENDBRANCH   5  34
BRANCH   1  39
ATOM     39  O   DYK d   1      -3.727  19.178   1.078  0.00  0.00    -0.346 OA
BRANCH  39  40
ATOM     40  C3  DYK d   1      -3.574  18.420  -0.181  0.00  0.00     0.048 C 
ATOM     41  C2  DYK d   1      -4.810  17.566  -0.387  0.00  0.00    -0.018 C 
ATOM     42  C1  DYK d   1      -4.797  16.369   0.563  0.00  0.00     0.085 C 
ATOM     43  H8  DYK d   1      -5.706  18.173  -0.192  0.00  0.00     0.039 H 
ATOM     44  H9  DYK d   1      -4.831  17.204  -1.425  0.00  0.00     0.039 H 
ATOM     45  N   DYK d   1      -3.583  15.574   0.390  0.00  0.00    -0.075 N 
ATOM     46  H5  DYK d   1      -4.844  16.733   1.600  0.00  0.00     0.076 H 
ATOM     47  H6  DYK d   1      -5.673  15.737   0.356  0.00  0.00     0.076 H 
ATOM     48  C5  DYK d   1      -2.411  16.391   0.708  0.00  0.00     0.085 C 
ATOM     49  H4  DYK d   1      -3.522  15.284  -0.573  0.00  0.00     0.279 HD
ATOM     50  C4  DYK d   1      -2.304  17.595  -0.234  0.00  0.00    -0.018 C 
ATOM     51  H14 DYK d   1      -1.506  15.775   0.607  0.00  0.00     0.076 H 
ATOM     52  H15 DYK d   1      -2.495  16.752   1.744  0.00  0.00     0.076 H 
ATOM     53  H11 DYK d   1      -1.452  18.220   0.072  0.00  0.00     0.039 H 
ATOM     54  H12 DYK d   1      -2.146  17.238  -1.262  0.00  0.00     0.039 H 
ATOM     55  H10 DYK d   1      -3.522  19.147  -1.005  0.00  0.00     0.084 H 
BRANCH  45  56
ATOM     56  C   DYK d   1      -3.625  14.381   1.230  0.00  0.00     0.066 C 
ATOM     57  H1  DYK d   1      -4.512  13.783   0.974  0.00  0.00     0.068 H 
ATOM     58  H2  DYK d   1      -3.676  14.679   2.288  0.00  0.00     0.068 H 
ATOM     59  H3  DYK d   1      -2.718  13.782   1.061  0.00  0.00     0.068 H 
ENDBRANCH  45  56
ENDBRANCH  39  40
ENDBRANCH   1  39
TORSDOF 8
