REMARK  8 active torsions:
REMARK  status: ('A' for Active; 'I' for Inactive)
REMARK    1  A    between atoms: N1_1  and  C2_2 
REMARK    2  A    between atoms: C2_2  and  C3_3 
REMARK    3  A    between atoms: C3_3  and  C4_4 
REMARK    4  A    between atoms: C4_4  and  O5_5 
REMARK    5  A    between atoms: O5_5  and  C6_6 
REMARK    6  A    between atoms: C8_8  and  C21_21 
REMARK    7  A    between atoms: C11_11  and  C12_12 
REMARK       I    between atoms: C12_12  and  N14_14 
REMARK    8  A    between atoms: N14_14  and  C15_15 
ROOT
ATOM      1  C6  3I7 d   1       1.218  -1.696  -9.307  0.00  0.00     0.085 A 
ATOM      2  C7  3I7 d   1       1.577  -0.447  -8.833  0.00  0.00    -0.039 A 
ATOM      3  C8  3I7 d   1       2.417  -0.300  -7.736  0.00  0.00    -0.020 A 
ATOM      4  C9  3I7 d   1       2.876  -1.450  -7.101  0.00  0.00    -0.071 A 
ATOM      5  C10 3I7 d   1       2.529  -2.704  -7.564  0.00  0.00    -0.064 A 
ATOM      6  C11 3I7 d   1       1.694  -2.852  -8.672  0.00  0.00     0.065 A 
ATOM      7  H   3I7 d   1       1.194   0.438  -9.329  0.00  0.00     0.089 H 
ATOM      8  H   3I7 d   1       3.515  -1.360  -6.230  0.00  0.00     0.084 H 
ATOM      9  H   3I7 d   1       2.910  -3.585  -7.060  0.00  0.00     0.085 H 
ENDROOT
BRANCH   6  10
ATOM     10  C12 3I7 d   1       1.375  -4.264  -9.075  0.00  0.00     0.259 C 
ATOM     11  O13 3I7 d   1       2.079  -5.197  -8.698  0.00  0.00    -0.267 OA
ATOM     12  N14 3I7 d   1       0.280  -4.455  -9.853  0.00  0.00    -0.323 N 
ATOM     13  H   3I7 d   1      -0.301  -3.656 -10.011  0.00  0.00     0.169 HD
BRANCH  12  14
ATOM     14  C15 3I7 d   1      -0.128  -5.664 -10.465  0.00  0.00     0.035 A 
ATOM     15  C16 3I7 d   1       0.785  -6.610 -10.916  0.00  0.00    -0.057 A 
ATOM     16  C17 3I7 d   1       0.340  -7.775 -11.510  0.00  0.00    -0.081 A 
ATOM     17  H   3I7 d   1       1.848  -6.433 -10.801  0.00  0.00     0.086 H 
ATOM     18  C18 3I7 d   1      -1.008  -8.003 -11.666  0.00  0.00    -0.083 A 
ATOM     19  H   3I7 d   1       1.056  -8.513 -11.855  0.00  0.00     0.083 H 
ATOM     20  C19 3I7 d   1      -1.923  -7.071 -11.227  0.00  0.00    -0.081 A 
ATOM     21  H   3I7 d   1      -1.351  -8.918 -12.135  0.00  0.00     0.083 H 
ATOM     22  C20 3I7 d   1      -1.488  -5.903 -10.627  0.00  0.00    -0.057 A 
ATOM     23  H   3I7 d   1      -2.984  -7.253 -11.352  0.00  0.00     0.083 H 
ATOM     24  H   3I7 d   1      -2.210  -5.172 -10.282  0.00  0.00     0.086 H 
ENDBRANCH  12  14
ENDBRANCH   6  10
BRANCH   1  25
ATOM     25  O5  3I7 d   1       0.375  -1.824 -10.410  0.00  0.00    -0.350 OA
BRANCH  25  26
ATOM     26  C4  3I7 d   1      -0.762  -0.955 -10.530  0.00  0.00     0.028 C 
ATOM     27  H   3I7 d   1      -1.575  -1.488 -11.044  0.00  0.00     0.075 H 
ATOM     28  H   3I7 d   1      -1.097  -0.654  -9.527  0.00  0.00     0.075 H 
BRANCH  26  29
ATOM     29  C3  3I7 d   1      -0.387   0.290 -11.333  0.00  0.00    -0.022 C 
ATOM     30  H   3I7 d   1       0.707   0.312 -11.446  0.00  0.00     0.038 H 
ATOM     31  H   3I7 d   1      -0.857   0.216 -12.325  0.00  0.00     0.038 H 
BRANCH  29  32
ATOM     32  C2  3I7 d   1      -0.829   1.601 -10.689  0.00  0.00     0.082 C 
ATOM     33  H   3I7 d   1      -1.925   1.673 -10.746  0.00  0.00     0.075 H 
ATOM     34  H   3I7 d   1      -0.515   1.603  -9.635  0.00  0.00     0.075 H 
BRANCH  32  35
ATOM     35  N1  3I7 d   1      -0.234   2.780 -11.369  0.00  0.00    -0.079 N 
ATOM     36  H   3I7 d   1      -0.549   3.624 -10.916  0.00  0.00     0.274 HD
ATOM     37  H   3I7 d   1      -0.521   2.791 -12.335  0.00  0.00     0.274 HD
ATOM     38  H   3I7 d   1       0.771   2.726 -11.317  0.00  0.00     0.274 HD
ENDBRANCH  32  35
ENDBRANCH  29  32
ENDBRANCH  26  29
ENDBRANCH  25  26
ENDBRANCH   1  25
BRANCH   3  39
ATOM     39  C21 3I7 d   1       2.755   1.040  -7.219  0.00  0.00     0.010 A 
ATOM     40  C22 3I7 d   1       3.217   1.352  -5.964  0.00  0.00     0.034 A 
ATOM     41  N23 3I7 d   1       3.399   2.658  -5.820  0.00  0.00    -0.187 NA
ATOM     42  H   3I7 d   1       3.410   0.618  -5.183  0.00  0.00     0.118 H 
ATOM     43  N24 3I7 d   1       3.038   3.191  -7.007  0.00  0.00    -0.289 N 
ATOM     44  C25 3I7 d   1       2.638   2.251  -7.870  0.00  0.00     0.008 A 
ATOM     45  H   3I7 d   1       3.067   4.198  -7.221  0.00  0.00     0.188 HD
ATOM     46  H   3I7 d   1       2.288   2.410  -8.889  0.00  0.00     0.115 H 
ENDBRANCH   3  39
TORSDOF 8
