REMARK  5 active torsions:
REMARK  status: ('A' for Active; 'I' for Inactive)
REMARK    1  A    between atoms: C1_1  and  O2_2 
REMARK    2  A    between atoms: O2_2  and  C3_3 
REMARK    3  A    between atoms: C5_5  and  C23_23 
REMARK    4  A    between atoms: C8_8  and  C9_9 
REMARK       I    between atoms: C9_9  and  N11_11 
REMARK    5  A    between atoms: N11_11  and  C12_12 
ROOT
ATOM      1  C9  45R d   1      -9.467 -40.217 -17.884  0.00  0.00     0.259 C 
ATOM      2  O10 45R d   1      -8.718 -40.190 -16.911  0.00  0.00    -0.267 OA
ATOM      3  N11 45R d   1     -10.050 -39.100 -18.358  0.00  0.00    -0.323 N 
ATOM      4  H   45R d   1     -10.433 -39.174 -19.279  0.00  0.00     0.169 HD
ENDROOT
BRANCH   3   5
ATOM      5  C12 45R d   1     -10.197 -37.841 -17.741  0.00  0.00     0.035 A 
ATOM      6  C13 45R d   1      -9.403 -37.313 -16.737  0.00  0.00    -0.057 A 
ATOM      7  C14 45R d   1      -9.653 -36.041 -16.248  0.00  0.00    -0.074 A 
ATOM      8  H   45R d   1      -8.584 -37.896 -16.333  0.00  0.00     0.086 H 
ATOM      9  C15 45R d   1     -10.692 -35.267 -16.765  0.00  0.00    -0.050 A 
ATOM     10  H   45R d   1      -9.033 -35.642 -15.453  0.00  0.00     0.084 H 
ATOM     11  C16 45R d   1     -10.940 -33.906 -16.161  0.00  0.00    -0.018 C 
ATOM     12  C21 45R d   1     -11.508 -35.803 -17.770  0.00  0.00    -0.048 A 
ATOM     13  C17 45R d   1     -10.958 -32.705 -17.093  0.00  0.00     0.085 C 
ATOM     14  H   45R d   1     -10.150 -33.730 -15.416  0.00  0.00     0.042 H 
ATOM     15  H   45R d   1     -11.917 -33.944 -15.658  0.00  0.00     0.042 H 
ATOM     16  N18 45R d   1     -12.164 -32.622 -17.971  0.00  0.00    -0.075 N 
ATOM     17  H   45R d   1     -10.067 -32.756 -17.736  0.00  0.00     0.076 H 
ATOM     18  H   45R d   1     -10.916 -31.793 -16.480  0.00  0.00     0.076 H 
ATOM     19  C19 45R d   1     -12.339 -33.713 -18.979  0.00  0.00     0.085 C 
ATOM     20  H   45R d   1     -12.117 -31.748 -18.472  0.00  0.00     0.277 HD
ATOM     21  H   45R d   1     -12.976 -32.624 -17.375  0.00  0.00     0.277 HD
ATOM     22  C20 45R d   1     -12.683 -35.061 -18.360  0.00  0.00    -0.018 C 
ATOM     23  H   45R d   1     -11.401 -33.819 -19.544  0.00  0.00     0.076 H 
ATOM     24  H   45R d   1     -13.150 -33.427 -19.664  0.00  0.00     0.076 H 
ATOM     25  H   45R d   1     -13.130 -35.693 -19.142  0.00  0.00     0.042 H 
ATOM     26  H   45R d   1     -13.419 -34.893 -17.560  0.00  0.00     0.042 H 
ATOM     27  C22 45R d   1     -11.239 -37.081 -18.251  0.00  0.00    -0.051 A 
ATOM     28  H   45R d   1     -11.857 -37.491 -19.041  0.00  0.00     0.087 H 
ENDBRANCH   3   5
BRANCH   1  29
ATOM     29  C8  45R d   1      -9.768 -41.506 -18.607  0.00  0.00     0.065 A 
ATOM     30  C3  45R d   1     -10.802 -41.745 -19.542  0.00  0.00     0.084 A 
ATOM     31  C4  45R d   1     -10.940 -43.006 -20.115  0.00  0.00    -0.039 A 
ATOM     32  C5  45R d   1     -10.079 -44.049 -19.790  0.00  0.00    -0.020 A 
ATOM     33  H   45R d   1     -11.736 -43.179 -20.830  0.00  0.00     0.089 H 
ATOM     34  C6  45R d   1      -9.074 -43.806 -18.858  0.00  0.00    -0.071 A 
ATOM     35  C7  45R d   1      -8.923 -42.566 -18.276  0.00  0.00    -0.064 A 
ATOM     36  H   45R d   1      -8.397 -44.608 -18.585  0.00  0.00     0.084 H 
ATOM     37  H   45R d   1      -8.134 -42.411 -17.549  0.00  0.00     0.085 H 
BRANCH  30  38
ATOM     38  O2  45R d   1     -11.620 -40.680 -19.816  0.00  0.00    -0.355 OA
BRANCH  38  39
ATOM     39  C1  45R d   1     -12.489 -40.766 -20.942  0.00  0.00     0.010 C 
ATOM     40  H   45R d   1     -13.075 -39.839 -21.025  0.00  0.00     0.066 H 
ATOM     41  H   45R d   1     -13.171 -41.620 -20.815  0.00  0.00     0.066 H 
ATOM     42  H   45R d   1     -11.893 -40.906 -21.856  0.00  0.00     0.066 H 
ENDBRANCH  38  39
ENDBRANCH  30  38
BRANCH  32  43
ATOM     43  C23 45R d   1     -10.254 -45.395 -20.375  0.00  0.00     0.010 A 
ATOM     44  C24 45R d   1     -11.315 -45.860 -21.148  0.00  0.00     0.034 A 
ATOM     45  N25 45R d   1     -11.142 -47.134 -21.485  0.00  0.00    -0.187 NA
ATOM     46  H   45R d   1     -12.175 -45.258 -21.439  0.00  0.00     0.118 H 
ATOM     47  N26 45R d   1      -9.970 -47.493 -20.915  0.00  0.00    -0.289 N 
ATOM     48  C27 45R d   1      -9.411 -46.482 -20.242  0.00  0.00     0.008 A 
ATOM     49  H   45R d   1      -9.557 -48.434 -20.990  0.00  0.00     0.188 HD
ATOM     50  H   45R d   1      -8.471 -46.510 -19.694  0.00  0.00     0.115 H 
ENDBRANCH  32  43
ENDBRANCH   1  29
TORSDOF 5
