REMARK  2 active torsions:
REMARK  status: ('A' for Active; 'I' for Inactive)
REMARK    1  A    between atoms: C5_5  and  C8_8 
REMARK       I    between atoms: C8_8  and  N10_10 
REMARK    2  A    between atoms: N10_10  and  C11_11 
ROOT
ATOM      1  C11 NF5 d   1      -2.344  -6.324 -11.670  0.00  0.00     0.035 A 
ATOM      2  C12 NF5 d   1      -1.784  -7.464 -12.234  0.00  0.00    -0.057 A 
ATOM      3  C13 NF5 d   1      -2.580  -8.344 -12.940  0.00  0.00    -0.074 A 
ATOM      4  C14 NF5 d   1      -3.945  -8.103 -13.100  0.00  0.00    -0.050 A 
ATOM      5  C15 NF5 d   1      -4.770  -9.099 -13.879  0.00  0.00    -0.018 C 
ATOM      6  C16 NF5 d   1      -5.906  -9.717 -13.078  0.00  0.00     0.085 C 
ATOM      7  N17 NF5 d   1      -7.086  -8.864 -12.902  0.00  0.00    -0.075 N 
ATOM      8  C20 NF5 d   1      -6.889  -7.689 -12.049  0.00  0.00     0.085 C 
ATOM      9  C21 NF5 d   1      -5.983  -6.617 -12.645  0.00  0.00    -0.018 C 
ATOM     10  C22 NF5 d   1      -4.515  -6.957 -12.527  0.00  0.00    -0.048 A 
ATOM     11  C23 NF5 d   1      -3.699  -6.080 -11.827  0.00  0.00    -0.051 A 
ATOM     12  H   NF5 d   1      -0.724  -7.662 -12.120  0.00  0.00     0.086 H 
ATOM     13  H   NF5 d   1      -2.139  -9.233 -13.376  0.00  0.00     0.084 H 
ATOM     14  H   NF5 d   1      -4.106  -9.907 -14.220  0.00  0.00     0.042 H 
ATOM     15  H   NF5 d   1      -5.200  -8.585 -14.751  0.00  0.00     0.042 H 
ATOM     16  H   NF5 d   1      -5.519  -9.972 -12.080  0.00  0.00     0.076 H 
ATOM     17  H   NF5 d   1      -6.224 -10.635 -13.593  0.00  0.00     0.076 H 
ATOM     18  H   NF5 d   1      -7.818  -9.425 -12.495  0.00  0.00     0.277 HD
ATOM     19  H   NF5 d   1      -7.376  -8.543 -13.812  0.00  0.00     0.277 HD
ATOM     20  H   NF5 d   1      -6.445  -8.024 -11.100  0.00  0.00     0.076 H 
ATOM     21  H   NF5 d   1      -7.873  -7.237 -11.854  0.00  0.00     0.076 H 
ATOM     22  H   NF5 d   1      -6.167  -5.669 -12.118  0.00  0.00     0.042 H 
ATOM     23  H   NF5 d   1      -6.232  -6.499 -13.710  0.00  0.00     0.042 H 
ATOM     24  H   NF5 d   1      -4.131  -5.185 -11.394  0.00  0.00     0.087 H 
ENDROOT
BRANCH   1  25
ATOM     25  N10 NF5 d   1      -1.633  -5.345 -10.949  0.00  0.00    -0.323 N 
ATOM     26  C8  NF5 d   1      -0.381  -5.357 -10.451  0.00  0.00     0.256 C 
ATOM     27  O9  NF5 d   1       0.309  -6.364 -10.363  0.00  0.00    -0.267 OA
ATOM     28  H   NF5 d   1      -2.142  -4.501 -10.778  0.00  0.00     0.169 HD
BRANCH  26  29
ATOM     29  C5  NF5 d   1       0.113  -4.030  -9.986  0.00  0.00     0.032 A 
ATOM     30  C4  NF5 d   1       1.016  -3.975  -8.932  0.00  0.00    -0.066 A 
ATOM     31  C3  NF5 d   1       1.483  -2.761  -8.467  0.00  0.00    -0.065 A 
ATOM     32  H   NF5 d   1       1.358  -4.894  -8.470  0.00  0.00     0.085 H 
ATOM     33  C2  NF5 d   1       1.017  -1.596  -9.070  0.00  0.00     0.011 A 
ATOM     34  H   NF5 d   1       2.196  -2.716  -7.652  0.00  0.00     0.085 H 
ATOM     35 BR1  NF5 d   1       1.622   0.070  -8.427  0.00  0.00    -0.051 Br
ATOM     36  C7  NF5 d   1       0.110  -1.633 -10.125  0.00  0.00    -0.065 A 
ATOM     37  C6  NF5 d   1      -0.350  -2.853 -10.576  0.00  0.00    -0.066 A 
ATOM     38  H   NF5 d   1      -0.231  -0.714 -10.587  0.00  0.00     0.085 H 
ATOM     39  H   NF5 d   1      -1.069  -2.897 -11.386  0.00  0.00     0.085 H 
ENDBRANCH  26  29
ENDBRANCH   1  25
TORSDOF 2
