REMARK  6 active torsions:
REMARK  status: ('A' for Active; 'I' for Inactive)
REMARK    1  A    between atoms: C1_1  and  O1_7 
REMARK    2  A    between atoms: C2_2  and  O2_12 
REMARK    3  A    between atoms: C3_3  and  O3_8 
REMARK    4  A    between atoms: C4_4  and  O4_9 
REMARK    5  A    between atoms: C5_5  and  C6_6 
REMARK    6  A    between atoms: C6_6  and  O6_11 
ROOT
ATOM      1  C1  GIV d   1      18.700 -24.500  19.510  0.00  0.00     0.156 C 
ATOM      2  C2  GIV d   1      19.900 -23.600  19.778  0.00  0.00     0.110 C 
ATOM      3  C3  GIV d   1      19.613 -22.130  19.471  0.00  0.00     0.092 C 
ATOM      4  C4  GIV d   1      18.328 -21.706  20.214  0.00  0.00     0.090 C 
ATOM      5  C5  GIV d   1      17.190 -22.659  19.828  0.00  0.00     0.089 C 
ATOM      6  O5  GIV d   1      17.560 -23.988  20.181  0.00  0.00    -0.349 OA
ATOM      7  H1  GXL d   1      18.496 -24.553  18.430  0.00  0.00     0.133 H 
ATOM      8  H2  GXL d   1      20.139 -23.671  20.849  0.00  0.00     0.094 H 
ATOM      9  H3  GXL d   1      19.442 -22.012  18.391  0.00  0.00     0.091 H 
ATOM     10  H4  GXL d   1      18.064 -20.681  19.916  0.00  0.00     0.091 H 
ATOM     11  H5  GXL d   1      17.051 -22.618  18.738  0.00  0.00     0.090 H 
ENDROOT
BRANCH   5  12
ATOM     12  C6  GIV d   1      15.897 -22.226  20.479  0.00  0.00     0.043 C 
ATOM     13  H6  GXL d   1      15.706 -21.170  20.237  0.00  0.00     0.078 H 
ATOM     14  H7  GXL d   1      15.985 -22.342  21.569  0.00  0.00     0.078 H 
BRANCH  12  15
ATOM     15  O6  GIV d   1      14.813 -23.015  20.012  0.00  0.00    -0.398 OA
ATOM     16  H11 GXL d   1      14.973 -23.927  20.222  0.00  0.00     0.209 HD
ENDBRANCH  12  15
ENDBRANCH   5  12
BRANCH   4  17
ATOM     17  O4  GIV d   1      18.507 -21.746  21.630  0.00  0.00    -0.390 OA
ATOM     18  H10 GXL d   1      19.211 -21.157  21.876  0.00  0.00     0.210 HD
ENDBRANCH   4  17
BRANCH   3  19
ATOM     19  O3  GIV d   1      20.780 -21.342  19.840  0.00  0.00    -0.390 OA
ATOM     20  H9  GXL d   1      20.943 -21.437  20.771  0.00  0.00     0.210 HD
ENDBRANCH   3  19
BRANCH   1  21
ATOM     21  O1  GIV d   1      19.043 -25.793  20.008  0.00  0.00    -0.369 OA
ATOM     22  H8  GXL d   1      18.314 -26.387  19.872  0.00  0.00     0.212 HD
ENDBRANCH   1  21
BRANCH   2  23
ATOM     23  O2  GIV d   1      21.031 -24.074  19.042  0.00  0.00    -0.388 OA
ATOM     24  H12 GXL d   1      20.861 -23.987  18.111  0.00  0.00     0.210 HD
ENDBRANCH   2  23
TORSDOF 6
