REMARK  12 active torsions:
REMARK  status: ('A' for Active; 'I' for Inactive)
REMARK    1  A    between atoms: C2_2  and  C5_4 
REMARK    2  A    between atoms: C5_4  and  C8_5 
REMARK    3  A    between atoms: C17_11  and  C22_14 
REMARK    4  A    between atoms: C22_14  and  C25_15 
REMARK    5  A    between atoms: C27_16  and  O68_35 
REMARK    6  A    between atoms: C29_17  and  N40_23 
REMARK    7  A    between atoms: N40_23  and  C42_24 
REMARK    8  A    between atoms: C42_24  and  C45_25 
REMARK    9  A    between atoms: C48_27  and  C55_31 
REMARK   10  A    between atoms: C55_31  and  C56_32 
REMARK   11  A    between atoms: C55_31  and  C60_33 
REMARK   12  A    between atoms: C55_31  and  C64_34 
ROOT
ATOM      1  C25 0GT d   1      31.431   5.757  14.687  0.00  0.00    -0.011 C 
ATOM      2  C27 0GT d   1      32.015   4.368  14.272  0.00  0.00     0.068 C 
ATOM      3  C29 0GT d   1      31.067   3.518  13.376  0.00  0.00     0.139 C 
ATOM      4  C31 0GT d   1      29.651   3.252  13.967  0.00  0.00     0.058 C 
ATOM      5  S34 0GT d   1      28.867   4.832  14.321  0.00  0.00     0.147 S 
ATOM      6  C35 0GT d   1      30.071   5.574  15.428  0.00  0.00     0.035 C 
ATOM      7  O38 0GT d   1      28.802   5.637  13.120  0.00  0.00    -0.228 OA
ATOM      8  O39 0GT d   1      27.654   4.594  15.065  0.00  0.00    -0.228 OA
ATOM      9  H11 0GT d   1      31.228   6.318  13.763  0.00  0.00     0.045 H 
ATOM     10  H12 0GT d   1      32.238   3.801  15.188  0.00  0.00     0.086 H 
ATOM     11  H13 0GT d   1      30.888   4.133  12.482  0.00  0.00     0.089 H 
ATOM     12  H14 0GT d   1      29.741   2.667  14.895  0.00  0.00     0.059 H 
ATOM     13  H15 0GT d   1      29.045   2.693  13.239  0.00  0.00     0.059 H 
ATOM     14  H16 0GT d   1      29.703   6.555  15.762  0.00  0.00     0.056 H 
ATOM     15  H17 0GT d   1      30.216   4.920  16.300  0.00  0.00     0.056 H 
ENDROOT
BRANCH   3  16
ATOM     16  N40 0GT d   1      31.743   2.283  12.885  0.00  0.00    -0.064 N 
ATOM     17  H18 0GT d   1      31.844   1.674  13.682  0.00  0.00     0.278 HD
ATOM     18  H19 0GT d   1      32.654   2.564  12.559  0.00  0.00     0.278 HD
BRANCH  16  19
ATOM     19  C42 0GT d   1      31.139   1.465  11.801  0.00  0.00     0.106 C 
ATOM     20  H20 0GT d   1      30.157   1.093  12.129  0.00  0.00     0.083 H 
ATOM     21  H21 0GT d   1      31.798   0.613  11.578  0.00  0.00     0.083 H 
BRANCH  19  22
ATOM     22  C45 0GT d   1      30.962   2.321  10.528  0.00  0.00    -0.032 A 
ATOM     23  C46 0GT d   1      32.103   2.799   9.839  0.00  0.00    -0.069 A 
ATOM     24  C48 0GT d   1      32.012   3.595   8.665  0.00  0.00    -0.050 A 
ATOM     25  H22 0GT d   1      33.085   2.548  10.222  0.00  0.00     0.085 H 
ATOM     26  C49 0GT d   1      30.700   3.897   8.193  0.00  0.00    -0.076 A 
ATOM     27  C51 0GT d   1      29.542   3.432   8.863  0.00  0.00    -0.082 A 
ATOM     28  H23 0GT d   1      30.586   4.498   7.298  0.00  0.00     0.084 H 
ATOM     29  C53 0GT d   1      29.667   2.638  10.033  0.00  0.00    -0.075 A 
ATOM     30  H24 0GT d   1      28.559   3.683   8.482  0.00  0.00     0.083 H 
ATOM     31  H25 0GT d   1      28.783   2.276  10.545  0.00  0.00     0.084 H 
BRANCH  24  32
ATOM     32  C55 0GT d   1      33.338   4.069   7.982  0.00  0.00    -0.024 C 
BRANCH  32  33
ATOM     33  C56 0GT d   1      33.121   4.700   6.563  0.00  0.00    -0.066 C 
ATOM     34  H26 0GT d   1      34.091   5.008   6.147  0.00  0.00     0.028 H 
ATOM     35  H27 0GT d   1      32.463   5.578   6.649  0.00  0.00     0.028 H 
ATOM     36  H28 0GT d   1      32.656   3.957   5.898  0.00  0.00     0.028 H 
ENDBRANCH  32  33
BRANCH  32  37
ATOM     37  C60 0GT d   1      34.141   5.123   8.819  0.00  0.00    -0.066 C 
ATOM     38  H29 0GT d   1      34.321   4.728   9.830  0.00  0.00     0.028 H 
ATOM     39  H30 0GT d   1      33.561   6.055   8.888  0.00  0.00     0.028 H 
ATOM     40  H31 0GT d   1      35.104   5.325   8.327  0.00  0.00     0.028 H 
ENDBRANCH  32  37
BRANCH  32  41
ATOM     41  C64 0GT d   1      34.271   2.832   7.788  0.00  0.00    -0.066 C 
ATOM     42  H32 0GT d   1      33.744   2.064   7.203  0.00  0.00     0.028 H 
ATOM     43  H33 0GT d   1      34.544   2.421   8.771  0.00  0.00     0.028 H 
ATOM     44  H34 0GT d   1      35.182   3.140   7.254  0.00  0.00     0.028 H 
ENDBRANCH  32  41
ENDBRANCH  24  32
ENDBRANCH  19  22
ENDBRANCH  16  19
ENDBRANCH   3  16
BRANCH   2  45
ATOM     45  O68 0GT d   1      33.219   4.566  13.519  0.00  0.00    -0.393 OA
ATOM     46  H35 0GT d   1      33.830   5.083  14.031  0.00  0.00     0.210 HD
ENDBRANCH   2  45
BRANCH   1  47
ATOM     47  C22 0GT d   1      32.457   6.602  15.521  0.00  0.00    -0.034 C 
ATOM     48  H9  0GT d   1      32.699   6.056  16.445  0.00  0.00     0.040 H 
ATOM     49  H10 0GT d   1      33.372   6.739  14.926  0.00  0.00     0.040 H 
BRANCH  47  50
ATOM     50  C17 0GT d   1      31.894   7.987  15.894  0.00  0.00    -0.057 A 
ATOM     51  C15 0GT d   1      31.571   8.258  17.251  0.00  0.00    -0.064 A 
ATOM     52  C14 0GT d   1      31.044   9.527  17.563  0.00  0.00    -0.001 A 
ATOM     53  H6  0GT d   1      31.725   7.512  18.022  0.00  0.00     0.085 H 
ATOM     54  C8  0GT d   1      30.579  10.225  18.813  0.00  0.00    -0.025 A 
ATOM     55  C13 0GT d   1      30.834  10.497  16.582  0.00  0.00     0.043 A 
ATOM     56  C9  0GT d   1      30.162  11.446  18.439  0.00  0.00    -0.015 A 
ATOM     57  N11 0GT d   1      30.313  11.599  17.149  0.00  0.00    -0.365 N 
ATOM     58  H4  0GT d   1      29.757  12.200  19.113  0.00  0.00     0.112 H 
ATOM     59  H5  0GT d   1      30.064  12.455  16.633  0.00  0.00     0.165 HD
ATOM     60  C20 0GT d   1      31.155  10.254  15.226  0.00  0.00    -0.056 A 
ATOM     61  C18 0GT d   1      31.689   8.982  14.893  0.00  0.00    -0.075 A 
ATOM     62  H8  0GT d   1      30.999  11.013  14.468  0.00  0.00     0.087 H 
ATOM     63  H7  0GT d   1      31.945   8.763  13.863  0.00  0.00     0.084 H 
BRANCH  54  64
ATOM     64  C5  0GT d   1      30.591   9.657  20.208  0.00  0.00     0.016 C 
ATOM     65  H2  0GT d   1      31.620   9.362  20.462  0.00  0.00     0.048 H 
ATOM     66  H3  0GT d   1      30.249  10.432  20.909  0.00  0.00     0.048 H 
BRANCH  64  67
ATOM     67  C2  0GT d   1      29.672   8.424  20.342  0.00  0.00     0.212 C 
ATOM     68  F1  0GT d   1      30.071   7.679  21.413  0.00  0.00    -0.214 F 
ATOM     69  F4  0GT d   1      28.386   8.835  20.507  0.00  0.00    -0.214 F 
ATOM     70  H1  0GT d   1      29.743   7.814  19.429  0.00  0.00     0.145 H 
ENDBRANCH  64  67
ENDBRANCH  54  64
ENDBRANCH  47  50
ENDBRANCH   1  47
TORSDOF 12
