REMARK  10 active torsions:
REMARK  status: ('A' for Active; 'I' for Inactive)
REMARK    1  A    between atoms: C19_11  and  C24_15 
REMARK    2  A    between atoms: C24_15  and  C27_16 
REMARK    3  A    between atoms: C29_17  and  O70_36 
REMARK    4  A    between atoms: C31_18  and  N42_24 
REMARK    5  A    between atoms: N42_24  and  C44_25 
REMARK    6  A    between atoms: C44_25  and  C47_26 
REMARK    7  A    between atoms: C50_28  and  C57_32 
REMARK    8  A    between atoms: C57_32  and  C58_33 
REMARK    9  A    between atoms: C57_32  and  C62_34 
REMARK   10  A    between atoms: C57_32  and  C66_35 
ROOT
ATOM      1  C27 0GU d   1      27.426  35.054  64.960  0.00  0.00    -0.011 C 
ATOM      2  C29 0GU d   1      27.991  33.660  64.537  0.00  0.00     0.068 C 
ATOM      3  C31 0GU d   1      29.366  33.362  65.208  0.00  0.00     0.139 C 
ATOM      4  C33 0GU d   1      30.483  34.383  64.891  0.00  0.00     0.058 C 
ATOM      5  S36 0GU d   1      29.928  35.979  65.492  0.00  0.00     0.147 S 
ATOM      6  C37 0GU d   1      28.446  36.138  64.497  0.00  0.00     0.035 C 
ATOM      7  O40 0GU d   1      29.553  35.929  66.887  0.00  0.00    -0.228 OA
ATOM      8  O41 0GU d   1      30.895  36.956  65.079  0.00  0.00    -0.228 OA
ATOM      9  H   0GU d   1      27.308  35.002  66.042  0.00  0.00     0.045 H 
ATOM     10  H   0GU d   1      28.031  33.742  63.451  0.00  0.00     0.086 H 
ATOM     11  H   0GU d   1      29.155  33.474  66.272  0.00  0.00     0.089 H 
ATOM     12  H   0GU d   1      30.675  34.422  63.819  0.00  0.00     0.059 H 
ATOM     13  H   0GU d   1      31.416  34.094  65.375  0.00  0.00     0.059 H 
ATOM     14  H   0GU d   1      28.017  37.132  64.622  0.00  0.00     0.056 H 
ATOM     15  H   0GU d   1      28.687  35.998  63.443  0.00  0.00     0.056 H 
ENDROOT
BRANCH   1  16
ATOM     16  C24 0GU d   1      25.986  35.428  64.473  0.00  0.00    -0.034 C 
ATOM     17  H   0GU d   1      25.991  35.395  63.383  0.00  0.00     0.040 H 
ATOM     18  H   0GU d   1      25.294  34.721  64.929  0.00  0.00     0.040 H 
BRANCH  16  19
ATOM     19  C19 0GU d   1      25.539  36.846  64.890  0.00  0.00    -0.054 A 
ATOM     20  C17 0GU d   1      25.550  37.900  63.935  0.00  0.00    -0.068 A 
ATOM     21  C16 0GU d   1      25.159  39.210  64.304  0.00  0.00    -0.018 A 
ATOM     22  H   0GU d   1      25.862  37.698  62.910  0.00  0.00     0.085 H 
ATOM     23  C9  0GU d   1      25.084  40.554  63.529  0.00  0.00     0.005 C 
ATOM     24  C15 0GU d   1      24.748  39.440  65.625  0.00  0.00     0.074 A 
ATOM     25  C6  0GU d   1      24.328  40.485  62.153  0.00  0.00    -0.047 C 
ATOM     26  C10 0GU d   1      24.273  41.439  64.561  0.00  0.00     0.004 C 
ATOM     27  C72 0GU d   1      26.512  41.179  63.359  0.00  0.00    -0.047 C 
ATOM     28  C3  0GU d   1      25.165  39.984  60.932  0.00  0.00    -0.003 C 
ATOM     29  H   0GU d   1      23.520  39.765  62.285  0.00  0.00     0.035 H 
ATOM     30  H   0GU d   1      24.028  41.506  61.919  0.00  0.00     0.035 H 
ATOM     31  C2  0GU d   1      26.661  40.460  60.895  0.00  0.00     0.243 C 
ATOM     32  H   0GU d   1      25.188  38.896  60.997  0.00  0.00     0.041 H 
ATOM     33  H   0GU d   1      24.688  40.392  60.041  0.00  0.00     0.041 H 
ATOM     34  F1  0GU d   1      27.337  39.590  60.099  0.00  0.00    -0.206 F 
ATOM     35  C75 0GU d   1      27.386  40.494  62.275  0.00  0.00    -0.003 C 
ATOM     36  F78 0GU d   1      26.764  41.704  60.333  0.00  0.00    -0.206 F 
ATOM     37  H   0GU d   1      28.310  41.062  62.166  0.00  0.00     0.041 H 
ATOM     38  H   0GU d   1      27.583  39.468  62.587  0.00  0.00     0.041 H 
ATOM     39  N13 0GU d   1      24.393  40.719  65.818  0.00  0.00    -0.386 N 
ATOM     40  H   0GU d   1      23.234  41.573  64.261  0.00  0.00     0.065 H 
ATOM     41  H   0GU d   1      24.664  42.454  64.629  0.00  0.00     0.065 H 
ATOM     42  H   0GU d   1      24.228  41.135  66.734  0.00  0.00     0.159 HD
ATOM     43  H   0GU d   1      27.029  41.058  64.311  0.00  0.00     0.035 H 
ATOM     44  H   0GU d   1      26.373  42.215  63.050  0.00  0.00     0.035 H 
ATOM     45  C22 0GU d   1      24.726  38.421  66.605  0.00  0.00     0.143 A 
ATOM     46  C20 0GU d   1      25.126  37.112  66.228  0.00  0.00    -0.037 A 
ATOM     47  F23 0GU d   1      24.339  38.695  67.853  0.00  0.00    -0.204 F 
ATOM     48  H   0GU d   1      25.117  36.308  66.964  0.00  0.00     0.089 H 
ENDBRANCH  16  19
ENDBRANCH   1  16
BRANCH   2  49
ATOM     49  O70 0GU d   1      27.191  32.545  64.960  0.00  0.00    -0.393 OA
ATOM     50  H   0GU d   1      26.307  32.630  64.596  0.00  0.00     0.210 HD
ENDBRANCH   2  49
BRANCH   3  51
ATOM     51  N42 0GU d   1      29.836  31.977  64.973  0.00  0.00    -0.064 N 
ATOM     52  H   0GU d   1      30.221  32.014  64.029  0.00  0.00     0.278 HD
ATOM     53  H   0GU d   1      29.023  31.407  65.208  0.00  0.00     0.278 HD
BRANCH  51  54
ATOM     54  C44 0GU d   1      30.933  31.363  65.772  0.00  0.00     0.106 C 
ATOM     55  H   0GU d   1      31.846  31.952  65.680  0.00  0.00     0.083 H 
ATOM     56  H   0GU d   1      31.150  30.358  65.410  0.00  0.00     0.083 H 
BRANCH  54  57
ATOM     57  C47 0GU d   1      30.469  31.316  67.245  0.00  0.00    -0.032 A 
ATOM     58  C48 0GU d   1      29.387  30.494  67.639  0.00  0.00    -0.069 A 
ATOM     59  C50 0GU d   1      28.933  30.426  68.986  0.00  0.00    -0.050 A 
ATOM     60  H   0GU d   1      28.883  29.891  66.884  0.00  0.00     0.085 H 
ATOM     61  C51 0GU d   1      29.626  31.243  69.926  0.00  0.00    -0.076 A 
ATOM     62  C53 0GU d   1      30.710  32.072  69.556  0.00  0.00    -0.082 A 
ATOM     63  H   0GU d   1      29.309  31.228  70.969  0.00  0.00     0.084 H 
ATOM     64  C55 0GU d   1      31.130  32.107  68.212  0.00  0.00    -0.075 A 
ATOM     65  H   0GU d   1      31.217  32.680  70.305  0.00  0.00     0.083 H 
ATOM     66  H   0GU d   1      31.964  32.744  67.918  0.00  0.00     0.084 H 
BRANCH  59  67
ATOM     67  C57 0GU d   1      27.738  29.503  69.410  0.00  0.00    -0.024 C 
BRANCH  67  68
ATOM     68  C58 0GU d   1      28.096  28.042  68.996  0.00  0.00    -0.066 C 
ATOM     69  H   0GU d   1      28.245  27.998  67.917  0.00  0.00     0.028 H 
ATOM     70  H   0GU d   1      29.011  27.736  69.504  0.00  0.00     0.028 H 
ATOM     71  H   0GU d   1      27.281  27.375  69.279  0.00  0.00     0.028 H 
ENDBRANCH  67  68
BRANCH  67  72
ATOM     72  C62 0GU d   1      27.440  29.510  70.945  0.00  0.00    -0.066 C 
ATOM     73  H   0GU d   1      28.321  29.165  71.486  0.00  0.00     0.028 H 
ATOM     74  H   0GU d   1      27.192  30.523  71.261  0.00  0.00     0.028 H 
ATOM     75  H   0GU d   1      26.601  28.847  71.154  0.00  0.00     0.028 H 
ENDBRANCH  67  72
BRANCH  67  76
ATOM     76  C66 0GU d   1      26.390  29.926  68.741  0.00  0.00    -0.066 C 
ATOM     77  H   0GU d   1      26.146  30.948  69.032  0.00  0.00     0.028 H 
ATOM     78  H   0GU d   1      26.491  29.870  67.657  0.00  0.00     0.028 H 
ATOM     79  H   0GU d   1      25.597  29.254  69.069  0.00  0.00     0.028 H 
ENDBRANCH  67  76
ENDBRANCH  59  67
ENDBRANCH  54  57
ENDBRANCH  51  54
ENDBRANCH   3  51
TORSDOF 10
