REMARK  15 active torsions:
REMARK  status: ('A' for Active; 'I' for Inactive)
REMARK    1  A    between atoms: C2_2  and  C5_5 
REMARK    2  A    between atoms: C5_5  and  O7_6 
REMARK    3  A    between atoms: C5_5  and  C9_7 
REMARK    4  A    between atoms: C9_7  and  C12_8 
REMARK    5  A    between atoms: C13_9  and  N69_37 
REMARK    6  A    between atoms: C17_12  and  C20_14 
REMARK    7  A    between atoms: C20_14  and  C23_15 
REMARK    8  A    between atoms: C25_16  and  O66_35 
REMARK    9  A    between atoms: C27_17  and  N38_23 
REMARK   10  A    between atoms: N38_23  and  C40_24 
REMARK   11  A    between atoms: C40_24  and  C43_25 
REMARK   12  A    between atoms: C46_27  and  C53_31 
REMARK   13  A    between atoms: C53_31  and  C54_32 
REMARK   14  A    between atoms: C53_31  and  C58_33 
REMARK   15  A    between atoms: C53_31  and  C62_34 
ROOT
ATOM      1  C23 BXQ d   1      29.745  72.748  19.349  0.00  0.00    -0.011 C 
ATOM      2  C25 BXQ d   1      28.826  71.586  18.854  0.00  0.00     0.068 C 
ATOM      3  C27 BXQ d   1      29.557  70.659  17.825  0.00  0.00     0.139 C 
ATOM      4  C29 BXQ d   1      30.063  71.384  16.542  0.00  0.00     0.058 C 
ATOM      5  S32 BXQ d   1      31.199  72.699  17.011  0.00  0.00     0.147 S 
ATOM      6  C33 BXQ d   1      30.148  73.639  18.119  0.00  0.00     0.035 C 
ATOM      7  O36 BXQ d   1      32.319  72.154  17.751  0.00  0.00    -0.228 OA
ATOM      8  O37 BXQ d   1      31.505  73.514  15.849  0.00  0.00    -0.228 OA
ATOM      9  H9  BXQ d   1      30.665  72.282  19.732  0.00  0.00     0.045 H 
ATOM     10  H10 BXQ d   1      27.933  72.029  18.388  0.00  0.00     0.086 H 
ATOM     11  H11 BXQ d   1      30.459  70.296  18.338  0.00  0.00     0.089 H 
ATOM     12  H12 BXQ d   1      29.207  71.814  16.001  0.00  0.00     0.059 H 
ATOM     13  H13 BXQ d   1      30.583  70.663  15.893  0.00  0.00     0.059 H 
ATOM     14  H14 BXQ d   1      30.692  74.527  18.473  0.00  0.00     0.056 H 
ATOM     15  H15 BXQ d   1      29.241  73.954  17.583  0.00  0.00     0.056 H 
ENDROOT
BRANCH   3  16
ATOM     16  N38 BXQ d   1      28.750  69.454  17.497  0.00  0.00    -0.064 N 
ATOM     17  H16 BXQ d   1      28.017  69.765  16.879  0.00  0.00     0.278 HD
ATOM     18  H17 BXQ d   1      28.347  69.139  18.365  0.00  0.00     0.278 HD
BRANCH  16  19
ATOM     19  C40 BXQ d   1      29.355  68.250  16.856  0.00  0.00     0.106 C 
ATOM     20  H18 BXQ d   1      29.747  68.515  15.863  0.00  0.00     0.083 H 
ATOM     21  H19 BXQ d   1      28.594  67.462  16.752  0.00  0.00     0.083 H 
BRANCH  19  22
ATOM     22  C43 BXQ d   1      30.503  67.750  17.752  0.00  0.00    -0.032 A 
ATOM     23  C44 BXQ d   1      30.219  67.164  19.009  0.00  0.00    -0.069 A 
ATOM     24  C46 BXQ d   1      31.238  66.685  19.889  0.00  0.00    -0.050 A 
ATOM     25  H20 BXQ d   1      29.184  67.075  19.317  0.00  0.00     0.085 H 
ATOM     26  C47 BXQ d   1      32.582  66.830  19.426  0.00  0.00    -0.076 A 
ATOM     27  C49 BXQ d   1      32.890  67.411  18.172  0.00  0.00    -0.082 A 
ATOM     28  H21 BXQ d   1      33.393  66.484  20.056  0.00  0.00     0.084 H 
ATOM     29  C51 BXQ d   1      31.849  67.872  17.332  0.00  0.00    -0.075 A 
ATOM     30  H22 BXQ d   1      33.923  67.502  17.856  0.00  0.00     0.083 H 
ATOM     31  H23 BXQ d   1      32.081  68.317  16.371  0.00  0.00     0.084 H 
BRANCH  24  32
ATOM     32  C53 BXQ d   1      30.854  66.046  21.279  0.00  0.00    -0.024 C 
BRANCH  32  33
ATOM     33  C54 BXQ d   1      32.050  65.274  21.921  0.00  0.00    -0.066 C 
ATOM     34  H24 BXQ d   1      31.736  64.847  22.885  0.00  0.00     0.028 H 
ATOM     35  H25 BXQ d   1      32.889  65.967  22.083  0.00  0.00     0.028 H 
ATOM     36  H26 BXQ d   1      32.367  64.464  21.248  0.00  0.00     0.028 H 
ENDBRANCH  32  33
BRANCH  32  37
ATOM     37  C58 BXQ d   1      30.408  67.146  22.298  0.00  0.00    -0.066 C 
ATOM     38  H27 BXQ d   1      29.564  67.713  21.879  0.00  0.00     0.028 H 
ATOM     39  H28 BXQ d   1      31.248  67.829  22.492  0.00  0.00     0.028 H 
ATOM     40  H29 BXQ d   1      30.098  66.669  23.240  0.00  0.00     0.028 H 
ENDBRANCH  32  37
BRANCH  32  41
ATOM     41  C62 BXQ d   1      29.656  65.040  21.185  0.00  0.00    -0.066 C 
ATOM     42  H30 BXQ d   1      29.908  64.235  20.479  0.00  0.00     0.028 H 
ATOM     43  H31 BXQ d   1      28.759  65.570  20.833  0.00  0.00     0.028 H 
ATOM     44  H32 BXQ d   1      29.461  64.609  22.178  0.00  0.00     0.028 H 
ENDBRANCH  32  41
ENDBRANCH  24  32
ENDBRANCH  19  22
ENDBRANCH  16  19
ENDBRANCH   3  16
BRANCH   2  45
ATOM     45  O66 BXQ d   1      28.428  70.698  19.914  0.00  0.00    -0.393 OA
ATOM     46  H33 BXQ d   1      27.972  71.192  20.585  0.00  0.00     0.210 HD
ENDBRANCH   2  45
BRANCH   1  47
ATOM     47  C20 BXQ d   1      29.165  73.604  20.533  0.00  0.00    -0.034 C 
ATOM     48  H7  BXQ d   1      28.135  73.900  20.287  0.00  0.00     0.040 H 
ATOM     49  H8  BXQ d   1      29.162  72.992  21.447  0.00  0.00     0.040 H 
BRANCH  47  50
ATOM     50  C17 BXQ d   1      30.001  74.873  20.786  0.00  0.00    -0.054 A 
ATOM     51  C15 BXQ d   1      31.259  74.821  21.437  0.00  0.00    -0.037 A 
ATOM     52  C14 BXQ d   1      32.006  76.009  21.625  0.00  0.00     0.143 A 
ATOM     53  H5  BXQ d   1      31.649  73.873  21.790  0.00  0.00     0.089 H 
ATOM     54  C13 BXQ d   1      31.515  77.262  21.170  0.00  0.00     0.071 A 
ATOM     55  F68 BXQ d   1      33.189  75.943  22.235  0.00  0.00    -0.204 F 
ATOM     56  C12 BXQ d   1      30.247  77.311  20.518  0.00  0.00    -0.026 A 
ATOM     57  C18 BXQ d   1      29.508  76.118  20.341  0.00  0.00    -0.068 A 
ATOM     58  H6  BXQ d   1      28.541  76.161  19.852  0.00  0.00     0.085 H 
BRANCH  54  59
ATOM     59  N69 BXQ d   1      32.285  78.362  21.378  0.00  0.00    -0.396 N 
ATOM     60  H34 BXQ d   1      31.959  79.286  21.061  0.00  0.00     0.156 HD
ATOM     61  H35 BXQ d   1      33.194  78.272  21.853  0.00  0.00     0.156 HD
ENDBRANCH  54  59
BRANCH  56  62
ATOM     62  C9  BXQ d   1      29.601  78.594  19.971  0.00  0.00    -0.007 C 
ATOM     63  H3  BXQ d   1      28.586  78.698  20.383  0.00  0.00     0.044 H 
ATOM     64  H4  BXQ d   1      30.207  79.464  20.265  0.00  0.00     0.044 H 
BRANCH  62  65
ATOM     65  C5  BXQ d   1      29.525  78.516  18.413  0.00  0.00     0.133 C 
ATOM     66  H1  BXQ d   1      29.116  77.531  18.144  0.00  0.00     0.097 H 
BRANCH  65  67
ATOM     67  C2  BXQ d   1      28.591  79.594  17.815  0.00  0.00     0.413 C 
ATOM     68  F1  BXQ d   1      29.064  80.811  18.198  0.00  0.00    -0.168 F 
ATOM     69  F3  BXQ d   1      27.322  79.418  18.275  0.00  0.00    -0.168 F 
ATOM     70  F4  BXQ d   1      28.583  79.516  16.455  0.00  0.00    -0.168 F 
ENDBRANCH  65  67
BRANCH  65  71
ATOM     71  O7  BXQ d   1      30.845  78.624  17.849  0.00  0.00    -0.386 OA
ATOM     72  H2  BXQ d   1      30.797  78.504  16.908  0.00  0.00     0.210 HD
ENDBRANCH  65  71
ENDBRANCH  62  65
ENDBRANCH  56  62
ENDBRANCH  47  50
ENDBRANCH   1  47
TORSDOF 15
