REMARK  18 active torsions:
REMARK  status: ('A' for Active; 'I' for Inactive)
REMARK    1  A    between atoms: C2_2  and  C5_5 
REMARK    2  A    between atoms: C5_5  and  O7_6 
REMARK    3  A    between atoms: C5_5  and  C68_37 
REMARK    4  A    between atoms: O7_6  and  C8_7 
REMARK    5  A    between atoms: C9_8  and  N65_36 
REMARK    6  A    between atoms: C13_11  and  C16_13 
REMARK    7  A    between atoms: C16_13  and  C19_14 
REMARK    8  A    between atoms: C21_15  and  O62_34 
REMARK    9  A    between atoms: C23_16  and  N34_22 
REMARK   10  A    between atoms: N34_22  and  C36_23 
REMARK   11  A    between atoms: C36_23  and  C39_24 
REMARK   12  A    between atoms: C42_26  and  C49_30 
REMARK   13  A    between atoms: C49_30  and  C50_31 
REMARK   14  A    between atoms: C49_30  and  C54_32 
REMARK   15  A    between atoms: C49_30  and  C58_33 
REMARK   16  A    between atoms: C68_37  and  O71_38 
REMARK   17  A    between atoms: O71_38  and  C72_39 
REMARK   18  A    between atoms: C72_39  and  C75_40 
ROOT
ATOM      1  C19 BXD d   1      28.960  71.827  18.378  0.00  0.00    -0.011 C 
ATOM      2  C21 BXD d   1      28.061  70.601  18.020  0.00  0.00     0.068 C 
ATOM      3  C23 BXD d   1      28.792  69.567  17.104  0.00  0.00     0.139 C 
ATOM      4  C25 BXD d   1      29.361  70.157  15.775  0.00  0.00     0.058 C 
ATOM      5  S28 BXD d   1      30.457  71.542  16.109  0.00  0.00     0.147 S 
ATOM      6  C29 BXD d   1      29.370  72.590  17.075  0.00  0.00     0.035 C 
ATOM      7  O32 BXD d   1      30.742  72.199  14.843  0.00  0.00    -0.228 OA
ATOM      8  O33 BXD d   1      31.576  71.099  16.915  0.00  0.00    -0.228 OA
ATOM      9  H6  BXD d   1      29.882  71.422  18.821  0.00  0.00     0.045 H 
ATOM     10  H7  BXD d   1      27.157  70.970  17.514  0.00  0.00     0.086 H 
ATOM     11  H8  BXD d   1      29.667  69.229  17.679  0.00  0.00     0.089 H 
ATOM     12  H9  BXD d   1      28.526  70.501  15.147  0.00  0.00     0.059 H 
ATOM     13  H10 BXD d   1      29.921  69.374  15.243  0.00  0.00     0.059 H 
ATOM     14  H11 BXD d   1      29.893  73.520  17.341  0.00  0.00     0.056 H 
ATOM     15  H12 BXD d   1      28.471  72.830  16.489  0.00  0.00     0.056 H 
ENDROOT
BRANCH   1  16
ATOM     16  C16 BXD d   1      28.346  72.794  19.448  0.00  0.00    -0.034 C 
ATOM     17  H4  BXD d   1      27.386  73.174  19.069  0.00  0.00     0.040 H 
ATOM     18  H5  BXD d   1      28.176  72.229  20.377  0.00  0.00     0.040 H 
BRANCH  16  19
ATOM     19  C13 BXD d   1      29.261  73.990  19.760  0.00  0.00    -0.052 A 
ATOM     20  C11 BXD d   1      30.446  73.846  20.528  0.00  0.00    -0.037 A 
ATOM     21  C10 BXD d   1      31.269  74.971  20.775  0.00  0.00     0.145 A 
ATOM     22  H2  BXD d   1      30.721  72.875  20.925  0.00  0.00     0.089 H 
ATOM     23  C9  BXD d   1      30.917  76.243  20.265  0.00  0.00     0.098 A 
ATOM     24  F64 BXD d   1      32.384  74.839  21.485  0.00  0.00    -0.204 F 
ATOM     25  C8  BXD d   1      29.738  76.389  19.499  0.00  0.00     0.099 A 
ATOM     26  C14 BXD d   1      28.914  75.263  19.252  0.00  0.00    -0.042 A 
ATOM     27  H3  BXD d   1      28.008  75.379  18.668  0.00  0.00     0.088 H 
BRANCH  23  28
ATOM     28  N65 BXD d   1      31.701  77.325  20.502  0.00  0.00    -0.394 N 
ATOM     29  H31 BXD d   1      31.435  78.246  20.126  0.00  0.00     0.156 HD
ATOM     30  H32 BXD d   1      32.562  77.225  21.058  0.00  0.00     0.156 HD
ENDBRANCH  23  28
BRANCH  25  31
ATOM     31  O7  BXD d   1      29.431  77.662  19.006  0.00  0.00    -0.332 OA
BRANCH  31  32
ATOM     32  C5  BXD d   1      28.837  77.837  17.701  0.00  0.00     0.159 C 
ATOM     33  H1  BXD d   1      28.701  76.867  17.200  0.00  0.00     0.101 H 
BRANCH  32  34
ATOM     34  C2  BXD d   1      27.465  78.490  17.998  0.00  0.00     0.415 C 
ATOM     35  F1  BXD d   1      27.669  79.648  18.675  0.00  0.00    -0.168 F 
ATOM     36  F3  BXD d   1      26.745  77.665  18.802  0.00  0.00    -0.168 F 
ATOM     37  F4  BXD d   1      26.758  78.717  16.858  0.00  0.00    -0.168 F 
ENDBRANCH  32  34
BRANCH  32  38
ATOM     38  C68 BXD d   1      29.739  78.750  16.817  0.00  0.00     0.052 C 
ATOM     39  H33 BXD d   1      30.186  79.535  17.445  0.00  0.00     0.078 H 
ATOM     40  H34 BXD d   1      29.125  79.214  16.031  0.00  0.00     0.078 H 
BRANCH  38  41
ATOM     41  O71 BXD d   1      30.793  77.975  16.202  0.00  0.00    -0.389 OA
BRANCH  41  42
ATOM     42  C72 BXD d   1      32.074  78.092  16.868  0.00  0.00     0.016 C 
ATOM     43  H35 BXD d   1      31.952  77.871  17.939  0.00  0.00     0.073 H 
ATOM     44  H36 BXD d   1      32.458  79.116  16.747  0.00  0.00     0.073 H 
BRANCH  42  45
ATOM     45  C75 BXD d   1      33.078  77.087  16.244  0.00  0.00    -0.056 C 
ATOM     46  H37 BXD d   1      34.050  77.177  16.751  0.00  0.00     0.030 H 
ATOM     47  H38 BXD d   1      33.201  77.308  15.174  0.00  0.00     0.030 H 
ATOM     48  H39 BXD d   1      32.695  76.063  16.365  0.00  0.00     0.030 H 
ENDBRANCH  42  45
ENDBRANCH  41  42
ENDBRANCH  38  41
ENDBRANCH  32  38
ENDBRANCH  31  32
ENDBRANCH  25  31
ENDBRANCH  16  19
ENDBRANCH   1  16
BRANCH   2  49
ATOM     49  O62 BXD d   1      27.696  69.856  19.194  0.00  0.00    -0.393 OA
ATOM     50  H30 BXD d   1      27.242  70.428  19.802  0.00  0.00     0.210 HD
ENDBRANCH   2  49
BRANCH   3  51
ATOM     51  N34 BXD d   1      27.965  68.352  16.850  0.00  0.00    -0.064 N 
ATOM     52  H13 BXD d   1      27.221  68.638  16.234  0.00  0.00     0.278 HD
ATOM     53  H14 BXD d   1      27.578  68.080  17.740  0.00  0.00     0.278 HD
BRANCH  51  54
ATOM     54  C36 BXD d   1      28.555  67.119  16.253  0.00  0.00     0.106 C 
ATOM     55  H15 BXD d   1      28.886  67.338  15.227  0.00  0.00     0.083 H 
ATOM     56  H16 BXD d   1      27.791  66.328  16.231  0.00  0.00     0.083 H 
BRANCH  54  57
ATOM     57  C39 BXD d   1      29.760  66.635  17.079  0.00  0.00    -0.032 A 
ATOM     58  C40 BXD d   1      29.534  66.130  18.381  0.00  0.00    -0.069 A 
ATOM     59  C42 BXD d   1      30.591  65.667  19.220  0.00  0.00    -0.050 A 
ATOM     60  H17 BXD d   1      28.518  66.093  18.756  0.00  0.00     0.085 H 
ATOM     61  C43 BXD d   1      31.908  65.737  18.677  0.00  0.00    -0.076 A 
ATOM     62  C45 BXD d   1      32.159  66.237  17.376  0.00  0.00    -0.082 A 
ATOM     63  H18 BXD d   1      32.743  65.397  19.279  0.00  0.00     0.084 H 
ATOM     64  C47 BXD d   1      31.084  66.687  16.575  0.00  0.00    -0.075 A 
ATOM     65  H19 BXD d   1      33.173  66.275  16.995  0.00  0.00     0.083 H 
ATOM     66  H20 BXD d   1      31.272  67.070  15.579  0.00  0.00     0.084 H 
BRANCH  59  67
ATOM     67  C49 BXD d   1      30.292  65.119  20.662  0.00  0.00    -0.024 C 
BRANCH  67  68
ATOM     68  C50 BXD d   1      29.174  64.039  20.572  0.00  0.00    -0.066 C 
ATOM     69  H21 BXD d   1      28.958  63.650  21.578  0.00  0.00     0.028 H 
ATOM     70  H22 BXD d   1      29.511  63.216  19.925  0.00  0.00     0.028 H 
ATOM     71  H23 BXD d   1      28.263  64.488  20.150  0.00  0.00     0.028 H 
ENDBRANCH  67  68
BRANCH  67  72
ATOM     72  C54 BXD d   1      31.513  64.461  21.387  0.00  0.00    -0.066 C 
ATOM     73  H24 BXD d   1      32.328  65.195  21.471  0.00  0.00     0.028 H 
ATOM     74  H25 BXD d   1      31.859  63.593  20.807  0.00  0.00     0.028 H 
ATOM     75  H26 BXD d   1      31.209  64.133  22.392  0.00  0.00     0.028 H 
ENDBRANCH  67  72
BRANCH  67  76
ATOM     76  C58 BXD d   1      29.814  66.269  21.612  0.00  0.00    -0.066 C 
ATOM     77  H27 BXD d   1      28.950  66.781  21.163  0.00  0.00     0.028 H 
ATOM     78  H28 BXD d   1      30.633  66.990  21.756  0.00  0.00     0.028 H 
ATOM     79  H29 BXD d   1      29.524  65.844  22.584  0.00  0.00     0.028 H 
ENDBRANCH  67  76
ENDBRANCH  59  67
ENDBRANCH  54  57
ENDBRANCH  51  54
ENDBRANCH   3  51
TORSDOF 18
