REMARK  8 active torsions:
REMARK  status: ('A' for Active; 'I' for Inactive)
REMARK    1  A    between atoms: C9_14  and  N1_2 
REMARK    2  A    between atoms: C8_12  and  C3_6 
REMARK    3  A    between atoms: C3_6  and  O3_18 
REMARK    4  A    between atoms: C11_19  and  C4_8 
REMARK    5  A    between atoms: O3_18  and  C5_9 
REMARK    6  A    between atoms: C7_11  and  O4_20 
REMARK    7  A    between atoms: C8_12  and  C11_19 
REMARK    8  A    between atoms: C11_19  and  C10_15 
ROOT
ATOM      1  O1  0HY d   1     -14.212  27.674   3.701  0.00  0.00    -0.171 OA
ATOM      2  C1  0HY d   1     -13.839  25.605   4.993  0.00  0.00     0.104 A 
ATOM      3  C2  0HY d   1     -14.476  26.339   3.919  0.00  0.00     0.210 A 
ATOM      4  N2  0HY d   1     -14.977  23.586   4.289  0.00  0.00    -0.042 NA
ATOM      5  N3  0HY d   1     -12.623  24.053   7.081  0.00  0.00    -0.150 NA
ATOM      6  C4  0HY d   1     -12.303  25.306   7.047  0.00  0.00     0.095 A 
ATOM      7  C6  0HY d   1     -14.131  24.269   5.114  0.00  0.00     0.207 A 
ATOM      8  C7  0HY d   1     -12.877  26.178   5.997  0.00  0.00     0.111 A 
ATOM      9  N4  0HY d   1     -13.485  23.559   6.171  0.00  0.00    -0.128 NA
ATOM     10  C9  0HY d   1     -15.622  24.237   3.231  0.00  0.00     0.702 A 
ATOM     11  N5  0HY d   1     -15.357  25.670   3.051  0.00  0.00    -0.165 N 
ATOM     12  H11 0HY d   1     -15.804  26.171   2.310  0.00  0.00     0.186 HD
ENDROOT
BRANCH   6  13
ATOM     13  C11 0HY d   1     -11.238  25.866   7.974  0.00  0.00    -0.002 C 
ATOM     14  H12 0HY d   1     -10.667  26.595   7.380  0.00  0.00     0.050 H 
BRANCH  13  15
ATOM     15  C8  0HY d   1     -11.732  26.612   9.181  0.00  0.00     0.024 C 
ATOM     16  H6  0HY d   1     -10.905  26.679   9.903  0.00  0.00     0.049 H 
ATOM     17  H7  0HY d   1     -12.022  27.624   8.861  0.00  0.00     0.049 H 
BRANCH  15  18
ATOM     18  C3  0HY d   1     -12.903  25.991   9.874  0.00  0.00     0.259 C 
ATOM     19  O2  0HY d   1     -12.807  24.856  10.417  0.00  0.00    -0.265 OA
BRANCH  18  20
ATOM     20  O3  0HY d   1     -13.833  26.752  10.228  0.00  0.00    -0.326 OA
BRANCH  20  21
ATOM     21  C5  0HY d   1     -14.566  26.413  11.341  0.00  0.00     0.013 C 
ATOM     22  H3  0HY d   1     -15.338  27.176  11.518  0.00  0.00     0.067 H 
ATOM     23  H4  0HY d   1     -13.900  26.355  12.215  0.00  0.00     0.067 H 
ATOM     24  H5  0HY d   1     -15.046  25.436  11.181  0.00  0.00     0.067 H 
ENDBRANCH  20  21
ENDBRANCH  18  20
ENDBRANCH  15  18
ENDBRANCH  13  15
BRANCH  13  25
ATOM     25  C10 0HY d   1     -10.287  24.777   8.377  0.00  0.00    -0.067 C 
ATOM     26  H8  0HY d   1      -9.938  24.244   7.480  0.00  0.00     0.028 H 
ATOM     27  H9  0HY d   1     -10.800  24.071   9.046  0.00  0.00     0.028 H 
ATOM     28  H10 0HY d   1      -9.425  25.218   8.900  0.00  0.00     0.028 H 
ENDBRANCH  13  25
ENDBRANCH   6  13
BRANCH   8  29
ATOM     29  O4  0HY d   1     -12.568  27.511   6.001  0.00  0.00    -0.357 OA
ATOM     30  H13 0HY d   1     -13.006  27.939   5.274  0.00  0.00     0.217 HD
ENDBRANCH   8  29
BRANCH  10  31
ATOM     31  N1  0HY d   1     -16.486  23.528   2.350  0.00  0.00    -0.233 N 
ATOM     32  H1  0HY d   1     -16.657  22.523   2.495  0.00  0.00     0.174 HD
ATOM     33  H2  0HY d   1     -16.940  24.020   1.567  0.00  0.00     0.174 HD
ENDBRANCH  10  31
TORSDOF 8
