REMARK  18 active torsions:
REMARK  status: ('A' for Active; 'I' for Inactive)
REMARK    1  A    between atoms: C2_2  and  C5_5 
REMARK    2  A    between atoms: C5_5  and  O7_6 
REMARK    3  A    between atoms: C5_5  and  C68_37 
REMARK    4  A    between atoms: O7_6  and  C8_7 
REMARK    5  A    between atoms: C9_8  and  N65_36 
REMARK    6  A    between atoms: C13_11  and  C16_13 
REMARK    7  A    between atoms: C16_13  and  C19_14 
REMARK    8  A    between atoms: C21_15  and  O62_34 
REMARK    9  A    between atoms: C23_16  and  N34_22 
REMARK   10  A    between atoms: N34_22  and  C36_23 
REMARK   11  A    between atoms: C36_23  and  C39_24 
REMARK   12  A    between atoms: C42_26  and  C49_30 
REMARK   13  A    between atoms: C49_30  and  C50_31 
REMARK   14  A    between atoms: C49_30  and  C54_32 
REMARK   15  A    between atoms: C49_30  and  C58_33 
REMARK   16  A    between atoms: C68_37  and  O71_38 
REMARK   17  A    between atoms: O71_38  and  C72_39 
REMARK   18  A    between atoms: C72_39  and  C75_40 
ROOT
ATOM      1  C19 BXD d   1      31.345   5.692  14.522  0.00  0.00    -0.011 C 
ATOM      2  C21 BXD d   1      31.984   4.308  14.188  0.00  0.00     0.068 C 
ATOM      3  C23 BXD d   1      31.042   3.391  13.344  0.00  0.00     0.139 C 
ATOM      4  C25 BXD d   1      29.627   3.128  13.952  0.00  0.00     0.058 C 
ATOM      5  S28 BXD d   1      28.785   4.673  14.314  0.00  0.00     0.147 S 
ATOM      6  C29 BXD d   1      30.026   5.471  15.338  0.00  0.00     0.035 C 
ATOM      7  O32 BXD d   1      27.614   4.384  15.110  0.00  0.00    -0.228 OA
ATOM      8  O33 BXD d   1      28.610   5.454  13.099  0.00  0.00    -0.228 OA
ATOM      9  H6  BXD d   1      31.063   6.153  13.564  0.00  0.00     0.045 H 
ATOM     10  H7  BXD d   1      32.229   3.803  15.134  0.00  0.00     0.086 H 
ATOM     11  H8  BXD d   1      30.853   3.956  12.419  0.00  0.00     0.089 H 
ATOM     12  H9  BXD d   1      29.737   2.551  14.882  0.00  0.00     0.059 H 
ATOM     13  H10 BXD d   1      29.027   2.552  13.232  0.00  0.00     0.059 H 
ATOM     14  H11 BXD d   1      29.643   6.444  15.680  0.00  0.00     0.056 H 
ATOM     15  H12 BXD d   1      30.241   4.835  16.209  0.00  0.00     0.056 H 
ENDROOT
BRANCH   1  16
ATOM     16  C16 BXD d   1      32.322   6.702  15.226  0.00  0.00    -0.034 C 
ATOM     17  H4  BXD d   1      32.737   6.224  16.126  0.00  0.00     0.040 H 
ATOM     18  H5  BXD d   1      33.139   6.947  14.531  0.00  0.00     0.040 H 
BRANCH  16  19
ATOM     19  C13 BXD d   1      31.617   8.004  15.638  0.00  0.00    -0.052 A 
ATOM     20  C11 BXD d   1      31.287   8.999  14.682  0.00  0.00    -0.037 A 
ATOM     21  C10 BXD d   1      30.622  10.175  15.096  0.00  0.00     0.145 A 
ATOM     22  H2  BXD d   1      31.544   8.858  13.638  0.00  0.00     0.089 H 
ATOM     23  C9  BXD d   1      30.262  10.359  16.456  0.00  0.00     0.098 A 
ATOM     24  F64 BXD d   1      30.312  11.099  14.191  0.00  0.00    -0.204 F 
ATOM     25  C8  BXD d   1      30.603   9.365  17.409  0.00  0.00     0.099 A 
ATOM     26  C14 BXD d   1      31.270   8.192  16.991  0.00  0.00    -0.042 A 
ATOM     27  H3  BXD d   1      31.518   7.428  17.719  0.00  0.00     0.088 H 
BRANCH  23  28
ATOM     28  N65 BXD d   1      29.624  11.487  16.854  0.00  0.00    -0.394 N 
ATOM     29  H31 BXD d   1      29.367  11.611  17.844  0.00  0.00     0.156 HD
ATOM     30  H32 BXD d   1      29.396  12.220  16.167  0.00  0.00     0.156 HD
ENDBRANCH  23  28
BRANCH  25  31
ATOM     31  O7  BXD d   1      30.246   9.559  18.740  0.00  0.00    -0.332 OA
BRANCH  31  32
ATOM     32  C5  BXD d   1      29.732   8.461  19.535  0.00  0.00     0.159 C 
ATOM     33  H1  BXD d   1      29.731   7.535  18.941  0.00  0.00     0.101 H 
BRANCH  32  34
ATOM     34  C2  BXD d   1      30.710   8.310  20.736  0.00  0.00     0.415 C 
ATOM     35  F1  BXD d   1      30.810   9.490  21.390  0.00  0.00    -0.168 F 
ATOM     36  F3  BXD d   1      31.936   8.001  20.265  0.00  0.00    -0.168 F 
ATOM     37  F4  BXD d   1      30.321   7.319  21.581  0.00  0.00    -0.168 F 
ENDBRANCH  32  34
BRANCH  32  38
ATOM     38  C68 BXD d   1      28.278   8.757  19.999  0.00  0.00     0.052 C 
ATOM     39  H33 BXD d   1      28.251   9.698  20.568  0.00  0.00     0.078 H 
ATOM     40  H34 BXD d   1      27.913   7.935  20.632  0.00  0.00     0.078 H 
BRANCH  38  41
ATOM     41  O71 BXD d   1      27.455   8.872  18.822  0.00  0.00    -0.389 OA
BRANCH  41  42
ATOM     42  C72 BXD d   1      26.021   8.884  19.073  0.00  0.00     0.016 C 
ATOM     43  H35 BXD d   1      25.808   8.428  20.051  0.00  0.00     0.073 H 
ATOM     44  H36 BXD d   1      25.498   8.323  18.285  0.00  0.00     0.073 H 
BRANCH  42  45
ATOM     45  C75 BXD d   1      25.552  10.375  19.067  0.00  0.00    -0.056 C 
ATOM     46  H37 BXD d   1      24.469  10.419  19.255  0.00  0.00     0.030 H 
ATOM     47  H38 BXD d   1      25.773  10.825  18.088  0.00  0.00     0.030 H 
ATOM     48  H39 BXD d   1      26.083  10.930  19.854  0.00  0.00     0.030 H 
ENDBRANCH  42  45
ENDBRANCH  41  42
ENDBRANCH  38  41
ENDBRANCH  32  38
ENDBRANCH  31  32
ENDBRANCH  25  31
ENDBRANCH  16  19
ENDBRANCH   1  16
BRANCH   2  49
ATOM     49  O62 BXD d   1      33.179   4.479  13.406  0.00  0.00    -0.393 OA
ATOM     50  H30 BXD d   1      33.789   5.033  13.879  0.00  0.00     0.210 HD
ENDBRANCH   2  49
BRANCH   3  51
ATOM     51  N34 BXD d   1      31.705   2.127  12.912  0.00  0.00    -0.064 N 
ATOM     52  H13 BXD d   1      31.782   1.550  13.735  0.00  0.00     0.278 HD
ATOM     53  H14 BXD d   1      32.627   2.383  12.594  0.00  0.00     0.278 HD
BRANCH  51  54
ATOM     54  C36 BXD d   1      31.116   1.267  11.848  0.00  0.00     0.106 C 
ATOM     55  H15 BXD d   1      30.148   0.874  12.193  0.00  0.00     0.083 H 
ATOM     56  H16 BXD d   1      31.798   0.430  11.639  0.00  0.00     0.083 H 
BRANCH  54  57
ATOM     57  C39 BXD d   1      30.902   2.084  10.558  0.00  0.00    -0.032 A 
ATOM     58  C40 BXD d   1      32.037   2.548   9.860  0.00  0.00    -0.069 A 
ATOM     59  C42 BXD d   1      31.951   3.311   8.658  0.00  0.00    -0.050 A 
ATOM     60  H17 BXD d   1      33.019   2.314  10.255  0.00  0.00     0.085 H 
ATOM     61  C43 BXD d   1      30.631   3.582   8.188  0.00  0.00    -0.076 A 
ATOM     62  C45 BXD d   1      29.477   3.128   8.869  0.00  0.00    -0.082 A 
ATOM     63  H18 BXD d   1      30.508   4.156   7.277  0.00  0.00     0.084 H 
ATOM     64  C47 BXD d   1      29.604   2.373  10.060  0.00  0.00    -0.075 A 
ATOM     65  H19 BXD d   1      28.493   3.359   8.478  0.00  0.00     0.083 H 
ATOM     66  H20 BXD d   1      28.723   2.021  10.584  0.00  0.00     0.084 H 
BRANCH  59  67
ATOM     67  C49 BXD d   1      33.247   3.800   7.925  0.00  0.00    -0.024 C 
BRANCH  67  68
ATOM     68  C50 BXD d   1      34.214   2.596   7.718  0.00  0.00    -0.066 C 
ATOM     69  H21 BXD d   1      35.123   2.940   7.204  0.00  0.00     0.028 H 
ATOM     70  H22 BXD d   1      33.717   1.827   7.109  0.00  0.00     0.028 H 
ATOM     71  H23 BXD d   1      34.485   2.171   8.696  0.00  0.00     0.028 H 
ENDBRANCH  67  68
BRANCH  67  72
ATOM     72  C54 BXD d   1      33.021   4.433   6.507  0.00  0.00    -0.066 C 
ATOM     73  H24 BXD d   1      32.341   5.293   6.594  0.00  0.00     0.028 H 
ATOM     74  H25 BXD d   1      32.578   3.682   5.837  0.00  0.00     0.028 H 
ATOM     75  H26 BXD d   1      33.985   4.767   6.097  0.00  0.00     0.028 H 
ENDBRANCH  67  72
BRANCH  67  76
ATOM     76  C58 BXD d   1      33.991   4.890   8.768  0.00  0.00    -0.066 C 
ATOM     77  H27 BXD d   1      34.180   4.504   9.781  0.00  0.00     0.028 H 
ATOM     78  H28 BXD d   1      33.368   5.794   8.830  0.00  0.00     0.028 H 
ATOM     79  H29 BXD d   1      34.948   5.137   8.285  0.00  0.00     0.028 H 
ENDBRANCH  67  76
ENDBRANCH  59  67
ENDBRANCH  54  57
ENDBRANCH  51  54
ENDBRANCH   3  51
TORSDOF 18
