REMARK  15 active torsions:
REMARK  status: ('A' for Active; 'I' for Inactive)
REMARK    1  A    between atoms: C1_1  and  C2_4 
REMARK    2  A    between atoms: C2_4  and  C3_5 
REMARK    3  A    between atoms: C3_5  and  O3_6 
REMARK    4  A    between atoms: C3_5  and  C4_7 
REMARK       I    between atoms: C4_7  and  N1_9 
REMARK    5  A    between atoms: N1_9  and  C6_10 
REMARK    6  A    between atoms: C6_10  and  C7_11 
REMARK    7  A    between atoms: C6_10  and  C11_15 
REMARK    8  A    between atoms: C7_11  and  C8_12 
REMARK    9  A    between atoms: C8_12  and  C9_13 
REMARK   10  A    between atoms: C8_12  and  C10_14 
REMARK       I    between atoms: C11_15  and  N2_17 
REMARK   11  A    between atoms: N2_17  and  C12_18 
REMARK   12  A    between atoms: C12_18  and  C13_19 
REMARK   13  A    between atoms: C13_19  and  C14_20 
REMARK   14  A    between atoms: C14_20  and  C15_21 
REMARK   15  A    between atoms: C15_21  and  N3_22 
REMARK       I    between atoms: N3_22  and  C16_23 
REMARK       I    between atoms: C16_23  and  N4_24 
ROOT
ATOM      1  C6  E64 d   1     -11.543  11.002  -6.222  0.00  0.00     0.089 C 
ATOM      2  H6  E64 d   1     -11.229  11.105  -5.173  0.00  0.00     0.087 H 
ENDROOT
BRANCH   1   3
ATOM      3  N1  E64 d   1     -12.987  11.328  -6.291  0.00  0.00    -0.346 N 
ATOM      4  C4  E64 d   1     -13.621  11.917  -5.180  0.00  0.00     0.247 C 
ATOM      5  O4  E64 d   1     -12.879  12.081  -4.174  0.00  0.00    -0.271 OA
ATOM      6  H5  E64 d   1     -13.508  11.131  -7.122  0.00  0.00     0.163 HD
BRANCH   4   7
ATOM      7  C3  E64 d   1     -15.064  12.298  -5.209  0.00  0.00     0.121 C 
ATOM      8  H3  E64 d   1     -15.247  13.186  -4.586  0.00  0.00     0.098 H 
BRANCH   7   9
ATOM      9  C2  E64 d   1     -15.963  11.189  -4.861  0.00  0.00     0.048 C 
ATOM     10  H1  E64 d   1     -15.923  10.426  -5.652  0.00  0.00     0.053 H 
ATOM     11  H2  E64 d   1     -15.642  10.745  -3.907  0.00  0.00     0.053 H 
BRANCH   9  12
ATOM     12  C1  E64 d   1     -17.359  11.688  -4.727  0.00  0.00     0.175 C 
ATOM     13  O1  E64 d   1     -17.625  12.856  -4.256  0.00  0.00    -0.648 OA
ATOM     14  O2  E64 d   1     -18.296  10.942  -5.121  0.00  0.00    -0.648 OA
ENDBRANCH   9  12
ENDBRANCH   7   9
BRANCH   7  15
ATOM     15  O3  E64 d   1     -15.400  12.493  -6.595  0.00  0.00    -0.386 OA
ATOM     16  H4  E64 d   1     -14.876  13.201  -6.950  0.00  0.00     0.210 HD
ENDBRANCH   7  15
ENDBRANCH   4   7
ENDBRANCH   1   3
BRANCH   1  17
ATOM     17  C7  E64 d   1     -11.271   9.575  -6.627  0.00  0.00    -0.035 C 
ATOM     18  H7  E64 d   1     -10.182   9.416  -6.618  0.00  0.00     0.037 H 
ATOM     19  H8  E64 d   1     -11.655   9.428  -7.647  0.00  0.00     0.037 H 
BRANCH  17  20
ATOM     20  C8  E64 d   1     -11.913   8.528  -5.720  0.00  0.00    -0.059 C 
ATOM     21  H9  E64 d   1     -13.004   8.630  -5.813  0.00  0.00     0.038 H 
BRANCH  20  22
ATOM     22  C9  E64 d   1     -11.542   7.115  -6.088  0.00  0.00    -0.073 C 
ATOM     23  H10 E64 d   1     -12.036   6.415  -5.398  0.00  0.00     0.028 H 
ATOM     24  H11 E64 d   1     -10.451   6.992  -6.017  0.00  0.00     0.028 H 
ATOM     25  H12 E64 d   1     -11.868   6.907  -7.118  0.00  0.00     0.028 H 
ENDBRANCH  20  22
BRANCH  20  26
ATOM     26  C10 E64 d   1     -11.521   8.767  -4.249  0.00  0.00    -0.073 C 
ATOM     27  H13 E64 d   1     -11.785   9.796  -3.962  0.00  0.00     0.028 H 
ATOM     28  H14 E64 d   1     -10.438   8.620  -4.130  0.00  0.00     0.028 H 
ATOM     29  H15 E64 d   1     -12.061   8.057  -3.606  0.00  0.00     0.028 H 
ENDBRANCH  20  26
ENDBRANCH  17  20
ENDBRANCH   1  17
BRANCH   1  30
ATOM     30  C11 E64 d   1     -10.736  12.011  -7.042  0.00  0.00     0.240 C 
ATOM     31  O5  E64 d   1     -11.172  13.145  -7.273  0.00  0.00    -0.271 OA
ATOM     32  N2  E64 d   1      -9.448  11.679  -7.531  0.00  0.00    -0.359 N 
ATOM     33  H16 E64 d   1      -9.065  10.771  -7.358  0.00  0.00     0.162 HD
BRANCH  32  34
ATOM     34  C12 E64 d   1      -8.665  12.683  -8.303  0.00  0.00    -0.005 C 
ATOM     35  H17 E64 d   1      -9.372  13.239  -8.936  0.00  0.00     0.064 H 
ATOM     36  H18 E64 d   1      -7.957  12.132  -8.940  0.00  0.00     0.064 H 
BRANCH  34  37
ATOM     37  C13 E64 d   1      -7.861  13.708  -7.501  0.00  0.00    -0.049 C 
ATOM     38  H19 E64 d   1      -7.190  14.237  -8.194  0.00  0.00     0.035 H 
ATOM     39  H20 E64 d   1      -7.263  13.167  -6.753  0.00  0.00     0.035 H 
BRANCH  37  40
ATOM     40  C14 E64 d   1      -8.717  14.752  -6.769  0.00  0.00    -0.048 C 
ATOM     41  H21 E64 d   1      -9.143  14.238  -5.895  0.00  0.00     0.035 H 
ATOM     42  H22 E64 d   1      -9.525  15.026  -7.464  0.00  0.00     0.035 H 
BRANCH  40  43
ATOM     43  C15 E64 d   1      -8.143  16.066  -6.249  0.00  0.00     0.009 C 
ATOM     44  H23 E64 d   1      -8.989  16.666  -5.882  0.00  0.00     0.064 H 
ATOM     45  H24 E64 d   1      -7.675  16.576  -7.104  0.00  0.00     0.064 H 
BRANCH  43  46
ATOM     46  N3  E64 d   1      -7.150  16.021  -5.178  0.00  0.00    -0.227 N 
ATOM     47  C16 E64 d   1      -6.074  17.042  -5.146  0.00  0.00     0.665 C 
ATOM     48  N4  E64 d   1      -6.056  17.985  -6.093  0.00  0.00    -0.235 N 
ATOM     49  N5  E64 d   1      -5.155  17.008  -4.203  0.00  0.00    -0.235 N 
ATOM     50  H26 E64 d   1      -5.318  18.704  -6.090  0.00  0.00     0.174 HD
ATOM     51  H27 E64 d   1      -6.780  17.993  -6.826  0.00  0.00     0.174 HD
ATOM     52  H28 E64 d   1      -5.185  16.274  -3.481  0.00  0.00     0.174 HD
ATOM     53  H29 E64 d   1      -4.407  17.716  -4.187  0.00  0.00     0.174 HD
ATOM     54  H25 E64 d   1      -7.196  15.290  -4.454  0.00  0.00     0.177 HD
ENDBRANCH  43  46
ENDBRANCH  40  43
ENDBRANCH  37  40
ENDBRANCH  34  37
ENDBRANCH  32  34
ENDBRANCH   1  30
TORSDOF 15
