REMARK  23 active torsions:
REMARK  status: ('A' for Active; 'I' for Inactive)
REMARK    1  A    between atoms: C_1  and  CH3_3 
REMARK       I    between atoms: N_4  and  C_1 
REMARK    2  A    between atoms: CA_5  and  N_4 
REMARK    3  A    between atoms: C_6  and  CA_5 
REMARK    4  A    between atoms: CA_5  and  CB_8 
REMARK       I    between atoms: N_9  and  C_6 
REMARK    5  A    between atoms: CA_10  and  N_9 
REMARK    6  A    between atoms: C_11  and  CA_10 
REMARK    7  A    between atoms: CA_10  and  CB_13 
REMARK       I    between atoms: N_18  and  C_11 
REMARK    8  A    between atoms: CB_13  and  CG_14 
REMARK    9  A    between atoms: CG_14  and  CD_15 
REMARK   10  A    between atoms: CA_19  and  N_18 
REMARK   11  A    between atoms: C_20  and  CA_19 
REMARK   12  A    between atoms: CA_19  and  CB_22 
REMARK       I    between atoms: N_27  and  C_20 
REMARK   13  A    between atoms: CB_22  and  CG1_23 
REMARK   14  A    between atoms: CB_22  and  CG2_24 
REMARK   15  A    between atoms: CG1_23  and  CD1_25 
REMARK   16  A    between atoms: C_26  and  O_28 
REMARK   17  A    between atoms: CA_29  and  C_26 
REMARK   18  A    between atoms: CA_29  and  N_27 
REMARK   19  A    between atoms: CB_30  and  CA_29 
REMARK   20  A    between atoms: CG_33  and  CB_30 
REMARK   21  A    between atoms: CD_31  and  CE_32 
REMARK   22  A    between atoms: CD_31  and  CG_33 
REMARK   23  A    between atoms: CE_32  and  NZ_34 
ROOT
ATOM      1  CA  ILE d   1      12.207 -10.174  -5.884  0.00  0.00     0.092 C 
ATOM      2  H16 ILE d   1      12.713  -9.449  -6.539  0.00  0.00     0.088 H 
ENDROOT
BRANCH   1   3
ATOM      3  N   ILE d   1      11.288 -10.994  -6.682  0.00  0.00    -0.346 N 
ATOM      4  C   GLU d   1      11.517 -11.191  -7.981  0.00  0.00     0.241 C 
ATOM      5  O   GLU d   1      12.485 -10.681  -8.572  0.00  0.00    -0.271 OA
ATOM      6  H15 ILE d   1      10.486 -11.407  -6.250  0.00  0.00     0.163 HD
BRANCH   4   7
ATOM      7  CA  GLU d   1      10.574 -12.109  -8.709  0.00  0.00     0.090 C 
ATOM      8  H10 GLU d   1      11.143 -13.019  -8.951  0.00  0.00     0.087 H 
BRANCH   7   9
ATOM      9  N   GLU d   1       9.426 -12.538  -7.912  0.00  0.00    -0.346 N 
ATOM     10  C   ALA d   1       9.317 -13.805  -7.513  0.00  0.00     0.240 C 
ATOM     11  O   ALA d   1      10.268 -14.624  -7.547  0.00  0.00    -0.271 OA
ATOM     12  H9  GLU d   1       8.718 -11.877  -7.665  0.00  0.00     0.163 HD
BRANCH  10  13
ATOM     13  CA  ALA d   1       7.964 -14.198  -6.980  0.00  0.00     0.086 C 
ATOM     14  H5  ALA d   1       7.692 -13.517  -6.160  0.00  0.00     0.086 H 
BRANCH  13  15
ATOM     15  N   ALA d   1       6.977 -14.055  -8.049  0.00  0.00    -0.348 N 
ATOM     16  C   ACE d   1       5.909 -13.286  -7.948  0.00  0.00     0.214 C 
ATOM     17  O   ACE d   1       5.434 -12.972  -6.849  0.00  0.00    -0.274 OA
ATOM     18  H4  ALA d   1       7.118 -14.565  -8.898  0.00  0.00     0.163 HD
BRANCH  16  19
ATOM     19  CH3 ACE d   1       5.090 -13.154  -9.208  0.00  0.00    -0.003 C 
ATOM     20  H1  ACE d   1       5.689 -13.482 -10.070  0.00  0.00     0.040 H 
ATOM     21  H2  ACE d   1       4.795 -12.103  -9.345  0.00  0.00     0.040 H 
ATOM     22  H3  ACE d   1       4.189 -13.780  -9.127  0.00  0.00     0.040 H 
ENDBRANCH  16  19
ENDBRANCH  13  15
BRANCH  13  23
ATOM     23  CB  ALA d   1       8.008 -15.646  -6.415  0.00  0.00    -0.049 C 
ATOM     24  H6  ALA d   1       8.762 -15.705  -5.616  0.00  0.00     0.030 H 
ATOM     25  H7  ALA d   1       8.272 -16.346  -7.221  0.00  0.00     0.030 H 
ATOM     26  H8  ALA d   1       7.021 -15.911  -6.008  0.00  0.00     0.030 H 
ENDBRANCH  13  23
ENDBRANCH  10  13
ENDBRANCH   7   9
BRANCH   7  27
ATOM     27  CB  GLU d   1      10.135 -11.482 -10.037  0.00  0.00    -0.029 C 
ATOM     28  H11 GLU d   1      11.035 -11.256 -10.628  0.00  0.00     0.037 H 
ATOM     29  H12 GLU d   1       9.596 -10.549  -9.818  0.00  0.00     0.037 H 
BRANCH  27  30
ATOM     30  CG  GLU d   1       9.232 -12.371 -10.865  0.00  0.00     0.018 C 
ATOM     31  H13 GLU d   1       8.929 -11.819 -11.767  0.00  0.00     0.049 H 
ATOM     32  H14 GLU d   1       8.341 -12.617 -10.269  0.00  0.00     0.049 H 
BRANCH  30  33
ATOM     33  CD  GLU d   1       9.902 -13.671 -11.295  0.00  0.00     0.172 C 
ATOM     34  OE1 GLU d   1      11.162 -13.734 -11.341  0.00  0.00    -0.648 OA
ATOM     35  OE2 GLU d   1       9.159 -14.646 -11.575  0.00  0.00    -0.648 OA
ENDBRANCH  30  33
ENDBRANCH  27  30
ENDBRANCH   7  27
ENDBRANCH   4   7
ENDBRANCH   1   3
BRANCH   1  36
ATOM     36  C   ILE d   1      13.223 -11.114  -5.309  0.00  0.00     0.241 C 
ATOM     37  O   ILE d   1      12.874 -11.955  -4.477  0.00  0.00    -0.271 OA
ATOM     38  N   LYJ d   1      14.472 -10.998  -5.730  0.00  0.00    -0.353 N 
ATOM     39  H28 LYJ d   1      14.728 -10.236  -6.324  0.00  0.00     0.163 HD
BRANCH  38  40
ATOM     40  CA  LYJ d   1      15.465 -11.964  -5.337  0.00  0.00     0.032 C 
ATOM     41  H30 LYJ d   1      14.968 -12.721  -4.712  0.00  0.00     0.075 H 
BRANCH  40  42
ATOM     42  C   LYJ d   1      16.646 -11.439  -4.595  0.00  0.00     0.035 C 
ATOM     43  H26 LYJ d   1      17.172 -10.725  -5.245  0.00  0.00     0.077 H 
ATOM     44  H27 LYJ d   1      16.285 -10.919  -3.695  0.00  0.00     0.077 H 
BRANCH  42  45
ATOM     45  O   LYJ d   1      17.488 -12.350  -4.227  0.00  0.00    -0.399 OA
ATOM     46  H29 LYJ d   1      17.818 -12.803  -4.994  0.00  0.00     0.209 HD
ENDBRANCH  42  45
ENDBRANCH  40  42
BRANCH  40  47
ATOM     47  CB  LYJ d   1      16.049 -12.626  -6.608  0.00  0.00    -0.044 C 
ATOM     48  H31 LYJ d   1      16.779 -13.389  -6.301  0.00  0.00     0.036 H 
ATOM     49  H32 LYJ d   1      16.556 -11.853  -7.203  0.00  0.00     0.036 H 
BRANCH  47  50
ATOM     50  CG  LYJ d   1      14.997 -13.287  -7.474  0.00  0.00    -0.062 C 
ATOM     51  H37 LYJ d   1      14.347 -12.494  -7.872  0.00  0.00     0.033 H 
ATOM     52  H38 LYJ d   1      14.407 -13.955  -6.829  0.00  0.00     0.033 H 
BRANCH  50  53
ATOM     53  CD  LYJ d   1      15.499 -14.113  -8.660  0.00  0.00    -0.043 C 
ATOM     54  H33 LYJ d   1      16.067 -13.443  -9.322  0.00  0.00     0.035 H 
ATOM     55  H34 LYJ d   1      16.167 -14.895  -8.269  0.00  0.00     0.035 H 
BRANCH  53  56
ATOM     56  CE  LYJ d   1      14.437 -14.783  -9.483  0.00  0.00     0.080 C 
ATOM     57  H35 LYJ d   1      13.973 -14.016 -10.120  0.00  0.00     0.075 H 
ATOM     58  H36 LYJ d   1      13.684 -15.189  -8.792  0.00  0.00     0.075 H 
BRANCH  56  59
ATOM     59  NZ  LYJ d   1      14.872 -15.855 -10.335  0.00  0.00    -0.079 N 
ATOM     60  H39 LYJ d   1      14.081 -16.228 -10.836  0.00  0.00     0.274 HD
ATOM     61  H40 LYJ d   1      15.287 -16.582  -9.774  0.00  0.00     0.274 HD
ATOM     62  H41 LYJ d   1      15.553 -15.507 -10.992  0.00  0.00     0.274 HD
ENDBRANCH  56  59
ENDBRANCH  53  56
ENDBRANCH  50  53
ENDBRANCH  47  50
ENDBRANCH  40  47
ENDBRANCH  38  40
ENDBRANCH   1  36
BRANCH   1  63
ATOM     63  CB  ILE d   1      11.443  -9.383  -4.774  0.00  0.00    -0.030 C 
ATOM     64  H17 ILE d   1      11.064 -10.118  -4.048  0.00  0.00     0.043 H 
BRANCH  63  65
ATOM     65  CG1 ILE d   1      10.226  -8.619  -5.332  0.00  0.00    -0.063 C 
ATOM     66  H18 ILE d   1       9.755  -8.065  -4.507  0.00  0.00     0.033 H 
ATOM     67  H19 ILE d   1       9.512  -9.351  -5.737  0.00  0.00     0.033 H 
BRANCH  65  68
ATOM     68  CD1 ILE d   1      10.594  -7.592  -6.479  0.00  0.00    -0.076 C 
ATOM     69  H23 ILE d   1       9.680  -7.087  -6.826  0.00  0.00     0.027 H 
ATOM     70  H24 ILE d   1      11.057  -8.131  -7.319  0.00  0.00     0.027 H 
ATOM     71  H25 ILE d   1      11.300  -6.844  -6.089  0.00  0.00     0.027 H 
ENDBRANCH  65  68
ENDBRANCH  63  65
BRANCH  63  72
ATOM     72  CG2 ILE d   1      12.395  -8.437  -4.025  0.00  0.00    -0.071 C 
ATOM     73  H20 ILE d   1      13.252  -9.009  -3.639  0.00  0.00     0.028 H 
ATOM     74  H21 ILE d   1      11.860  -7.967  -3.186  0.00  0.00     0.028 H 
ATOM     75  H22 ILE d   1      12.755  -7.658  -4.713  0.00  0.00     0.028 H 
ENDBRANCH  63  72
ENDBRANCH   1  63
TORSDOF 23
