REMARK  9 active torsions:
REMARK  status: ('A' for Active; 'I' for Inactive)
REMARK    1  A    between atoms: CAA_6  and  CAL_7 
REMARK    2  A    between atoms: CAL_7  and  NAG_8 
REMARK    3  A    between atoms: CAH_12  and  CBD_13 
REMARK    4  A    between atoms: CBD_13  and  NAN_14 
REMARK    5  A    between atoms: CAP_18  and  OBE_19 
REMARK    6  A    between atoms: CAO_20  and  CAS_21 
REMARK       I    between atoms: CAS_21  and  NAT_23 
REMARK    7  A    between atoms: NAT_23  and  CAX_24 
REMARK    8  A    between atoms: CBA_29  and  CBB_30 
REMARK    9  A    between atoms: CBB_30  and  NBC_31 
ROOT
ATOM      1  NAN 0HM d   1      27.975   6.173  35.252  0.00  0.00    -0.364 N 
ATOM      2  CAM 0HM d   1      28.199   4.917  34.667  0.00  0.00    -0.023 A 
ATOM      3  CAQ 0HM d   1      28.163   3.769  35.445  0.00  0.00    -0.066 A 
ATOM      4  CAR 0HM d   1      27.902   3.870  36.812  0.00  0.00    -0.051 A 
ATOM      5  CAP 0HM d   1      27.681   5.108  37.401  0.00  0.00     0.075 A 
ATOM      6  CAO 0HM d   1      27.722   6.266  36.634  0.00  0.00     0.135 A 
ATOM      7  H12 0HM d   1      28.402   4.843  33.599  0.00  0.00     0.111 H 
ATOM      8  H13 0HM d   1      28.337   2.795  34.991  0.00  0.00     0.085 H 
ATOM      9  H14 0HM d   1      27.871   2.969  37.423  0.00  0.00     0.087 H 
ATOM     10  H16 0HM d   1      26.636   6.222  36.464  0.00  0.00     0.098 H 
ENDROOT
BRANCH   1  11
ATOM     11  CBD 0HM d   1      27.993   7.387  34.406  0.00  0.00     0.050 C 
ATOM     12  H10 0HM d   1      27.946   8.275  35.054  0.00  0.00     0.076 H 
ATOM     13  H11 0HM d   1      28.928   7.405  33.827  0.00  0.00     0.076 H 
BRANCH  11  14
ATOM     14  CAH 0HM d   1      26.804   7.415  33.434  0.00  0.00     0.123 A 
ATOM     15  NAG 0HM d   1      25.597   7.931  33.637  0.00  0.00    -0.338 N 
ATOM     16  CAK 0HM d   1      24.842   7.753  32.562  0.00  0.00    -0.002 A 
ATOM     17  CAJ 0HM d   1      25.595   7.117  31.668  0.00  0.00     0.019 A 
ATOM     18  H8  0HM d   1      23.807   8.066  32.435  0.00  0.00     0.113 H 
ATOM     19  NAI 0HM d   1      26.796   6.911  32.206  0.00  0.00    -0.244 NA
ATOM     20  H9  0HM d   1      25.283   6.817  30.669  0.00  0.00     0.117 H 
BRANCH  15  21
ATOM     21  CAL 0HM d   1      25.149   8.625  34.860  0.00  0.00     0.024 C 
ATOM     22  H6  0HM d   1      24.080   8.420  35.019  0.00  0.00     0.072 H 
ATOM     23  H7  0HM d   1      25.726   8.250  35.718  0.00  0.00     0.072 H 
BRANCH  21  24
ATOM     24  CAA 0HM d   1      25.357  10.135  34.738  0.00  0.00    -0.040 A 
ATOM     25  CAB 0HM d   1      25.530  10.903  35.885  0.00  0.00    -0.075 A 
ATOM     26  CAC 0HM d   1      25.690  12.283  35.785  0.00  0.00    -0.082 A 
ATOM     27  H1  0HM d   1      25.540  10.426  36.859  0.00  0.00     0.084 H 
ATOM     28  CAD 0HM d   1      25.677  12.896  34.536  0.00  0.00    -0.083 A 
ATOM     29  H2  0HM d   1      25.825  12.879  36.680  0.00  0.00     0.083 H 
ATOM     30  CAE 0HM d   1      25.506  12.128  33.387  0.00  0.00    -0.082 A 
ATOM     31  H3  0HM d   1      25.800  13.970  34.457  0.00  0.00     0.083 H 
ATOM     32  CAF 0HM d   1      25.348  10.751  33.487  0.00  0.00    -0.075 A 
ATOM     33  H4  0HM d   1      25.496  12.605  32.414  0.00  0.00     0.083 H 
ATOM     34  H5  0HM d   1      25.218  10.155  32.591  0.00  0.00     0.084 H 
ENDBRANCH  21  24
ENDBRANCH  15  21
ENDBRANCH  11  14
ENDBRANCH   1  11
BRANCH   6  35
ATOM     35  CAS 0HM d   1      27.593   7.637  37.301  0.00  0.00     0.251 C 
ATOM     36  OAU 0HM d   1      28.416   8.524  37.058  0.00  0.00    -0.270 OA
ATOM     37  NAT 0HM d   1      26.564   7.766  38.132  0.00  0.00    -0.325 N 
ATOM     38  H17 0HM d   1      25.995   6.960  38.295  0.00  0.00     0.169 HD
BRANCH  37  39
ATOM     39  CAX 0HM d   1      26.234   8.896  38.766  0.00  0.00     0.034 A 
ATOM     40  CAY 0HM d   1      24.953   9.007  39.290  0.00  0.00    -0.057 A 
ATOM     41  CAZ 0HM d   1      24.541  10.191  39.906  0.00  0.00    -0.073 A 
ATOM     42  H18 0HM d   1      24.268   8.169  39.221  0.00  0.00     0.086 H 
ATOM     43  CBA 0HM d   1      25.418  11.264  39.998  0.00  0.00    -0.033 A 
ATOM     44  H19 0HM d   1      23.539  10.272  40.311  0.00  0.00     0.084 H 
ATOM     45  CAV 0HM d   1      26.701  11.157  39.479  0.00  0.00    -0.073 A 
ATOM     46  CAW 0HM d   1      27.109   9.973  38.862  0.00  0.00    -0.057 A 
ATOM     47  H21 0HM d   1      27.387  11.993  39.553  0.00  0.00     0.084 H 
ATOM     48  H20 0HM d   1      28.111   9.893  38.456  0.00  0.00     0.086 H 
BRANCH  43  49
ATOM     49  CBB 0HM d   1      24.975  12.578  40.657  0.00  0.00     0.103 C 
ATOM     50  H22 0HM d   1      24.752  13.318  39.875  0.00  0.00     0.082 H 
ATOM     51  H23 0HM d   1      25.787  12.954  41.296  0.00  0.00     0.082 H 
BRANCH  49  52
ATOM     52  NBC 0HM d   1      23.775  12.363  41.476  0.00  0.00    -0.075 N 
ATOM     53  H24 0HM d   1      23.498  13.234  41.901  0.00  0.00     0.274 HD
ATOM     54  H25 0HM d   1      23.976  11.687  42.196  0.00  0.00     0.274 HD
ATOM     55  H26 0HM d   1      23.027  12.021  40.893  0.00  0.00     0.274 HD
ENDBRANCH  49  52
ENDBRANCH  43  49
ENDBRANCH  37  39
ENDBRANCH   6  35
BRANCH   5  56
ATOM     56  OBE 0HM d   1      27.406   5.173  38.735  0.00  0.00    -0.362 OA
ATOM     57  H15 0HM d   1      26.615   4.679  38.919  0.00  0.00     0.217 HD
ENDBRANCH   5  56
TORSDOF 9
