REMARK  10 active torsions:
REMARK  status: ('A' for Active; 'I' for Inactive)
REMARK    1  A    between atoms: C4_1  and  C5_2 
REMARK    2  A    between atoms: C3_12  and  C4_1 
REMARK    3  A    between atoms: O1_15  and  C6_3 
REMARK    4  A    between atoms: C11_4  and  N1_11 
REMARK    5  A    between atoms: C7_5  and  C8_6 
REMARK    6  A    between atoms: C10_8  and  O5_19 
REMARK    7  A    between atoms: C12_9  and  C13_10 
REMARK       I    between atoms: N1_11  and  C12_9 
REMARK    8  A    between atoms: C3_12  and  C2_14 
REMARK    9  A    between atoms: C3_12  and  O1_15 
REMARK   10  A    between atoms: C2_14  and  C1_13 
ROOT
ATOM      1  C6  0HX d   1     -24.074 -19.801 -11.914  0.00  0.00     0.159 C 
ATOM      2  C11 0HX d   1     -23.774 -18.331 -11.667  0.00  0.00     0.088 C 
ATOM      3  C7  0HX d   1     -22.277 -20.456 -10.556  0.00  0.00     0.147 C 
ATOM      4  C9  0HX d   1     -21.592 -19.280 -10.840  0.00  0.00    -0.035 C 
ATOM      5  C10 0HX d   1     -22.261 -18.120 -11.578  0.00  0.00     0.079 C 
ATOM      6  O2  0HX d   1     -23.594 -20.599 -10.852  0.00  0.00    -0.311 OA
ATOM      7  H6  0HX d   1     -23.630 -20.107 -12.873  0.00  0.00     0.133 H 
ATOM      8  H7  0HX d   1     -24.259 -18.001 -10.736  0.00  0.00     0.084 H 
ATOM      9  H8  0HX d   1     -20.553 -19.183 -10.529  0.00  0.00     0.085 H 
ATOM     10  H9  0HX d   1     -21.860 -18.082 -12.602  0.00  0.00     0.092 H 
ENDROOT
BRANCH   1  11
ATOM     11  O1  0HX d   1     -25.468 -20.068 -11.892  0.00  0.00    -0.353 OA
BRANCH  11  12
ATOM     12  C3  0HX d   1     -25.560 -21.439 -12.242  0.00  0.00     0.041 C 
ATOM     13  H14 0HX d   1     -24.607 -21.936 -12.009  0.00  0.00     0.083 H 
BRANCH  12  14
ATOM     14  C4  0HX d   1     -26.674 -22.099 -11.444  0.00  0.00    -0.044 C 
ATOM     15  H1  0HX d   1     -27.180 -21.335 -10.835  0.00  0.00     0.036 H 
ATOM     16  H2  0HX d   1     -27.396 -22.549 -12.141  0.00  0.00     0.036 H 
BRANCH  14  17
ATOM     17  C5  0HX d   1     -26.127 -23.189 -10.521  0.00  0.00    -0.074 C 
ATOM     18  H3  0HX d   1     -26.956 -23.645  -9.960  0.00  0.00     0.027 H 
ATOM     19  H4  0HX d   1     -25.408 -22.746  -9.816  0.00  0.00     0.027 H 
ATOM     20  H5  0HX d   1     -25.624 -23.960 -11.123  0.00  0.00     0.027 H 
ENDBRANCH  14  17
ENDBRANCH  12  14
BRANCH  12  21
ATOM     21  C2  0HX d   1     -25.843 -21.572 -13.740  0.00  0.00    -0.044 C 
ATOM     22  H18 0HX d   1     -24.962 -21.249 -14.313  0.00  0.00     0.036 H 
ATOM     23  H19 0HX d   1     -26.706 -20.946 -14.010  0.00  0.00     0.036 H 
BRANCH  21  24
ATOM     24  C1  0HX d   1     -26.152 -23.037 -14.055  0.00  0.00    -0.074 C 
ATOM     25  H15 0HX d   1     -26.357 -23.145 -15.130  0.00  0.00     0.027 H 
ATOM     26  H16 0HX d   1     -27.033 -23.358 -13.479  0.00  0.00     0.027 H 
ATOM     27  H17 0HX d   1     -25.288 -23.661 -13.782  0.00  0.00     0.027 H 
ENDBRANCH  21  24
ENDBRANCH  12  21
ENDBRANCH  11  12
ENDBRANCH   1  11
BRANCH   2  28
ATOM     28  N1  0HX d   1     -24.266 -17.544 -12.804  0.00  0.00    -0.349 N 
ATOM     29  C12 0HX d   1     -25.245 -16.642 -12.742  0.00  0.00     0.214 C 
ATOM     30  O6  0HX d   1     -25.876 -16.366 -11.729  0.00  0.00    -0.274 OA
ATOM     31  H13 0HX d   1     -23.834 -17.696 -13.693  0.00  0.00     0.163 HD
BRANCH  29  32
ATOM     32  C13 0HX d   1     -25.553 -15.950 -14.068  0.00  0.00    -0.003 C 
ATOM     33  H10 0HX d   1     -26.369 -15.227 -13.923  0.00  0.00     0.040 H 
ATOM     34  H11 0HX d   1     -25.857 -16.701 -14.812  0.00  0.00     0.040 H 
ATOM     35  H12 0HX d   1     -24.655 -15.424 -14.424  0.00  0.00     0.040 H 
ENDBRANCH  29  32
ENDBRANCH   2  28
BRANCH   5  36
ATOM     36  O5  0HX d   1     -21.946 -16.887 -10.926  0.00  0.00    -0.389 OA
ATOM     37  H20 0HX d   1     -22.261 -16.914 -10.030  0.00  0.00     0.210 HD
ENDBRANCH   5  36
BRANCH   3  38
ATOM     38  C8  0HX d   1     -21.581 -21.630  -9.862  0.00  0.00     0.233 C 
ATOM     39  O3  0HX d   1     -20.454 -21.468  -9.356  0.00  0.00    -0.642 OA
ATOM     40  O4  0HX d   1     -22.193 -22.715  -9.838  0.00  0.00    -0.642 OA
ENDBRANCH   3  38
TORSDOF 10
