REMARK  7 active torsions:
REMARK  status: ('A' for Active; 'I' for Inactive)
REMARK    1  A    between atoms: C1_1  and  C2_2 
REMARK    2  A    between atoms: C11_20  and  C1_1 
REMARK    3  A    between atoms: C3_3  and  O1_9 
REMARK    4  A    between atoms: C7_12  and  N1_4 
REMARK    5  A    between atoms: N5_18  and  C4_6 
REMARK    6  A    between atoms: C5_7  and  C11_20 
REMARK    7  A    between atoms: C11_20  and  C6_8 
ROOT
ATOM      1  C3  Z17 d   1     -13.286  27.290   5.988  0.00  0.00     0.111 A 
ATOM      2  N2  Z17 d   1     -15.588  26.557   3.014  0.00  0.00    -0.165 N 
ATOM      3  C5  Z17 d   1     -12.726  26.546   7.140  0.00  0.00     0.093 A 
ATOM      4  N3  Z17 d   1     -13.038  25.287   7.256  0.00  0.00    -0.173 NA
ATOM      5  C7  Z17 d   1     -15.856  25.152   3.249  0.00  0.00     0.702 A 
ATOM      6  O3  Z17 d   1     -14.519  28.593   3.609  0.00  0.00    -0.171 OA
ATOM      7  N4  Z17 d   1     -15.280  24.562   4.360  0.00  0.00    -0.044 NA
ATOM      8  C8  Z17 d   1     -14.465  25.280   5.204  0.00  0.00     0.182 A 
ATOM      9  C9  Z17 d   1     -14.175  26.614   5.004  0.00  0.00     0.102 A 
ATOM     10  N5  Z17 d   1     -13.857  24.673   6.360  0.00  0.00    -0.255 N 
ATOM     11  C10 Z17 d   1     -14.759  27.272   3.867  0.00  0.00     0.210 A 
ATOM     12  H5  Z17 d   1     -16.005  27.016   2.229  0.00  0.00     0.186 HD
ENDROOT
BRANCH   3  13
ATOM     13  C11 Z17 d   1     -11.814  27.240   8.127  0.00  0.00    -0.002 C 
ATOM     14  H13 Z17 d   1     -12.082  28.307   8.136  0.00  0.00     0.050 H 
BRANCH  13  15
ATOM     15  C1  Z17 d   1     -11.864  26.725   9.538  0.00  0.00     0.024 C 
ATOM     16  H1  Z17 d   1     -11.401  25.727   9.558  0.00  0.00     0.050 H 
ATOM     17  H2  Z17 d   1     -11.287  27.410  10.176  0.00  0.00     0.050 H 
BRANCH  15  18
ATOM     18  C2  Z17 d   1     -13.248  26.613  10.100  0.00  0.00     0.173 C 
ATOM     19  O2  Z17 d   1     -13.624  25.477  10.514  0.00  0.00    -0.648 OA
ATOM     20  O4  Z17 d   1     -14.019  27.622  10.127  0.00  0.00    -0.648 OA
ENDBRANCH  15  18
ENDBRANCH  13  15
BRANCH  13  21
ATOM     21  C6  Z17 d   1     -10.388  27.079   7.691  0.00  0.00    -0.067 C 
ATOM     22  H9  Z17 d   1     -10.278  27.439   6.658  0.00  0.00     0.028 H 
ATOM     23  H10 Z17 d   1     -10.107  26.017   7.741  0.00  0.00     0.028 H 
ATOM     24  H11 Z17 d   1      -9.733  27.663   8.355  0.00  0.00     0.028 H 
ENDBRANCH  13  21
ENDBRANCH   3  13
BRANCH   1  25
ATOM     25  O1  Z17 d   1     -12.996  28.613   5.832  0.00  0.00    -0.357 OA
ATOM     26  H12 Z17 d   1     -13.428  28.941   5.052  0.00  0.00     0.217 HD
ENDBRANCH   1  25
BRANCH  10  27
ATOM     27  C4  Z17 d   1     -14.145  23.288   6.582  0.00  0.00     0.004 C 
ATOM     28  H6  Z17 d   1     -14.813  22.921   5.789  0.00  0.00     0.059 H 
ATOM     29  H7  Z17 d   1     -14.635  23.167   7.559  0.00  0.00     0.059 H 
ATOM     30  H8  Z17 d   1     -13.208  22.712   6.568  0.00  0.00     0.059 H 
ENDBRANCH  10  27
BRANCH   5  31
ATOM     31  N1  Z17 d   1     -16.690  24.397   2.371  0.00  0.00    -0.233 N 
ATOM     32  H3  Z17 d   1     -17.113  24.848   1.547  0.00  0.00     0.174 HD
ATOM     33  H4  Z17 d   1     -16.869  23.401   2.561  0.00  0.00     0.174 HD
ENDBRANCH   5  31
TORSDOF 7
