REMARK  2 active torsions:
REMARK  status: ('A' for Active; 'I' for Inactive)
REMARK    1  A    between atoms: C8_2  and  C7_4 
REMARK    2  A    between atoms: C7_4  and  C5_5 
ROOT
ATOM      1  C5  0J5 d   1     -12.739  25.509   7.264  0.00  0.00     0.113 A 
ATOM      2  C6  0J5 d   1     -13.240  26.378   6.140  0.00  0.00     0.196 A 
ATOM      3  O2  0J5 d   1     -12.943  27.588   6.080  0.00  0.00    -0.290 OA
ATOM      4  C3  0J5 d   1     -14.117  25.720   5.098  0.00  0.00     0.147 A 
ATOM      5  C4  0J5 d   1     -14.719  26.400   3.896  0.00  0.00     0.255 A 
ATOM      6  O1  0J5 d   1     -14.528  27.608   3.667  0.00  0.00    -0.271 OA
ATOM      7  N4  0J5 d   1     -13.097  24.185   7.280  0.00  0.00    -0.149 NA
ATOM      8  N3  0J5 d   1     -13.926  23.568   6.295  0.00  0.00    -0.134 NA
ATOM      9  C2  0J5 d   1     -14.429  24.250   5.248  0.00  0.00     0.162 A 
ATOM     10  N2  0J5 d   1     -15.226  23.641   4.312  0.00  0.00    -0.176 N 
ATOM     11  C1  0J5 d   1     -15.742  24.321   3.244  0.00  0.00     0.679 A 
ATOM     12  N5  0J5 d   1     -16.520  23.648   2.364  0.00  0.00    -0.234 N 
ATOM     13  N1  0J5 d   1     -15.496  25.659   3.043  0.00  0.00    -0.159 N 
ATOM     14  H3  0J5 d   1     -15.002  25.994   5.691  0.00  0.00     0.079 H 
ATOM     15  H4  0J5 d   1     -15.443  22.640   4.417  0.00  0.00     0.185 HD
ATOM     16  H5  0J5 d   1     -16.921  24.138   1.551  0.00  0.00     0.174 HD
ATOM     17  H6  0J5 d   1     -16.711  22.646   2.507  0.00  0.00     0.174 HD
ATOM     18  H7  0J5 d   1     -15.899  26.108   2.245  0.00  0.00     0.187 HD
ENDROOT
BRANCH   1  19
ATOM     19  C7  0J5 d   1     -11.848  26.054   8.376  0.00  0.00     0.061 C 
ATOM     20  H1  0J5 d   1     -11.581  25.227   9.050  0.00  0.00     0.059 H 
ATOM     21  H2  0J5 d   1     -10.935  26.468   7.924  0.00  0.00     0.059 H 
BRANCH  19  22
ATOM     22  C8  0J5 d   1     -12.528  27.150   9.194  0.00  0.00     0.178 C 
ATOM     23  O4  0J5 d   1     -13.568  26.855   9.848  0.00  0.00    -0.648 OA
ATOM     24  O3  0J5 d   1     -12.043  28.313   9.179  0.00  0.00    -0.648 OA
ENDBRANCH  19  22
ENDBRANCH   1  19
TORSDOF 2
