REMARK  1 active torsions:
REMARK  status: ('A' for Active; 'I' for Inactive)
REMARK    1  A    between atoms: RU1_30  and  N23_18 
ROOT
ATOM      1  N23 0H2 d   1      10.490  35.622 -17.566  0.00  0.00    -0.231 NA
ATOM      2  C24 0H2 d   1       9.438  36.491 -17.703  0.00  0.00     0.268 C 
ATOM      3  S44 0H2 d   1       8.192  37.449 -17.824  0.00  0.00    -0.037 SA
ENDROOT
BRANCH   1   4
ATOM      4 RU1  0H2 d   1      11.594  33.793 -17.370  0.00  0.00     0.000 Ru
ATOM      5  C32 0H2 d   1      12.956  34.340 -15.634  0.00  0.00    -0.011 A 
ATOM      6  C30 0H2 d   1      12.694  34.132 -14.291  0.00  0.00    -0.056 A 
ATOM      7  C34 0H2 d   1      14.165  34.850 -16.134  0.00  0.00     0.005 A 
ATOM      8  C29 0H2 d   1      13.701  34.510 -13.430  0.00  0.00     0.035 A 
ATOM      9  H   0H2 d   1      11.757  33.700 -13.939  0.00  0.00     0.086 H 
ATOM     10  C26 0H2 d   1      14.901  35.032 -13.870  0.00  0.00     0.048 A 
ATOM     11  C27 0H2 d   1      13.789  34.472 -12.060  0.00  0.00     0.193 A 
ATOM     12  C45 0H2 d   1      15.616  35.254 -12.697  0.00  0.00     0.258 A 
ATOM     13  C25 0H2 d   1      15.168  35.219 -15.227  0.00  0.00    -0.054 A 
ATOM     14  O47 0H2 d   1      16.800  35.747 -12.702  0.00  0.00    -0.267 OA
ATOM     15  N46 0H2 d   1      14.959  34.921 -11.558  0.00  0.00    -0.300 N 
ATOM     16  H1  0H2 d   1      15.259  34.989 -10.607  0.00  0.00     0.171 HD
ATOM     17  H   0H2 d   1      16.116  35.635 -15.567  0.00  0.00     0.086 H 
ATOM     18  O28 0H2 d   1      12.657  33.957 -11.271  0.00  0.00    -0.171 OA
ATOM     19  C35 0H2 d   1      14.323  35.001 -17.632  0.00  0.00     0.067 A 
ATOM     20  N49 0H2 d   1      13.307  34.629 -18.448  0.00  0.00    -0.260 N 
ATOM     21  C37 0H2 d   1      15.498  35.518 -18.191  0.00  0.00    -0.054 A 
ATOM     22  C40 0H2 d   1      13.387  34.727 -19.791  0.00  0.00     0.003 A 
ATOM     23  C39 0H2 d   1      14.543  35.245 -20.386  0.00  0.00    -0.066 A 
ATOM     24  H   0H2 d   1      12.552  34.403 -20.412  0.00  0.00     0.114 H 
ATOM     25  C38 0H2 d   1      15.606  35.645 -19.580  0.00  0.00    -0.079 A 
ATOM     26  H   0H2 d   1      14.611  35.334 -21.470  0.00  0.00     0.085 H 
ATOM     27  H   0H2 d   1      16.513  36.053 -20.027  0.00  0.00     0.083 H 
ATOM     28  H   0H2 d   1      16.324  35.820 -17.547  0.00  0.00     0.087 H 
ATOM     29  S2  0H2 d   1      10.422  33.011 -19.248  0.00  0.00    -0.168 SA
ATOM     30  C7  0H2 d   1       9.192  32.146 -18.511  0.00  0.00    -0.015 C 
ATOM     31  C3  0H2 d   1      11.625  31.957 -19.734  0.00  0.00    -0.015 C 
ATOM     32  C8  0H2 d   1       8.639  32.836 -17.267  0.00  0.00    -0.015 C 
ATOM     33  H   0H2 d   1       9.602  31.184 -18.202  0.00  0.00     0.050 H 
ATOM     34  H   0H2 d   1       8.377  32.052 -19.228  0.00  0.00     0.050 H 
ATOM     35  S9  0H2 d   1       9.854  32.817 -15.989  0.00  0.00    -0.168 SA
ATOM     36  H   0H2 d   1       7.748  32.309 -16.927  0.00  0.00     0.050 H 
ATOM     37  H   0H2 d   1       8.384  33.868 -17.509  0.00  0.00     0.050 H 
ATOM     38  C10 0H2 d   1      10.416  31.135 -15.931  0.00  0.00    -0.015 C 
ATOM     39  C6  0H2 d   1      11.942  31.008 -15.899  0.00  0.00    -0.015 C 
ATOM     40  H   0H2 d   1      10.063  30.638 -16.834  0.00  0.00     0.050 H 
ATOM     41  H   0H2 d   1      10.029  30.689 -15.015  0.00  0.00     0.050 H 
ATOM     42  S5  0H2 d   1      12.777  31.685 -17.302  0.00  0.00    -0.168 SA
ATOM     43  H   0H2 d   1      12.169  29.942 -15.882  0.00  0.00     0.050 H 
ATOM     44  H   0H2 d   1      12.286  31.566 -15.028  0.00  0.00     0.050 H 
ATOM     45  C4  0H2 d   1      11.973  30.912 -18.672  0.00  0.00    -0.015 C 
ATOM     46  H   0H2 d   1      11.056  30.434 -18.326  0.00  0.00     0.050 H 
ATOM     47  H   0H2 d   1      12.641  30.169 -19.107  0.00  0.00     0.050 H 
ATOM     48  H   0H2 d   1      12.522  32.545 -19.927  0.00  0.00     0.050 H 
ATOM     49  H   0H2 d   1      11.264  31.426 -20.615  0.00  0.00     0.050 H 
ENDBRANCH   1   4
TORSDOF 1
