REMARK  7 active torsions:
REMARK  status: ('A' for Active; 'I' for Inactive)
REMARK    1  A    between atoms: C5_5  and  O6_6 
REMARK    2  A    between atoms: O6_6  and  C7_7 
REMARK    3  A    between atoms: C12_12  and  N13_13 
REMARK       I    between atoms: N13_13  and  C14_14 
REMARK    4  A    between atoms: C14_14  and  C16_16 
REMARK    5  A    between atoms: C23_23  and  N24_24 
REMARK       I    between atoms: N24_24  and  C25_25 
REMARK    6  A    between atoms: C25_25  and  C27_27 
REMARK    7  A    between atoms: C31_31  and  C34_34 
ROOT
ATOM      1  C34 0JA d   1      48.316 -32.731   1.543  0.00  0.00     0.078 A 
ATOM      2  C35 0JA d   1      48.920 -33.116   0.190  0.00  0.00    -0.040 A 
ATOM      3  C36 0JA d   1      47.565 -33.686   0.611  0.00  0.00    -0.040 A 
ATOM      4  C37 0JA d   1      47.754 -31.385   1.672  0.00  0.00     0.074 C 
ATOM      5  N38 0JA d   1      47.331 -30.336   1.771  0.00  0.00    -0.196 NA
ATOM      6  H   0JA d   1      49.869 -33.474  -0.209  0.00  0.00     0.036 H 
ATOM      7  H   0JA d   1      49.367 -32.625  -0.675  0.00  0.00     0.036 H 
ATOM      8  H   0JA d   1      46.564 -33.805   0.197  0.00  0.00     0.036 H 
ATOM      9  H   0JA d   1      47.066 -34.654   0.662  0.00  0.00     0.036 H 
ENDROOT
BRANCH   1  10
ATOM     10  C31 0JA d   1      48.918 -33.312   2.807  0.00  0.00    -0.013 A 
ATOM     11  C30 0JA d   1      50.294 -33.462   2.919  0.00  0.00    -0.073 A 
ATOM     12  C29 0JA d   1      50.847 -34.002   4.068  0.00  0.00    -0.081 A 
ATOM     13  H   0JA d   1      50.942 -33.153   2.099  0.00  0.00     0.084 H 
ATOM     14  C28 0JA d   1      50.031 -34.391   5.113  0.00  0.00    -0.066 A 
ATOM     15  H   0JA d   1      51.928 -34.120   4.148  0.00  0.00     0.083 H 
ATOM     16  C27 0JA d   1      48.643 -34.243   5.029  0.00  0.00     0.054 A 
ATOM     17  H   0JA d   1      50.474 -34.818   6.013  0.00  0.00     0.085 H 
ATOM     18  C32 0JA d   1      48.091 -33.700   3.856  0.00  0.00     0.057 A 
ATOM     19 CL3  0JA d   1      46.377 -33.498   3.681  0.00  0.00    -0.083 Cl
BRANCH  16  20
ATOM     20  C25 0JA d   1      47.805 -34.694   6.162  0.00  0.00     0.258 C 
ATOM     21  N24 0JA d   1      48.141 -34.385   7.435  0.00  0.00    -0.320 N 
ATOM     22  H   0JA d   1      48.981 -33.822   7.564  0.00  0.00     0.169 HD
ATOM     23  O26 0JA d   1      46.838 -35.389   5.923  0.00  0.00    -0.267 OA
BRANCH  21  24
ATOM     24  C23 0JA d   1      47.446 -34.764   8.599  0.00  0.00     0.076 A 
ATOM     25  C2  0JA d   1      47.641 -33.986   9.735  0.00  0.00     0.143 A 
ATOM     26  F1  0JA d   1      48.461 -32.914   9.666  0.00  0.00    -0.204 F 
ATOM     27  C3  0JA d   1      47.002 -34.289  10.926  0.00  0.00    -0.041 A 
ATOM     28  C4  0JA d   1      46.162 -35.384  11.009  0.00  0.00    -0.047 A 
ATOM     29  H   0JA d   1      47.162 -33.661  11.802  0.00  0.00     0.088 H 
ATOM     30  C5  0JA d   1      45.942 -36.167   9.882  0.00  0.00     0.080 A 
ATOM     31  H   0JA d   1      45.675 -35.632  11.952  0.00  0.00     0.087 H 
ATOM     32  C22 0JA d   1      46.599 -35.873   8.683  0.00  0.00    -0.021 A 
ATOM     33  H   0JA d   1      46.450 -36.510   7.811  0.00  0.00     0.091 H 
BRANCH  30  34
ATOM     34  O6  0JA d   1      45.131 -37.261   9.972  0.00  0.00    -0.292 OA
BRANCH  34  35
ATOM     35  C7  0JA d   1      43.777 -37.289  10.088  0.00  0.00     0.171 A 
ATOM     36  C8  0JA d   1      42.930 -36.196   9.878  0.00  0.00    -0.029 A 
ATOM     37  C9  0JA d   1      41.567 -36.362  10.014  0.00  0.00    -0.048 A 
ATOM     38  H   0JA d   1      43.342 -35.223   9.610  0.00  0.00     0.090 H 
ATOM     39  C10 0JA d   1      41.035 -37.637  10.354  0.00  0.00     0.095 A 
ATOM     40  H   0JA d   1      40.897 -35.516   9.861  0.00  0.00     0.087 H 
ATOM     41  N11 0JA d   1      39.750 -38.059  10.539  0.00  0.00    -0.222 NA
ATOM     42  C20 0JA d   1      41.970 -38.653  10.536  0.00  0.00     0.132 A 
ATOM     43  C12 0JA d   1      39.536 -39.299  10.862  0.00  0.00     0.176 A 
ATOM     44  S19 0JA d   1      41.094 -40.103  10.943  0.00  0.00    -0.030 SA
ATOM     45  N21 0JA d   1      43.273 -38.458  10.405  0.00  0.00    -0.215 NA
BRANCH  43  46
ATOM     46  N13 0JA d   1      38.298 -39.946  11.044  0.00  0.00    -0.305 N 
ATOM     47  C14 0JA d   1      38.185 -41.276  11.369  0.00  0.00     0.227 C 
ATOM     48  O15 0JA d   1      39.163 -41.949  11.573  0.00  0.00    -0.273 OA
ATOM     49  H   0JA d   1      37.444 -39.400  10.929  0.00  0.00     0.171 HD
BRANCH  47  50
ATOM     50  C16 0JA d   1      36.893 -42.047  11.520  0.00  0.00     0.024 A 
ATOM     51  C17 0JA d   1      36.134 -42.018  12.845  0.00  0.00    -0.053 A 
ATOM     52  C18 0JA d   1      35.564 -41.307  11.615  0.00  0.00    -0.053 A 
ATOM     53  H   0JA d   1      36.329 -41.807  13.896  0.00  0.00     0.034 H 
ATOM     54  H   0JA d   1      35.803 -42.715  13.615  0.00  0.00     0.034 H 
ATOM     55  H   0JA d   1      34.622 -41.245  11.070  0.00  0.00     0.034 H 
ATOM     56  H   0JA d   1      35.150 -40.334  11.352  0.00  0.00     0.034 H 
ATOM     57  H   0JA d   1      37.291 -42.832  10.877  0.00  0.00     0.054 H 
ENDBRANCH  47  50
ENDBRANCH  43  46
ENDBRANCH  34  35
ENDBRANCH  30  34
ENDBRANCH  21  24
ENDBRANCH  16  20
ENDBRANCH   1  10
TORSDOF 7
