REMARK  14 active torsions:
REMARK  status: ('A' for Active; 'I' for Inactive)
REMARK    1  A    between atoms: C7_1  and  O8_2 
REMARK    2  A    between atoms: C7_1  and  C1_5 
REMARK    3  A    between atoms: O8_2  and  C9_3 
REMARK       I    between atoms: C9_3  and  N11_11 
REMARK    4  A    between atoms: N11_11  and  C12_12 
REMARK    5  A    between atoms: C12_12  and  C17_13 
REMARK    6  A    between atoms: C12_12  and  C13_15 
REMARK       I    between atoms: C17_13  and  N19_19 
REMARK    7  A    between atoms: C13_15  and  C14_16 
REMARK    8  A    between atoms: C14_16  and  C15_17 
REMARK    9  A    between atoms: C14_16  and  C16_18 
REMARK   10  A    between atoms: N19_19  and  C20_20 
REMARK   11  A    between atoms: C20_20  and  C21_21 
REMARK   12  A    between atoms: C20_20  and  C24_23 
REMARK   13  A    between atoms: C21_21  and  O22_22 
REMARK   14  A    between atoms: C24_23  and  C25_24 
ROOT
ATOM      1  C12 K36 d   1      11.558   9.831  29.204  0.00  0.00     0.092 C 
ATOM      2  H9  K36 d   1      10.861  10.399  28.571  0.00  0.00     0.087 H 
ENDROOT
BRANCH   1   3
ATOM      3  N11 K36 d   1      10.960  10.103  30.508  0.00  0.00    -0.324 N 
ATOM      4  C9  K36 d   1       9.744   9.631  30.903  0.00  0.00     0.361 C 
ATOM      5  O10 K36 d   1       8.882   9.260  30.112  0.00  0.00    -0.238 OA
ATOM      6  H8  K36 d   1      11.474  10.671  31.151  0.00  0.00     0.165 HD
BRANCH   4   7
ATOM      7  O8  K36 d   1       9.516   9.611  32.329  0.00  0.00    -0.299 OA
BRANCH   7   8
ATOM      8  C7  K36 d   1       8.358   8.930  32.833  0.00  0.00     0.054 C 
ATOM      9  H1  K36 d   1       8.650   8.271  33.664  0.00  0.00     0.082 H 
ATOM     10  H2  K36 d   1       7.904   8.330  32.031  0.00  0.00     0.082 H 
BRANCH   8  11
ATOM     11  C1  K36 d   1       7.363   9.955  33.324  0.00  0.00    -0.034 A 
ATOM     12  C2  K36 d   1       6.739  10.768  32.397  0.00  0.00    -0.075 A 
ATOM     13  C3  K36 d   1       5.807  11.710  32.818  0.00  0.00    -0.082 A 
ATOM     14  H3  K36 d   1       6.976  10.671  31.344  0.00  0.00     0.084 H 
ATOM     15  C4  K36 d   1       5.533  11.848  34.174  0.00  0.00    -0.083 A 
ATOM     16  H4  K36 d   1       5.297  12.334  32.093  0.00  0.00     0.083 H 
ATOM     17  C5  K36 d   1       6.171  11.045  35.107  0.00  0.00    -0.082 A 
ATOM     18  H5  K36 d   1       4.815  12.589  34.505  0.00  0.00     0.083 H 
ATOM     19  C6  K36 d   1       7.090  10.089  34.682  0.00  0.00    -0.075 A 
ATOM     20  H6  K36 d   1       5.955  11.161  36.163  0.00  0.00     0.083 H 
ATOM     21  H7  K36 d   1       7.590   9.453  35.404  0.00  0.00     0.084 H 
ENDBRANCH   8  11
ENDBRANCH   7   8
ENDBRANCH   4   7
ENDBRANCH   1   3
BRANCH   1  22
ATOM     22  C17 K36 d   1      11.412   8.474  28.574  0.00  0.00     0.240 C 
ATOM     23  O18 K36 d   1      11.751   7.495  29.232  0.00  0.00    -0.271 OA
ATOM     24  N19 K36 d   1      10.990   8.364  27.277  0.00  0.00    -0.353 N 
ATOM     25  H19 K36 d   1      10.790   9.191  26.752  0.00  0.00     0.163 HD
BRANCH  24  26
ATOM     26  C20 K36 d   1      10.825   7.039  26.640  0.00  0.00     0.033 C 
ATOM     27  H20 K36 d   1      11.292   6.276  27.280  0.00  0.00     0.075 H 
BRANCH  26  28
ATOM     28  C21 K36 d   1      11.455   6.985  25.252  0.00  0.00     0.035 C 
ATOM     29  H21 K36 d   1      11.029   7.784  24.627  0.00  0.00     0.077 H 
ATOM     30  H22 K36 d   1      11.242   6.008  24.794  0.00  0.00     0.077 H 
BRANCH  28  31
ATOM     31  O22 K36 d   1      12.868   7.164  25.348  0.00  0.00    -0.399 OA
ATOM     32  H23 K36 d   1      13.238   6.474  25.886  0.00  0.00     0.209 HD
ENDBRANCH  28  31
ENDBRANCH  26  28
BRANCH  26  33
ATOM     33  C24 K36 d   1       9.338   6.740  26.479  0.00  0.00    -0.033 C 
ATOM     34  H24 K36 d   1       9.223   5.789  25.938  0.00  0.00     0.037 H 
ATOM     35  H25 K36 d   1       8.873   7.551  25.899  0.00  0.00     0.037 H 
BRANCH  33  36
ATOM     36  C25 K36 d   1       8.637   6.630  27.809  0.00  0.00     0.027 C 
ATOM     37  C26 K36 d   1       9.152   5.527  28.722  0.00  0.00    -0.039 C 
ATOM     38  C27 K36 d   1       7.913   5.026  29.452  0.00  0.00    -0.004 C 
ATOM     39  H27 K36 d   1       9.889   5.925  29.435  0.00  0.00     0.036 H 
ATOM     40  H28 K36 d   1       9.610   4.718  28.134  0.00  0.00     0.036 H 
ATOM     41  N28 K36 d   1       6.792   5.327  28.558  0.00  0.00    -0.361 N 
ATOM     42  H29 K36 d   1       7.792   5.550  30.412  0.00  0.00     0.064 H 
ATOM     43  H30 K36 d   1       7.983   3.943  29.632  0.00  0.00     0.064 H 
ATOM     44  C29 K36 d   1       7.224   6.217  27.628  0.00  0.00     0.221 C 
ATOM     45  H31 K36 d   1       5.870   4.944  28.622  0.00  0.00     0.162 HD
ATOM     46  O30 K36 d   1       6.486   6.588  26.723  0.00  0.00    -0.273 OA
ATOM     47  H26 K36 d   1       8.703   7.604  28.316  0.00  0.00     0.054 H 
ENDBRANCH  33  36
ENDBRANCH  26  33
ENDBRANCH  24  26
ENDBRANCH   1  22
BRANCH   1  48
ATOM     48  C13 K36 d   1      12.866  10.558  28.882  0.00  0.00    -0.035 C 
ATOM     49  H10 K36 d   1      12.988  10.588  27.789  0.00  0.00     0.037 H 
ATOM     50  H11 K36 d   1      13.697   9.992  29.328  0.00  0.00     0.037 H 
BRANCH  48  51
ATOM     51  C14 K36 d   1      12.915  11.988  29.413  0.00  0.00    -0.059 C 
ATOM     52  H12 K36 d   1      12.399  12.014  30.384  0.00  0.00     0.038 H 
BRANCH  51  53
ATOM     53  C15 K36 d   1      14.359  12.421  29.624  0.00  0.00    -0.073 C 
ATOM     54  H13 K36 d   1      14.380  13.452  30.006  0.00  0.00     0.028 H 
ATOM     55  H14 K36 d   1      14.900  12.373  28.667  0.00  0.00     0.028 H 
ATOM     56  H15 K36 d   1      14.841  11.750  30.351  0.00  0.00     0.028 H 
ENDBRANCH  51  53
BRANCH  51  57
ATOM     57  C16 K36 d   1      12.204  12.939  28.473  0.00  0.00    -0.073 C 
ATOM     58  H16 K36 d   1      11.164  12.608  28.334  0.00  0.00     0.028 H 
ATOM     59  H17 K36 d   1      12.719  12.947  27.501  0.00  0.00     0.028 H 
ATOM     60  H18 K36 d   1      12.213  13.952  28.901  0.00  0.00     0.028 H 
ENDBRANCH  51  57
ENDBRANCH  48  51
ENDBRANCH   1  48
TORSDOF 14
