REMARK  13 active torsions:
REMARK  status: ('A' for Active; 'I' for Inactive)
REMARK    1  A    between atoms: C24_1  and  O2_2 
REMARK    2  A    between atoms: O2_2  and  C5_3 
REMARK    3  A    between atoms: C4_5  and  O3_6 
REMARK    4  A    between atoms: O3_6  and  C25_7 
REMARK    5  A    between atoms: C3_8  and  O4_9 
REMARK    6  A    between atoms: O4_9  and  C26_10 
REMARK    7  A    between atoms: C1_12  and  N5_13 
REMARK    8  A    between atoms: N5_13  and  C16_14 
REMARK    9  A    between atoms: C13_19  and  N3_20 
REMARK   10  A    between atoms: C20_25  and  C22_26 
REMARK       I    between atoms: C22_26  and  N4_28 
REMARK   11  A    between atoms: N4_28  and  C23_29 
REMARK   12  A    between atoms: C23_29  and  C7_30 
REMARK   13  A    between atoms: C10_33  and  C27_34 
ROOT
ATOM      1  N3  0JF d   1       6.555  18.874  42.153  0.00  0.00    -0.364 N 
ATOM      2  C19 0JF d   1       5.899  18.689  43.456  0.00  0.00     0.008 C 
ATOM      3  C18 0JF d   1       5.829  19.684  41.144  0.00  0.00    -0.004 C 
ATOM      4  C17 0JF d   1       4.505  18.945  40.847  0.00  0.00    -0.049 C 
ATOM      5  C21 0JF d   1       3.767  18.509  42.133  0.00  0.00    -0.051 C 
ATOM      6  C20 0JF d   1       4.680  17.811  43.163  0.00  0.00     0.039 C 
ATOM      7  H   0JF d   1       5.614  19.641  43.904  0.00  0.00     0.065 H 
ATOM      8  H   0JF d   1       6.566  18.225  44.183  0.00  0.00     0.065 H 
ATOM      9  H   0JF d   1       6.423  19.796  40.237  0.00  0.00     0.064 H 
ATOM     10  H   0JF d   1       5.636  20.689  41.520  0.00  0.00     0.064 H 
ATOM     11  H   0JF d   1       4.742  18.048  40.276  0.00  0.00     0.035 H 
ATOM     12  H   0JF d   1       3.854  19.628  40.302  0.00  0.00     0.035 H 
ATOM     13  H   0JF d   1       2.997  17.794  41.842  0.00  0.00     0.034 H 
ATOM     14  H   0JF d   1       3.372  19.409  42.604  0.00  0.00     0.034 H 
ATOM     15  H   0JF d   1       4.981  16.855  42.735  0.00  0.00     0.057 H 
ENDROOT
BRANCH   1  16
ATOM     16  C13 0JF d   1       7.761  18.235  41.874  0.00  0.00     0.146 A 
ATOM     17  N2  0JF d   1       8.364  18.455  40.698  0.00  0.00    -0.045 NA
ATOM     18  C16 0JF d   1       9.518  17.852  40.388  0.00  0.00     0.728 A 
ATOM     19  N1  0JF d   1      10.082  16.997  41.268  0.00  0.00    -0.075 NA
ATOM     20  C15 0JF d   1       9.519  16.726  42.439  0.00  0.00     0.025 A 
ATOM     21  C14 0JF d   1       8.326  17.346  42.786  0.00  0.00    -0.021 A 
ATOM     22  H   0JF d   1       9.990  16.021  43.124  0.00  0.00     0.115 H 
ATOM     23  H   0JF d   1       7.846  17.143  43.743  0.00  0.00     0.091 H 
BRANCH  18  24
ATOM     24  N5  0JF d   1      10.126  18.074  39.217  0.00  0.00    -0.188 N 
ATOM     25  H   0JF d   1      10.996  17.564  39.065  0.00  0.00     0.184 HD
BRANCH  24  26
ATOM     26  C1  0JF d   1       9.737  18.885  38.211  0.00  0.00     0.054 A 
ATOM     27  C6  0JF d   1       8.403  19.141  37.867  0.00  0.00    -0.022 A 
ATOM     28  C5  0JF d   1       8.091  19.997  36.793  0.00  0.00     0.106 A 
ATOM     29  H   0JF d   1       7.599  18.673  38.436  0.00  0.00     0.091 H 
ATOM     30  C4  0JF d   1       9.129  20.587  36.058  0.00  0.00     0.135 A 
ATOM     31  C3  0JF d   1      10.460  20.315  36.388  0.00  0.00     0.106 A 
ATOM     32  C2  0JF d   1      10.750  19.477  37.463  0.00  0.00    -0.022 A 
ATOM     33  H   0JF d   1      11.790  19.282  37.723  0.00  0.00     0.091 H 
BRANCH  28  34
ATOM     34  O2  0JF d   1       6.792  20.278  36.424  0.00  0.00    -0.353 OA
BRANCH  34  35
ATOM     35  C24 0JF d   1       5.778  20.063  37.419  0.00  0.00     0.010 C 
ATOM     36  H   0JF d   1       5.781  19.015  37.719  0.00  0.00     0.066 H 
ATOM     37  H   0JF d   1       5.983  20.691  38.286  0.00  0.00     0.066 H 
ATOM     38  H   0JF d   1       4.803  20.320  37.004  0.00  0.00     0.066 H 
ENDBRANCH  34  35
ENDBRANCH  28  34
BRANCH  30  39
ATOM     39  O3  0JF d   1       8.837  21.413  35.005  0.00  0.00    -0.351 OA
BRANCH  39  40
ATOM     40  C25 0JF d   1       8.952  22.819  35.316  0.00  0.00     0.011 C 
ATOM     41  H   0JF d   1       8.264  23.069  36.124  0.00  0.00     0.067 H 
ATOM     42  H   0JF d   1       9.973  23.039  35.626  0.00  0.00     0.067 H 
ATOM     43  H   0JF d   1       8.705  23.407  34.432  0.00  0.00     0.067 H 
ENDBRANCH  39  40
ENDBRANCH  30  39
BRANCH  31  44
ATOM     44  O4  0JF d   1      11.479  20.884  35.678  0.00  0.00    -0.353 OA
BRANCH  44  45
ATOM     45  C26 0JF d   1      12.286  19.924  35.005  0.00  0.00     0.010 C 
ATOM     46  H   0JF d   1      12.727  19.246  35.736  0.00  0.00     0.066 H 
ATOM     47  H   0JF d   1      11.669  19.358  34.307  0.00  0.00     0.066 H 
ATOM     48  H   0JF d   1      13.078  20.436  34.459  0.00  0.00     0.066 H 
ENDBRANCH  44  45
ENDBRANCH  31  44
ENDBRANCH  24  26
ENDBRANCH  18  24
ENDBRANCH   1  16
BRANCH   6  49
ATOM     49  C22 0JF d   1       3.955  17.569  44.473  0.00  0.00     0.223 C 
ATOM     50  O1  0JF d   1       3.533  18.518  45.135  0.00  0.00    -0.273 OA
ATOM     51  N4  0JF d   1       3.851  16.284  44.822  0.00  0.00    -0.356 N 
ATOM     52  H   0JF d   1       4.239  15.572  44.204  0.00  0.00     0.162 HD
BRANCH  51  53
ATOM     53  C23 0JF d   1       3.194  15.862  46.070  0.00  0.00     0.019 C 
ATOM     54  H   0JF d   1       2.230  16.360  46.173  0.00  0.00     0.071 H 
ATOM     55  H   0JF d   1       3.810  16.132  46.928  0.00  0.00     0.071 H 
BRANCH  53  56
ATOM     56  C7  0JF d   1       3.001  14.355  46.019  0.00  0.00    -0.041 A 
ATOM     57  C8  0JF d   1       1.709  13.835  45.945  0.00  0.00    -0.075 A 
ATOM     58  C9  0JF d   1       1.525  12.452  45.888  0.00  0.00    -0.077 A 
ATOM     59  H   0JF d   1       0.848  14.504  45.932  0.00  0.00     0.084 H 
ATOM     60  C10 0JF d   1       2.629  11.606  45.906  0.00  0.00    -0.062 A 
ATOM     61  H   0JF d   1       0.519  12.037  45.830  0.00  0.00     0.084 H 
ATOM     62  C11 0JF d   1       3.914  12.135  45.983  0.00  0.00    -0.077 A 
ATOM     63  C12 0JF d   1       4.106  13.513  46.040  0.00  0.00    -0.075 A 
ATOM     64  H   0JF d   1       4.775  11.467  45.999  0.00  0.00     0.084 H 
ATOM     65  H   0JF d   1       5.113  13.927  46.100  0.00  0.00     0.084 H 
BRANCH  60  66
ATOM     66  C27 0JF d   1       2.425  10.093  45.845  0.00  0.00    -0.051 C 
ATOM     67  H   0JF d   1       1.830   9.773  46.700  0.00  0.00     0.033 H 
ATOM     68  H   0JF d   1       1.906   9.835  44.922  0.00  0.00     0.033 H 
ATOM     69  H   0JF d   1       3.395   9.596  45.869  0.00  0.00     0.033 H 
ENDBRANCH  60  66
ENDBRANCH  53  56
ENDBRANCH  51  53
ENDBRANCH   6  49
TORSDOF 13
