REMARK  11 active torsions:
REMARK  status: ('A' for Active; 'I' for Inactive)
REMARK    1  A    between atoms: PG_1  and  C3B_5 
REMARK    2  A    between atoms: C3B_5  and  PB_6 
REMARK    3  A    between atoms: PB_6  and  O3A_9 
REMARK    4  A    between atoms: O3A_9  and  PA_10 
REMARK    5  A    between atoms: PA_10  and  O5'_13 
REMARK    6  A    between atoms: O5'_13  and  C5'_14 
REMARK    7  A    between atoms: C5'_14  and  C4'_15 
REMARK    8  A    between atoms: C3'_17  and  O3'_18 
REMARK    9  A    between atoms: C2'_19  and  O2'_20 
REMARK   10  A    between atoms: C1'_21  and  N9_22 
REMARK   11  A    between atoms: C2_29  and  N2_30 
ROOT
ATOM      1  C4' GCP d   1     -19.334 -11.369 -36.986  0.00  0.00     0.089 C 
ATOM      2  O4' GCP d   1     -18.890 -12.473 -37.790  0.00  0.00    -0.353 OA
ATOM      3  C3' GCP d   1     -20.529 -11.884 -36.219  0.00  0.00     0.091 C 
ATOM      4  C2' GCP d   1     -20.365 -13.393 -36.255  0.00  0.00     0.105 C 
ATOM      5  C1' GCP d   1     -19.707 -13.633 -37.601  0.00  0.00     0.139 C 
ATOM      6  H   GCP d   1     -19.619 -10.501 -37.581  0.00  0.00     0.090 H 
ATOM      7  H   GCP d   1     -20.621 -11.505 -35.201  0.00  0.00     0.091 H 
ATOM      8  H   GCP d   1     -19.787 -13.774 -35.413  0.00  0.00     0.093 H 
ATOM      9  H   GCP d   1     -20.444 -13.792 -38.388  0.00  0.00     0.122 H 
ENDROOT
BRANCH   1  10
ATOM     10  C5' GCP d   1     -18.208 -10.874 -36.088  0.00  0.00     0.058 C 
ATOM     11  H   GCP d   1     -17.310 -10.721 -36.686  0.00  0.00     0.079 H 
ATOM     12  H   GCP d   1     -18.505  -9.934 -35.622  0.00  0.00     0.079 H 
BRANCH  10  13
ATOM     13  O5' GCP d   1     -17.940 -11.843 -35.070  0.00  0.00    -0.287 OA
BRANCH  13  14
ATOM     14  PA  GCP d   1     -17.093 -11.415 -33.777  0.00  0.00     0.416 P 
ATOM     15  O1A GCP d   1     -16.703 -12.625 -32.965  0.00  0.00    -0.624 OA
ATOM     16  O2A GCP d   1     -17.773 -10.248 -33.114  0.00  0.00    -0.624 OA
BRANCH  14  17
ATOM     17  O3A GCP d   1     -15.775 -10.819 -34.491  0.00  0.00    -0.203 OA
BRANCH  17  18
ATOM     18  PB  GCP d   1     -14.754  -9.946 -33.617  0.00  0.00     0.272 P 
ATOM     19  O1B GCP d   1     -13.547  -9.698 -34.478  0.00  0.00    -0.646 OA
ATOM     20  O2B GCP d   1     -14.595 -10.712 -32.313  0.00  0.00    -0.646 OA
BRANCH  18  21
ATOM     21  C3B GCP d   1     -15.587  -8.357 -33.309  0.00  0.00     0.134 C 
ATOM     22  H   GCP d   1     -16.103  -8.079 -34.228  0.00  0.00     0.073 H 
ATOM     23  H   GCP d   1     -16.249  -8.499 -32.455  0.00  0.00     0.073 H 
BRANCH  21  24
ATOM     24  PG  GCP d   1     -14.452  -6.993 -32.892  0.00  0.00     0.271 P 
ATOM     25  O1G GCP d   1     -13.744  -6.647 -34.192  0.00  0.00    -0.639 OA
ATOM     26  O2G GCP d   1     -13.541  -7.558 -31.815  0.00  0.00    -0.639 OA
ATOM     27  O3G GCP d   1     -15.348  -5.894 -32.353  0.00  0.00    -0.639 OA
ENDBRANCH  21  24
ENDBRANCH  18  21
ENDBRANCH  17  18
ENDBRANCH  14  17
ENDBRANCH  13  14
ENDBRANCH  10  13
ENDBRANCH   1  10
BRANCH   3  28
ATOM     28  O3' GCP d   1     -21.678 -11.521 -36.993  0.00  0.00    -0.390 OA
ATOM     29  H   GCP d   1     -22.472 -11.826 -36.548  0.00  0.00     0.210 HD
ENDBRANCH   3  28
BRANCH   5  30
ATOM     30  N9  GCP d   1     -18.849 -14.834 -37.584  0.00  0.00    -0.295 N 
ATOM     31  C8  GCP d   1     -17.901 -15.098 -36.660  0.00  0.00     0.071 A 
ATOM     32  N7  GCP d   1     -17.273 -16.272 -36.919  0.00  0.00    -0.234 NA
ATOM     33  H   GCP d   1     -17.670 -14.451 -35.814  0.00  0.00     0.144 H 
ATOM     34  C5  GCP d   1     -17.820 -16.782 -38.040  0.00  0.00     0.171 A 
ATOM     35  C6  GCP d   1     -17.623 -17.997 -38.877  0.00  0.00     0.292 A 
ATOM     36  C4  GCP d   1     -18.854 -15.826 -38.481  0.00  0.00     0.161 A 
ATOM     37  O6  GCP d   1     -16.775 -18.865 -38.593  0.00  0.00    -0.265 OA
ATOM     38  N1  GCP d   1     -18.381 -18.160 -39.963  0.00  0.00    -0.154 N 
ATOM     39  C2  GCP d   1     -19.313 -17.260 -40.323  0.00  0.00     0.680 A 
ATOM     40  H   GCP d   1     -18.250 -18.992 -40.538  0.00  0.00     0.187 HD
ATOM     41  N3  GCP d   1     -19.552 -16.121 -39.605  0.00  0.00    -0.174 N 
ATOM     42  H   GCP d   1     -20.275 -15.476 -39.924  0.00  0.00     0.186 HD
BRANCH  39  43
ATOM     43  N2  GCP d   1     -20.020 -17.527 -41.450  0.00  0.00    -0.234 N 
ATOM     44  H   GCP d   1     -19.832 -18.378 -41.980  0.00  0.00     0.174 HD
ATOM     45  H   GCP d   1     -20.739 -16.877 -41.767  0.00  0.00     0.174 HD
ENDBRANCH  39  43
ENDBRANCH   5  30
BRANCH   4  46
ATOM     46  O2' GCP d   1     -21.620 -14.062 -36.176  0.00  0.00    -0.388 OA
ATOM     47  H   GCP d   1     -22.169 -13.800 -36.919  0.00  0.00     0.210 HD
ENDBRANCH   4  46
TORSDOF 11
