REMARK  0 active torsions:
REMARK  status: ('A' for Active; 'I' for Inactive)
ROOT
ATOM      1  CAK L2D d   1      -1.384  -6.684 -31.344  0.00  0.00    -0.057 A 
ATOM      2  CAG L2D d   1      -0.572  -7.726 -31.752  0.00  0.00    -0.080 A 
ATOM      3  CAE L2D d   1      -0.174  -7.816 -33.079  0.00  0.00    -0.066 A 
ATOM      4  CAI L2D d   1      -0.599  -6.857 -33.981  0.00  0.00     0.003 A 
ATOM      5  NAU L2D d   1      -1.379  -5.880 -33.565  0.00  0.00    -0.264 N 
ATOM      6  CAY L2D d   1      -1.797  -5.764 -32.293  0.00  0.00     0.062 A 
ATOM      7  CAS L2D d   1      -2.687  -4.571 -31.935  0.00  0.00     0.153 C 
ATOM      8  N   L2D d   1      -2.933  -4.031 -33.248  0.00  0.00     0.110 N 
ATOM      9  CA  L2D d   1      -3.952  -4.931 -33.878  0.00  0.00     0.195 C 
ATOM     10  C   L2D d   1      -3.960  -4.929 -35.439  0.00  0.00     0.317 C 
ATOM     11  OXT L2D d   1      -2.916  -4.569 -36.050  0.00  0.00    -0.148 OA
ATOM     12  O   L2D d   1      -4.970  -5.420 -36.002  0.00  0.00    -0.261 OA
ATOM     13  CBA L2D d   1      -3.274  -2.607 -33.064  0.00  0.00     0.165 C 
ATOM     14  CAO L2D d   1      -4.716  -2.464 -32.551  0.00  0.00    -0.034 C 
ATOM     15  CAM L2D d   1      -5.015  -0.980 -32.388  0.00  0.00    -0.063 C 
ATOM     16  CAN L2D d   1      -4.861  -0.258 -33.741  0.00  0.00    -0.063 C 
ATOM     17  CAP L2D d   1      -3.423  -0.458 -34.237  0.00  0.00    -0.034 C 
ATOM     18  CBB L2D d   1      -3.164  -1.957 -34.399  0.00  0.00     0.165 C 
ATOM     19  NBD L2D d   1      -1.765  -2.145 -34.867  0.00  0.00     0.110 N 
ATOM     20  CAR L2D d   1      -0.877  -1.342 -33.995  0.00  0.00     0.195 C 
ATOM     21  CAX L2D d   1       0.249  -2.191 -33.372  0.00  0.00     0.317 C 
ATOM     22  OAD L2D d   1       0.141  -3.440 -33.381  0.00  0.00    -0.148 OA
ATOM     23  OAB L2D d   1       1.195  -1.567 -32.854  0.00  0.00    -0.261 OA
ATOM     24  CAT L2D d   1      -1.593  -1.675 -36.253  0.00  0.00     0.153 C 
ATOM     25  CAZ L2D d   1      -0.301  -2.319 -36.745  0.00  0.00     0.062 A 
ATOM     26  CAL L2D d   1       0.575  -1.658 -37.596  0.00  0.00    -0.057 A 
ATOM     27  CAH L2D d   1       1.730  -2.314 -38.002  0.00  0.00    -0.080 A 
ATOM     28  CAF L2D d   1       1.961  -3.615 -37.562  0.00  0.00    -0.066 A 
ATOM     29  CAJ L2D d   1       1.039  -4.228 -36.725  0.00  0.00     0.003 A 
ATOM     30  NAV L2D d   1      -0.044  -3.569 -36.349  0.00  0.00    -0.264 N 
ATOM     31 FE   L2D d   1      -1.360  -4.134 -34.676  0.00  0.00     0.000 Fe
ATOM     32  H   L2D d   1      -1.691  -6.589 -30.302  0.00  0.00     0.086 H 
ATOM     33  H   L2D d   1      -0.245  -8.476 -31.032  0.00  0.00     0.083 H 
ATOM     34  H   L2D d   1       0.467  -8.634 -33.407  0.00  0.00     0.085 H 
ATOM     35  H   L2D d   1      -0.292  -6.909 -35.026  0.00  0.00     0.114 H 
ATOM     36  H   L2D d   1      -2.232  -3.866 -31.239  0.00  0.00     0.089 H 
ATOM     37  H   L2D d   1      -3.589  -4.835 -31.383  0.00  0.00     0.089 H 
ATOM     38  H   L2D d   1      -4.930  -4.571 -33.558  0.00  0.00     0.096 H 
ATOM     39  H   L2D d   1      -3.710  -5.947 -33.566  0.00  0.00     0.096 H 
ATOM     40  H   L2D d   1      -2.605  -2.147 -32.337  0.00  0.00     0.092 H 
ATOM     41  H   L2D d   1      -4.827  -2.977 -31.596  0.00  0.00     0.036 H 
ATOM     42  H   L2D d   1      -5.413  -2.912 -33.259  0.00  0.00     0.036 H 
ATOM     43  H   L2D d   1      -4.315  -0.550 -31.671  0.00  0.00     0.033 H 
ATOM     44  H   L2D d   1      -6.038  -0.858 -32.031  0.00  0.00     0.033 H 
ATOM     45  H   L2D d   1      -5.069   0.805 -33.622  0.00  0.00     0.033 H 
ATOM     46  H   L2D d   1      -5.565  -0.668 -34.465  0.00  0.00     0.033 H 
ATOM     47  H   L2D d   1      -2.721  -0.037 -33.517  0.00  0.00     0.036 H 
ATOM     48  H   L2D d   1      -3.288   0.047 -35.194  0.00  0.00     0.036 H 
ATOM     49  H   L2D d   1      -3.878  -2.384 -35.103  0.00  0.00     0.092 H 
ATOM     50  H   L2D d   1      -1.479  -0.930 -33.185  0.00  0.00     0.096 H 
ATOM     51  H   L2D d   1      -0.418  -0.563 -34.604  0.00  0.00     0.096 H 
ATOM     52  H   L2D d   1      -1.541  -0.587 -36.302  0.00  0.00     0.089 H 
ATOM     53  H   L2D d   1      -2.441  -1.955 -36.877  0.00  0.00     0.089 H 
ATOM     54  H   L2D d   1       0.361  -0.645 -37.938  0.00  0.00     0.086 H 
ATOM     55  H   L2D d   1       2.446  -1.817 -38.656  0.00  0.00     0.083 H 
ATOM     56  H   L2D d   1       2.860  -4.148 -37.873  0.00  0.00     0.085 H 
ATOM     57  H   L2D d   1       1.207  -5.248 -36.379  0.00  0.00     0.114 H 
ENDROOT
TORSDOF 0
