REMARK  1 active torsions:
REMARK  status: ('A' for Active; 'I' for Inactive)
REMARK    1  A    between atoms: N1_1  and  C1_2 
ROOT
ATOM      1  N1  L2M d   1      -1.963  -2.113 -34.462  0.00  0.00     0.096 N 
ATOM      2  O1  L2M d   1      -5.113  -6.028 -36.078  0.00  0.00    -0.261 OA
ATOM      3  O2  L2M d   1      -3.133  -5.057 -36.026  0.00  0.00    -0.148 OA
ATOM      4  C2  L2M d   1       1.039  -2.120 -38.267  0.00  0.00    -0.066 A 
ATOM      5  C3  L2M d   1      -0.252  -8.080 -32.949  0.00  0.00    -0.066 A 
ATOM      6  C4  L2M d   1       0.172  -1.045 -38.407  0.00  0.00    -0.080 A 
ATOM      7  C5  L2M d   1      -0.750  -7.938 -31.661  0.00  0.00    -0.080 A 
ATOM      8  C6  L2M d   1       0.746  -3.113 -37.337  0.00  0.00     0.003 A 
ATOM      9  C7  L2M d   1      -0.573  -7.124 -33.909  0.00  0.00     0.003 A 
ATOM     10  C8  L2M d   1      -0.965  -0.987 -37.618  0.00  0.00    -0.057 A 
ATOM     11  C9  L2M d   1      -1.559  -6.853 -31.366  0.00  0.00    -0.057 A 
ATOM     12  C10 L2M d   1      -4.744  -0.441 -32.625  0.00  0.00    -0.063 C 
ATOM     13  C11 L2M d   1      -5.752  -1.546 -32.682  0.00  0.00    -0.063 C 
ATOM     14  C12 L2M d   1      -3.675  -0.634 -33.686  0.00  0.00    -0.034 C 
ATOM     15  C13 L2M d   1      -5.074  -2.892 -32.448  0.00  0.00    -0.034 C 
ATOM     16  C14 L2M d   1      -4.117  -5.528 -33.924  0.00  0.00     0.195 C 
ATOM     17  C15 L2M d   1      -2.446  -1.946 -35.837  0.00  0.00     0.152 C 
ATOM     18  C16 L2M d   1      -2.722  -4.698 -32.092  0.00  0.00     0.153 C 
ATOM     19  N2  L2M d   1      -0.346  -3.037 -36.593  0.00  0.00    -0.264 N 
ATOM     20  N3  L2M d   1      -1.343  -6.094 -33.598  0.00  0.00    -0.264 N 
ATOM     21  C17 L2M d   1      -4.139  -5.511 -35.469  0.00  0.00     0.317 C 
ATOM     22  C18 L2M d   1      -1.207  -2.013 -36.718  0.00  0.00     0.062 A 
ATOM     23  C19 L2M d   1      -1.852  -5.933 -32.366  0.00  0.00     0.062 A 
ATOM     24  C20 L2M d   1      -2.989  -1.967 -33.432  0.00  0.00     0.164 C 
ATOM     25  C21 L2M d   1      -4.024  -3.091 -33.538  0.00  0.00     0.165 C 
ATOM     26  N4  L2M d   1      -3.345  -4.382 -33.364  0.00  0.00     0.110 N 
ATOM     27 FE1  L2M d   1      -1.561  -4.054 -34.765  0.00  0.00     0.000 Fe
ATOM     28  H   L2M d   1       1.939  -2.186 -38.879  0.00  0.00     0.085 H 
ATOM     29  H   L2M d   1       0.382  -8.929 -33.205  0.00  0.00     0.085 H 
ATOM     30  H   L2M d   1       0.383  -0.256 -39.129  0.00  0.00     0.083 H 
ATOM     31  H   L2M d   1      -0.507  -8.671 -30.892  0.00  0.00     0.083 H 
ATOM     32  H   L2M d   1       1.421  -3.961 -37.220  0.00  0.00     0.114 H 
ATOM     33  H   L2M d   1      -0.187  -7.225 -34.923  0.00  0.00     0.114 H 
ATOM     34  H   L2M d   1      -1.657  -0.149 -37.703  0.00  0.00     0.086 H 
ATOM     35  H   L2M d   1      -1.961  -6.722 -30.361  0.00  0.00     0.086 H 
ATOM     36  H   L2M d   1      -4.271  -0.446 -31.643  0.00  0.00     0.033 H 
ATOM     37  H   L2M d   1      -5.250   0.507 -32.804  0.00  0.00     0.033 H 
ATOM     38  H   L2M d   1      -6.221  -1.550 -33.666  0.00  0.00     0.033 H 
ATOM     39  H   L2M d   1      -6.501  -1.385 -31.907  0.00  0.00     0.033 H 
ATOM     40  H   L2M d   1      -2.948   0.177 -33.638  0.00  0.00     0.036 H 
ATOM     41  H   L2M d   1      -4.126  -0.628 -34.678  0.00  0.00     0.036 H 
ATOM     42  H   L2M d   1      -5.810  -3.695 -32.485  0.00  0.00     0.036 H 
ATOM     43  H   L2M d   1      -4.603  -2.909 -31.465  0.00  0.00     0.036 H 
ATOM     44  H   L2M d   1      -3.639  -6.452 -33.600  0.00  0.00     0.096 H 
ATOM     45  H   L2M d   1      -5.144  -5.454 -33.568  0.00  0.00     0.096 H 
ATOM     46  H   L2M d   1      -2.973  -1.000 -35.962  0.00  0.00     0.089 H 
ATOM     47  H   L2M d   1      -3.166  -2.720 -36.103  0.00  0.00     0.089 H 
ATOM     48  H   L2M d   1      -2.129  -3.864 -31.716  0.00  0.00     0.089 H 
ATOM     49  H   L2M d   1      -3.464  -4.893 -31.318  0.00  0.00     0.089 H 
ATOM     50  H   L2M d   1      -2.541  -2.012 -32.439  0.00  0.00     0.091 H 
ATOM     51  H   L2M d   1      -4.511  -3.075 -34.513  0.00  0.00     0.092 H 
ENDROOT
BRANCH   1  52
ATOM     52  C1  L2M d   1      -0.816  -1.231 -34.178  0.00  0.00     0.096 C 
ATOM     53  H   L2M d   1      -0.312  -1.572 -33.274  0.00  0.00     0.071 H 
ATOM     54  H   L2M d   1      -0.120  -1.260 -35.017  0.00  0.00     0.071 H 
ATOM     55  H   L2M d   1      -1.171  -0.210 -34.035  0.00  0.00     0.071 H 
ENDBRANCH   1  52
TORSDOF 1
