REMARK  11 active torsions:
REMARK  status: ('A' for Active; 'I' for Inactive)
REMARK    1  A    between atoms: C11_1  and  O2_2 
REMARK    2  A    between atoms: O2_2  and  C9_3 
REMARK    3  A    between atoms: C6_5  and  O1_6 
REMARK    4  A    between atoms: O1_6  and  C10_7 
REMARK    5  A    between atoms: C4_14  and  C8_15 
REMARK    6  A    between atoms: C13_17  and  C16_18 
REMARK    7  A    between atoms: C14_21  and  N4_22 
REMARK    8  A    between atoms: C22_27  and  C18_28 
REMARK    9  A    between atoms: C18_28  and  C17_29 
REMARK   10  A    between atoms: C18_28  and  C19_30 
REMARK   11  A    between atoms: C18_28  and  O3_31 
ROOT
ATOM      1  C8  0JQ d   1      10.512  91.118  40.410  0.00  0.00    -0.005 C 
ATOM      2  C12 0JQ d   1      10.251  90.435  41.552  0.00  0.00    -0.061 C 
ATOM      3  C13 0JQ d   1      10.098  91.100  42.738  0.00  0.00    -0.015 C 
ATOM      4  C15 0JQ d   1      10.368  92.453  40.494  0.00  0.00     0.015 C 
ATOM      5  N3  0JQ d   1      10.312  93.079  41.618  0.00  0.00    -0.242 NA
ATOM      6  C14 0JQ d   1      10.110  92.465  42.747  0.00  0.00     0.131 C 
ATOM      7  H10 0JQ d   1      10.163  89.355  41.525  0.00  0.00     0.085 H 
ATOM      8  H14 0JQ d   1      10.296  93.026  39.577  0.00  0.00     0.116 H 
ENDROOT
BRANCH   6   9
ATOM      9  N4  0JQ d   1      10.009  93.213  43.897  0.00  0.00    -0.365 N 
ATOM     10  C24 0JQ d   1       9.666  94.604  43.856  0.00  0.00    -0.003 C 
ATOM     11  C23 0JQ d   1       9.443  95.215  45.233  0.00  0.00    -0.044 C 
ATOM     12  H15 0JQ d   1       8.742  94.718  43.271  0.00  0.00     0.064 H 
ATOM     13  H16 0JQ d   1      10.483  95.150  43.361  0.00  0.00     0.064 H 
ATOM     14  C22 0JQ d   1      10.570  94.877  46.198  0.00  0.00    -0.022 C 
ATOM     15  H17 0JQ d   1       8.498  94.830  45.643  0.00  0.00     0.036 H 
ATOM     16  H18 0JQ d   1       9.380  96.308  45.130  0.00  0.00     0.036 H 
ATOM     17  C21 0JQ d   1      10.416  93.403  46.355  0.00  0.00    -0.044 C 
ATOM     18  H23 0JQ d   1      11.549  95.107  45.751  0.00  0.00     0.044 H 
ATOM     19  C20 0JQ d   1      10.757  92.747  45.037  0.00  0.00    -0.003 C 
ATOM     20  H21 0JQ d   1      11.097  93.039  47.139  0.00  0.00     0.036 H 
ATOM     21  H22 0JQ d   1       9.378  93.165  46.632  0.00  0.00     0.036 H 
ATOM     22  H19 0JQ d   1      11.824  92.924  44.837  0.00  0.00     0.064 H 
ATOM     23  H20 0JQ d   1      10.578  91.667  45.141  0.00  0.00     0.064 H 
BRANCH  14  24
ATOM     24  C18 0JQ d   1      10.434  95.679  47.501  0.00  0.00     0.054 C 
BRANCH  24  25
ATOM     25  C17 0JQ d   1      11.205  95.119  48.651  0.00  0.00    -0.048 C 
ATOM     26  H24 0JQ d   1      11.052  95.751  49.538  0.00  0.00     0.031 H 
ATOM     27  H25 0JQ d   1      12.275  95.095  48.398  0.00  0.00     0.031 H 
ATOM     28  H26 0JQ d   1      10.856  94.098  48.864  0.00  0.00     0.031 H 
ENDBRANCH  24  25
BRANCH  24  29
ATOM     29  C19 0JQ d   1       8.997  95.800  47.926  0.00  0.00    -0.048 C 
ATOM     30  H27 0JQ d   1       8.403  96.211  47.097  0.00  0.00     0.031 H 
ATOM     31  H28 0JQ d   1       8.927  96.471  48.795  0.00  0.00     0.031 H 
ATOM     32  H29 0JQ d   1       8.610  94.807  48.197  0.00  0.00     0.031 H 
ENDBRANCH  24  29
BRANCH  24  33
ATOM     33  O3  0JQ d   1      10.817  96.994  47.179  0.00  0.00    -0.390 OA
ATOM     34  H30 0JQ d   1      10.299  97.303  46.445  0.00  0.00     0.210 HD
ENDBRANCH  24  33
ENDBRANCH  14  24
ENDBRANCH   6   9
BRANCH   3  35
ATOM     35  C16 0JQ d   1       9.901  90.318  44.025  0.00  0.00    -0.048 C 
ATOM     36  H11 0JQ d   1       9.923  89.240  43.806  0.00  0.00     0.033 H 
ATOM     37  H12 0JQ d   1       8.930  90.582  44.470  0.00  0.00     0.033 H 
ATOM     38  H13 0JQ d   1      10.707  90.565  44.731  0.00  0.00     0.033 H 
ENDBRANCH   3  35
BRANCH   1  39
ATOM     39  C4  0JQ d   1      10.584  90.529  39.175  0.00  0.00     0.007 C 
ATOM     40  C1  0JQ d   1      11.344  89.431  38.949  0.00  0.00     0.010 A 
ATOM     41  C3  0JQ d   1      12.308  89.076  39.857  0.00  0.00    -0.035 A 
ATOM     42  C2  0JQ d   1      11.352  88.884  37.697  0.00  0.00     0.093 A 
ATOM     43  C6  0JQ d   1      13.181  88.067  39.559  0.00  0.00     0.102 A 
ATOM     44  H8  0JQ d   1      12.378  89.593  40.807  0.00  0.00     0.089 H 
ATOM     45  C9  0JQ d   1      13.138  87.459  38.338  0.00  0.00     0.103 A 
ATOM     46  C5  0JQ d   1      12.228  87.865  37.401  0.00  0.00    -0.018 A 
ATOM     47  H4  0JQ d   1      12.197  87.386  36.429  0.00  0.00     0.091 H 
ATOM     48  N1  0JQ d   1      10.474  89.293  36.802  0.00  0.00    -0.150 NA
ATOM     49  N2  0JQ d   1       9.703  90.180  37.058  0.00  0.00    -0.161 NA
ATOM     50  C7  0JQ d   1       9.666  90.798  38.202  0.00  0.00     0.035 C 
ATOM     51  H9  0JQ d   1       8.895  91.537  38.385  0.00  0.00     0.118 H 
BRANCH  43  52
ATOM     52  O1  0JQ d   1      14.101  87.650  40.419  0.00  0.00    -0.353 OA
BRANCH  52  53
ATOM     53  C10 0JQ d   1      13.911  88.176  41.746  0.00  0.00     0.010 C 
ATOM     54  H5  0JQ d   1      14.702  87.795  42.408  0.00  0.00     0.066 H 
ATOM     55  H6  0JQ d   1      12.929  87.860  42.128  0.00  0.00     0.066 H 
ATOM     56  H7  0JQ d   1      13.957  89.275  41.715  0.00  0.00     0.066 H 
ENDBRANCH  52  53
ENDBRANCH  43  52
BRANCH  45  57
ATOM     57  O2  0JQ d   1      14.027  86.520  38.113  0.00  0.00    -0.353 OA
BRANCH  57  58
ATOM     58  C11 0JQ d   1      13.993  85.836  36.852  0.00  0.00     0.010 C 
ATOM     59  H1  0JQ d   1      14.796  85.085  36.821  0.00  0.00     0.066 H 
ATOM     60  H2  0JQ d   1      14.137  86.561  36.038  0.00  0.00     0.066 H 
ATOM     61  H3  0JQ d   1      13.020  85.337  36.731  0.00  0.00     0.066 H 
ENDBRANCH  57  58
ENDBRANCH  45  57
ENDBRANCH   1  39
TORSDOF 11
