REMARK  4 active torsions:
REMARK  status: ('A' for Active; 'I' for Inactive)
REMARK       I    between atoms: C13_2  and  N12_3 
REMARK    1  A    between atoms: C13_2  and  C14_15 
REMARK    2  A    between atoms: N12_3  and  C8_4 
REMARK    3  A    between atoms: C6_9  and  C5_10 
REMARK    4  A    between atoms: C16_19  and  C20_21 
ROOT
ATOM      1  O26 0J7 d   1      -9.233  55.661  13.510  0.00  0.00    -0.267 OA
ATOM      2  C13 0J7 d   1      -8.799  55.814  12.356  0.00  0.00     0.256 C 
ATOM      3  N12 0J7 d   1      -7.742  55.114  11.912  0.00  0.00    -0.323 N 
ATOM      4  H1  0J7 d   1      -7.507  55.185  10.943  0.00  0.00     0.169 HD
ENDROOT
BRANCH   2   5
ATOM      5  C14 0J7 d   1      -9.562  56.734  11.425  0.00  0.00     0.033 A 
ATOM      6  C19 0J7 d   1      -9.197  56.922  10.102  0.00  0.00    -0.068 A 
ATOM      7  C18 0J7 d   1      -9.931  57.766   9.268  0.00  0.00    -0.081 A 
ATOM      8  H7  0J7 d   1      -8.329  56.406   9.709  0.00  0.00     0.085 H 
ATOM      9  C17 0J7 d   1     -11.032  58.469   9.745  0.00  0.00    -0.069 A 
ATOM     10  H8  0J7 d   1      -9.638  57.876   8.230  0.00  0.00     0.083 H 
ATOM     11  C16 0J7 d   1     -11.393  58.311  11.070  0.00  0.00     0.013 A 
ATOM     12  H9  0J7 d   1     -11.595  59.126   9.092  0.00  0.00     0.085 H 
ATOM     13  C15 0J7 d   1     -10.662  57.455  11.907  0.00  0.00    -0.054 A 
ATOM     14  H10 0J7 d   1     -10.954  57.349  12.946  0.00  0.00     0.086 H 
BRANCH  11  15
ATOM     15  C20 0J7 d   1     -12.607  59.007  11.601  0.00  0.00     0.159 A 
ATOM     16  N25 0J7 d   1     -13.166  60.033  10.916  0.00  0.00    -0.241 NA
ATOM     17  C24 0J7 d   1     -14.256  60.651  11.352  0.00  0.00     0.006 A 
ATOM     18  C23 0J7 d   1     -14.809  60.242  12.542  0.00  0.00    -0.049 A 
ATOM     19  H11 0J7 d   1     -14.700  61.460  10.783  0.00  0.00     0.114 H 
ATOM     20  C22 0J7 d   1     -14.249  59.193  13.238  0.00  0.00     0.006 A 
ATOM     21  H12 0J7 d   1     -15.686  60.745  12.933  0.00  0.00     0.087 H 
ATOM     22  N21 0J7 d   1     -13.152  58.589  12.763  0.00  0.00    -0.241 NA
ATOM     23  H13 0J7 d   1     -14.695  58.858  14.167  0.00  0.00     0.114 H 
ENDBRANCH  11  15
ENDBRANCH   2   5
BRANCH   3  24
ATOM     24  C8  0J7 d   1      -6.937  54.279  12.734  0.00  0.00     0.035 A 
ATOM     25  C7  0J7 d   1      -5.580  54.194  12.366  0.00  0.00    -0.043 A 
ATOM     26  C6  0J7 d   1      -4.653  53.454  13.103  0.00  0.00     0.017 A 
ATOM     27  H2  0J7 d   1      -5.244  54.721  11.480  0.00  0.00     0.088 H 
ATOM     28  C11 0J7 d   1      -5.106  52.823  14.261  0.00  0.00    -0.069 A 
ATOM     29  C10 0J7 d   1      -6.472  52.885  14.618  0.00  0.00    -0.080 A 
ATOM     30  H5  0J7 d   1      -4.408  52.283  14.890  0.00  0.00     0.085 H 
ATOM     31  C9  0J7 d   1      -7.413  53.587  13.867  0.00  0.00    -0.057 A 
ATOM     32  H4  0J7 d   1      -6.801  52.366  15.511  0.00  0.00     0.083 H 
ATOM     33  H3  0J7 d   1      -8.462  53.600  14.141  0.00  0.00     0.086 H 
BRANCH  26  34
ATOM     34  C5  0J7 d   1      -3.217  53.421  12.694  0.00  0.00     0.198 A 
ATOM     35  N4  0J7 d   1      -2.173  53.075  13.496  0.00  0.00    -0.139 NA
ATOM     36  N3  0J7 d   1      -0.984  53.137  12.753  0.00  0.00    -0.200 N 
ATOM     37  N2  0J7 d   1      -1.351  53.488  11.448  0.00  0.00     0.022 NA
ATOM     38  H6  0J7 d   1      -0.030  52.959  13.099  0.00  0.00     0.208 HD
ATOM     39  N1  0J7 d   1      -2.730  53.602  11.430  0.00  0.00    -0.136 NA
ENDBRANCH  26  34
ENDBRANCH   3  24
TORSDOF 4
