REMARK  4 active torsions:
REMARK  status: ('A' for Active; 'I' for Inactive)
REMARK    1  A    between atoms: C7_2  and  C6_5 
REMARK    2  A    between atoms: C4_8  and  C8_11 
REMARK       I    between atoms: C8_11  and  N9_13 
REMARK    3  A    between atoms: N9_13  and  C10_14 
REMARK    4  A    between atoms: C12_18  and  C16_20 
ROOT
ATOM      1  C8  DN6 d   1      -8.958  55.907  12.346  0.00  0.00     0.256 C 
ATOM      2  O21 DN6 d   1      -9.393  55.816  13.505  0.00  0.00    -0.267 OA
ATOM      3  N9  DN6 d   1      -7.841  55.287  11.899  0.00  0.00    -0.323 N 
ATOM      4  H5  DN6 d   1      -7.599  55.391  10.934  0.00  0.00     0.169 HD
ENDROOT
BRANCH   3   5
ATOM      5  C10 DN6 d   1      -6.998  54.502  12.714  0.00  0.00     0.035 A 
ATOM      6  C15 DN6 d   1      -7.473  53.792  13.803  0.00  0.00    -0.057 A 
ATOM      7  C14 DN6 d   1      -6.548  53.084  14.577  0.00  0.00    -0.080 A 
ATOM      8  H6  DN6 d   1      -8.529  53.785  14.048  0.00  0.00     0.086 H 
ATOM      9  C13 DN6 d   1      -5.213  53.054  14.218  0.00  0.00    -0.069 A 
ATOM     10  H7  DN6 d   1      -6.880  52.556  15.464  0.00  0.00     0.083 H 
ATOM     11  C12 DN6 d   1      -4.761  53.719  13.103  0.00  0.00     0.017 A 
ATOM     12  H8  DN6 d   1      -4.510  52.496  14.827  0.00  0.00     0.085 H 
ATOM     13  C11 DN6 d   1      -5.660  54.471  12.358  0.00  0.00    -0.043 A 
ATOM     14  H9  DN6 d   1      -5.314  55.033  11.498  0.00  0.00     0.088 H 
BRANCH  11  15
ATOM     15  C16 DN6 d   1      -3.401  53.662  12.765  0.00  0.00     0.198 A 
ATOM     16  N20 DN6 d   1      -2.854  54.225  11.695  0.00  0.00    -0.139 NA
ATOM     17  N19 DN6 d   1      -1.479  54.008  11.621  0.00  0.00    -0.200 N 
ATOM     18  N18 DN6 d   1      -1.195  53.268  12.776  0.00  0.00     0.022 NA
ATOM     19  H10 DN6 d   1      -0.825  54.319  10.889  0.00  0.00     0.208 HD
ATOM     20  N17 DN6 d   1      -2.369  53.096  13.475  0.00  0.00    -0.136 NA
ENDBRANCH  11  15
ENDBRANCH   3   5
BRANCH   1  21
ATOM     21  C4  DN6 d   1      -9.750  56.796  11.388  0.00  0.00     0.033 A 
ATOM     22  C5  DN6 d   1     -10.666  57.733  11.894  0.00  0.00    -0.053 A 
ATOM     23  C6  DN6 d   1     -11.410  58.575  11.049  0.00  0.00     0.048 A 
ATOM     24  H2  DN6 d   1     -10.803  57.809  12.967  0.00  0.00     0.086 H 
ATOM     25  C1  DN6 d   1     -11.187  58.521   9.686  0.00  0.00    -0.068 A 
ATOM     26  C2  DN6 d   1     -10.294  57.620   9.132  0.00  0.00    -0.081 A 
ATOM     27  H1  DN6 d   1     -11.725  59.201   9.035  0.00  0.00     0.084 H 
ATOM     28  C3  DN6 d   1      -9.555  56.783   9.986  0.00  0.00    -0.068 A 
ATOM     29  H4  DN6 d   1     -10.167  57.561   8.057  0.00  0.00     0.083 H 
ATOM     30  H3  DN6 d   1      -8.818  56.111   9.561  0.00  0.00     0.085 H 
BRANCH  23  31
ATOM     31  C7  DN6 d   1     -12.394  59.584  11.602  0.00  0.00     0.417 C 
ATOM     32  F24 DN6 d   1     -11.665  60.623  12.083  0.00  0.00    -0.166 F 
ATOM     33  F22 DN6 d   1     -13.282  59.891  10.659  0.00  0.00    -0.166 F 
ATOM     34  F23 DN6 d   1     -13.095  59.046  12.588  0.00  0.00    -0.166 F 
ENDBRANCH  23  31
ENDBRANCH   1  21
TORSDOF 4
