REMARK  3 active torsions:
REMARK  status: ('A' for Active; 'I' for Inactive)
REMARK    1  A    between atoms: C7_2  and  C4_3 
REMARK       I    between atoms: C7_2  and  N8_10 
REMARK    2  A    between atoms: N8_10  and  C9_11 
REMARK    3  A    between atoms: C11_15  and  C15_17 
ROOT
ATOM      1  C9  DN8 d   1      -6.745  54.377  12.445  0.00  0.00     0.035 A 
ATOM      2  C14 DN8 d   1      -7.135  53.729  13.620  0.00  0.00    -0.057 A 
ATOM      3  C13 DN8 d   1      -6.189  53.069  14.415  0.00  0.00    -0.080 A 
ATOM      4  C12 DN8 d   1      -4.838  52.995  14.069  0.00  0.00    -0.069 A 
ATOM      5  C11 DN8 d   1      -4.438  53.612  12.880  0.00  0.00     0.017 A 
ATOM      6  C10 DN8 d   1      -5.388  54.299  12.099  0.00  0.00    -0.043 A 
ATOM      7  H6  DN8 d   1      -8.177  53.737  13.918  0.00  0.00     0.086 H 
ATOM      8  H7  DN8 d   1      -6.518  52.598  15.334  0.00  0.00     0.083 H 
ATOM      9  H8  DN8 d   1      -4.125  52.477  14.700  0.00  0.00     0.085 H 
ATOM     10  H9  DN8 d   1      -5.056  54.789  11.191  0.00  0.00     0.088 H 
ENDROOT
BRANCH   1  11
ATOM     11  N8  DN8 d   1      -7.727  55.022  11.664  0.00  0.00    -0.323 N 
ATOM     12  C7  DN8 d   1      -8.618  55.848  12.198  0.00  0.00     0.256 C 
ATOM     13  O21 DN8 d   1      -8.898  55.869  13.401  0.00  0.00    -0.267 OA
ATOM     14  H5  DN8 d   1      -7.753  54.852  10.679  0.00  0.00     0.169 HD
BRANCH  12  15
ATOM     15  C4  DN8 d   1      -9.321  56.803  11.264  0.00  0.00     0.033 A 
ATOM     16  C3  DN8 d   1      -9.051  56.752   9.887  0.00  0.00    -0.068 A 
ATOM     17  C2  DN8 d   1      -9.691  57.617   9.010  0.00  0.00    -0.081 A 
ATOM     18  H1  DN8 d   1      -8.337  56.031   9.506  0.00  0.00     0.085 H 
ATOM     19  C1  DN8 d   1     -10.596  58.578   9.522  0.00  0.00    -0.066 A 
ATOM     20  H2  DN8 d   1      -9.500  57.557   7.945  0.00  0.00     0.083 H 
ATOM     21  C6  DN8 d   1     -10.842  58.627  10.887  0.00  0.00     0.011 A 
ATOM     22  H4  DN8 d   1     -11.093  59.271   8.853  0.00  0.00     0.085 H 
ATOM     23  C5  DN8 d   1     -10.215  57.741  11.767  0.00  0.00    -0.051 A 
ATOM     24 BR1  DN8 d   1     -12.024  59.913  11.579  0.00  0.00    -0.051 Br
ATOM     25  H3  DN8 d   1     -10.423  57.785  12.830  0.00  0.00     0.087 H 
ENDBRANCH  12  15
ENDBRANCH   1  11
BRANCH   5  26
ATOM     26  C15 DN8 d   1      -3.091  53.556  12.531  0.00  0.00     0.198 A 
ATOM     27  N19 DN8 d   1      -2.522  53.971  11.409  0.00  0.00    -0.136 NA
ATOM     28  N18 DN8 d   1      -1.177  53.736  11.408  0.00  0.00     0.022 NA
ATOM     29  N17 DN8 d   1      -0.898  53.104  12.566  0.00  0.00    -0.200 N 
ATOM     30  N16 DN8 d   1      -2.110  53.017  13.249  0.00  0.00    -0.139 NA
ATOM     31  H10 DN8 d   1       0.020  52.758  12.880  0.00  0.00     0.208 HD
ENDBRANCH   5  26
TORSDOF 3
