REMARK  4 active torsions:
REMARK  status: ('A' for Active; 'I' for Inactive)
REMARK    1  A    between atoms: N1_1  and  C1'_9 
REMARK    2  A    between atoms: C2'_10  and  O2'_11 
REMARK    3  A    between atoms: C3'_12  and  O3'_15 
REMARK    4  A    between atoms: C4'_13  and  C5'_16 
ROOT
ATOM      1  C1' UDP d   1      15.741 -12.344  22.922  0.00  0.00     0.141 C 
ATOM      2  C2' UDP d   1      15.795 -12.481  21.408  0.00  0.00     0.105 C 
ATOM      3  C3' UDP d   1      15.071 -11.272  20.859  0.00  0.00     0.089 C 
ATOM      4  C4' UDP d   1      14.820 -10.369  22.054  0.00  0.00     0.065 C 
ATOM      5  O4' UDP d   1      15.129 -11.104  23.221  0.00  0.00    -0.356 OA
ATOM      6  H4  UDP d   1      16.765 -12.360  23.323  0.00  0.00     0.123 H 
ATOM      7  H5  UDP d   1      15.318 -13.416  21.078  0.00  0.00     0.093 H 
ATOM      8  H7  UDP d   1      14.130 -11.558  20.366  0.00  0.00     0.091 H 
ATOM      9  H8  UDP d   1      15.484  -9.495  21.988  0.00  0.00     0.086 H 
ENDROOT
BRANCH   1  10
ATOM     10  N1  UDP d   1      14.964 -13.429  23.553  0.00  0.00    -0.280 N 
ATOM     11  C2  UDP d   1      15.620 -14.467  24.190  0.00  0.00     0.331 C 
ATOM     12  N3  UDP d   1      14.895 -15.477  24.791  0.00  0.00    -0.275 N 
ATOM     13  O2  UDP d   1      16.849 -14.497  24.221  0.00  0.00    -0.246 OA
ATOM     14  C4  UDP d   1      13.517 -15.447  24.760  0.00  0.00     0.250 C 
ATOM     15  H1  UDP d   1      15.369 -16.230  25.248  0.00  0.00     0.173 HD
ATOM     16  C5  UDP d   1      12.868 -14.396  24.122  0.00  0.00    -0.002 C 
ATOM     17  O4  UDP d   1      12.871 -16.347  25.294  0.00  0.00    -0.268 OA
ATOM     18  C6  UDP d   1      13.612 -13.301  23.697  0.00  0.00    -0.008 C 
ATOM     19  H2  UDP d   1      11.792 -14.430  23.957  0.00  0.00     0.094 H 
ATOM     20  H3  UDP d   1      13.122 -12.352  23.482  0.00  0.00     0.112 H 
ENDBRANCH   1  10
BRANCH   2  21
ATOM     21  O2' UDP d   1      17.133 -12.433  20.981  0.00  0.00    -0.388 OA
ATOM     22  H6  UDP d   1      17.517 -11.603  21.238  0.00  0.00     0.210 HD
ENDBRANCH   2  21
BRANCH   3  23
ATOM     23  O3' UDP d   1      15.922 -10.599  19.961  0.00  0.00    -0.390 OA
ATOM     24  H9  UDP d   1      16.743 -10.398  20.395  0.00  0.00     0.210 HD
ENDBRANCH   3  23
BRANCH   4  25
ATOM     25  C5' UDP d   1      13.378  -9.877  22.107  0.00  0.00    -0.050 C 
ATOM     26  H10 UDP d   1      13.244  -9.229  22.986  0.00  0.00     0.031 H 
ATOM     27  H11 UDP d   1      12.699 -10.739  22.180  0.00  0.00     0.031 H 
ATOM     28  H12 UDP d   1      13.151  -9.308  21.194  0.00  0.00     0.031 H 
ENDBRANCH   4  25
TORSDOF 4
