REMARK  4 active torsions:
REMARK  status: ('A' for Active; 'I' for Inactive)
REMARK    1  A    between atoms: C19_22  and  C01_1 
REMARK    2  A    between atoms: N01_2  and  C09_12 
REMARK    3  A    between atoms: C16_19  and  N04_7 
REMARK    4  A    between atoms: C06_9  and  C11_14 
ROOT
ATOM      1  N01 NHI d   1      -3.133 -33.108   6.996  0.00  0.00    -0.188 N 
ATOM      2  N02 NHI d   1      -4.333 -31.115   6.766  0.00  0.00    -0.045 NA
ATOM      3  N03 NHI d   1      -3.648 -31.987   8.905  0.00  0.00    -0.075 NA
ATOM      4  N04 NHI d   1      -5.528 -29.112   6.707  0.00  0.00    -0.340 N 
ATOM      5  C12 NHI d   1      -3.712 -32.055   7.542  0.00  0.00     0.728 A 
ATOM      6  C13 NHI d   1      -4.918 -30.044   7.405  0.00  0.00     0.148 A 
ATOM      7  C14 NHI d   1      -4.895 -29.891   8.794  0.00  0.00    -0.021 A 
ATOM      8  C15 NHI d   1      -4.240 -30.905   9.500  0.00  0.00     0.025 A 
ATOM      9  H1  NHI d   1      -2.936 -33.885   7.643  0.00  0.00     0.184 HD
ATOM     10  H2  NHI d   1      -5.782 -28.241   7.194  0.00  0.00     0.167 HD
ATOM     11  H7  NHI d   1      -5.354 -29.044   9.290  0.00  0.00     0.091 H 
ATOM     12  H8  NHI d   1      -4.199 -30.830  10.581  0.00  0.00     0.115 H 
ENDROOT
BRANCH   1  13
ATOM     13  C09 NHI d   1      -2.768 -33.314   5.740  0.00  0.00     0.049 A 
ATOM     14  C08 NHI d   1      -1.616 -34.112   5.486  0.00  0.00    -0.056 A 
ATOM     15  C07 NHI d   1      -1.189 -34.372   4.152  0.00  0.00    -0.064 A 
ATOM     16  H5  NHI d   1      -1.058 -34.526   6.317  0.00  0.00     0.087 H 
ATOM     17  C06 NHI d   1      -1.916 -33.828   3.036  0.00  0.00     0.041 A 
ATOM     18  H4  NHI d   1      -0.311 -34.983   3.977  0.00  0.00     0.085 H 
ATOM     19  C05 NHI d   1      -3.071 -33.035   3.281  0.00  0.00    -0.064 A 
ATOM     20  C10 NHI d   1      -3.489 -32.787   4.611  0.00  0.00    -0.056 A 
ATOM     21  H3  NHI d   1      -3.631 -32.621   2.450  0.00  0.00     0.085 H 
ATOM     22  H6  NHI d   1      -4.374 -32.185   4.783  0.00  0.00     0.087 H 
BRANCH  17  23
ATOM     23  C11 NHI d   1      -1.498 -34.064   1.741  0.00  0.00     0.209 C 
ATOM     24  O25 NHI d   1      -2.284 -34.078   0.818  0.00  0.00    -0.644 OA
ATOM     25  O26 NHI d   1      -0.213 -34.262   1.484  0.00  0.00    -0.644 OA
ENDBRANCH  17  23
ENDBRANCH   1  13
BRANCH   4  26
ATOM     26  C16 NHI d   1      -5.836 -29.211   5.438  0.00  0.00     0.033 A 
ATOM     27  C17 NHI d   1      -7.201 -29.190   5.030  0.00  0.00    -0.056 A 
ATOM     28  C18 NHI d   1      -7.543 -29.307   3.652  0.00  0.00    -0.064 A 
ATOM     29  H9  NHI d   1      -7.984 -29.084   5.772  0.00  0.00     0.086 H 
ATOM     30  C19 NHI d   1      -6.517 -29.446   2.671  0.00  0.00     0.041 A 
ATOM     31  H10 NHI d   1      -8.584 -29.290   3.349  0.00  0.00     0.085 H 
ATOM     32  C20 NHI d   1      -5.161 -29.461   3.072  0.00  0.00    -0.064 A 
ATOM     33  C21 NHI d   1      -4.819 -29.343   4.438  0.00  0.00    -0.056 A 
ATOM     34  H11 NHI d   1      -4.380 -29.564   2.328  0.00  0.00     0.085 H 
ATOM     35  H12 NHI d   1      -3.776 -29.352   4.732  0.00  0.00     0.086 H 
BRANCH  30  36
ATOM     36  C01 NHI d   1      -6.939 -29.582   1.184  0.00  0.00     0.209 C 
ATOM     37  O01 NHI d   1      -5.923 -29.611   0.176  0.00  0.00    -0.644 OA
ATOM     38  O02 NHI d   1      -8.112 -29.680   0.874  0.00  0.00    -0.644 OA
ENDBRANCH  30  36
ENDBRANCH   4  26
TORSDOF 4
