REMARK  6 active torsions:
REMARK  status: ('A' for Active; 'I' for Inactive)
REMARK    1  A    between atoms: C11_11  and  N01_1 
REMARK    2  A    between atoms: N01_1  and  C12_12 
REMARK    3  A    between atoms: C13_13  and  N04_4 
REMARK    4  A    between atoms: N04_4  and  C16_16 
REMARK       I    between atoms: C23_23  and  N05_5 
REMARK    5  A    between atoms: C08_8  and  C23_23 
REMARK    6  A    between atoms: C20_20  and  C22_22 
ROOT
ATOM      1  N02 NHJ d   1      -3.816 -30.847   6.336  0.00  0.00    -0.045 NA
ATOM      2  N03 NHJ d   1      -3.685 -31.829   8.533  0.00  0.00    -0.075 NA
ATOM      3  C12 NHJ d   1      -3.450 -31.844   7.189  0.00  0.00     0.728 A 
ATOM      4  C13 NHJ d   1      -4.461 -29.769   6.876  0.00  0.00     0.148 A 
ATOM      5  C14 NHJ d   1      -4.753 -29.650   8.244  0.00  0.00    -0.021 A 
ATOM      6  C15 NHJ d   1      -4.334 -30.727   9.026  0.00  0.00     0.025 A 
ATOM      7  H   NHJ d   1      -5.267 -28.784   8.662  0.00  0.00     0.091 H 
ATOM      8  H   NHJ d   1      -4.535 -30.690  10.097  0.00  0.00     0.115 H 
ENDROOT
BRANCH   3   9
ATOM      9  N01 NHJ d   1      -2.830 -32.894   6.730  0.00  0.00    -0.188 N 
ATOM     10  H   NHJ d   1      -2.567 -33.590   7.428  0.00  0.00     0.184 HD
BRANCH   9  11
ATOM     11  C11 NHJ d   1      -2.498 -33.179   5.494  0.00  0.00     0.049 A 
ATOM     12  C06 NHJ d   1      -1.421 -34.060   5.298  0.00  0.00    -0.056 A 
ATOM     13  C07 NHJ d   1      -1.009 -34.433   4.001  0.00  0.00    -0.066 A 
ATOM     14  H   NHJ d   1      -0.894 -34.462   6.163  0.00  0.00     0.087 H 
ATOM     15  C08 NHJ d   1      -1.673 -33.928   2.864  0.00  0.00     0.032 A 
ATOM     16  H   NHJ d   1      -0.170 -35.118   3.877  0.00  0.00     0.085 H 
ATOM     17  C09 NHJ d   1      -2.760 -33.037   3.045  0.00  0.00    -0.066 A 
ATOM     18  C10 NHJ d   1      -3.171 -32.667   4.346  0.00  0.00    -0.056 A 
ATOM     19  H   NHJ d   1      -3.282 -32.635   2.177  0.00  0.00     0.085 H 
ATOM     20  H   NHJ d   1      -4.011 -31.984   4.473  0.00  0.00     0.087 H 
BRANCH  15  21
ATOM     21  C23 NHJ d   1      -1.276 -34.299   1.598  0.00  0.00     0.249 C 
ATOM     22  N05 NHJ d   1      -1.824 -33.693   0.496  0.00  0.00    -0.366 N 
ATOM     23  H   NHJ d   1      -1.540 -33.983  -0.440  0.00  0.00     0.159 HD
ATOM     24  H   NHJ d   1      -2.515 -32.952   0.612  0.00  0.00     0.159 HD
ATOM     25  O24 NHJ d   1      -0.449 -35.185   1.434  0.00  0.00    -0.268 OA
ENDBRANCH  15  21
ENDBRANCH   9  11
ENDBRANCH   3   9
BRANCH   4  26
ATOM     26  N04 NHJ d   1      -4.800 -28.805   6.081  0.00  0.00    -0.340 N 
ATOM     27  H   NHJ d   1      -4.255 -27.944   6.136  0.00  0.00     0.167 HD
BRANCH  26  28
ATOM     28  C16 NHJ d   1      -5.762 -28.836   5.229  0.00  0.00     0.034 A 
ATOM     29  C17 NHJ d   1      -5.548 -29.258   3.870  0.00  0.00    -0.057 A 
ATOM     30  C18 NHJ d   1      -6.637 -29.267   2.943  0.00  0.00    -0.080 A 
ATOM     31  H   NHJ d   1      -4.555 -29.571   3.547  0.00  0.00     0.086 H 
ATOM     32  C19 NHJ d   1      -7.939 -28.851   3.370  0.00  0.00    -0.068 A 
ATOM     33  H   NHJ d   1      -6.476 -29.590   1.914  0.00  0.00     0.083 H 
ATOM     34  C20 NHJ d   1      -8.142 -28.426   4.734  0.00  0.00     0.050 A 
ATOM     35  H   NHJ d   1      -8.773 -28.855   2.668  0.00  0.00     0.084 H 
ATOM     36  C21 NHJ d   1      -7.050 -28.426   5.643  0.00  0.00    -0.043 A 
ATOM     37  H   NHJ d   1      -7.207 -28.106   6.673  0.00  0.00     0.088 H 
BRANCH  34  38
ATOM     38  C22 NHJ d   1      -9.497 -27.963   5.247  0.00  0.00     0.417 C 
ATOM     39  F25 NHJ d   1      -9.308 -26.842   6.081  0.00  0.00    -0.166 F 
ATOM     40  F26 NHJ d   1     -10.329 -27.592   4.184  0.00  0.00    -0.166 F 
ATOM     41  F27 NHJ d   1     -10.103 -28.995   5.978  0.00  0.00    -0.166 F 
ENDBRANCH  34  38
ENDBRANCH  26  28
ENDBRANCH   4  26
TORSDOF 6
