REMARK  5 active torsions:
REMARK  status: ('A' for Active; 'I' for Inactive)
REMARK    1  A    between atoms: N01_1  and  C09_11 
REMARK    2  A    between atoms: C12_14  and  N01_1 
REMARK    3  A    between atoms: C16_18  and  N04_4 
REMARK       I    between atoms: C22_24  and  N05_6 
REMARK    4  A    between atoms: C06_7  and  C11_13 
REMARK       I    between atoms: C11_13  and  N06_8 
REMARK    5  A    between atoms: C21_23  and  C22_24 
ROOT
ATOM      1  N02 NHU d   1      -3.794 -30.667   6.519  0.00  0.00    -0.045 NA
ATOM      2  N03 NHU d   1      -3.421 -31.638   8.690  0.00  0.00    -0.075 NA
ATOM      3  N04 NHU d   1      -4.537 -28.438   6.413  0.00  0.00    -0.340 N 
ATOM      4  C12 NHU d   1      -3.427 -31.699   7.337  0.00  0.00     0.728 A 
ATOM      5  C13 NHU d   1      -4.181 -29.486   7.131  0.00  0.00     0.148 A 
ATOM      6  C14 NHU d   1      -4.206 -29.333   8.520  0.00  0.00    -0.021 A 
ATOM      7  C15 NHU d   1      -3.812 -30.454   9.248  0.00  0.00     0.025 A 
ATOM      8  H   NHU d   1      -4.471 -27.530   6.873  0.00  0.00     0.167 HD
ATOM      9  H   NHU d   1      -4.512 -28.403   9.000  0.00  0.00     0.091 H 
ATOM     10  H   NHU d   1      -3.816 -30.381  10.336  0.00  0.00     0.115 H 
ENDROOT
BRANCH   4  11
ATOM     11  N01 NHU d   1      -3.062 -32.835   6.824  0.00  0.00    -0.188 N 
ATOM     12  H   NHU d   1      -3.207 -33.659   7.407  0.00  0.00     0.184 HD
BRANCH  11  13
ATOM     13  C09 NHU d   1      -2.531 -33.047   5.649  0.00  0.00     0.049 A 
ATOM     14  C08 NHU d   1      -3.124 -32.550   4.439  0.00  0.00    -0.056 A 
ATOM     15  C07 NHU d   1      -2.533 -32.809   3.173  0.00  0.00    -0.066 A 
ATOM     16  H   NHU d   1      -4.042 -31.965   4.493  0.00  0.00     0.087 H 
ATOM     17  C06 NHU d   1      -1.342 -33.573   3.092  0.00  0.00     0.032 A 
ATOM     18  H   NHU d   1      -2.995 -32.421   2.265  0.00  0.00     0.085 H 
ATOM     19  C05 NHU d   1      -0.747 -34.073   4.297  0.00  0.00    -0.066 A 
ATOM     20  C10 NHU d   1      -1.340 -33.811   5.563  0.00  0.00    -0.056 A 
ATOM     21  H   NHU d   1       0.170 -34.660   4.242  0.00  0.00     0.085 H 
ATOM     22  H   NHU d   1      -0.877 -34.199   6.470  0.00  0.00     0.087 H 
BRANCH  17  23
ATOM     23  C11 NHU d   1      -0.771 -33.824   1.867  0.00  0.00     0.249 C 
ATOM     24  N06 NHU d   1      -0.623 -32.737   0.899  0.00  0.00    -0.366 N 
ATOM     25  H   NHU d   1      -0.201 -32.919  -0.011  0.00  0.00     0.159 HD
ATOM     26  H   NHU d   1      -0.942 -31.797   1.135  0.00  0.00     0.159 HD
ATOM     27  O25 NHU d   1      -0.385 -34.937   1.569  0.00  0.00    -0.268 OA
ENDBRANCH  17  23
ENDBRANCH  11  13
ENDBRANCH   4  11
BRANCH   3  28
ATOM     28  C16 NHU d   1      -4.969 -28.432   5.166  0.00  0.00     0.049 A 
ATOM     29  C17 NHU d   1      -4.199 -29.024   4.103  0.00  0.00    -0.056 A 
ATOM     30  C18 NHU d   1      -4.668 -29.011   2.762  0.00  0.00    -0.081 A 
ATOM     31  H   NHU d   1      -3.240 -29.490   4.331  0.00  0.00     0.086 H 
ATOM     32  C19 NHU d   1      -5.910 -28.405   2.450  0.00  0.00    -0.082 A 
ATOM     33  H   NHU d   1      -4.072 -29.468   1.972  0.00  0.00     0.083 H 
ATOM     34  C20 NHU d   1      -6.693 -27.806   3.478  0.00  0.00    -0.066 A 
ATOM     35  H   NHU d   1      -6.267 -28.397   1.420  0.00  0.00     0.083 H 
ATOM     36  C21 NHU d   1      -6.243 -27.809   4.838  0.00  0.00     0.058 A 
ATOM     37  H   NHU d   1      -7.646 -27.340   3.227  0.00  0.00     0.085 H 
BRANCH  36  38
ATOM     38  C22 NHU d   1      -7.028 -27.216   5.801  0.00  0.00     0.251 C 
ATOM     39  N05 NHU d   1      -7.256 -25.767   5.764  0.00  0.00    -0.366 N 
ATOM     40  H   NHU d   1      -7.846 -25.325   6.469  0.00  0.00     0.159 HD
ATOM     41  H   NHU d   1      -6.825 -25.201   5.033  0.00  0.00     0.159 HD
ATOM     42  O23 NHU d   1      -7.547 -27.877   6.676  0.00  0.00    -0.268 OA
ENDBRANCH  36  38
ENDBRANCH   3  28
TORSDOF 5
