REMARK  7 active torsions:
REMARK  status: ('A' for Active; 'I' for Inactive)
REMARK    1  A    between atoms: C7_1  and  C5_2 
REMARK    2  A    between atoms: C4_6  and  C3_7 
REMARK    3  A    between atoms: C9_15  and  C10_16 
REMARK    4  A    between atoms: C10_16  and  N6_17 
REMARK    5  A    between atoms: N6_17  and  C11_18 
REMARK    6  A    between atoms: C17_27  and  O1_28 
REMARK    7  A    between atoms: O1_28  and  C19_29 
ROOT
ATOM      1  C10 0JJ d   1      21.182  12.297  54.979  0.00  0.00     0.051 C 
ATOM      2  H7  0JJ d   1      22.185  12.373  54.534  0.00  0.00     0.076 H 
ATOM      3  H8  0JJ d   1      20.432  12.207  54.180  0.00  0.00     0.076 H 
ENDROOT
BRANCH   1   4
ATOM      4  C9  0JJ d   1      20.897  13.564  55.796  0.00  0.00     0.169 A 
ATOM      5  N3  0JJ d   1      19.871  13.658  56.732  0.00  0.00    -0.196 N 
ATOM      6  N1  0JJ d   1      18.998  12.878  57.140  0.00  0.00    -0.163 NA
ATOM      7  C8  0JJ d   1      19.988  14.960  57.214  0.00  0.00     0.174 A 
ATOM      8  C3  0JJ d   1      18.104  13.237  58.087  0.00  0.00     0.096 A 
ATOM      9  C1  0JJ d   1      18.134  14.523  58.633  0.00  0.00    -0.048 A 
ATOM     10  C2  0JJ d   1      19.103  15.412  58.188  0.00  0.00    -0.033 A 
ATOM     11  H5  0JJ d   1      17.412  14.822  59.392  0.00  0.00     0.087 H 
ATOM     12  H6  0JJ d   1      19.168  16.424  58.586  0.00  0.00     0.089 H 
ATOM     13  N4  0JJ d   1      21.015  15.523  56.578  0.00  0.00    -0.128 NA
ATOM     14  N5  0JJ d   1      21.537  14.736  55.771  0.00  0.00    -0.131 NA
BRANCH   8  15
ATOM     15  C4  0JJ d   1      17.136  12.323  58.494  0.00  0.00     0.056 A 
ATOM     16  C6  0JJ d   1      16.079  12.493  59.300  0.00  0.00    -0.039 A 
ATOM     17  C5  0JJ d   1      15.331  11.379  59.452  0.00  0.00     0.040 A 
ATOM     18  H4  0JJ d   1      15.845  13.439  59.786  0.00  0.00     0.088 H 
ATOM     19  N2  0JJ d   1      15.741  10.285  58.795  0.00  0.00    -0.216 NA
ATOM     20  S1  0JJ d   1      17.107  10.717  57.959  0.00  0.00     0.013 SA
BRANCH  17  21
ATOM     21  C7  0JJ d   1      14.084  11.352  60.337  0.00  0.00    -0.035 C 
ATOM     22  H1  0JJ d   1      13.927  12.347  60.780  0.00  0.00     0.035 H 
ATOM     23  H2  0JJ d   1      14.219  10.611  61.139  0.00  0.00     0.035 H 
ATOM     24  H3  0JJ d   1      13.209  11.079  59.729  0.00  0.00     0.035 H 
ENDBRANCH  17  21
ENDBRANCH   8  15
ENDBRANCH   1   4
BRANCH   1  25
ATOM     25  N6  0JJ d   1      21.123  11.095  55.835  0.00  0.00    -0.381 N 
ATOM     26  H9  0JJ d   1      20.268  10.521  55.813  0.00  0.00     0.160 HD
BRANCH  25  27
ATOM     27  C11 0JJ d   1      22.126  10.711  56.640  0.00  0.00     0.061 A 
ATOM     28  C12 0JJ d   1      23.365  11.359  56.659  0.00  0.00    -0.038 A 
ATOM     29  C13 0JJ d   1      24.360  10.903  57.527  0.00  0.00     0.005 A 
ATOM     30  H10 0JJ d   1      23.551  12.205  56.008  0.00  0.00     0.089 H 
ATOM     31  N7  0JJ d   1      24.148   9.863  58.326  0.00  0.00    -0.259 NA
ATOM     32  H11 0JJ d   1      25.320  11.406  57.549  0.00  0.00     0.114 H 
ATOM     33  C15 0JJ d   1      22.971   9.210  58.331  0.00  0.00     0.090 A 
ATOM     34  C16 0JJ d   1      22.766   8.123  59.183  0.00  0.00    -0.019 A 
ATOM     35  C14 0JJ d   1      21.936   9.624  57.488  0.00  0.00     0.111 A 
ATOM     36  C17 0JJ d   1      21.529   7.475  59.165  0.00  0.00     0.087 A 
ATOM     37  H12 0JJ d   1      23.554   7.788  59.847  0.00  0.00     0.091 H 
ATOM     38  C18 0JJ d   1      20.542   7.944  58.295  0.00  0.00     0.035 A 
ATOM     39  N8  0JJ d   1      20.758   8.981  57.496  0.00  0.00    -0.254 NA
ATOM     40  H13 0JJ d   1      19.578   7.449  58.272  0.00  0.00     0.119 H 
BRANCH  36  41
ATOM     41  O1  0JJ d   1      21.230   6.392  59.954  0.00  0.00    -0.354 OA
BRANCH  41  42
ATOM     42  C19 0JJ d   1      22.043   6.181  61.119  0.00  0.00     0.010 C 
ATOM     43  H14 0JJ d   1      21.693   5.285  61.653  0.00  0.00     0.066 H 
ATOM     44  H15 0JJ d   1      21.968   7.056  61.782  0.00  0.00     0.066 H 
ATOM     45  H16 0JJ d   1      23.091   6.041  60.815  0.00  0.00     0.066 H 
ENDBRANCH  41  42
ENDBRANCH  36  41
ENDBRANCH  25  27
ENDBRANCH   1  25
TORSDOF 7
