REMARK  3 active torsions:
REMARK  status: ('A' for Active; 'I' for Inactive)
REMARK    1  A    between atoms: C13_10  and  C12_11 
REMARK    2  A    between atoms: C12_11  and  N4_12 
REMARK    3  A    between atoms: N1_21  and  C4_22 
ROOT
ATOM      1  N4  0JK d   1      20.471  13.148  56.155  0.00  0.00    -0.240 N 
ATOM      2  C10 0JK d   1      19.504  13.272  57.058  0.00  0.00     0.149 A 
ATOM      3  C11 0JK d   1      18.554  12.434  57.654  0.00  0.00     0.278 C 
ATOM      4  O1  0JK d   1      18.309  11.324  57.176  0.00  0.00    -0.265 OA
ATOM      5  N3  0JK d   1      21.032  14.237  55.962  0.00  0.00    -0.065 NA
ATOM      6  N2  0JK d   1      20.533  15.132  56.662  0.00  0.00    -0.134 NA
ATOM      7  C9  0JK d   1      19.552  14.610  57.396  0.00  0.00     0.094 A 
ATOM      8  C8  0JK d   1      18.658  15.092  58.348  0.00  0.00    -0.005 C 
ATOM      9  C7  0JK d   1      18.164  14.260  59.354  0.00  0.00     0.008 C 
ATOM     10  N1  0JK d   1      17.842  12.903  58.796  0.00  0.00    -0.312 N 
ATOM     11  H9  0JK d   1      17.784  15.468  57.795  0.00  0.00     0.045 H 
ATOM     12  H10 0JK d   1      19.160  15.930  58.853  0.00  0.00     0.045 H 
ATOM     13  H11 0JK d   1      17.251  14.704  59.777  0.00  0.00     0.065 H 
ATOM     14  H12 0JK d   1      18.922  14.157  60.145  0.00  0.00     0.065 H 
ENDROOT
BRANCH   1  15
ATOM     15  C12 0JK d   1      20.822  11.895  55.471  0.00  0.00     0.043 C 
ATOM     16  H7  0JK d   1      19.900  11.392  55.145  0.00  0.00     0.074 H 
ATOM     17  H8  0JK d   1      21.444  12.125  54.593  0.00  0.00     0.074 H 
BRANCH  15  18
ATOM     18  C13 0JK d   1      21.600  10.962  56.408  0.00  0.00    -0.037 A 
ATOM     19  C18 0JK d   1      21.044   9.735  56.769  0.00  0.00    -0.063 A 
ATOM     20  C17 0JK d   1      21.751   8.879  57.603  0.00  0.00    -0.007 A 
ATOM     21  H1  0JK d   1      20.065   9.451  56.400  0.00  0.00     0.085 H 
ATOM     22  C21 0JK d   1      21.207   7.650  57.967  0.00  0.00    -0.069 A 
ATOM     23  C16 0JK d   1      23.012   9.240  58.083  0.00  0.00     0.066 A 
ATOM     24  C20 0JK d   1      21.934   6.819  58.813  0.00  0.00    -0.065 A 
ATOM     25  H2  0JK d   1      20.234   7.346  57.598  0.00  0.00     0.085 H 
ATOM     26  C19 0JK d   1      23.182   7.230  59.263  0.00  0.00     0.003 A 
ATOM     27  H3  0JK d   1      21.530   5.860  59.118  0.00  0.00     0.085 H 
ATOM     28  N5  0JK d   1      23.680   8.412  58.894  0.00  0.00    -0.260 NA
ATOM     29  H4  0JK d   1      23.756   6.586  59.919  0.00  0.00     0.114 H 
ATOM     30  C15 0JK d   1      23.573  10.467  57.730  0.00  0.00    -0.054 A 
ATOM     31  C14 0JK d   1      22.865  11.323  56.883  0.00  0.00    -0.073 A 
ATOM     32  H5  0JK d   1      24.547  10.753  58.109  0.00  0.00     0.087 H 
ATOM     33  H6  0JK d   1      23.299  12.273  56.592  0.00  0.00     0.084 H 
ENDBRANCH  15  18
ENDBRANCH   1  15
BRANCH  10  34
ATOM     34  C4  0JK d   1      16.842  12.092  59.402  0.00  0.00     0.037 A 
ATOM     35  C3  0JK d   1      17.104  10.764  59.729  0.00  0.00    -0.057 A 
ATOM     36  C2  0JK d   1      16.115   9.972  60.311  0.00  0.00    -0.081 A 
ATOM     37  H13 0JK d   1      18.083  10.343  59.530  0.00  0.00     0.086 H 
ATOM     38  C1  0JK d   1      14.851  10.501  60.586  0.00  0.00    -0.083 A 
ATOM     39  H14 0JK d   1      16.328   8.937  60.552  0.00  0.00     0.083 H 
ATOM     40  C6  0JK d   1      14.582  11.831  60.262  0.00  0.00    -0.081 A 
ATOM     41  H15 0JK d   1      14.088   9.884  61.046  0.00  0.00     0.083 H 
ATOM     42  C5  0JK d   1      15.576  12.619  59.676  0.00  0.00    -0.057 A 
ATOM     43  H16 0JK d   1      13.604  12.252  60.464  0.00  0.00     0.083 H 
ATOM     44  H17 0JK d   1      15.363  13.653  59.430  0.00  0.00     0.086 H 
ENDBRANCH  10  34
TORSDOF 3
