REMARK  10 active torsions:
REMARK  status: ('A' for Active; 'I' for Inactive)
REMARK    1  A    between atoms: CBF_1  and  CBE_2 
REMARK    2  A    between atoms: CBA_6  and  NAZ_7 
REMARK    3  A    between atoms: NAR_16  and  CAP_17 
REMARK    4  A    between atoms: CAP_17  and  CAQ_18 
REMARK    5  A    between atoms: CAP_17  and  CAO_19 
REMARK    6  A    between atoms: CAF_28  and  OAE_29 
REMARK    7  A    between atoms: OAE_29  and  CAD_30 
REMARK    8  A    between atoms: CAD_30  and  CAC_31 
REMARK    9  A    between atoms: CAC_31  and  OAB_32 
REMARK   10  A    between atoms: OAB_32  and  CAA_33 
ROOT
ATOM      1  CAP 0JL d   1      20.992  30.718  55.448  0.00  0.00     0.058 C 
ATOM      2  H7  0JL d   1      21.928  31.255  55.235  0.00  0.00     0.083 H 
ENDROOT
BRANCH   1   3
ATOM      3  NAR 0JL d   1      21.312  29.491  56.210  0.00  0.00    -0.235 N 
ATOM      4  CAS 0JL d   1      22.318  29.394  57.076  0.00  0.00     0.154 A 
ATOM      5  CAT 0JL d   1      23.324  30.249  57.535  0.00  0.00     0.283 A 
ATOM      6  CAW 0JL d   1      22.227  28.096  57.542  0.00  0.00     0.116 A 
ATOM      7  NAZ 0JL d   1      24.253  29.784  58.494  0.00  0.00    -0.280 N 
ATOM      8  OBG 0JL d   1      23.394  31.402  57.116  0.00  0.00    -0.265 OA
ATOM      9  CAY 0JL d   1      24.148  28.453  58.955  0.00  0.00    -0.009 A 
ATOM     10  CAX 0JL d   1      23.139  27.613  58.482  0.00  0.00    -0.035 A 
ATOM     11  H5  0JL d   1      24.862  28.078  59.687  0.00  0.00     0.112 H 
ATOM     12  H6  0JL d   1      23.064  26.588  58.843  0.00  0.00     0.089 H 
ATOM     13  NAV 0JL d   1      21.179  27.569  56.901  0.00  0.00    -0.130 NA
ATOM     14  NAU 0JL d   1      20.684  28.424  56.149  0.00  0.00    -0.064 NA
BRANCH   7  15
ATOM     15  CBA 0JL d   1      25.284  30.625  58.959  0.00  0.00     0.103 A 
ATOM     16  CBB 0JL d   1      26.279  30.270  59.776  0.00  0.00    -0.024 A 
ATOM     17  CBE 0JL d   1      27.136  31.278  60.033  0.00  0.00     0.042 A 
ATOM     18  H4  0JL d   1      26.387  29.269  60.192  0.00  0.00     0.091 H 
ATOM     19  NBD 0JL d   1      26.879  32.456  59.446  0.00  0.00    -0.215 NA
ATOM     20  S   0JL d   1      25.522  32.244  58.551  0.00  0.00     0.030 SA
BRANCH  17  21
ATOM     21  CBF 0JL d   1      28.343  31.088  60.954  0.00  0.00    -0.035 C 
ATOM     22  H1  0JL d   1      28.363  30.052  61.324  0.00  0.00     0.035 H 
ATOM     23  H2  0JL d   1      28.267  31.780  61.806  0.00  0.00     0.035 H 
ATOM     24  H3  0JL d   1      29.267  31.295  60.395  0.00  0.00     0.035 H 
ENDBRANCH  17  21
ENDBRANCH   7  15
ENDBRANCH   1   3
BRANCH   1  25
ATOM     25  CAQ 0JL d   1      20.317  30.401  54.106  0.00  0.00    -0.051 C 
ATOM     26  H8  0JL d   1      20.098  31.339  53.575  0.00  0.00     0.030 H 
ATOM     27  H9  0JL d   1      19.380  29.855  54.287  0.00  0.00     0.030 H 
ATOM     28  H10 0JL d   1      20.990  29.782  53.494  0.00  0.00     0.030 H 
ENDBRANCH   1  25
BRANCH   1  29
ATOM     29  CAO 0JL d   1      20.111  31.602  56.339  0.00  0.00    -0.033 A 
ATOM     30  CAI 0JL d   1      20.662  32.761  56.876  0.00  0.00    -0.063 A 
ATOM     31  CAH 0JL d   1      19.892  33.570  57.699  0.00  0.00    -0.004 A 
ATOM     32  H11 0JL d   1      21.688  33.031  56.653  0.00  0.00     0.085 H 
ATOM     33  CAG 0JL d   1      20.440  34.729  58.230  0.00  0.00    -0.037 A 
ATOM     34  CAL 0JL d   1      18.572  33.230  57.995  0.00  0.00     0.067 A 
ATOM     35  CAF 0JL d   1      19.652  35.520  59.057  0.00  0.00     0.087 A 
ATOM     36  H12 0JL d   1      21.462  35.011  58.004  0.00  0.00     0.089 H 
ATOM     37  CAJ 0JL d   1      18.336  35.136  59.314  0.00  0.00     0.035 A 
ATOM     38  NAK 0JL d   1      17.835  34.022  58.792  0.00  0.00    -0.258 NA
ATOM     39  H15 0JL d   1      17.713  35.756  59.949  0.00  0.00     0.119 H 
ATOM     40  CAM 0JL d   1      18.019  32.068  57.462  0.00  0.00    -0.054 A 
ATOM     41  CAN 0JL d   1      18.792  31.251  56.638  0.00  0.00    -0.073 A 
ATOM     42  H14 0JL d   1      16.993  31.800  57.687  0.00  0.00     0.087 H 
ATOM     43  H13 0JL d   1      18.369  30.341  56.228  0.00  0.00     0.084 H 
BRANCH  35  44
ATOM     44  OAE 0JL d   1      20.175  36.661  59.587  0.00  0.00    -0.348 OA
BRANCH  44  45
ATOM     45  CAD 0JL d   1      20.447  36.499  60.998  0.00  0.00     0.046 C 
ATOM     46  H16 0JL d   1      21.501  36.216  61.140  0.00  0.00     0.078 H 
ATOM     47  H17 0JL d   1      19.798  35.712  61.410  0.00  0.00     0.078 H 
BRANCH  45  48
ATOM     48  CAC 0JL d   1      20.173  37.808  61.711  0.00  0.00     0.039 C 
ATOM     49  H18 0JL d   1      19.803  37.606  62.727  0.00  0.00     0.077 H 
ATOM     50  H19 0JL d   1      19.418  38.382  61.154  0.00  0.00     0.077 H 
BRANCH  48  51
ATOM     51  OAB 0JL d   1      21.392  38.556  61.782  0.00  0.00    -0.394 OA
BRANCH  51  52
ATOM     52  CAA 0JL d   1      21.109  39.961  61.662  0.00  0.00     0.004 C 
ATOM     53  H20 0JL d   1      22.049  40.530  61.717  0.00  0.00     0.066 H 
ATOM     54  H21 0JL d   1      20.443  40.272  62.480  0.00  0.00     0.066 H 
ATOM     55  H22 0JL d   1      20.619  40.155  60.697  0.00  0.00     0.066 H 
ENDBRANCH  51  52
ENDBRANCH  48  51
ENDBRANCH  45  48
ENDBRANCH  44  45
ENDBRANCH  35  44
ENDBRANCH   1  29
TORSDOF 10
