REMARK  9 active torsions:
REMARK  status: ('A' for Active; 'I' for Inactive)
REMARK    1  A    between atoms: P2_2  and  C13_5 
REMARK    2  A    between atoms: C13_5  and  P1_6 
REMARK    3  A    between atoms: C13_5  and  N1_10 
REMARK    4  A    between atoms: N1_10  and  C12_11 
REMARK    5  A    between atoms: C10_16  and  C9_17 
REMARK    6  A    between atoms: C4_22  and  O1_23 
REMARK    7  A    between atoms: O1_23  and  C2_24 
REMARK    8  A    between atoms: C2_24  and  C1_25 
REMARK    9  A    between atoms: C2_24  and  C3_26 
ROOT
ATOM      1  C12 YS4 d   1      14.894  31.397  -7.564  0.00  0.00     0.125 A 
ATOM      2  C11 YS4 d   1      15.694  30.340  -7.072  0.00  0.00    -0.028 A 
ATOM      3  N2  YS4 d   1      13.900  31.147  -8.495  0.00  0.00    -0.244 NA
ATOM      4  C14 YS4 d   1      13.639  29.868  -8.893  0.00  0.00     0.005 A 
ATOM      5  C15 YS4 d   1      14.389  28.836  -8.360  0.00  0.00    -0.055 A 
ATOM      6  C10 YS4 d   1      15.433  29.041  -7.461  0.00  0.00    -0.021 A 
ATOM      7  H3  YS4 d   1      16.511  30.549  -6.391  0.00  0.00     0.090 H 
ATOM      8  H4  YS4 d   1      12.857  29.665  -9.615  0.00  0.00     0.114 H 
ATOM      9  H5  YS4 d   1      14.154  27.820  -8.655  0.00  0.00     0.087 H 
ENDROOT
BRANCH   6  10
ATOM     10  C9  YS4 d   1      16.202  27.897  -6.968  0.00  0.00    -0.026 A 
ATOM     11  C6  YS4 d   1      16.198  26.736  -7.619  0.00  0.00    -0.070 A 
ATOM     12  C5  YS4 d   1      16.922  25.647  -7.095  0.00  0.00    -0.050 A 
ATOM     13  H6  YS4 d   1      15.643  26.629  -8.544  0.00  0.00     0.085 H 
ATOM     14  C4  YS4 d   1      17.630  25.704  -5.901  0.00  0.00     0.069 A 
ATOM     15  H7  YS4 d   1      16.927  24.717  -7.652  0.00  0.00     0.087 H 
ATOM     16  C7  YS4 d   1      17.700  26.920  -5.245  0.00  0.00    -0.050 A 
ATOM     17  C8  YS4 d   1      16.960  28.009  -5.798  0.00  0.00    -0.070 A 
ATOM     18  H9  YS4 d   1      18.294  27.041  -4.346  0.00  0.00     0.087 H 
ATOM     19  H8  YS4 d   1      16.987  28.965  -5.288  0.00  0.00     0.085 H 
BRANCH  14  20
ATOM     20  O1  YS4 d   1      18.285  24.519  -5.498  0.00  0.00    -0.347 OA
BRANCH  20  21
ATOM     21  C2  YS4 d   1      19.173  24.620  -4.483  0.00  0.00     0.038 C 
ATOM     22  H10 YS4 d   1      18.742  25.064  -3.573  0.00  0.00     0.082 H 
BRANCH  21  23
ATOM     23  C1  YS4 d   1      20.407  25.341  -4.951  0.00  0.00    -0.052 C 
ATOM     24  H11 YS4 d   1      21.123  25.419  -4.120  0.00  0.00     0.030 H 
ATOM     25  H12 YS4 d   1      20.134  26.349  -5.295  0.00  0.00     0.030 H 
ATOM     26  H13 YS4 d   1      20.866  24.782  -5.780  0.00  0.00     0.030 H 
ENDBRANCH  21  23
BRANCH  21  27
ATOM     27  C3  YS4 d   1      19.627  23.153  -4.323  0.00  0.00    -0.052 C 
ATOM     28  H14 YS4 d   1      20.368  23.085  -3.513  0.00  0.00     0.030 H 
ATOM     29  H15 YS4 d   1      20.079  22.805  -5.263  0.00  0.00     0.030 H 
ATOM     30  H16 YS4 d   1      18.758  22.525  -4.079  0.00  0.00     0.030 H 
ENDBRANCH  21  27
ENDBRANCH  20  21
ENDBRANCH  14  20
ENDBRANCH   6  10
BRANCH   1  31
ATOM     31  N1  YS4 d   1      15.178  32.683  -7.253  0.00  0.00    -0.347 N 
ATOM     32  H2  YS4 d   1      15.594  32.872  -6.330  0.00  0.00     0.162 HD
BRANCH  31  33
ATOM     33  C13 YS4 d   1      14.931  33.842  -8.151  0.00  0.00     0.228 C 
ATOM     34  H1  YS4 d   1      13.922  33.780  -8.585  0.00  0.00     0.117 H 
BRANCH  33  35
ATOM     35  P2  YS4 d   1      15.058  35.328  -7.083  0.00  0.00     0.297 P 
ATOM     36  O5  YS4 d   1      14.845  36.587  -7.940  0.00  0.00    -0.638 OA
ATOM     37  O6  YS4 d   1      16.440  35.400  -6.424  0.00  0.00    -0.638 OA
ATOM     38  O7  YS4 d   1      14.078  35.150  -5.918  0.00  0.00    -0.638 OA
ENDBRANCH  33  35
BRANCH  33  39
ATOM     39  P1  YS4 d   1      16.154  33.855  -9.497  0.00  0.00     0.297 P 
ATOM     40  O3  YS4 d   1      17.557  33.708  -8.773  0.00  0.00    -0.638 OA
ATOM     41  O2  YS4 d   1      15.972  32.580 -10.342  0.00  0.00    -0.638 OA
ATOM     42  O4  YS4 d   1      16.061  35.073 -10.399  0.00  0.00    -0.638 OA
ENDBRANCH  33  39
ENDBRANCH  31  33
ENDBRANCH   1  31
TORSDOF 9
