REMARK  17 active torsions:
REMARK  status: ('A' for Active; 'I' for Inactive)
REMARK    1  A    between atoms: O9_27  and  C1_1 
REMARK    2  A    between atoms: C2_2  and  O6_24 
REMARK    3  A    between atoms: C3_3  and  O7_25 
REMARK    4  A    between atoms: C4_4  and  O8_26 
REMARK    5  A    between atoms: C5_5  and  C6_6 
REMARK    6  A    between atoms: C6_6  and  N1_19 
REMARK    7  A    between atoms: C7_7  and  N3_21 
REMARK    8  A    between atoms: O11_29  and  C8_8 
REMARK    9  A    between atoms: C9_9  and  O10_28 
REMARK   10  A    between atoms: C10_10  and  O9_27 
REMARK   11  A    between atoms: C11_11  and  N2_20 
REMARK   12  A    between atoms: C13_13  and  O11_29 
REMARK   13  A    between atoms: C14_14  and  O13_31 
REMARK   14  A    between atoms: C15_15  and  N4_22 
REMARK   15  A    between atoms: C16_16  and  O14_32 
REMARK   16  A    between atoms: C17_17  and  C18_18 
REMARK   17  A    between atoms: C18_18  and  O15_33 
ROOT
ATOM      1  C7  KAN d   1       2.548  64.537  39.825  0.00  0.00     0.129 C 
ATOM      2  C8  KAN d   1       3.544  63.399  39.577  0.00  0.00     0.096 C 
ATOM      3  C9  KAN d   1       2.947  62.122  40.218  0.00  0.00     0.089 C 
ATOM      4  C10 KAN d   1       2.635  62.225  41.732  0.00  0.00     0.096 C 
ATOM      5  C11 KAN d   1       1.664  63.387  41.929  0.00  0.00     0.129 C 
ATOM      6  C12 KAN d   1       2.261  64.650  41.321  0.00  0.00    -0.007 C 
ATOM      7  H   KAN d   1       1.618  64.326  39.297  0.00  0.00     0.088 H 
ATOM      8  H   KAN d   1       4.513  63.579  40.042  0.00  0.00     0.090 H 
ATOM      9  H   KAN d   1       1.993  61.936  39.724  0.00  0.00     0.091 H 
ATOM     10  H   KAN d   1       3.586  62.377  42.243  0.00  0.00     0.090 H 
ATOM     11  H   KAN d   1       0.717  63.156  41.441  0.00  0.00     0.088 H 
ATOM     12  H   KAN d   1       1.533  65.450  41.453  0.00  0.00     0.039 H 
ATOM     13  H   KAN d   1       3.212  64.834  41.822  0.00  0.00     0.039 H 
ENDROOT
BRANCH   2  14
ATOM     14  O11 KAN d   1       3.836  63.290  38.125  0.00  0.00    -0.349 OA
BRANCH  14  15
ATOM     15  C13 KAN d   1       4.932  62.454  37.641  0.00  0.00     0.159 C 
ATOM     16  C14 KAN d   1       5.075  62.722  36.135  0.00  0.00     0.112 C 
ATOM     17  C15 KAN d   1       3.841  62.284  35.370  0.00  0.00     0.155 C 
ATOM     18  H   KAN d   1       5.892  62.134  35.716  0.00  0.00     0.093 H 
ATOM     19  C16 KAN d   1       3.664  60.800  35.623  0.00  0.00     0.092 C 
ATOM     20  H   KAN d   1       2.964  62.843  35.697  0.00  0.00     0.092 H 
ATOM     21  C17 KAN d   1       3.492  60.548  37.103  0.00  0.00     0.088 C 
ATOM     22  H   KAN d   1       4.550  60.270  35.272  0.00  0.00     0.090 H 
ATOM     23  O12 KAN d   1       4.672  61.029  37.810  0.00  0.00    -0.349 OA
ATOM     24  H   KAN d   1       2.596  61.058  37.459  0.00  0.00     0.090 H 
ATOM     25  H   KAN d   1       5.827  62.701  38.212  0.00  0.00     0.133 H 
BRANCH  16  26
ATOM     26  O13 KAN d   1       5.356  64.115  35.975  0.00  0.00    -0.388 OA
ATOM     27  H   KAN d   1       6.143  64.341  36.476  0.00  0.00     0.210 HD
ENDBRANCH  16  26
BRANCH  17  28
ATOM     28  N4  KAN d   1       4.027  62.527  33.936  0.00  0.00    -0.070 N 
ATOM     29  H   KAN d   1       3.192  62.229  33.431  0.00  0.00     0.274 HD
ATOM     30  H   KAN d   1       4.184  63.523  33.779  0.00  0.00     0.274 HD
ATOM     31  H   KAN d   1       4.833  61.998  33.605  0.00  0.00     0.274 HD
ENDBRANCH  17  28
BRANCH  19  32
ATOM     32  O14 KAN d   1       2.517  60.321  34.914  0.00  0.00    -0.391 OA
ATOM     33  H   KAN d   1       2.632  60.484  33.975  0.00  0.00     0.210 HD
ENDBRANCH  19  32
BRANCH  21  34
ATOM     34  C18 KAN d   1       3.395  59.043  37.336  0.00  0.00     0.043 C 
ATOM     35  H   KAN d   1       2.523  58.646  36.817  0.00  0.00     0.078 H 
ATOM     36  H   KAN d   1       3.295  58.842  38.403  0.00  0.00     0.078 H 
BRANCH  34  37
ATOM     37  O15 KAN d   1       4.581  58.417  36.836  0.00  0.00    -0.398 OA
ATOM     38  H   KAN d   1       5.346  58.768  37.298  0.00  0.00     0.209 HD
ENDBRANCH  34  37
ENDBRANCH  21  34
ENDBRANCH  14  15
ENDBRANCH   2  14
BRANCH   1  39
ATOM     39  N3  KAN d   1       3.108  65.800  39.328  0.00  0.00    -0.072 N 
ATOM     40  H   KAN d   1       2.442  66.555  39.495  0.00  0.00     0.274 HD
ATOM     41  H   KAN d   1       3.980  66.000  39.818  0.00  0.00     0.274 HD
ATOM     42  H   KAN d   1       3.289  65.720  38.327  0.00  0.00     0.274 HD
ENDBRANCH   1  39
BRANCH   3  43
ATOM     43  O10 KAN d   1       3.920  61.093  40.055  0.00  0.00    -0.390 OA
ATOM     44  H   KAN d   1       4.136  61.003  39.124  0.00  0.00     0.210 HD
ENDBRANCH   3  43
BRANCH   4  45
ATOM     45  O9  KAN d   1       2.057  61.003  42.330  0.00  0.00    -0.349 OA
BRANCH  45  46
ATOM     46  C1  KAN d   1       2.633  59.675  42.215  0.00  0.00     0.159 C 
ATOM     47  C2  KAN d   1       1.800  58.724  43.075  0.00  0.00     0.110 C 
ATOM     48  C3  KAN d   1       1.927  59.140  44.537  0.00  0.00     0.092 C 
ATOM     49  H   KAN d   1       2.166  57.701  42.988  0.00  0.00     0.094 H 
ATOM     50  C4  KAN d   1       3.407  59.103  44.904  0.00  0.00     0.089 C 
ATOM     51  H   KAN d   1       1.526  60.142  44.687  0.00  0.00     0.091 H 
ATOM     52  C5  KAN d   1       4.187  60.060  44.013  0.00  0.00     0.091 C 
ATOM     53  H   KAN d   1       3.787  58.092  44.757  0.00  0.00     0.091 H 
ATOM     54  O5  KAN d   1       4.015  59.658  42.639  0.00  0.00    -0.349 OA
ATOM     55  H   KAN d   1       3.811  61.066  44.199  0.00  0.00     0.090 H 
ATOM     56  H   KAN d   1       2.617  59.361  41.171  0.00  0.00     0.133 H 
BRANCH  47  57
ATOM     57  O6  KAN d   1       0.443  58.721  42.616  0.00  0.00    -0.388 OA
ATOM     58  H   KAN d   1       0.075  59.603  42.704  0.00  0.00     0.210 HD
ENDBRANCH  47  57
BRANCH  48  59
ATOM     59  O7  KAN d   1       1.190  58.235  45.365  0.00  0.00    -0.390 OA
ATOM     60  H   KAN d   1       1.293  58.489  46.285  0.00  0.00     0.210 HD
ENDBRANCH  48  59
BRANCH  50  61
ATOM     61  O8  KAN d   1       3.572  59.474  46.274  0.00  0.00    -0.390 OA
ATOM     62  H   KAN d   1       3.078  58.867  46.830  0.00  0.00     0.210 HD
ENDBRANCH  50  61
BRANCH  52  63
ATOM     63  C6  KAN d   1       5.685  60.021  44.312  0.00  0.00     0.106 C 
ATOM     64  H   KAN d   1       6.061  59.011  44.147  0.00  0.00     0.079 H 
ATOM     65  H   KAN d   1       5.855  60.309  45.349  0.00  0.00     0.079 H 
BRANCH  63  66
ATOM     66  N1  KAN d   1       6.388  60.955  43.424  0.00  0.00    -0.077 N 
ATOM     67  H   KAN d   1       7.388  60.927  43.626  0.00  0.00     0.274 HD
ATOM     68  H   KAN d   1       6.228  60.685  42.453  0.00  0.00     0.274 HD
ATOM     69  H   KAN d   1       6.035  61.900  43.578  0.00  0.00     0.274 HD
ENDBRANCH  63  66
ENDBRANCH  52  63
ENDBRANCH  45  46
ENDBRANCH   4  45
BRANCH   5  70
ATOM     70  N2  KAN d   1       1.433  63.599  43.365  0.00  0.00    -0.072 N 
ATOM     71  H   KAN d   1       0.784  64.376  43.493  0.00  0.00     0.274 HD
ATOM     72  H   KAN d   1       1.036  62.752  43.773  0.00  0.00     0.274 HD
ATOM     73  H   KAN d   1       2.319  63.816  43.822  0.00  0.00     0.274 HD
ENDBRANCH   5  70
TORSDOF 17
