REMARK  8 active torsions:
REMARK  status: ('A' for Active; 'I' for Inactive)
REMARK    1  A    between atoms: C7_7  and  C1_1 
REMARK    2  A    between atoms: C4_4  and  N24_23 
REMARK    3  A    between atoms: C13_26  and  C11_10 
REMARK    4  A    between atoms: C12_11  and  N23_25 
REMARK    5  A    between atoms: C16_13  and  C17_14 
REMARK    6  A    between atoms: N15_27  and  C16_13 
REMARK    7  A    between atoms: S25_22  and  C27_20 
REMARK    8  A    between atoms: N24_23  and  S25_22 
REMARK       I    between atoms: C13_26  and  N15_27 
ROOT
ATOM      1  C7  0K0 d   1       2.080  -0.849  14.863  0.00  0.00     0.085 A 
ATOM      2  C8  0K0 d   1       2.755  -1.636  15.781  0.00  0.00     0.033 A 
ATOM      3  N10 0K0 d   1       4.077  -1.383  16.035  0.00  0.00    -0.239 NA
ATOM      4  C11 0K0 d   1       4.073   0.412  14.436  0.00  0.00     0.170 A 
ATOM      5  C12 0K0 d   1       4.741  -0.355  15.371  0.00  0.00     0.155 A 
ATOM      6  N9  0K0 d   1       2.742   0.153  14.204  0.00  0.00    -0.237 NA
ATOM      7  H   0K0 d   1       2.240  -2.447  16.296  0.00  0.00     0.118 H 
ENDROOT
BRANCH   4   8
ATOM      8  C13 0K0 d   1       4.645   1.549  13.692  0.00  0.00     0.274 C 
ATOM      9  O14 0K0 d   1       5.762   1.960  13.934  0.00  0.00    -0.266 OA
ATOM     10  N15 0K0 d   1       3.822   2.136  12.766  0.00  0.00    -0.355 N 
ATOM     11  H   0K0 d   1       2.897   1.732  12.621  0.00  0.00     0.162 HD
BRANCH  10  12
ATOM     12  C16 0K0 d   1       4.195   3.313  11.970  0.00  0.00    -0.001 C 
ATOM     13  H   0K0 d   1       5.092   3.791  12.364  0.00  0.00     0.064 H 
ATOM     14  H   0K0 d   1       4.434   3.039  10.943  0.00  0.00     0.064 H 
BRANCH  12  15
ATOM     15  C17 0K0 d   1       2.989   4.253  12.031  0.00  0.00    -0.036 C 
ATOM     16  C18 0K0 d   1       2.827   4.846  13.445  0.00  0.00    -0.038 C 
ATOM     17  C20 0K0 d   1       1.545   5.693  13.498  0.00  0.00     0.082 C 
ATOM     18  H   0K0 d   1       3.688   5.473  13.678  0.00  0.00     0.036 H 
ATOM     19  H   0K0 d   1       2.761   4.038  14.174  0.00  0.00     0.036 H 
ATOM     20  N22 0K0 d   1       1.466   6.654  12.371  0.00  0.00    -0.075 N 
ATOM     21  H   0K0 d   1       1.550   6.260  14.429  0.00  0.00     0.075 H 
ATOM     22  H   0K0 d   1       0.690   5.021  13.433  0.00  0.00     0.075 H 
ATOM     23  C21 0K0 d   1       1.800   6.163  11.019  0.00  0.00     0.082 C 
ATOM     24  H   0K0 d   1       0.487   6.936  12.323  0.00  0.00     0.277 HD
ATOM     25  H   0K0 d   1       2.160   7.372  12.578  0.00  0.00     0.277 HD
ATOM     26  C19 0K0 d   1       3.133   5.405  11.029  0.00  0.00    -0.038 C 
ATOM     27  H   0K0 d   1       1.013   5.486  10.687  0.00  0.00     0.075 H 
ATOM     28  H   0K0 d   1       1.886   7.016  10.346  0.00  0.00     0.075 H 
ATOM     29  H   0K0 d   1       3.366   5.024  10.035  0.00  0.00     0.036 H 
ATOM     30  H   0K0 d   1       3.950   6.066  11.318  0.00  0.00     0.036 H 
ATOM     31  H   0K0 d   1       2.109   3.662  11.777  0.00  0.00     0.042 H 
ENDBRANCH  12  15
ENDBRANCH  10  12
ENDBRANCH   4   8
BRANCH   5  32
ATOM     32  N23 0K0 d   1       6.084  -0.151  15.683  0.00  0.00    -0.382 N 
ATOM     33  H   0K0 d   1       6.543  -0.744  16.375  0.00  0.00     0.157 HD
ATOM     34  H   0K0 d   1       6.608   0.591  15.220  0.00  0.00     0.157 HD
ENDBRANCH   5  32
BRANCH   1  35
ATOM     35  C1  0K0 d   1       0.680  -1.019  14.519  0.00  0.00    -0.004 A 
ATOM     36  C2  0K0 d   1       0.178  -0.204  13.515  0.00  0.00    -0.044 A 
ATOM     37  C4  0K0 d   1      -1.150  -0.316  13.128  0.00  0.00     0.043 A 
ATOM     38  H   0K0 d   1       0.827   0.525  13.030  0.00  0.00     0.088 H 
ATOM     39  C6  0K0 d   1      -1.967  -1.229  13.786  0.00  0.00    -0.057 A 
ATOM     40  C5  0K0 d   1      -1.463  -2.035  14.788  0.00  0.00    -0.080 A 
ATOM     41  H   0K0 d   1      -3.018  -1.310  13.508  0.00  0.00     0.086 H 
ATOM     42  C3  0K0 d   1      -0.141  -1.936  15.164  0.00  0.00    -0.071 A 
ATOM     43  H   0K0 d   1      -2.115  -2.754  15.284  0.00  0.00     0.083 H 
ATOM     44  H   0K0 d   1       0.256  -2.569  15.958  0.00  0.00     0.084 H 
BRANCH  37  45
ATOM     45  N24 0K0 d   1      -1.725   0.508  12.127  0.00  0.00    -0.285 N 
ATOM     46  H   0K0 d   1      -2.665   0.272  11.810  0.00  0.00     0.178 HD
BRANCH  45  47
ATOM     47  S25 0K0 d   1      -1.003   1.810  11.437  0.00  0.00     0.227 S 
ATOM     48  O26 0K0 d   1       0.413   1.600  11.263  0.00  0.00    -0.206 OA
ATOM     49  O28 0K0 d   1      -1.607   2.094  10.151  0.00  0.00    -0.206 OA
BRANCH  47  50
ATOM     50  C27 0K0 d   1      -1.329   3.187  12.551  0.00  0.00     0.033 C 
ATOM     51  H   0K0 d   1      -0.887   2.977  13.525  0.00  0.00     0.051 H 
ATOM     52  H   0K0 d   1      -0.891   4.097  12.140  0.00  0.00     0.051 H 
ATOM     53  H   0K0 d   1      -2.406   3.318  12.660  0.00  0.00     0.051 H 
ENDBRANCH  47  50
ENDBRANCH  45  47
ENDBRANCH  37  45
ENDBRANCH   1  35
TORSDOF 8
