REMARK  7 active torsions:
REMARK  status: ('A' for Active; 'I' for Inactive)
REMARK    1  A    between atoms: C12_11  and  C1_1 
REMARK    2  A    between atoms: C4_4  and  C17_13 
REMARK    3  A    between atoms: C7_7  and  N13_12 
REMARK    4  A    between atoms: C14_23  and  C8_8 
REMARK    5  A    between atoms: N16_24  and  C23_16 
REMARK    6  A    between atoms: C30_19  and  O33_26 
REMARK       I    between atoms: C14_23  and  N16_24 
REMARK    7  A    between atoms: N20_32  and  C22_33 
ROOT
ATOM      1  C7  0K1 d   1       4.831  -0.272  15.380  0.00  0.00     0.155 A 
ATOM      2  C8  0K1 d   1       4.120   0.507  14.482  0.00  0.00     0.170 A 
ATOM      3  N10 0K1 d   1       2.794   0.192  14.217  0.00  0.00    -0.237 NA
ATOM      4  C11 0K1 d   1       2.895  -1.672  15.689  0.00  0.00     0.033 A 
ATOM      5  C12 0K1 d   1       2.156  -0.899  14.796  0.00  0.00     0.085 A 
ATOM      6  N9  0K1 d   1       4.215  -1.356  15.979  0.00  0.00    -0.239 NA
ATOM      7  H5  0K1 d   1       2.433  -2.531  16.163  0.00  0.00     0.118 H 
ENDROOT
BRANCH   2   8
ATOM      8  C14 0K1 d   1       4.717   1.703  13.830  0.00  0.00     0.274 C 
ATOM      9  O15 0K1 d   1       5.846   2.055  14.055  0.00  0.00    -0.266 OA
ATOM     10  N16 0K1 d   1       3.908   2.427  12.979  0.00  0.00    -0.350 N 
ATOM     11  H16 0K1 d   1       2.988   2.048  12.880  0.00  0.00     0.163 HD
BRANCH  10  12
ATOM     12  C23 0K1 d   1       4.135   3.659  12.181  0.00  0.00     0.019 C 
ATOM     13  C24 0K1 d   1       3.687   4.871  13.020  0.00  0.00    -0.031 C 
ATOM     14  C25 0K1 d   1       2.186   4.765  13.335  0.00  0.00    -0.031 C 
ATOM     15  C26 0K1 d   1       3.923   6.178  12.242  0.00  0.00    -0.056 C 
ATOM     16  H11 0K1 d   1       4.261   4.893  13.958  0.00  0.00     0.043 H 
ATOM     17  C30 0K1 d   1       1.377   4.741  12.027  0.00  0.00     0.059 C 
ATOM     18  H22 0K1 d   1       1.878   5.631  13.938  0.00  0.00     0.038 H 
ATOM     19  H23 0K1 d   1       1.996   3.840  13.898  0.00  0.00     0.038 H 
ATOM     20  C32 0K1 d   1       1.636   6.057  11.263  0.00  0.00    -0.033 C 
ATOM     21  C28 0K1 d   1       1.817   3.583  11.106  0.00  0.00    -0.031 C 
ATOM     22  C31 0K1 d   1       3.142   6.169  10.929  0.00  0.00    -0.051 C 
ATOM     23  H14 0K1 d   1       1.334   6.910  11.889  0.00  0.00     0.037 H 
ATOM     24  H15 0K1 d   1       1.052   6.061  10.331  0.00  0.00     0.037 H 
ATOM     25  C29 0K1 d   1       3.613   4.969  10.087  0.00  0.00    -0.056 C 
ATOM     26  H13 0K1 d   1       3.327   7.101  10.374  0.00  0.00     0.040 H 
ATOM     27  C27 0K1 d   1       3.329   3.656  10.848  0.00  0.00    -0.031 C 
ATOM     28  H17 0K1 d   1       3.073   4.960   9.129  0.00  0.00     0.034 H 
ATOM     29  H18 0K1 d   1       4.693   5.056   9.899  0.00  0.00     0.034 H 
ATOM     30  H12 0K1 d   1       3.639   2.794  10.239  0.00  0.00     0.043 H 
ATOM     31  H20 0K1 d   1       1.577   2.624  11.588  0.00  0.00     0.038 H 
ATOM     32  H21 0K1 d   1       1.281   3.657  10.148  0.00  0.00     0.038 H 
ATOM     33  H24 0K1 d   1       4.996   6.280  12.024  0.00  0.00     0.034 H 
ATOM     34  H25 0K1 d   1       3.591   7.029  12.855  0.00  0.00     0.034 H 
ATOM     35  H10 0K1 d   1       5.207   3.743  11.950  0.00  0.00     0.073 H 
BRANCH  17  36
ATOM     36  O33 0K1 d   1      -0.001   4.596  12.352  0.00  0.00    -0.390 OA
ATOM     37  H19 0K1 d   1      -0.274   5.323  12.899  0.00  0.00     0.210 HD
ENDBRANCH  17  36
ENDBRANCH  10  12
ENDBRANCH   2   8
BRANCH   1  38
ATOM     38  N13 0K1 d   1       6.169   0.020  15.684  0.00  0.00    -0.382 N 
ATOM     39  H6  0K1 d   1       6.685  -0.568  16.354  0.00  0.00     0.157 HD
ATOM     40  H7  0K1 d   1       6.635   0.823  15.238  0.00  0.00     0.157 HD
ENDBRANCH   1  38
BRANCH   5  41
ATOM     41  C1  0K1 d   1       0.711  -1.171  14.468  0.00  0.00    -0.005 A 
ATOM     42  C2  0K1 d   1      -0.017  -0.223  13.753  0.00  0.00    -0.060 A 
ATOM     43  C4  0K1 d   1      -1.363  -0.429  13.437  0.00  0.00    -0.022 A 
ATOM     44  H1  0K1 d   1       0.469   0.692  13.435  0.00  0.00     0.086 H 
ATOM     45  C6  0K1 d   1      -1.996  -1.591  13.859  0.00  0.00    -0.072 A 
ATOM     46  C5  0K1 d   1      -1.285  -2.536  14.578  0.00  0.00    -0.081 A 
ATOM     47  H4  0K1 d   1      -3.042  -1.757  13.626  0.00  0.00     0.084 H 
ATOM     48  C3  0K1 d   1       0.050  -2.328  14.885  0.00  0.00    -0.071 A 
ATOM     49  H3  0K1 d   1      -1.776  -3.446  14.903  0.00  0.00     0.083 H 
ATOM     50  H2  0K1 d   1       0.589  -3.074  15.457  0.00  0.00     0.084 H 
BRANCH  43  51
ATOM     51  C17 0K1 d   1      -2.122   0.595  12.683  0.00  0.00     0.010 A 
ATOM     52  C18 0K1 d   1      -1.626   1.660  11.979  0.00  0.00     0.010 A 
ATOM     53  N20 0K1 d   1      -2.672   2.335  11.475  0.00  0.00    -0.285 N 
ATOM     54  H8  0K1 d   1      -0.575   1.913  11.851  0.00  0.00     0.115 H 
ATOM     55  N21 0K1 d   1      -3.758   1.791  11.799  0.00  0.00    -0.185 NA
ATOM     56  C19 0K1 d   1      -3.486   0.713  12.560  0.00  0.00     0.034 A 
ATOM     57  H9  0K1 d   1      -4.224   0.046  13.004  0.00  0.00     0.118 H 
BRANCH  53  58
ATOM     58  C22 0K1 d   1      -2.561   3.542  10.651  0.00  0.00     0.002 C 
ATOM     59  H26 0K1 d   1      -3.567   3.890  10.373  0.00  0.00     0.059 H 
ATOM     60  H27 0K1 d   1      -1.988   3.313   9.741  0.00  0.00     0.059 H 
ATOM     61  H28 0K1 d   1      -2.045   4.329  11.221  0.00  0.00     0.059 H 
ENDBRANCH  53  58
ENDBRANCH  43  51
ENDBRANCH   5  41
TORSDOF 7
