REMARK  28 active torsions:
REMARK  status: ('A' for Active; 'I' for Inactive)
REMARK    1  A    between atoms: C_1  and  CH3_3 
REMARK       I    between atoms: C_1  and  N_4 
REMARK    2  A    between atoms: CA_5  and  C_6 
REMARK       I    between atoms: C_6  and  N_22 
REMARK    3  A    between atoms: CG_9  and  O26_11 
REMARK    4  A    between atoms: O26_11  and  C27_12 
REMARK    5  A    between atoms: C27_12  and  C28_13 
REMARK    6  A    between atoms: C28_13  and  C29_14 
REMARK    7  A    between atoms: C29_14  and  C30_15 
REMARK    8  A    between atoms: C30_15  and  C31_16 
REMARK    9  A    between atoms: N_22  and  CA_23 
REMARK   10  A    between atoms: CA_23  and  C_24 
REMARK   11  A    between atoms: CA_23  and  CB_26 
REMARK       I    between atoms: C_24  and  N_30 
REMARK   12  A    between atoms: CB_26  and  CG_27 
REMARK   13  A    between atoms: CG_27  and  CD1_28 
REMARK   14  A    between atoms: CG_27  and  CD2_29 
REMARK   15  A    between atoms: N_30  and  CA_31 
REMARK   16  A    between atoms: CA_31  and  C_32 
REMARK   17  A    between atoms: CA_31  and  CB_34 
REMARK       I    between atoms: C_32  and  N_40 
REMARK   18  A    between atoms: CB_34  and  CG_35 
REMARK   19  A    between atoms: N_40  and  CA_41 
REMARK   20  A    between atoms: CA_41  and  C_42 
REMARK   21  A    between atoms: CA_41  and  CB_44 
REMARK       I    between atoms: C_42  and  N_46 
REMARK   22  A    between atoms: CB_44  and  OG_45 
REMARK   23  A    between atoms: N_46  and  CA_47 
REMARK   24  A    between atoms: CA_47  and  CB_48 
REMARK   25  A    between atoms: CA_47  and  C_55 
REMARK   26  A    between atoms: CB_48  and  CG2_49 
REMARK   27  A    between atoms: CB_48  and  OG1_50 
REMARK   28  A    between atoms: OG1_50  and  P_51 
REMARK       I    between atoms: C_55  and  N_57 
ROOT
ATOM      1  CA  LEU d   1     -21.639  -4.520  20.930  0.00  0.00     0.089 C 
ATOM      2  H24 LEU d   1     -22.737  -4.558  20.878  0.00  0.00     0.087 H 
ENDROOT
BRANCH   1   3
ATOM      3  N   LEU d   1     -21.160  -4.758  22.268  0.00  0.00    -0.346 N 
ATOM      4  C   0LF d   1     -21.826  -5.639  23.050  0.00  0.00     0.241 C 
ATOM      5  O   0LF d   1     -22.794  -6.213  22.575  0.00  0.00    -0.271 OA
ATOM      6  H23 LEU d   1     -20.351  -4.281  22.612  0.00  0.00     0.163 HD
BRANCH   4   7
ATOM      7  CA  0LF d   1     -21.269  -5.947  24.418  0.00  0.00     0.094 C 
ATOM      8  N   0LF d   1     -22.403  -6.241  25.289  0.00  0.00    -0.337 N 
ATOM      9  C   ACE d   1     -23.462  -5.399  25.421  0.00  0.00     0.216 C 
ATOM     10  CD  0LF d   1     -22.283  -7.584  25.858  0.00  0.00     0.023 C 
ATOM     11  O   ACE d   1     -23.323  -4.281  24.995  0.00  0.00    -0.274 OA
ATOM     12  CG  0LF d   1     -21.407  -8.289  24.845  0.00  0.00     0.056 C 
ATOM     13  H5  0LF d   1     -23.266  -8.070  25.941  0.00  0.00     0.068 H 
ATOM     14  H6  0LF d   1     -21.803  -7.556  26.848  0.00  0.00     0.068 H 
ATOM     15  CB  0LF d   1     -20.384  -7.205  24.426  0.00  0.00    -0.012 C 
ATOM     16  H7  0LF d   1     -21.992  -8.607  23.969  0.00  0.00     0.086 H 
ATOM     17  H8  0LF d   1     -19.567  -7.118  25.157  0.00  0.00     0.040 H 
ATOM     18  H9  0LF d   1     -19.965  -7.410  23.430  0.00  0.00     0.040 H 
ATOM     19  H4  0LF d   1     -20.698  -5.084  24.790  0.00  0.00     0.088 H 
BRANCH   9  20
ATOM     20  CH3 ACE d   1     -24.571  -5.765  26.378  0.00  0.00    -0.003 C 
ATOM     21  H1  ACE d   1     -24.501  -6.834  26.629  0.00  0.00     0.040 H 
ATOM     22  H2  ACE d   1     -25.544  -5.562  25.907  0.00  0.00     0.040 H 
ATOM     23  H3  ACE d   1     -24.476  -5.166  27.296  0.00  0.00     0.040 H 
ENDBRANCH   9  20
BRANCH  12  24
ATOM     24  O26 0LF d   1     -20.845  -9.426  25.453  0.00  0.00    -0.384 OA
BRANCH  24  25
ATOM     25  C27 0LF d   1     -19.939 -10.186  24.678  0.00  0.00     0.020 C 
ATOM     26  H10 0LF d   1     -19.038  -9.587  24.480  0.00  0.00     0.074 H 
ATOM     27  H11 0LF d   1     -20.415 -10.459  23.725  0.00  0.00     0.074 H 
BRANCH  25  28
ATOM     28  C28 0LF d   1     -19.547 -11.451  25.424  0.00  0.00    -0.045 C 
ATOM     29  H12 0LF d   1     -20.433 -12.089  25.560  0.00  0.00     0.036 H 
ATOM     30  H13 0LF d   1     -19.131 -11.186  26.407  0.00  0.00     0.036 H 
BRANCH  28  31
ATOM     31  C29 0LF d   1     -18.484 -12.208  24.598  0.00  0.00    -0.059 C 
ATOM     32  H14 0LF d   1     -17.547 -11.632  24.602  0.00  0.00     0.033 H 
ATOM     33  H15 0LF d   1     -18.842 -12.319  23.564  0.00  0.00     0.033 H 
BRANCH  31  34
ATOM     34  C30 0LF d   1     -18.224 -13.590  25.188  0.00  0.00    -0.041 C 
ATOM     35  H16 0LF d   1     -17.670 -14.201  24.460  0.00  0.00     0.040 H 
ATOM     36  H17 0LF d   1     -19.183 -14.076  25.421  0.00  0.00     0.040 H 
BRANCH  34  37
ATOM     37  C31 0LF d   1     -17.425 -13.453  26.428  0.00  0.00    -0.058 A 
ATOM     38  C32 0LF d   1     -18.022 -13.630  27.681  0.00  0.00    -0.077 A 
ATOM     39  C33 0LF d   1     -17.221 -13.458  28.827  0.00  0.00    -0.082 A 
ATOM     40  H18 0LF d   1     -19.070 -13.892  27.767  0.00  0.00     0.084 H 
ATOM     41  C34 0LF d   1     -15.877 -13.149  28.681  0.00  0.00    -0.083 A 
ATOM     42  H19 0LF d   1     -17.652 -13.566  29.816  0.00  0.00     0.083 H 
ATOM     43  C35 0LF d   1     -15.317 -12.989  27.419  0.00  0.00    -0.082 A 
ATOM     44  H20 0LF d   1     -15.256 -13.031  29.561  0.00  0.00     0.083 H 
ATOM     45  C36 0LF d   1     -16.075 -13.146  26.287  0.00  0.00    -0.077 A 
ATOM     46  H21 0LF d   1     -14.267 -12.737  27.328  0.00  0.00     0.083 H 
ATOM     47  H22 0LF d   1     -15.632 -13.033  25.304  0.00  0.00     0.084 H 
ENDBRANCH  34  37
ENDBRANCH  31  34
ENDBRANCH  28  31
ENDBRANCH  25  28
ENDBRANCH  24  25
ENDBRANCH  12  24
ENDBRANCH   4   7
ENDBRANCH   1   3
BRANCH   1  48
ATOM     48  C   LEU d   1     -21.004  -5.559  20.035  0.00  0.00     0.241 C 
ATOM     49  O   LEU d   1     -20.033  -6.215  20.407  0.00  0.00    -0.271 OA
ATOM     50  N   HIS d   1     -21.622  -5.838  18.866  0.00  0.00    -0.346 N 
ATOM     51  H34 HIS d   1     -22.425  -5.312  18.587  0.00  0.00     0.163 HD
BRANCH  50  52
ATOM     52  CA  HIS d   1     -21.121  -6.897  18.019  0.00  0.00     0.094 C 
ATOM     53  H35 HIS d   1     -20.023  -6.838  18.004  0.00  0.00     0.088 H 
BRANCH  52  54
ATOM     54  C   HIS d   1     -21.634  -6.717  16.607  0.00  0.00     0.241 C 
ATOM     55  O   HIS d   1     -22.467  -5.874  16.286  0.00  0.00    -0.271 OA
ATOM     56  N   SER d   1     -20.998  -7.467  15.696  0.00  0.00    -0.344 N 
ATOM     57  H41 SER d   1     -20.224  -8.027  15.993  0.00  0.00     0.163 HD
BRANCH  56  58
ATOM     58  CA  SER d   1     -21.383  -7.502  14.299  0.00  0.00     0.109 C 
ATOM     59  H42 SER d   1     -21.425  -6.465  13.934  0.00  0.00     0.090 H 
BRANCH  58  60
ATOM     60  C   SER d   1     -22.757  -8.122  14.070  0.00  0.00     0.243 C 
ATOM     61  O   SER d   1     -23.490  -8.503  14.966  0.00  0.00    -0.271 OA
ATOM     62  N   TPO d   1     -23.196  -8.147  12.818  0.00  0.00    -0.344 N 
ATOM     63  H46 TPO d   1     -22.595  -7.882  12.064  0.00  0.00     0.163 HD
BRANCH  62  64
ATOM     64  CA  TPO d   1     -24.548  -8.560  12.561  0.00  0.00     0.114 C 
ATOM     65  H47 TPO d   1     -25.254  -7.944  13.137  0.00  0.00     0.091 H 
BRANCH  64  66
ATOM     66  CB  TPO d   1     -24.740  -8.355  11.046  0.00  0.00     0.076 C 
ATOM     67  H48 TPO d   1     -24.021  -8.973  10.488  0.00  0.00     0.087 H 
BRANCH  66  68
ATOM     68  CG2 TPO d   1     -26.184  -8.730  10.662  0.00  0.00    -0.049 C 
ATOM     69  H49 TPO d   1     -26.325  -8.585   9.581  0.00  0.00     0.031 H 
ATOM     70  H50 TPO d   1     -26.888  -8.089  11.213  0.00  0.00     0.031 H 
ATOM     71  H51 TPO d   1     -26.370  -9.784  10.918  0.00  0.00     0.031 H 
ENDBRANCH  66  68
BRANCH  66  72
ATOM     72  OG1 TPO d   1     -24.566  -7.019  10.741  0.00  0.00    -0.275 OA
BRANCH  72  73
ATOM     73  P   TPO d   1     -23.299  -6.587   9.826  0.00  0.00     0.422 P 
ATOM     74  O1P TPO d   1     -23.445  -7.305   8.419  0.00  0.00    -0.617 OA
ATOM     75  O2P TPO d   1     -23.443  -5.109   9.758  0.00  0.00    -0.617 OA
ATOM     76  O3P TPO d   1     -21.977  -7.016  10.547  0.00  0.00    -0.617 OA
ENDBRANCH  72  73
ENDBRANCH  66  72
ENDBRANCH  64  66
BRANCH  64  77
ATOM     77  C   TPO d   1     -24.767 -10.014  12.881  0.00  0.00     0.240 C 
ATOM     78  O   TPO d   1     -23.983 -10.915  12.587  0.00  0.00    -0.271 OA
ATOM     79  N   NH2 d   1     -25.993 -10.358  13.381  0.00  0.00    -0.368 N 
ATOM     80  H52 NH2 d   1     -26.190 -11.311  13.610  0.00  0.00     0.159 HD
ATOM     81  H53 NH2 d   1     -26.692  -9.656  13.517  0.00  0.00     0.159 HD
ENDBRANCH  64  77
ENDBRANCH  62  64
ENDBRANCH  58  60
BRANCH  58  82
ATOM     82  CB  SER d   1     -20.307  -8.241  13.516  0.00  0.00     0.044 C 
ATOM     83  H43 SER d   1     -19.348  -7.719  13.650  0.00  0.00     0.077 H 
ATOM     84  H44 SER d   1     -20.579  -8.241  12.450  0.00  0.00     0.077 H 
BRANCH  82  85
ATOM     85  OG  SER d   1     -20.164  -9.579  13.951  0.00  0.00    -0.398 OA
ATOM     86  H45 SER d   1     -20.987 -10.039  13.834  0.00  0.00     0.209 HD
ENDBRANCH  82  85
ENDBRANCH  58  82
ENDBRANCH  56  58
ENDBRANCH  52  54
BRANCH  52  87
ATOM     87  CB  HIS d   1     -21.529  -8.299  18.558  0.00  0.00     0.004 C 
ATOM     88  H36 HIS d   1     -21.049  -8.463  19.534  0.00  0.00     0.046 H 
ATOM     89  H37 HIS d   1     -21.190  -9.069  17.849  0.00  0.00     0.046 H 
BRANCH  87  90
ATOM     90  CG  HIS d   1     -23.035  -8.402  18.721  0.00  0.00     0.053 A 
ATOM     91  ND1 HIS d   1     -23.898  -8.442  17.660  0.00  0.00    -0.247 NA
ATOM     92  CE1 HIS d   1     -25.118  -8.544  18.165  0.00  0.00     0.064 A 
ATOM     93  NE2 HIS d   1     -25.049  -8.566  19.513  0.00  0.00    -0.359 N 
ATOM     94  H39 HIS d   1     -26.036  -8.601  17.582  0.00  0.00     0.143 H 
ATOM     95  CD2 HIS d   1     -23.727  -8.468  19.906  0.00  0.00     0.002 A 
ATOM     96  H40 HIS d   1     -25.855  -8.644  20.149  0.00  0.00     0.166 HD
ATOM     97  H38 HIS d   1     -23.327  -8.448  20.919  0.00  0.00     0.114 H 
ENDBRANCH  87  90
ENDBRANCH  52  87
ENDBRANCH  50  52
ENDBRANCH   1  48
BRANCH   1  98
ATOM     98  CB  LEU d   1     -21.102  -3.155  20.503  0.00  0.00    -0.035 C 
ATOM     99  H25 LEU d   1     -21.446  -2.943  19.480  0.00  0.00     0.037 H 
ATOM    100  H26 LEU d   1     -20.003  -3.185  20.521  0.00  0.00     0.037 H 
BRANCH  98 101
ATOM    101  CG  LEU d   1     -21.578  -2.038  21.422  0.00  0.00    -0.059 C 
ATOM    102  H27 LEU d   1     -21.431  -2.334  22.471  0.00  0.00     0.038 H 
BRANCH 101 103
ATOM    103  CD1 LEU d   1     -20.788  -0.777  21.128  0.00  0.00    -0.073 C 
ATOM    104  H28 LEU d   1     -21.129   0.032  21.790  0.00  0.00     0.028 H 
ATOM    105  H29 LEU d   1     -20.944  -0.483  20.079  0.00  0.00     0.028 H 
ATOM    106  H30 LEU d   1     -19.718  -0.966  21.301  0.00  0.00     0.028 H 
ENDBRANCH 101 103
BRANCH 101 107
ATOM    107  CD2 LEU d   1     -23.053  -1.762  21.168  0.00  0.00    -0.073 C 
ATOM    108  H31 LEU d   1     -23.637  -2.670  21.378  0.00  0.00     0.028 H 
ATOM    109  H32 LEU d   1     -23.196  -1.469  20.117  0.00  0.00     0.028 H 
ATOM    110  H33 LEU d   1     -23.392  -0.948  21.825  0.00  0.00     0.028 H 
ENDBRANCH 101 107
ENDBRANCH  98 101
ENDBRANCH   1  98
TORSDOF 28
