REMARK  14 active torsions:
REMARK  status: ('A' for Active; 'I' for Inactive)
REMARK    1  A    between atoms: CA_2  and  C_3 
REMARK       I    between atoms: C_3  and  N_8 
REMARK    2  A    between atoms: N_8  and  CA_9 
REMARK    3  A    between atoms: CA_9  and  C_10 
REMARK       I    between atoms: C_10  and  N_12 
REMARK    4  A    between atoms: CA_13  and  C_14 
REMARK       I    between atoms: C_14  and  N_19 
REMARK    5  A    between atoms: N_19  and  CA_20 
REMARK    6  A    between atoms: CA_20  and  C_21 
REMARK    7  A    between atoms: CA_20  and  CB_23 
REMARK       I    between atoms: C_21  and  N_27 
REMARK    8  A    between atoms: CB_23  and  CG_24 
REMARK    9  A    between atoms: CG_24  and  CD1_25 
REMARK   10  A    between atoms: CG_24  and  CD2_26 
REMARK   11  A    between atoms: CA_28  and  C_29 
REMARK       I    between atoms: C_29  and  N_34 
REMARK   12  A    between atoms: N_34  and  CA_35 
REMARK   13  A    between atoms: CA_35  and  C_36 
REMARK   14  A    between atoms: CA_35  and  CB_38 
ROOT
ATOM      1  CA  LEU d   1      18.276   3.191  19.205  0.00  0.00     0.090 C 
ATOM      2  H21 LEU d   1      18.019   4.247  19.371  0.00  0.00     0.087 H 
ENDROOT
BRANCH   1   3
ATOM      3  N   LEU d   1      17.138   2.526  18.586  0.00  0.00    -0.346 N 
ATOM      4  C   PRO d   1      16.534   3.031  17.515  0.00  0.00     0.241 C 
ATOM      5  O   PRO d   1      16.891   4.073  16.952  0.00  0.00    -0.271 OA
ATOM      6  H20 LEU d   1      16.803   1.669  18.976  0.00  0.00     0.163 HD
BRANCH   4   7
ATOM      7  CA  PRO d   1      15.321   2.263  17.005  0.00  0.00     0.091 C 
ATOM      8  N   PRO d   1      14.271   3.166  16.518  0.00  0.00    -0.337 N 
ATOM      9  C   GLY d   1      13.878   4.185  17.335  0.00  0.00     0.238 C 
ATOM     10  CD  PRO d   1      13.862   2.806  15.149  0.00  0.00    -0.001 C 
ATOM     11  O   GLY d   1      14.389   4.392  18.440  0.00  0.00    -0.272 OA
ATOM     12  CG  PRO d   1      15.098   2.150  14.595  0.00  0.00    -0.048 C 
ATOM     13  H18 PRO d   1      13.593   3.700  14.567  0.00  0.00     0.064 H 
ATOM     14  H19 PRO d   1      13.013   2.107  15.160  0.00  0.00     0.064 H 
ATOM     15  CB  PRO d   1      15.682   1.414  15.768  0.00  0.00    -0.036 C 
ATOM     16  H16 PRO d   1      14.839   1.452  13.786  0.00  0.00     0.035 H 
ATOM     17  H17 PRO d   1      15.804   2.904  14.217  0.00  0.00     0.035 H 
ATOM     18  H14 PRO d   1      15.242   0.409  15.849  0.00  0.00     0.036 H 
ATOM     19  H15 PRO d   1      16.774   1.329  15.665  0.00  0.00     0.036 H 
ATOM     20  H13 PRO d   1      14.935   1.625  17.813  0.00  0.00     0.087 H 
BRANCH   9  21
ATOM     21  CA  GLY d   1      12.764   5.106  16.850  0.00  0.00     0.069 C 
ATOM     22  H11 GLY d   1      13.160   5.747  16.049  0.00  0.00     0.078 H 
ATOM     23  H12 GLY d   1      11.943   4.490  16.455  0.00  0.00     0.078 H 
BRANCH  21  24
ATOM     24  N   GLY d   1      12.234   5.967  17.930  0.00  0.00    -0.351 N 
ATOM     25  C   PRO d   1      12.827   7.118  18.260  0.00  0.00     0.248 C 
ATOM     26  O   PRO d   1      13.847   7.519  17.704  0.00  0.00    -0.271 OA
ATOM     27  H10 GLY d   1      11.413   5.681  18.424  0.00  0.00     0.163 HD
BRANCH  25  28
ATOM     28  CA  PRO d   1      12.228   7.967  19.394  0.00  0.00     0.178 C 
ATOM     29  N   PRO d   1      10.780   7.838  19.621  0.00  0.00    -0.062 N 
ATOM     30  CD  PRO d   1      10.459   7.710  21.052  0.00  0.00     0.083 C 
ATOM     31  H1  PRO d   1      10.446   7.019  19.137  0.00  0.00     0.278 HD
ATOM     32  H2  PRO d   1      10.318   8.656  19.255  0.00  0.00     0.278 HD
ATOM     33  CG  PRO d   1      11.705   7.101  21.616  0.00  0.00    -0.040 C 
ATOM     34  H8  PRO d   1       9.591   7.052  21.206  0.00  0.00     0.075 H 
ATOM     35  H9  PRO d   1      10.259   8.693  21.503  0.00  0.00     0.075 H 
ATOM     36  CB  PRO d   1      12.849   7.565  20.745  0.00  0.00    -0.028 C 
ATOM     37  H6  PRO d   1      11.856   7.439  22.652  0.00  0.00     0.035 H 
ATOM     38  H7  PRO d   1      11.633   6.003  21.595  0.00  0.00     0.035 H 
ATOM     39  H4  PRO d   1      13.352   8.428  21.205  0.00  0.00     0.036 H 
ATOM     40  H5  PRO d   1      13.575   6.750  20.603  0.00  0.00     0.036 H 
ATOM     41  H3  PRO d   1      12.457   9.020  19.174  0.00  0.00     0.099 H 
ENDBRANCH  25  28
ENDBRANCH  21  24
ENDBRANCH   9  21
ENDBRANCH   4   7
ENDBRANCH   1   3
BRANCH   1  42
ATOM     42  C   LEU d   1      19.493   3.115  18.283  0.00  0.00     0.243 C 
ATOM     43  O   LEU d   1      19.699   2.105  17.616  0.00  0.00    -0.271 OA
ATOM     44  N   PRO d   1      20.306   4.183  18.251  0.00  0.00    -0.337 N 
ATOM     45  CA  PRO d   1      21.502   4.214  17.387  0.00  0.00     0.091 C 
ATOM     46  CD  PRO d   1      20.102   5.471  18.947  0.00  0.00    -0.001 C 
ATOM     47  CB  PRO d   1      21.840   5.701  17.327  0.00  0.00    -0.036 C 
ATOM     48  H31 PRO d   1      21.249   3.833  16.387  0.00  0.00     0.087 H 
ATOM     49  CG  PRO d   1      21.359   6.237  18.637  0.00  0.00    -0.048 C 
ATOM     50  H32 PRO d   1      21.317   6.187  16.490  0.00  0.00     0.036 H 
ATOM     51  H33 PRO d   1      22.924   5.851  17.218  0.00  0.00     0.036 H 
ATOM     52  H34 PRO d   1      21.144   7.313  18.557  0.00  0.00     0.035 H 
ATOM     53  H35 PRO d   1      22.113   6.072  19.420  0.00  0.00     0.035 H 
ATOM     54  H36 PRO d   1      19.991   5.320  20.031  0.00  0.00     0.064 H 
ATOM     55  H37 PRO d   1      19.216   5.994  18.557  0.00  0.00     0.064 H 
BRANCH  45  56
ATOM     56  C   PRO d   1      22.697   3.411  17.921  0.00  0.00     0.241 C 
ATOM     57  O   PRO d   1      23.703   3.292  17.220  0.00  0.00    -0.271 OA
ATOM     58  N   ALA d   1      22.586   2.870  19.138  0.00  0.00    -0.345 N 
ATOM     59  H38 ALA d   1      21.759   3.049  19.671  0.00  0.00     0.163 HD
BRANCH  58  60
ATOM     60  CA  ALA d   1      23.637   2.020  19.723  0.00  0.00     0.093 C 
ATOM     61  H39 ALA d   1      24.123   1.464  18.907  0.00  0.00     0.089 H 
BRANCH  60  62
ATOM     62  C   ALA d   1      23.039   1.006  20.703  0.00  0.00     0.196 C 
ATOM     63  O   ALA d   1      21.899   1.174  21.150  0.00  0.00    -0.646 OA
ATOM     64  OXT ALA d   1      23.671  -0.005  21.053  0.00  0.00    -0.646 OA
ENDBRANCH  60  62
BRANCH  60  65
ATOM     65  CB  ALA d   1      24.707   2.884  20.424  0.00  0.00    -0.048 C 
ATOM     66  H40 ALA d   1      25.482   2.232  20.854  0.00  0.00     0.030 H 
ATOM     67  H41 ALA d   1      24.236   3.471  21.226  0.00  0.00     0.030 H 
ATOM     68  H42 ALA d   1      25.166   3.565  19.692  0.00  0.00     0.030 H 
ENDBRANCH  60  65
ENDBRANCH  58  60
ENDBRANCH  45  56
ENDBRANCH   1  42
BRANCH   1  69
ATOM     69  CB  LEU d   1      18.617   2.548  20.552  0.00  0.00    -0.035 C 
ATOM     70  H22 LEU d   1      19.498   3.072  20.951  0.00  0.00     0.037 H 
ATOM     71  H23 LEU d   1      18.873   1.496  20.357  0.00  0.00     0.037 H 
BRANCH  69  72
ATOM     72  CG  LEU d   1      17.545   2.561  21.645  0.00  0.00    -0.059 C 
ATOM     73  H24 LEU d   1      16.620   2.131  21.233  0.00  0.00     0.038 H 
BRANCH  72  74
ATOM     74  CD1 LEU d   1      18.007   1.685  22.807  0.00  0.00    -0.073 C 
ATOM     75  H25 LEU d   1      17.241   1.690  23.597  0.00  0.00     0.028 H 
ATOM     76  H26 LEU d   1      18.952   2.079  23.210  0.00  0.00     0.028 H 
ATOM     77  H27 LEU d   1      18.161   0.655  22.451  0.00  0.00     0.028 H 
ENDBRANCH  72  74
BRANCH  72  78
ATOM     78  CD2 LEU d   1      17.242   3.992  22.094  0.00  0.00    -0.073 C 
ATOM     79  H28 LEU d   1      16.914   4.586  21.228  0.00  0.00     0.028 H 
ATOM     80  H29 LEU d   1      18.149   4.441  22.524  0.00  0.00     0.028 H 
ATOM     81  H30 LEU d   1      16.445   3.978  22.852  0.00  0.00     0.028 H 
ENDBRANCH  72  78
ENDBRANCH  69  72
ENDBRANCH   1  69
TORSDOF 14
