REMARK  8 active torsions:
REMARK  status: ('A' for Active; 'I' for Inactive)
REMARK    1  A    between atoms: CAA_1  and  CBE_2 
REMARK    2  A    between atoms: CBE_2  and  CAB_3 
REMARK    3  A    between atoms: CBE_2  and  NBF_4 
REMARK    4  A    between atoms: C6_10  and  NAC_11 
REMARK    5  A    between atoms: CAZ_13  and  CAY_14 
REMARK    6  A    between atoms: CAW_23  and  OAT_24 
REMARK    7  A    between atoms: OAT_24  and  CAP_25 
REMARK    8  A    between atoms: CAP_25  and  CAV_26 
ROOT
ATOM      1  CAY I76 d   1      -6.270 -36.615   7.287  0.00  0.00    -0.004 A 
ATOM      2  CAO I76 d   1      -6.188 -36.377   8.664  0.00  0.00    -0.060 A 
ATOM      3  CAI I76 d   1      -5.135 -36.438   6.505  0.00  0.00    -0.070 A 
ATOM      4  CAK I76 d   1      -3.938 -35.983   7.041  0.00  0.00    -0.071 A 
ATOM      5  CBA I76 d   1      -3.854 -35.723   8.395  0.00  0.00    -0.023 A 
ATOM      6  CAN I76 d   1      -2.640 -35.268   8.908  0.00  0.00    -0.040 A 
ATOM      7  CBB I76 d   1      -4.978 -35.917   9.214  0.00  0.00    -0.025 A 
ATOM      8  CAJ I76 d   1      -4.870 -35.650  10.578  0.00  0.00    -0.070 A 
ATOM      9  CAH I76 d   1      -3.651 -35.191  11.096  0.00  0.00    -0.050 A 
ATOM     10  CAW I76 d   1      -2.533 -35.007  10.272  0.00  0.00     0.070 A 
ATOM     11  H   I76 d   1      -7.054 -36.547   9.304  0.00  0.00     0.086 H 
ATOM     12  H   I76 d   1      -5.186 -36.663   5.440  0.00  0.00     0.084 H 
ATOM     13  H   I76 d   1      -3.071 -35.832   6.398  0.00  0.00     0.084 H 
ATOM     14  H   I76 d   1      -1.785 -35.118   8.249  0.00  0.00     0.089 H 
ATOM     15  H   I76 d   1      -5.726 -35.797  11.236  0.00  0.00     0.085 H 
ATOM     16  H   I76 d   1      -3.571 -34.973  12.161  0.00  0.00     0.087 H 
ENDROOT
BRANCH   1  17
ATOM     17  CAZ I76 d   1      -7.408 -37.116   6.654  0.00  0.00     0.105 A 
ATOM     18  NAS I76 d   1      -7.366 -38.202   5.882  0.00  0.00    -0.169 NA
ATOM     19  NBF I76 d   1      -8.496 -38.433   5.450  0.00  0.00    -0.247 N 
ATOM     20  C4  I76 d   1      -9.414 -37.565   5.863  0.00  0.00     0.164 A 
ATOM     21  N3  I76 d   1     -10.744 -37.463   5.636  0.00  0.00    -0.222 NA
ATOM     22  C5  I76 d   1      -8.741 -36.648   6.675  0.00  0.00     0.088 A 
ATOM     23  C2  I76 d   1     -11.421 -36.469   6.194  0.00  0.00     0.091 A 
ATOM     24  N1  I76 d   1     -10.823 -35.556   6.968  0.00  0.00    -0.224 NA
ATOM     25  H   I76 d   1     -12.494 -36.394   6.017  0.00  0.00     0.146 H 
ATOM     26  C6  I76 d   1      -9.502 -35.602   7.238  0.00  0.00     0.139 A 
BRANCH  19  27
ATOM     27  CBE I76 d   1      -8.821 -39.571   4.581  0.00  0.00     0.029 C 
ATOM     28  H   I76 d   1      -9.897 -39.747   4.576  0.00  0.00     0.074 H 
BRANCH  27  29
ATOM     29  CAA I76 d   1      -8.110 -40.820   5.140  0.00  0.00    -0.056 C 
ATOM     30  H   I76 d   1      -7.033 -40.650   5.150  0.00  0.00     0.030 H 
ATOM     31  H   I76 d   1      -8.458 -41.011   6.155  0.00  0.00     0.030 H 
ATOM     32  H   I76 d   1      -8.338 -41.679   4.509  0.00  0.00     0.030 H 
ENDBRANCH  27  29
BRANCH  27  33
ATOM     33  CAB I76 d   1      -8.436 -39.283   3.119  0.00  0.00    -0.056 C 
ATOM     34  H   I76 d   1      -8.982 -38.408   2.766  0.00  0.00     0.030 H 
ATOM     35  H   I76 d   1      -7.364 -39.093   3.058  0.00  0.00     0.030 H 
ATOM     36  H   I76 d   1      -8.689 -40.145   2.501  0.00  0.00     0.030 H 
ENDBRANCH  27  33
ENDBRANCH  19  27
BRANCH  26  37
ATOM     37  NAC I76 d   1      -8.970 -34.657   8.016  0.00  0.00    -0.383 N 
ATOM     38  H   I76 d   1      -7.972 -34.672   8.226  0.00  0.00     0.157 HD
ATOM     39  H   I76 d   1      -9.561 -33.920   8.400  0.00  0.00     0.157 HD
ENDBRANCH  26  37
ENDBRANCH   1  17
BRANCH  10  40
ATOM     40  OAT I76 d   1      -1.359 -34.521  10.785  0.00  0.00    -0.347 OA
BRANCH  40  41
ATOM     41  CAP I76 d   1      -0.238 -35.396  11.010  0.00  0.00     0.050 C 
ATOM     42  H   I76 d   1       0.389 -35.317  10.122  0.00  0.00     0.082 H 
ATOM     43  H   I76 d   1      -0.660 -36.378  11.223  0.00  0.00     0.082 H 
BRANCH  41  44
ATOM     44  CAV I76 d   1       0.585 -35.088  12.091  0.00  0.00    -0.033 A 
ATOM     45  CAM I76 d   1       0.231 -34.021  12.906  0.00  0.00    -0.054 A 
ATOM     46  CAU I76 d   1       1.017 -33.688  14.001  0.00  0.00     0.034 A 
ATOM     47  H   I76 d   1      -0.666 -33.443  12.685  0.00  0.00     0.087 H 
ATOM     48 CLD  I76 d   1       0.532 -32.362  15.001  0.00  0.00    -0.084 Cl
ATOM     49  CAF I76 d   1       2.169 -34.417  14.289  0.00  0.00    -0.062 A 
ATOM     50  CAE I76 d   1       2.532 -35.485  13.469  0.00  0.00    -0.081 A 
ATOM     51  H   I76 d   1       2.783 -34.154  15.150  0.00  0.00     0.086 H 
ATOM     52  CAG I76 d   1       1.737 -35.824  12.373  0.00  0.00    -0.075 A 
ATOM     53  H   I76 d   1       3.436 -36.055  13.684  0.00  0.00     0.083 H 
ATOM     54  H   I76 d   1       2.016 -36.664  11.737  0.00  0.00     0.084 H 
ENDBRANCH  41  44
ENDBRANCH  40  41
ENDBRANCH  10  40
TORSDOF 8
