REMARK  4 active torsions:
REMARK  status: ('A' for Active; 'I' for Inactive)
REMARK    1  A    between atoms: CAM_3  and  OAB_4 
REMARK    2  A    between atoms: CAP_7  and  CAQ_8 
REMARK    3  A    between atoms: CAN_16  and  OAC_17 
REMARK    4  A    between atoms: CAO_19  and  OAD_20 
ROOT
ATOM      1  CAQ AGI d   1      22.097   8.141  18.579  0.00  0.00     0.090 A 
ATOM      2  OAL AGI d   1      22.305   7.149  19.464  0.00  0.00    -0.309 OA
ATOM      3  CAJ AGI d   1      21.196   9.187  18.809  0.00  0.00    -0.000 A 
ATOM      4  CAR AGI d   1      20.566   9.234  20.044  0.00  0.00     0.190 A 
ATOM      5  OAA AGI d   1      19.805  10.180  20.315  0.00  0.00    -0.287 OA
ATOM      6  CAT AGI d   1      20.862   8.176  21.056  0.00  0.00     0.081 A 
ATOM      7  CAS AGI d   1      21.716   7.153  20.694  0.00  0.00     0.095 A 
ATOM      8  CAK AGI d   1      21.998   6.103  21.573  0.00  0.00    -0.017 A 
ATOM      9  CAN AGI d   1      21.415   6.086  22.833  0.00  0.00     0.071 A 
ATOM     10  CAI AGI d   1      20.555   7.098  23.198  0.00  0.00    -0.018 A 
ATOM     11  CAO AGI d   1      20.279   8.136  22.326  0.00  0.00     0.085 A 
ATOM     12  H6  AGI d   1      20.997   9.937  18.046  0.00  0.00     0.094 H 
ATOM     13  H7  AGI d   1      22.669   5.306  21.272  0.00  0.00     0.092 H 
ATOM     14  H9  AGI d   1      20.090   7.081  24.177  0.00  0.00     0.092 H 
ENDROOT
BRANCH   1  15
ATOM     15  CAP AGI d   1      22.754   7.917  17.285  0.00  0.00    -0.002 A 
ATOM     16  CAG AGI d   1      22.435   8.747  16.225  0.00  0.00    -0.068 A 
ATOM     17  CAE AGI d   1      23.009   8.475  14.989  0.00  0.00    -0.050 A 
ATOM     18  H1  AGI d   1      21.758   9.584  16.355  0.00  0.00     0.085 H 
ATOM     19  CAM AGI d   1      23.830   7.358  14.857  0.00  0.00     0.065 A 
ATOM     20  H2  AGI d   1      22.820   9.123  14.140  0.00  0.00     0.087 H 
ATOM     21  CAF AGI d   1      24.156   6.531  15.942  0.00  0.00    -0.050 A 
ATOM     22  CAH AGI d   1      23.585   6.799  17.176  0.00  0.00    -0.068 A 
ATOM     23  H4  AGI d   1      24.840   5.699  15.818  0.00  0.00     0.087 H 
ATOM     24  H5  AGI d   1      23.777   6.161  18.031  0.00  0.00     0.085 H 
BRANCH  19  25
ATOM     25  OAB AGI d   1      24.354   7.143  13.644  0.00  0.00    -0.361 OA
ATOM     26  H3  AGI d   1      23.653   7.027  13.013  0.00  0.00     0.217 HD
ENDBRANCH  19  25
ENDBRANCH   1  15
BRANCH  11  27
ATOM     27  OAD AGI d   1      19.435   9.087  22.771  0.00  0.00    -0.360 OA
ATOM     28  H10 AGI d   1      19.318   9.745  22.096  0.00  0.00     0.217 HD
ENDBRANCH  11  27
BRANCH   9  29
ATOM     29  OAC AGI d   1      21.679   5.073  23.716  0.00  0.00    -0.361 OA
ATOM     30  H8  AGI d   1      22.610   5.051  23.901  0.00  0.00     0.217 HD
ENDBRANCH   9  29
TORSDOF 4
