REMARK  17 active torsions:
REMARK  status: ('A' for Active; 'I' for Inactive)
REMARK    1  A    between atoms: C21_10  and  C24_11 
REMARK    2  A    between atoms: C24_11  and  C25_12 
REMARK    3  A    between atoms: C25_12  and  C27_13 
REMARK    4  A    between atoms: C25_12  and  C28_14 
REMARK    5  A    between atoms: C25_12  and  C26_15 
REMARK    6  A    between atoms: C6_18  and  N5_19 
REMARK    7  A    between atoms: N5_19  and  C4_20 
REMARK    8  A    between atoms: C4_20  and  C3_21 
REMARK    9  A    between atoms: C3_21  and  O14_22 
REMARK   10  A    between atoms: C3_21  and  C2_23 
REMARK   11  A    between atoms: C2_23  and  N1_24 
REMARK   12  A    between atoms: C2_23  and  C7_31 
REMARK       I    between atoms: N1_24  and  C35_25 
REMARK   13  A    between atoms: C35_25  and  C37_27 
REMARK   14  A    between atoms: C37_27  and  C38_28 
REMARK   15  A    between atoms: C37_27  and  O39_29 
REMARK   16  A    between atoms: O39_29  and  C40_30 
REMARK   17  A    between atoms: C7_31  and  C8_32 
ROOT
ATOM      1  N5  0KN d   1      64.816  48.571   7.512  0.00  0.00    -0.064 N 
ATOM      2  H23 0KN d   1      64.688  49.570   7.470  0.00  0.00     0.278 HD
ATOM      3  H24 0KN d   1      64.659  48.173   6.599  0.00  0.00     0.278 HD
ENDROOT
BRANCH   1   4
ATOM      4  C6  0KN d   1      63.794  48.016   8.436  0.00  0.00     0.134 C 
ATOM      5  C19 0KN d   1      63.748  46.482   8.309  0.00  0.00    -0.005 C 
ATOM      6  C18 0KN d   1      63.078  45.855   9.544  0.00  0.00     0.071 A 
ATOM      7  H7  0KN d   1      63.175  46.211   7.410  0.00  0.00     0.041 H 
ATOM      8  H8  0KN d   1      64.774  46.096   8.220  0.00  0.00     0.041 H 
ATOM      9  C29 0KN d   1      62.946  44.332   9.404  0.00  0.00    -0.035 A 
ATOM     10  C31 0KN d   1      61.539  45.982   9.536  0.00  0.00    -0.035 A 
ATOM     11  O17 0KN d   1      63.712  46.225  10.786  0.00  0.00    -0.323 OA
ATOM     12  C30 0KN d   1      61.421  44.475   9.292  0.00  0.00    -0.060 A 
ATOM     13  H1  0KN d   1      63.426  43.920   8.504  0.00  0.00     0.037 H 
ATOM     14  H2  0KN d   1      63.281  43.769  10.288  0.00  0.00     0.037 H 
ATOM     15  H3  0KN d   1      60.862  43.937  10.072  0.00  0.00     0.033 H 
ATOM     16  H4  0KN d   1      61.017  44.211   8.303  0.00  0.00     0.033 H 
ATOM     17  H5  0KN d   1      61.110  46.318  10.492  0.00  0.00     0.037 H 
ATOM     18  H6  0KN d   1      61.143  46.602   8.719  0.00  0.00     0.037 H 
ATOM     19  C16 0KN d   1      63.957  47.561  10.973  0.00  0.00     0.173 A 
ATOM     20  N23 0KN d   1      64.160  47.984  12.239  0.00  0.00    -0.236 NA
ATOM     21  C15 0KN d   1      64.019  48.471   9.905  0.00  0.00     0.026 A 
ATOM     22  C22 0KN d   1      64.410  49.254  12.530  0.00  0.00     0.011 A 
ATOM     23  C21 0KN d   1      64.472  50.210  11.516  0.00  0.00    -0.039 A 
ATOM     24  H9  0KN d   1      64.567  49.550  13.561  0.00  0.00     0.115 H 
ATOM     25  C20 0KN d   1      64.275  49.812  10.191  0.00  0.00    -0.063 A 
ATOM     26  H21 0KN d   1      64.321  50.541   9.390  0.00  0.00     0.085 H 
ATOM     27  H22 0KN d   1      62.815  48.406   8.121  0.00  0.00     0.092 H 
BRANCH  23  28
ATOM     28  C24 0KN d   1      64.758  51.682  11.859  0.00  0.00    -0.034 C 
ATOM     29  H10 0KN d   1      65.122  52.186  10.952  0.00  0.00     0.041 H 
ATOM     30  H11 0KN d   1      65.538  51.713  12.634  0.00  0.00     0.041 H 
BRANCH  28  31
ATOM     31  C25 0KN d   1      63.528  52.443  12.377  0.00  0.00    -0.047 C 
BRANCH  31  32
ATOM     32  C27 0KN d   1      63.975  53.774  12.978  0.00  0.00    -0.069 C 
ATOM     33  H12 0KN d   1      63.097  54.322  13.350  0.00  0.00     0.028 H 
ATOM     34  H13 0KN d   1      64.481  54.373  12.207  0.00  0.00     0.028 H 
ATOM     35  H14 0KN d   1      64.669  53.586  13.810  0.00  0.00     0.028 H 
ENDBRANCH  31  32
BRANCH  31  36
ATOM     36  C28 0KN d   1      62.777  51.649  13.451  0.00  0.00    -0.069 C 
ATOM     37  H15 0KN d   1      62.448  50.686  13.033  0.00  0.00     0.028 H 
ATOM     38  H16 0KN d   1      61.900  52.222  13.785  0.00  0.00     0.028 H 
ATOM     39  H17 0KN d   1      63.444  51.468  14.307  0.00  0.00     0.028 H 
ENDBRANCH  31  36
BRANCH  31  40
ATOM     40  C26 0KN d   1      62.570  52.739  11.218  0.00  0.00    -0.069 C 
ATOM     41  H18 0KN d   1      63.100  53.309  10.441  0.00  0.00     0.028 H 
ATOM     42  H19 0KN d   1      61.718  53.328  11.588  0.00  0.00     0.028 H 
ATOM     43  H20 0KN d   1      62.205  51.792  10.793  0.00  0.00     0.028 H 
ENDBRANCH  31  40
ENDBRANCH  28  31
ENDBRANCH  23  28
ENDBRANCH   1   4
BRANCH   1  44
ATOM     44  C4  0KN d   1      66.225  48.306   7.890  0.00  0.00     0.108 C 
ATOM     45  H25 0KN d   1      66.495  47.276   7.614  0.00  0.00     0.079 H 
ATOM     46  H26 0KN d   1      66.349  48.440   8.975  0.00  0.00     0.079 H 
BRANCH  44  47
ATOM     47  C3  0KN d   1      67.126  49.291   7.144  0.00  0.00     0.078 C 
ATOM     48  H27 0KN d   1      66.973  49.151   6.064  0.00  0.00     0.088 H 
BRANCH  47  49
ATOM     49  O14 0KN d   1      66.741  50.617   7.505  0.00  0.00    -0.392 OA
ATOM     50  H28 0KN d   1      67.293  51.241   7.049  0.00  0.00     0.210 HD
ENDBRANCH  47  49
BRANCH  47  51
ATOM     51  C2  0KN d   1      68.620  49.103   7.445  0.00  0.00     0.042 C 
ATOM     52  H29 0KN d   1      68.767  49.276   8.521  0.00  0.00     0.077 H 
BRANCH  51  53
ATOM     53  N1  0KN d   1      69.108  47.760   7.105  0.00  0.00    -0.351 N 
ATOM     54  C35 0KN d   1      69.386  46.836   8.023  0.00  0.00     0.246 C 
ATOM     55  O36 0KN d   1      69.166  46.962   9.229  0.00  0.00    -0.271 OA
ATOM     56  H30 0KN d   1      69.237  47.529   6.141  0.00  0.00     0.163 HD
BRANCH  54  57
ATOM     57  C37 0KN d   1      69.927  45.508   7.516  0.00  0.00     0.111 C 
ATOM     58  H31 0KN d   1      69.494  45.286   6.529  0.00  0.00     0.097 H 
BRANCH  57  59
ATOM     59  C38 0KN d   1      71.450  45.593   7.367  0.00  0.00    -0.044 C 
ATOM     60  H32 0KN d   1      71.837  44.631   7.000  0.00  0.00     0.031 H 
ATOM     61  H33 0KN d   1      71.902  45.822   8.344  0.00  0.00     0.031 H 
ATOM     62  H34 0KN d   1      71.704  46.388   6.650  0.00  0.00     0.031 H 
ENDBRANCH  57  59
BRANCH  57  63
ATOM     63  O39 0KN d   1      69.505  44.501   8.445  0.00  0.00    -0.382 OA
BRANCH  63  64
ATOM     64  C40 0KN d   1      68.302  43.877   7.960  0.00  0.00     0.005 C 
ATOM     65  H35 0KN d   1      67.977  43.104   8.672  0.00  0.00     0.066 H 
ATOM     66  H36 0KN d   1      68.498  43.415   6.981  0.00  0.00     0.066 H 
ATOM     67  H37 0KN d   1      67.512  44.635   7.856  0.00  0.00     0.066 H 
ENDBRANCH  63  64
ENDBRANCH  57  63
ENDBRANCH  54  57
ENDBRANCH  51  53
BRANCH  51  68
ATOM     68  C7  0KN d   1      69.512  50.072   6.655  0.00  0.00    -0.020 C 
ATOM     69  H38 0KN d   1      69.184  51.107   6.830  0.00  0.00     0.043 H 
ATOM     70  H39 0KN d   1      69.450  49.844   5.581  0.00  0.00     0.043 H 
BRANCH  68  71
ATOM     71  C8  0KN d   1      70.947  49.895   7.139  0.00  0.00    -0.053 A 
ATOM     72  C9  0KN d   1      71.980  49.549   6.272  0.00  0.00    -0.042 A 
ATOM     73  C10 0KN d   1      73.268  49.403   6.797  0.00  0.00     0.105 A 
ATOM     74  H40 0KN d   1      71.790  49.397   5.216  0.00  0.00     0.088 H 
ATOM     75  O32 0KN d   1      74.452  49.081   6.202  0.00  0.00    -0.323 OA
ATOM     76  C11 0KN d   1      73.514  49.594   8.167  0.00  0.00     0.105 A 
ATOM     77  C33 0KN d   1      75.283  48.635   7.306  0.00  0.00     0.115 C 
ATOM     78  O34 0KN d   1      74.830  49.393   8.436  0.00  0.00    -0.323 OA
ATOM     79  H41 0KN d   1      76.344  48.842   7.101  0.00  0.00     0.118 H 
ATOM     80  H42 0KN d   1      75.147  47.558   7.483  0.00  0.00     0.118 H 
ATOM     81  C12 0KN d   1      72.480  49.932   9.015  0.00  0.00    -0.047 A 
ATOM     82  C13 0KN d   1      71.203  50.081   8.493  0.00  0.00    -0.074 A 
ATOM     83  H43 0KN d   1      72.662  50.079  10.073  0.00  0.00     0.087 H 
ATOM     84  H44 0KN d   1      70.387  50.348   9.155  0.00  0.00     0.084 H 
ENDBRANCH  68  71
ENDBRANCH  51  68
ENDBRANCH  47  51
ENDBRANCH  44  47
ENDBRANCH   1  44
TORSDOF 17
