REMARK  6 active torsions:
REMARK  status: ('A' for Active; 'I' for Inactive)
REMARK       I    between atoms: C19_2  and  N7_3 
REMARK    1  A    between atoms: C19_2  and  C18_4 
REMARK    2  A    between atoms: N6_5  and  C13_6 
REMARK    3  A    between atoms: N4_18  and  C10_19 
REMARK    4  A    between atoms: N3_21  and  C8_22 
REMARK    5  A    between atoms: C7_24  and  C1_25 
REMARK       I    between atoms: C1_25  and  N1_27 
REMARK    6  A    between atoms: N2_30  and  C4_31 
ROOT
ATOM      1  C18 0K6 d   1     -21.317  19.799  -0.068  0.00  0.00     0.105 A 
ATOM      2  N6  0K6 d   1     -22.119  19.652  -1.135  0.00  0.00    -0.321 N 
ATOM      3  C20 0K6 d   1     -22.028  19.627   1.125  0.00  0.00    -0.036 A 
ATOM      4  C21 0K6 d   1     -23.333  19.370   0.658  0.00  0.00     0.031 A 
ATOM      5  C12 0K6 d   1     -23.370  19.379  -0.727  0.00  0.00     0.162 A 
ATOM      6  N5  0K6 d   1     -24.537  19.145  -1.366  0.00  0.00    -0.044 NA
ATOM      7  C22 0K6 d   1     -24.470  19.135   1.412  0.00  0.00     0.035 A 
ATOM      8  N8  0K6 d   1     -25.601  18.905   0.725  0.00  0.00    -0.074 NA
ATOM      9  C11 0K6 d   1     -25.653  18.912  -0.640  0.00  0.00     0.728 A 
ATOM     10  N4  0K6 d   1     -26.844  18.696  -1.263  0.00  0.00    -0.187 N 
ATOM     11  H   0K6 d   1     -21.666  19.678   2.152  0.00  0.00     0.088 H 
ATOM     12  H   0K6 d   1     -24.449  19.137   2.502  0.00  0.00     0.117 H 
ATOM     13  H   0K6 d   1     -27.671  18.630  -0.670  0.00  0.00     0.184 HD
ENDROOT
BRANCH  10  14
ATOM     14  C10 0K6 d   1     -27.032  18.561  -2.595  0.00  0.00     0.067 A 
ATOM     15  C9  0K6 d   1     -26.133  18.812  -3.610  0.00  0.00     0.006 A 
ATOM     16  N3  0K6 d   1     -26.714  18.513  -4.786  0.00  0.00    -0.354 N 
ATOM     17  H   0K6 d   1     -25.119  19.190  -3.481  0.00  0.00     0.115 H 
ATOM     18  C7  0K6 d   1     -27.989  18.107  -4.570  0.00  0.00     0.104 A 
ATOM     19  C23 0K6 d   1     -28.195  18.107  -3.195  0.00  0.00    -0.024 A 
ATOM     20  H   0K6 d   1     -29.108  17.804  -2.682  0.00  0.00     0.090 H 
BRANCH  16  21
ATOM     21  C8  0K6 d   1     -26.032  18.666  -6.104  0.00  0.00    -0.014 C 
ATOM     22  H   0K6 d   1     -25.750  19.709  -6.247  0.00  0.00     0.057 H 
ATOM     23  H   0K6 d   1     -25.139  18.041  -6.124  0.00  0.00     0.057 H 
ATOM     24  H   0K6 d   1     -26.710  18.359  -6.900  0.00  0.00     0.057 H 
ENDBRANCH  16  21
BRANCH  18  25
ATOM     25  C1  0K6 d   1     -28.952  17.634  -5.619  0.00  0.00     0.270 C 
ATOM     26  O1  0K6 d   1     -28.483  16.732  -6.283  0.00  0.00    -0.266 OA
ATOM     27  N1  0K6 d   1     -30.222  18.040  -5.843  0.00  0.00    -0.344 N 
ATOM     28  C6  0K6 d   1     -30.952  18.837  -4.840  0.00  0.00     0.012 C 
ATOM     29  C2  0K6 d   1     -30.918  17.597  -7.085  0.00  0.00     0.012 C 
ATOM     30  C5  0K6 d   1     -31.933  19.806  -5.517  0.00  0.00     0.005 C 
ATOM     31  H   0K6 d   1     -30.232  19.415  -4.261  0.00  0.00     0.066 H 
ATOM     32  H   0K6 d   1     -31.515  18.160  -4.197  0.00  0.00     0.066 H 
ATOM     33  N2  0K6 d   1     -32.696  18.995  -6.451  0.00  0.00    -0.414 N 
ATOM     34  H   0K6 d   1     -31.409  20.615  -6.026  0.00  0.00     0.066 H 
ATOM     35  H   0K6 d   1     -32.581  20.293  -4.788  0.00  0.00     0.066 H 
ATOM     36  C3  0K6 d   1     -31.955  18.590  -7.635  0.00  0.00     0.005 C 
ATOM     37  H   0K6 d   1     -31.495  19.434  -8.149  0.00  0.00     0.066 H 
ATOM     38  H   0K6 d   1     -32.595  18.147  -8.398  0.00  0.00     0.066 H 
ATOM     39  H   0K6 d   1     -31.457  16.683  -6.836  0.00  0.00     0.066 H 
ATOM     40  H   0K6 d   1     -30.152  17.483  -7.852  0.00  0.00     0.066 H 
BRANCH  33  41
ATOM     41  C4  0K6 d   1     -34.087  18.614  -6.147  0.00  0.00    -0.023 C 
ATOM     42  H   0K6 d   1     -34.111  18.037  -5.223  0.00  0.00     0.055 H 
ATOM     43  H   0K6 d   1     -34.691  19.514  -6.030  0.00  0.00     0.055 H 
ATOM     44  H   0K6 d   1     -34.484  18.011  -6.964  0.00  0.00     0.055 H 
ENDBRANCH  33  41
ENDBRANCH  18  25
ENDBRANCH  10  14
BRANCH   2  45
ATOM     45  C13 0K6 d   1     -21.595  19.784  -2.516  0.00  0.00     0.019 C 
ATOM     46  C17 0K6 d   1     -21.866  18.609  -3.427  0.00  0.00    -0.046 C 
ATOM     47  C16 0K6 d   1     -21.721  19.221  -4.812  0.00  0.00    -0.063 C 
ATOM     48  H   0K6 d   1     -22.845  18.159  -3.261  0.00  0.00     0.036 H 
ATOM     49  H   0K6 d   1     -21.187  17.773  -3.258  0.00  0.00     0.036 H 
ATOM     50  C15 0K6 d   1     -22.119  20.678  -4.711  0.00  0.00    -0.063 C 
ATOM     51  H   0K6 d   1     -22.359  18.701  -5.527  0.00  0.00     0.033 H 
ATOM     52  H   0K6 d   1     -20.693  19.131  -5.162  0.00  0.00     0.033 H 
ATOM     53  C14 0K6 d   1     -22.162  21.004  -3.233  0.00  0.00    -0.046 C 
ATOM     54  H   0K6 d   1     -23.087  20.854  -5.180  0.00  0.00     0.033 H 
ATOM     55  H   0K6 d   1     -21.407  21.317  -5.233  0.00  0.00     0.033 H 
ATOM     56  H   0K6 d   1     -21.581  21.898  -3.009  0.00  0.00     0.036 H 
ATOM     57  H   0K6 d   1     -23.180  21.216  -2.905  0.00  0.00     0.036 H 
ATOM     58  H   0K6 d   1     -20.521  19.863  -2.348  0.00  0.00     0.073 H 
ENDBRANCH   2  45
BRANCH   1  59
ATOM     59  C19 0K6 d   1     -19.861  20.116  -0.145  0.00  0.00     0.266 C 
ATOM     60  O2  0K6 d   1     -19.440  21.007   0.595  0.00  0.00    -0.266 OA
ATOM     61  N7  0K6 d   1     -19.077  19.450  -1.009  0.00  0.00    -0.365 N 
ATOM     62  H   0K6 d   1     -18.084  19.674  -1.074  0.00  0.00     0.159 HD
ATOM     63  H   0K6 d   1     -19.475  18.720  -1.600  0.00  0.00     0.159 HD
ENDBRANCH   1  59
TORSDOF 6
