REMARK  5 active torsions:
REMARK  status: ('A' for Active; 'I' for Inactive)
REMARK    1  A    between atoms: CAP_5  and  NAN_6 
REMARK       I    between atoms: NAN_6  and  CAM_7 
REMARK    2  A    between atoms: CAM_7  and  CAL_9 
REMARK    3  A    between atoms: CAL_9  and  OAK_10 
REMARK    4  A    between atoms: OAK_10  and  CAB_11 
REMARK    5  A    between atoms: CAC_16  and  PAG_17 
ROOT
ATOM      1  NAN 0KC d   1      23.607   9.600 -10.270  0.00  0.00    -0.355 N 
ATOM      2  CAM 0KC d   1      24.927   9.732 -10.489  0.00  0.00     0.242 C 
ATOM      3  OAO 0KC d   1      25.689   8.770 -10.638  0.00  0.00    -0.271 OA
ATOM      4  H10 0KC d   1      23.029  10.414 -10.217  0.00  0.00     0.162 HD
ENDROOT
BRANCH   2   5
ATOM      5  CAL 0KC d   1      25.582  11.112 -10.620  0.00  0.00     0.099 C 
ATOM      6  H11 0KC d   1      26.264  11.139 -11.483  0.00  0.00     0.089 H 
ATOM      7  H12 0KC d   1      26.138  11.367  -9.706  0.00  0.00     0.089 H 
BRANCH   5   8
ATOM      8  OAK 0KC d   1      24.470  12.025 -10.816  0.00  0.00    -0.341 OA
BRANCH   8   9
ATOM      9  CAB 0KC d   1      24.668  13.369 -10.606  0.00  0.00     0.089 A 
ATOM     10  CAA 0KC d   1      25.943  13.955 -10.583  0.00  0.00    -0.050 A 
ATOM     11  CAF 0KC d   1      26.032  15.358 -10.367  0.00  0.00    -0.080 A 
ATOM     12  H13 0KC d   1      26.835  13.355 -10.726  0.00  0.00     0.087 H 
ATOM     13  CAE 0KC d   1      24.876  16.125 -10.181  0.00  0.00    -0.082 A 
ATOM     14  H14 0KC d   1      27.004  15.838 -10.346  0.00  0.00     0.083 H 
ATOM     15  CAD 0KC d   1      23.602  15.517 -10.210  0.00  0.00    -0.061 A 
ATOM     16  H15 0KC d   1      24.959  17.193 -10.014  0.00  0.00     0.083 H 
ATOM     17  CAC 0KC d   1      23.528  14.135 -10.425  0.00  0.00     0.101 A 
ATOM     18  H16 0KC d   1      22.703  16.106 -10.069  0.00  0.00     0.085 H 
BRANCH  17  19
ATOM     19  PAG 0KC d   1      21.830  13.405 -10.407  0.00  0.00     0.298 P 
ATOM     20  OAI 0KC d   1      21.830  12.170  -9.460  0.00  0.00    -0.636 OA
ATOM     21  OAJ 0KC d   1      21.621  12.954 -11.881  0.00  0.00    -0.636 OA
ATOM     22  OAH 0KC d   1      20.833  14.452  -9.903  0.00  0.00    -0.636 OA
ENDBRANCH  17  19
ENDBRANCH   8   9
ENDBRANCH   5   8
ENDBRANCH   2   5
BRANCH   1  23
ATOM     23  CAP 0KC d   1      23.002   8.255 -10.107  0.00  0.00     0.012 C 
ATOM     24  CAS 0KC d   1      22.045   8.241  -8.905  0.00  0.00    -0.046 C 
ATOM     25  CAR 0KC d   1      20.912   7.295  -9.311  0.00  0.00    -0.063 C 
ATOM     26  H1  0KC d   1      22.558   7.867  -8.007  0.00  0.00     0.035 H 
ATOM     27  H2  0KC d   1      21.654   9.251  -8.710  0.00  0.00     0.035 H 
ATOM     28  CAQ 0KC d   1      20.989   7.144 -10.812  0.00  0.00    -0.063 C 
ATOM     29  H3  0KC d   1      19.940   7.722  -9.022  0.00  0.00     0.033 H 
ATOM     30  H4  0KC d   1      21.042   6.317  -8.825  0.00  0.00     0.033 H 
ATOM     31  CAT 0KC d   1      22.153   7.979 -11.318  0.00  0.00    -0.046 C 
ATOM     32  H5  0KC d   1      20.053   7.496 -11.270  0.00  0.00     0.033 H 
ATOM     33  H6  0KC d   1      21.149   6.087 -11.072  0.00  0.00     0.033 H 
ATOM     34  H7  0KC d   1      21.790   8.920 -11.756  0.00  0.00     0.035 H 
ATOM     35  H8  0KC d   1      22.728   7.421 -12.072  0.00  0.00     0.035 H 
ATOM     36  H9  0KC d   1      23.787   7.494  -9.989  0.00  0.00     0.072 H 
ENDBRANCH   1  23
TORSDOF 5
