REMARK  7 active torsions:
REMARK  status: ('A' for Active; 'I' for Inactive)
REMARK    1  A    between atoms: PAR_2  and  CAM_5 
REMARK    2  A    between atoms: CAL_10  and  OAK_11 
REMARK    3  A    between atoms: OAK_11  and  CAA_12 
REMARK    4  A    between atoms: CAA_12  and  CAB_13 
REMARK       I    between atoms: CAB_13  and  NAC_15 
REMARK    5  A    between atoms: NAC_15  and  CAE_16 
REMARK    6  A    between atoms: CAG_21  and  OAV_22 
REMARK    7  A    between atoms: OAV_22  and  CAW_23 
ROOT
ATOM      1  CAB Y09 d   1      24.640   9.851 -10.558  0.00  0.00     0.246 C 
ATOM      2  OAD Y09 d   1      25.261   8.785 -10.559  0.00  0.00    -0.271 OA
ATOM      3  NAC Y09 d   1      23.328   9.970 -10.286  0.00  0.00    -0.325 N 
ATOM      4  H7  Y09 d   1      22.895  10.869 -10.351  0.00  0.00     0.169 HD
ENDROOT
BRANCH   1   5
ATOM      5  CAA Y09 d   1      25.342  11.195 -10.893  0.00  0.00     0.100 C 
ATOM      6  H5  Y09 d   1      26.078  11.441 -10.113  0.00  0.00     0.089 H 
ATOM      7  H6  Y09 d   1      25.849  11.123 -11.867  0.00  0.00     0.089 H 
BRANCH   5   8
ATOM      8  OAK Y09 d   1      24.311  12.214 -10.943  0.00  0.00    -0.341 OA
BRANCH   8   9
ATOM      9  CAL Y09 d   1      24.577  13.531 -10.688  0.00  0.00     0.089 A 
ATOM     10  CAM Y09 d   1      23.458  14.310 -10.416  0.00  0.00     0.101 A 
ATOM     11  CAN Y09 d   1      23.607  15.663 -10.162  0.00  0.00    -0.061 A 
ATOM     12  CAO Y09 d   1      24.895  16.236 -10.171  0.00  0.00    -0.082 A 
ATOM     13  H1  Y09 d   1      22.738  16.278  -9.957  0.00  0.00     0.085 H 
ATOM     14  CAP Y09 d   1      26.018  15.452 -10.445  0.00  0.00    -0.080 A 
ATOM     15  H2  Y09 d   1      25.015  17.293  -9.964  0.00  0.00     0.083 H 
ATOM     16  CAQ Y09 d   1      25.866  14.084 -10.706  0.00  0.00    -0.050 A 
ATOM     17  H3  Y09 d   1      27.005  15.901 -10.456  0.00  0.00     0.083 H 
ATOM     18  H4  Y09 d   1      26.729  13.464 -10.918  0.00  0.00     0.087 H 
BRANCH  10  19
ATOM     19  PAR Y09 d   1      21.806  13.503 -10.399  0.00  0.00     0.298 P 
ATOM     20  OAS Y09 d   1      20.807  14.563  -9.760  0.00  0.00    -0.636 OA
ATOM     21  OAU Y09 d   1      21.469  13.047 -11.848  0.00  0.00    -0.636 OA
ATOM     22  OAT Y09 d   1      21.751  12.289  -9.515  0.00  0.00    -0.636 OA
ENDBRANCH  10  19
ENDBRANCH   8   9
ENDBRANCH   5   8
ENDBRANCH   1   5
BRANCH   3  23
ATOM     23  CAE Y09 d   1      22.590   8.912  -9.930  0.00  0.00     0.037 A 
ATOM     24  CAF Y09 d   1      22.262   8.798  -8.583  0.00  0.00    -0.025 A 
ATOM     25  CAG Y09 d   1      21.479   7.745  -8.113  0.00  0.00     0.070 A 
ATOM     26  H8  Y09 d   1      22.623   9.544  -7.884  0.00  0.00     0.091 H 
ATOM     27  CAH Y09 d   1      21.017   6.788  -9.022  0.00  0.00    -0.051 A 
ATOM     28  CAI Y09 d   1      21.330   6.899 -10.378  0.00  0.00    -0.078 A 
ATOM     29  H11 Y09 d   1      20.414   5.958  -8.673  0.00  0.00     0.087 H 
ATOM     30  CAJ Y09 d   1      22.118   7.965 -10.842  0.00  0.00    -0.057 A 
ATOM     31  H10 Y09 d   1      20.962   6.157 -11.078  0.00  0.00     0.083 H 
ATOM     32  H9  Y09 d   1      22.357   8.052 -11.896  0.00  0.00     0.086 H 
BRANCH  25  33
ATOM     33  OAV Y09 d   1      21.181   7.663  -6.772  0.00  0.00    -0.356 OA
BRANCH  33  34
ATOM     34  CAW Y09 d   1      21.188   8.940  -6.072  0.00  0.00     0.010 C 
ATOM     35  H12 Y09 d   1      20.941   8.779  -5.012  0.00  0.00     0.066 H 
ATOM     36  H13 Y09 d   1      20.442   9.610  -6.525  0.00  0.00     0.066 H 
ATOM     37  H14 Y09 d   1      22.186   9.396  -6.150  0.00  0.00     0.066 H 
ENDBRANCH  33  34
ENDBRANCH  25  33
ENDBRANCH   3  23
TORSDOF 7
