REMARK  6 active torsions:
REMARK  status: ('A' for Active; 'I' for Inactive)
REMARK    1  A    between atoms: PAG_2  and  CAC_5 
REMARK    2  A    between atoms: CAB_10  and  OAK_11 
REMARK    3  A    between atoms: OAK_11  and  CAL_12 
REMARK    4  A    between atoms: CAL_12  and  CAM_13 
REMARK       I    between atoms: CAM_13  and  NAN_15 
REMARK    5  A    between atoms: NAN_15  and  CAP_16 
REMARK    6  A    between atoms: CAQ_18  and  CAW_19 
ROOT
ATOM      1  CAL Y07 d   1      25.248  11.250 -10.214  0.00  0.00     0.100 C 
ATOM      2  H5  Y07 d   1      25.816  11.737  -9.408  0.00  0.00     0.089 H 
ATOM      3  H6  Y07 d   1      25.944  10.876 -10.979  0.00  0.00     0.089 H 
ENDROOT
BRANCH   1   4
ATOM      4  OAK Y07 d   1      24.374  12.236 -10.826  0.00  0.00    -0.341 OA
BRANCH   4   5
ATOM      5  CAB Y07 d   1      24.600  13.580 -10.631  0.00  0.00     0.089 A 
ATOM      6  CAC Y07 d   1      23.497  14.388 -10.395  0.00  0.00     0.101 A 
ATOM      7  CAD Y07 d   1      23.614  15.768 -10.212  0.00  0.00    -0.061 A 
ATOM      8  CAE Y07 d   1      24.894  16.337 -10.256  0.00  0.00    -0.082 A 
ATOM      9  H1  Y07 d   1      22.738  16.383 -10.040  0.00  0.00     0.085 H 
ATOM     10  CAF Y07 d   1      26.027  15.533 -10.485  0.00  0.00    -0.080 A 
ATOM     11  H2  Y07 d   1      25.013  17.405 -10.113  0.00  0.00     0.083 H 
ATOM     12  CAA Y07 d   1      25.891  14.144 -10.683  0.00  0.00    -0.050 A 
ATOM     13  H3  Y07 d   1      27.012  15.986 -10.509  0.00  0.00     0.083 H 
ATOM     14  H4  Y07 d   1      26.760  13.523 -10.871  0.00  0.00     0.087 H 
BRANCH   6  15
ATOM     15  PAG Y07 d   1      21.843  13.618 -10.344  0.00  0.00     0.298 P 
ATOM     16  OAI Y07 d   1      21.525  13.149 -11.813  0.00  0.00    -0.636 OA
ATOM     17  OAJ Y07 d   1      20.824  14.778  -9.902  0.00  0.00    -0.636 OA
ATOM     18  OAH Y07 d   1      21.747  12.510  -9.332  0.00  0.00    -0.636 OA
ENDBRANCH   6  15
ENDBRANCH   4   5
ENDBRANCH   1   4
BRANCH   1  19
ATOM     19  CAM Y07 d   1      24.474  10.044  -9.616  0.00  0.00     0.246 C 
ATOM     20  OAO Y07 d   1      25.115   9.018  -9.397  0.00  0.00    -0.271 OA
ATOM     21  NAN Y07 d   1      23.164  10.132  -9.362  0.00  0.00    -0.324 N 
ATOM     22  H7  Y07 d   1      22.672  10.960  -9.630  0.00  0.00     0.169 HD
BRANCH  21  23
ATOM     23  CAP Y07 d   1      22.486   9.136  -8.754  0.00  0.00     0.057 A 
ATOM     24  CAU Y07 d   1      22.414   9.163  -7.364  0.00  0.00    -0.041 A 
ATOM     25  CAQ Y07 d   1      21.731   8.184  -6.648  0.00  0.00     0.050 A 
ATOM     26  H8  Y07 d   1      22.902   9.967  -6.825  0.00  0.00     0.088 H 
ATOM     27  CAR Y07 d   1      21.111   7.150  -7.335  0.00  0.00    -0.067 A 
ATOM     28  CAS Y07 d   1      21.157   7.117  -8.726  0.00  0.00    -0.059 A 
ATOM     29  H9  Y07 d   1      20.592   6.370  -6.790  0.00  0.00     0.084 H 
ATOM     30  CAT Y07 d   1      21.842   8.101  -9.432  0.00  0.00     0.060 A 
ATOM     31  H10 Y07 d   1      20.656   6.319  -9.263  0.00  0.00     0.086 H 
ATOM     32 CL1  Y07 d   1      21.878   8.011 -11.154  0.00  0.00    -0.082 Cl
BRANCH  25  33
ATOM     33  CAW Y07 d   1      21.687   8.264  -5.111  0.00  0.00     0.417 C 
ATOM     34  FAY Y07 d   1      21.108   7.191  -4.574  0.00  0.00    -0.166 F 
ATOM     35  FAZ Y07 d   1      20.983   9.330  -4.768  0.00  0.00    -0.166 F 
ATOM     36  FAX Y07 d   1      22.919   8.400  -4.641  0.00  0.00    -0.166 F 
ENDBRANCH  25  33
ENDBRANCH  21  23
ENDBRANCH   1  19
TORSDOF 6
