REMARK  5 active torsions:
REMARK  status: ('A' for Active; 'I' for Inactive)
REMARK    1  A    between atoms: PAR_2  and  CAM_5 
REMARK    2  A    between atoms: CAL_10  and  OAK_11 
REMARK    3  A    between atoms: OAK_11  and  CAA_12 
REMARK    4  A    between atoms: CAA_12  and  CAB_13 
REMARK       I    between atoms: CAB_13  and  NAC_15 
REMARK    5  A    between atoms: NAC_15  and  CAE_16 
ROOT
ATOM      1  CAA Y03 d   1      25.499  11.343 -10.843  0.00  0.00     0.100 C 
ATOM      2  H5  Y03 d   1      26.192  11.636 -10.041  0.00  0.00     0.089 H 
ATOM      3  H6  Y03 d   1      26.054  11.236 -11.786  0.00  0.00     0.089 H 
ENDROOT
BRANCH   1   4
ATOM      4  OAK Y03 d   1      24.466  12.336 -10.989  0.00  0.00    -0.341 OA
BRANCH   4   5
ATOM      5  CAL Y03 d   1      24.722  13.649 -10.717  0.00  0.00     0.089 A 
ATOM      6  CAM Y03 d   1      23.614  14.408 -10.424  0.00  0.00     0.101 A 
ATOM      7  CAN Y03 d   1      23.770  15.772 -10.154  0.00  0.00    -0.061 A 
ATOM      8  CAO Y03 d   1      25.053  16.337 -10.164  0.00  0.00    -0.082 A 
ATOM      9  H1  Y03 d   1      22.904  16.388  -9.938  0.00  0.00     0.085 H 
ATOM     10  CAP Y03 d   1      26.190  15.568 -10.469  0.00  0.00    -0.080 A 
ATOM     11  H2  Y03 d   1      25.171  17.389  -9.932  0.00  0.00     0.083 H 
ATOM     12  CAQ Y03 d   1      26.007  14.205 -10.750  0.00  0.00    -0.050 A 
ATOM     13  H3  Y03 d   1      27.178  16.014 -10.487  0.00  0.00     0.083 H 
ATOM     14  H4  Y03 d   1      26.861  13.582 -10.993  0.00  0.00     0.087 H 
BRANCH   6  15
ATOM     15  PAR Y03 d   1      21.941  13.598 -10.392  0.00  0.00     0.298 P 
ATOM     16  OAS Y03 d   1      20.886  14.626  -9.769  0.00  0.00    -0.636 OA
ATOM     17  OAU Y03 d   1      21.692  13.079 -11.837  0.00  0.00    -0.636 OA
ATOM     18  OAT Y03 d   1      21.881  12.394  -9.477  0.00  0.00    -0.636 OA
ENDBRANCH   6  15
ENDBRANCH   4   5
ENDBRANCH   1   4
BRANCH   1  19
ATOM     19  CAB Y03 d   1      24.809  10.018 -10.485  0.00  0.00     0.246 C 
ATOM     20  OAD Y03 d   1      25.449   8.968 -10.467  0.00  0.00    -0.271 OA
ATOM     21  NAC Y03 d   1      23.497  10.122 -10.216  0.00  0.00    -0.325 N 
ATOM     22  H7  Y03 d   1      23.045  11.008 -10.315  0.00  0.00     0.169 HD
BRANCH  21  23
ATOM     23  CAE Y03 d   1      22.785   9.063  -9.819  0.00  0.00     0.038 A 
ATOM     24  CAF Y03 d   1      22.288   8.167 -10.745  0.00  0.00    -0.036 A 
ATOM     25  CAG Y03 d   1      21.530   7.094 -10.300  0.00  0.00     0.037 A 
ATOM     26  H8  Y03 d   1      22.487   8.300 -11.802  0.00  0.00     0.089 H 
ATOM     27 CL1  Y03 d   1      20.980   6.036 -11.411  0.00  0.00    -0.084 Cl
ATOM     28  CAH Y03 d   1      21.259   6.887  -8.959  0.00  0.00    -0.041 A 
ATOM     29  CAI Y03 d   1      21.749   7.782  -8.036  0.00  0.00     0.037 A 
ATOM     30  H9  Y03 d   1      20.671   6.034  -8.641  0.00  0.00     0.088 H 
ATOM     31 CL2  Y03 d   1      21.412   7.516  -6.383  0.00  0.00    -0.084 Cl
ATOM     32  CAJ Y03 d   1      22.506   8.877  -8.459  0.00  0.00    -0.036 A 
ATOM     33  H10 Y03 d   1      22.880   9.587  -7.730  0.00  0.00     0.089 H 
ENDBRANCH  21  23
ENDBRANCH   1  19
TORSDOF 5
