REMARK  18 active torsions:
REMARK  status: ('A' for Active; 'I' for Inactive)
REMARK    1  A    between atoms: C21_10  and  C27_11 
REMARK    2  A    between atoms: C27_11  and  C28_12 
REMARK    3  A    between atoms: C28_12  and  C30_13 
REMARK    4  A    between atoms: C28_12  and  C31_14 
REMARK    5  A    between atoms: C28_12  and  C29_15 
REMARK    6  A    between atoms: C14_18  and  N4_19 
REMARK    7  A    between atoms: N4_19  and  C3_20 
REMARK    8  A    between atoms: C3_20  and  C2_21 
REMARK    9  A    between atoms: C2_21  and  O5_22 
REMARK   10  A    between atoms: C2_21  and  C1_23 
REMARK   11  A    between atoms: C1_23  and  N6_24 
REMARK   12  A    between atoms: C1_23  and  C7_31 
REMARK       I    between atoms: N6_24  and  C33_25 
REMARK   13  A    between atoms: C33_25  and  C35_27 
REMARK   14  A    between atoms: C35_27  and  C42_28 
REMARK   15  A    between atoms: C35_27  and  O36_29 
REMARK   16  A    between atoms: O36_29  and  C37_30 
REMARK   17  A    between atoms: C7_31  and  C8_32 
REMARK   18  A    between atoms: C10_37  and  C32_38 
ROOT
ATOM      1  C3  0K9 d   1      31.066   4.021  13.330  0.00  0.00     0.108 C 
ATOM      2  H25 0K9 d   1      30.251   3.827  14.043  0.00  0.00     0.079 H 
ATOM      3  H26 0K9 d   1      30.656   4.494  12.425  0.00  0.00     0.079 H 
ENDROOT
BRANCH   1   4
ATOM      4  N4  0K9 d   1      31.714   2.735  12.962  0.00  0.00    -0.064 N 
ATOM      5  H23 0K9 d   1      32.647   2.933  12.637  0.00  0.00     0.278 HD
ATOM      6  H24 0K9 d   1      31.761   2.157  13.787  0.00  0.00     0.278 HD
BRANCH   4   7
ATOM      7  C14 0K9 d   1      30.999   1.973  11.897  0.00  0.00     0.134 C 
ATOM      8  C19 0K9 d   1      29.636   1.471  12.424  0.00  0.00    -0.005 C 
ATOM      9  C18 0K9 d   1      28.777   1.015  11.231  0.00  0.00     0.071 A 
ATOM     10  H7  0K9 d   1      29.794   0.625  13.110  0.00  0.00     0.041 H 
ATOM     11  H8  0K9 d   1      29.124   2.285  12.958  0.00  0.00     0.041 H 
ATOM     12  C24 0K9 d   1      27.502   0.296  11.670  0.00  0.00    -0.035 A 
ATOM     13  C26 0K9 d   1      29.296  -0.283  10.586  0.00  0.00    -0.035 A 
ATOM     14  O17 0K9 d   1      28.498   2.084  10.303  0.00  0.00    -0.323 OA
ATOM     15  C25 0K9 d   1      28.081  -1.032  11.145  0.00  0.00    -0.060 A 
ATOM     16  H1  0K9 d   1      27.327   0.313  12.756  0.00  0.00     0.037 H 
ATOM     17  H2  0K9 d   1      26.594   0.630  11.147  0.00  0.00     0.037 H 
ATOM     18  H3  0K9 d   1      27.462  -1.519  10.377  0.00  0.00     0.033 H 
ATOM     19  H4  0K9 d   1      28.326  -1.758  11.934  0.00  0.00     0.033 H 
ATOM     20  H5  0K9 d   1      29.341  -0.254   9.487  0.00  0.00     0.037 H 
ATOM     21  H6  0K9 d   1      30.261  -0.629  10.984  0.00  0.00     0.037 H 
ATOM     22  C16 0K9 d   1      29.578   2.813   9.904  0.00  0.00     0.173 A 
ATOM     23  N23 0K9 d   1      29.423   3.557   8.793  0.00  0.00    -0.236 NA
ATOM     24  C15 0K9 d   1      30.803   2.816  10.606  0.00  0.00     0.026 A 
ATOM     25  C22 0K9 d   1      30.407   4.302   8.313  0.00  0.00     0.011 A 
ATOM     26  C21 0K9 d   1      31.649   4.345   8.944  0.00  0.00    -0.039 A 
ATOM     27  H9  0K9 d   1      30.244   4.888   7.415  0.00  0.00     0.115 H 
ATOM     28  C20 0K9 d   1      31.855   3.589  10.102  0.00  0.00    -0.063 A 
ATOM     29  H21 0K9 d   1      32.816   3.602  10.602  0.00  0.00     0.085 H 
ATOM     30  H22 0K9 d   1      31.612   1.097  11.638  0.00  0.00     0.092 H 
BRANCH  26  31
ATOM     31  C27 0K9 d   1      32.772   5.207   8.337  0.00  0.00    -0.034 C 
ATOM     32  H10 0K9 d   1      33.468   5.500   9.137  0.00  0.00     0.041 H 
ATOM     33  H11 0K9 d   1      32.327   6.108   7.889  0.00  0.00     0.041 H 
BRANCH  31  34
ATOM     34  C28 0K9 d   1      33.563   4.435   7.238  0.00  0.00    -0.047 C 
BRANCH  34  35
ATOM     35  C30 0K9 d   1      32.622   3.756   6.230  0.00  0.00    -0.069 C 
ATOM     36  H12 0K9 d   1      33.217   3.224   5.474  0.00  0.00     0.028 H 
ATOM     37  H13 0K9 d   1      32.001   4.518   5.737  0.00  0.00     0.028 H 
ATOM     38  H14 0K9 d   1      31.975   3.040   6.758  0.00  0.00     0.028 H 
ENDBRANCH  34  35
BRANCH  34  39
ATOM     39  C31 0K9 d   1      34.485   3.386   7.857  0.00  0.00    -0.069 C 
ATOM     40  H15 0K9 d   1      35.159   3.870   8.579  0.00  0.00     0.028 H 
ATOM     41  H16 0K9 d   1      35.079   2.907   7.065  0.00  0.00     0.028 H 
ATOM     42  H17 0K9 d   1      33.881   2.626   8.373  0.00  0.00     0.028 H 
ENDBRANCH  34  39
BRANCH  34  43
ATOM     43  C29 0K9 d   1      34.435   5.419   6.454  0.00  0.00    -0.069 C 
ATOM     44  H18 0K9 d   1      33.797   6.189   5.995  0.00  0.00     0.028 H 
ATOM     45  H19 0K9 d   1      34.981   4.878   5.667  0.00  0.00     0.028 H 
ATOM     46  H20 0K9 d   1      35.153   5.897   7.136  0.00  0.00     0.028 H 
ENDBRANCH  34  43
ENDBRANCH  31  34
ENDBRANCH  26  31
ENDBRANCH   4   7
ENDBRANCH   1   4
BRANCH   1  47
ATOM     47  C2  0K9 d   1      32.101   4.972  13.981  0.00  0.00     0.078 C 
ATOM     48  H27 0K9 d   1      32.398   4.538  14.947  0.00  0.00     0.088 H 
BRANCH  47  49
ATOM     49  O5  0K9 d   1      33.245   5.062  13.141  0.00  0.00    -0.392 OA
ATOM     50  H28 0K9 d   1      33.882   5.645  13.537  0.00  0.00     0.210 HD
ENDBRANCH  47  49
BRANCH  47  51
ATOM     51  C1  0K9 d   1      31.570   6.404  14.240  0.00  0.00     0.042 C 
ATOM     52  H29 0K9 d   1      31.378   6.874  13.264  0.00  0.00     0.077 H 
BRANCH  51  53
ATOM     53  N6  0K9 d   1      30.294   6.369  14.983  0.00  0.00    -0.351 N 
ATOM     54  C33 0K9 d   1      29.113   6.563  14.388  0.00  0.00     0.246 C 
ATOM     55  O34 0K9 d   1      28.990   6.786  13.183  0.00  0.00    -0.271 OA
ATOM     56  H30 0K9 d   1      30.314   6.194  15.967  0.00  0.00     0.163 HD
BRANCH  54  57
ATOM     57  C35 0K9 d   1      27.834   6.514  15.223  0.00  0.00     0.111 C 
ATOM     58  H31 0K9 d   1      27.106   7.228  14.810  0.00  0.00     0.097 H 
BRANCH  57  59
ATOM     59  C42 0K9 d   1      27.239   5.110  15.177  0.00  0.00    -0.044 C 
ATOM     60  H32 0K9 d   1      26.319   5.082  15.780  0.00  0.00     0.031 H 
ATOM     61  H33 0K9 d   1      27.965   4.390  15.583  0.00  0.00     0.031 H 
ATOM     62  H34 0K9 d   1      27.003   4.846  14.136  0.00  0.00     0.031 H 
ENDBRANCH  57  59
BRANCH  57  63
ATOM     63  O36 0K9 d   1      28.126   6.872  16.575  0.00  0.00    -0.382 OA
BRANCH  63  64
ATOM     64  C37 0K9 d   1      27.859   8.257  16.761  0.00  0.00     0.005 C 
ATOM     65  H35 0K9 d   1      28.082   8.537  17.801  0.00  0.00     0.066 H 
ATOM     66  H36 0K9 d   1      26.799   8.458  16.547  0.00  0.00     0.066 H 
ATOM     67  H37 0K9 d   1      28.489   8.847  16.079  0.00  0.00     0.066 H 
ENDBRANCH  63  64
ENDBRANCH  57  63
ENDBRANCH  54  57
ENDBRANCH  51  53
BRANCH  51  68
ATOM     68  C7  0K9 d   1      32.622   7.262  14.979  0.00  0.00    -0.020 C 
ATOM     69  H38 0K9 d   1      33.440   7.487  14.279  0.00  0.00     0.043 H 
ATOM     70  H39 0K9 d   1      33.014   6.678  15.825  0.00  0.00     0.043 H 
BRANCH  68  71
ATOM     71  C8  0K9 d   1      32.068   8.588  15.520  0.00  0.00    -0.055 A 
ATOM     72  C9  0K9 d   1      31.592   8.633  16.827  0.00  0.00    -0.064 A 
ATOM     73  C10 0K9 d   1      31.088   9.805  17.371  0.00  0.00     0.000 A 
ATOM     74  H40 0K9 d   1      31.616   7.734  17.432  0.00  0.00     0.085 H 
ATOM     75  C11 0K9 d   1      31.044  10.965  16.586  0.00  0.00    -0.070 A 
ATOM     76  C12 0K9 d   1      31.523  10.930  15.270  0.00  0.00    -0.082 A 
ATOM     77  H43 0K9 d   1      30.641  11.885  16.995  0.00  0.00     0.084 H 
ATOM     78  C13 0K9 d   1      32.038   9.742  14.737  0.00  0.00    -0.077 A 
ATOM     79  H42 0K9 d   1      31.495  11.827  14.662  0.00  0.00     0.083 H 
ATOM     80  H41 0K9 d   1      32.412   9.719  13.720  0.00  0.00     0.084 H 
BRANCH  73  81
ATOM     81  C32 0K9 d   1      30.585   9.772  18.673  0.00  0.00     0.107 A 
ATOM     82  N38 0K9 d   1      29.553  10.462  19.170  0.00  0.00    -0.252 NA
ATOM     83  C39 0K9 d   1      29.256  10.198  20.458  0.00  0.00     0.010 A 
ATOM     84  C40 0K9 d   1      30.015   9.269  21.059  0.00  0.00    -0.026 A 
ATOM     85  H44 0K9 d   1      28.448  10.709  20.980  0.00  0.00     0.115 H 
ATOM     86  S41 0K9 d   1      31.136   8.733  19.909  0.00  0.00    -0.080 SA
ATOM     87  H45 0K9 d   1      29.927   8.926  22.089  0.00  0.00     0.097 H 
ENDBRANCH  73  81
ENDBRANCH  68  71
ENDBRANCH  51  68
ENDBRANCH  47  51
ENDBRANCH   1  47
TORSDOF 18
