REMARK  8 active torsions:
REMARK  status: ('A' for Active; 'I' for Inactive)
REMARK    1  A    between atoms: C8_7  and  C46_30 
REMARK    2  A    between atoms: C15_12  and  C9_8 
REMARK    3  A    between atoms: C32_23  and  N16_13 
REMARK    4  A    between atoms: C20_16  and  C21_17 
REMARK    5  A    between atoms: C35_24  and  C32_23 
REMARK       I    between atoms: C46_30  and  N48_32 
REMARK    6  A    between atoms: N48_32  and  C50_33 
REMARK    7  A    between atoms: C50_33  and  C53_34 
REMARK    8  A    between atoms: C53_34  and  N56_35 
ROOT
ATOM      1 CL1  BLF d   1      12.709  -9.075  18.887  0.00  0.00    -0.084 Cl
ATOM      2  C2  BLF d   1      12.052  -7.631  18.151  0.00  0.00     0.036 A 
ATOM      3  C3  BLF d   1      12.734  -6.423  18.316  0.00  0.00    -0.035 A 
ATOM      4  C5  BLF d   1      12.161  -5.301  17.707  0.00  0.00     0.045 A 
ATOM      5  N6  BLF d   1      12.587  -4.029  17.710  0.00  0.00    -0.350 N 
ATOM      6  C8  BLF d   1      11.780  -3.244  17.024  0.00  0.00     0.114 A 
ATOM      7  C9  BLF d   1      10.762  -3.976  16.505  0.00  0.00     0.038 A 
ATOM      8  C10 BLF d   1      10.996  -5.389  16.974  0.00  0.00     0.006 A 
ATOM      9  C11 BLF d   1      10.307  -6.585  16.798  0.00  0.00    -0.068 A 
ATOM     10  C13 BLF d   1      10.865  -7.718  17.400  0.00  0.00    -0.061 A 
ATOM     11  H1  BLF d   1      13.655  -6.359  18.884  0.00  0.00     0.089 H 
ATOM     12  H2  BLF d   1      13.439  -3.705  18.189  0.00  0.00     0.166 HD
ATOM     13  H3  BLF d   1       9.388  -6.636  16.226  0.00  0.00     0.085 H 
ATOM     14  H4  BLF d   1      10.375  -8.678  17.286  0.00  0.00     0.086 H 
ENDROOT
BRANCH   7  15
ATOM     15  C15 BLF d   1       9.542  -3.691  15.706  0.00  0.00     0.079 A 
ATOM     16  N16 BLF d   1       8.499  -3.008  16.185  0.00  0.00    -0.334 N 
ATOM     17  C17 BLF d   1       7.543  -2.944  15.296  0.00  0.00     0.067 A 
ATOM     18  N19 BLF d   1       7.892  -3.582  14.270  0.00  0.00    -0.241 NA
ATOM     19  H5  BLF d   1       6.596  -2.422  15.423  0.00  0.00     0.143 H 
ATOM     20  C20 BLF d   1       9.209  -4.125  14.463  0.00  0.00     0.096 A 
BRANCH  16  21
ATOM     21  C32 BLF d   1       8.402  -2.350  17.482  0.00  0.00     0.025 C 
ATOM     22  H11 BLF d   1       7.439  -1.821  17.534  0.00  0.00     0.072 H 
ATOM     23  H12 BLF d   1       9.224  -1.624  17.568  0.00  0.00     0.072 H 
BRANCH  21  24
ATOM     24  C35 BLF d   1       8.487  -3.321  18.660  0.00  0.00    -0.040 A 
ATOM     25  C36 BLF d   1       7.889  -4.591  18.615  0.00  0.00    -0.074 A 
ATOM     26  C38 BLF d   1       7.981  -5.448  19.721  0.00  0.00    -0.061 A 
ATOM     27  H13 BLF d   1       7.357  -4.909  17.726  0.00  0.00     0.084 H 
ATOM     28  C40 BLF d   1       8.663  -5.023  20.869  0.00  0.00     0.034 A 
ATOM     29  H14 BLF d   1       7.528  -6.432  19.688  0.00  0.00     0.086 H 
ATOM     30 CL2  BLF d   1       8.767  -6.091  22.256  0.00  0.00    -0.084 Cl
ATOM     31  C41 BLF d   1       9.260  -3.752  20.916  0.00  0.00    -0.061 A 
ATOM     32  C43 BLF d   1       9.177  -2.898  19.804  0.00  0.00    -0.074 A 
ATOM     33  H15 BLF d   1       9.784  -3.431  21.809  0.00  0.00     0.086 H 
ATOM     34  H16 BLF d   1       9.643  -1.920  19.831  0.00  0.00     0.084 H 
ENDBRANCH  21  24
ENDBRANCH  16  21
BRANCH  20  35
ATOM     35  C21 BLF d   1       9.910  -4.932  13.398  0.00  0.00    -0.005 A 
ATOM     36  C22 BLF d   1      11.307  -4.921  13.350  0.00  0.00    -0.071 A 
ATOM     37  C24 BLF d   1      11.986  -5.643  12.355  0.00  0.00    -0.082 A 
ATOM     38  H6  BLF d   1      11.868  -4.353  14.083  0.00  0.00     0.084 H 
ATOM     39  C26 BLF d   1      11.253  -6.372  11.408  0.00  0.00    -0.083 A 
ATOM     40  H7  BLF d   1      13.069  -5.637  12.319  0.00  0.00     0.083 H 
ATOM     41  C28 BLF d   1       9.857  -6.380  11.443  0.00  0.00    -0.082 A 
ATOM     42  H8  BLF d   1      11.774  -6.934  10.642  0.00  0.00     0.083 H 
ATOM     43  C30 BLF d   1       9.184  -5.652  12.433  0.00  0.00    -0.071 A 
ATOM     44  H9  BLF d   1       9.297  -6.947  10.708  0.00  0.00     0.083 H 
ATOM     45  H10 BLF d   1       8.100  -5.644  12.455  0.00  0.00     0.084 H 
ENDBRANCH  20  35
ENDBRANCH   7  15
BRANCH   6  46
ATOM     46  C46 BLF d   1      12.035  -1.803  16.854  0.00  0.00     0.269 C 
ATOM     47  O47 BLF d   1      12.980  -1.350  17.492  0.00  0.00    -0.266 OA
ATOM     48  N48 BLF d   1      11.297  -1.057  16.005  0.00  0.00    -0.354 N 
ATOM     49  H17 BLF d   1      10.550  -1.484  15.495  0.00  0.00     0.162 HD
BRANCH  48  50
ATOM     50  C50 BLF d   1      11.574   0.365  15.821  0.00  0.00     0.018 C 
ATOM     51  H18 BLF d   1      12.595   0.591  16.163  0.00  0.00     0.066 H 
ATOM     52  H19 BLF d   1      10.853   0.961  16.400  0.00  0.00     0.066 H 
BRANCH  50  53
ATOM     53  C53 BLF d   1      11.442   0.706  14.317  0.00  0.00     0.098 C 
ATOM     54  H20 BLF d   1      12.208   0.156  13.751  0.00  0.00     0.078 H 
ATOM     55  H21 BLF d   1      11.587   1.787  14.175  0.00  0.00     0.078 H 
BRANCH  53  56
ATOM     56  N56 BLF d   1      10.094   0.322  13.820  0.00  0.00    -0.066 N 
ATOM     57  C57 BLF d   1      10.024   0.068  12.359  0.00  0.00     0.103 C 
ATOM     58  C60 BLF d   1       8.637  -0.513  11.994  0.00  0.00     0.042 C 
ATOM     59  H23 BLF d   1      10.807  -0.651  12.075  0.00  0.00     0.079 H 
ATOM     60  H24 BLF d   1      10.179   1.012  11.816  0.00  0.00     0.079 H 
ATOM     61  O63 BLF d   1       7.589   0.342  12.485  0.00  0.00    -0.388 OA
ATOM     62  H25 BLF d   1       8.532  -1.511  12.445  0.00  0.00     0.076 H 
ATOM     63  H26 BLF d   1       8.555  -0.595  10.900  0.00  0.00     0.076 H 
ATOM     64  C64 BLF d   1       7.624   0.530  13.914  0.00  0.00     0.042 C 
ATOM     65  C67 BLF d   1       8.977   1.174  14.309  0.00  0.00     0.103 C 
ATOM     66  H27 BLF d   1       7.519  -0.443  14.416  0.00  0.00     0.076 H 
ATOM     67  H28 BLF d   1       6.799   1.191  14.219  0.00  0.00     0.076 H 
ATOM     68  H29 BLF d   1       9.053   2.174  13.856  0.00  0.00     0.079 H 
ATOM     69  H30 BLF d   1       9.035   1.262  15.404  0.00  0.00     0.079 H 
ATOM     70  H22 BLF d   1       9.925  -0.578  14.241  0.00  0.00     0.280 HD
ENDBRANCH  53  56
ENDBRANCH  50  53
ENDBRANCH  48  50
ENDBRANCH   6  46
TORSDOF 8
