REMARK  24 active torsions:
REMARK  status: ('A' for Active; 'I' for Inactive)
REMARK    1  A    between atoms: C2_2  and  C1_1 
REMARK    2  A    between atoms: O3_43  and  C2_2 
REMARK    3  A    between atoms: C4_4  and  O4_15 
REMARK    4  A    between atoms: C5_5  and  N5_12 
REMARK    5  A    between atoms: C6_6  and  C7_7 
REMARK    6  A    between atoms: C7_7  and  C8_8 
REMARK    7  A    between atoms: C7_7  and  O7_17 
REMARK    8  A    between atoms: C8_8  and  C9_9 
REMARK    9  A    between atoms: C8_8  and  O8_18 
REMARK   10  A    between atoms: C9_9  and  O9_19 
REMARK   11  A    between atoms: C10_10  and  C11_11 
REMARK       I    between atoms: N5_12  and  C10_10 
REMARK   12  A    between atoms: C1_21  and  O1_30 
REMARK   13  A    between atoms: C2_22  and  N2_29 
REMARK   14  A    between atoms: C3_23  and  O3_31 
REMARK   15  A    between atoms: O4_32  and  C4_24 
REMARK   16  A    between atoms: C5_25  and  C6_26 
REMARK   17  A    between atoms: C6_26  and  O6_34 
REMARK   18  A    between atoms: C7_27  and  C8_28 
REMARK       I    between atoms: N2_29  and  C7_27 
REMARK   19  A    between atoms: C1_36  and  O4_32 
REMARK   20  A    between atoms: C2_37  and  O2_42 
REMARK   21  A    between atoms: C3_38  and  O3_43 
REMARK   22  A    between atoms: C4_39  and  O4_44 
REMARK   23  A    between atoms: C5_40  and  C6_41 
REMARK   24  A    between atoms: C6_41  and  O6_46 
ROOT
ATOM      1  H   SIA d   1      55.427 -23.125  90.690  0.00  0.00     0.133 H 
ATOM      2  H   SIA d   1      55.317 -23.766  87.740  0.00  0.00     0.094 H 
ATOM      3  H   SIA d   1      56.112 -21.100  88.935  0.00  0.00     0.091 H 
ATOM      4  H   SIA d   1      53.947 -20.276  88.139  0.00  0.00     0.091 H 
ATOM      5  H   SIA d   1      54.128 -21.295  90.439  0.00  0.00     0.090 H 
ATOM      6  C1  GAL d   1      54.965 -23.604  89.827  0.00  0.00     0.159 C 
ATOM      7  C2  GAL d   1      55.738 -23.191  88.565  0.00  0.00     0.110 C 
ATOM      8  C3  GAL d   1      55.559 -21.707  88.219  0.00  0.00     0.099 C 
ATOM      9  C4  GAL d   1      54.078 -21.347  88.291  0.00  0.00     0.090 C 
ATOM     10  C5  GAL d   1      53.536 -21.759  89.650  0.00  0.00     0.089 C 
ATOM     11  O5  GAL d   1      53.622 -23.165  89.735  0.00  0.00    -0.348 OA
ENDROOT
BRANCH   8  12
ATOM     12  O3  GAL d   1      56.067 -21.442  86.918  0.00  0.00    -0.336 OA
BRANCH  12  13
ATOM     13  C2  SIA d   1      56.463 -20.057  86.688  0.00  0.00     0.259 C 
ATOM     14  C3  SIA d   1      57.706 -19.443  87.342  0.00  0.00     0.024 C 
ATOM     15  C4  SIA d   1      57.828 -18.012  86.818  0.00  0.00     0.063 C 
ATOM     16  H   SIA d   1      58.596 -20.021  87.095  0.00  0.00     0.045 H 
ATOM     17  H   SIA d   1      57.612 -19.449  88.428  0.00  0.00     0.045 H 
ATOM     18  C5  SIA d   1      56.623 -17.230  87.321  0.00  0.00     0.064 C 
ATOM     19  H   SIA d   1      57.816 -18.019  85.728  0.00  0.00     0.086 H 
ATOM     20  C6  SIA d   1      55.444 -17.880  86.604  0.00  0.00     0.091 C 
ATOM     21  H   SIA d   1      56.530 -17.268  88.406  0.00  0.00     0.080 H 
ATOM     22  O6  SIA d   1      55.327 -19.238  87.047  0.00  0.00    -0.336 OA
ATOM     23  H   SIA d   1      55.639 -17.883  85.532  0.00  0.00     0.090 H 
BRANCH  13  24
ATOM     24  C1  SIA d   1      56.756 -19.876  85.212  0.00  0.00     0.239 C 
ATOM     25  O1A SIA d   1      55.967 -19.171  84.535  0.00  0.00    -0.644 OA
ATOM     26  O1B SIA d   1      57.826 -20.357  84.743  0.00  0.00    -0.644 OA
ENDBRANCH  13  24
BRANCH  15  27
ATOM     27  O4  SIA d   1      59.086 -17.401  87.104  0.00  0.00    -0.393 OA
ATOM     28  H   SIA d   1      59.121 -16.535  86.692  0.00  0.00     0.210 HD
ENDBRANCH  15  27
BRANCH  18  29
ATOM     29  N5  SIA d   1      56.721 -15.815  87.017  0.00  0.00    -0.352 N 
ATOM     30  C10 SIA d   1      56.185 -14.865  87.785  0.00  0.00     0.214 C 
ATOM     31  O10 SIA d   1      56.249 -13.682  87.495  0.00  0.00    -0.274 OA
ATOM     32  H   SIA d   1      57.224 -15.533  86.176  0.00  0.00     0.163 HD
BRANCH  30  33
ATOM     33  C11 SIA d   1      55.508 -15.301  89.052  0.00  0.00    -0.003 C 
ATOM     34  H   SIA d   1      56.014 -14.851  89.906  0.00  0.00     0.040 H 
ATOM     35  H   SIA d   1      54.466 -14.981  89.035  0.00  0.00     0.040 H 
ATOM     36  H   SIA d   1      55.554 -16.387  89.132  0.00  0.00     0.040 H 
ENDBRANCH  30  33
ENDBRANCH  18  29
BRANCH  20  37
ATOM     37  C7  SIA d   1      54.152 -17.082  86.727  0.00  0.00     0.089 C 
ATOM     38  H   SIA d   1      54.311 -16.166  86.159  0.00  0.00     0.091 H 
BRANCH  37  39
ATOM     39  C8  SIA d   1      52.938 -17.781  86.120  0.00  0.00     0.083 C 
ATOM     40  H   SIA d   1      52.679 -18.627  86.757  0.00  0.00     0.090 H 
BRANCH  39  41
ATOM     41  C9  SIA d   1      51.752 -16.827  86.049  0.00  0.00     0.043 C 
ATOM     42  H   SIA d   1      51.917 -16.084  85.268  0.00  0.00     0.078 H 
ATOM     43  H   SIA d   1      51.635 -16.307  87.000  0.00  0.00     0.078 H 
BRANCH  41  44
ATOM     44  O9  SIA d   1      50.580 -17.585  85.760  0.00  0.00    -0.398 OA
ATOM     45  H   SIA d   1      50.440 -18.233  86.455  0.00  0.00     0.209 HD
ENDBRANCH  41  44
ENDBRANCH  39  41
BRANCH  39  46
ATOM     46  O8  SIA d   1      53.245 -18.249  84.805  0.00  0.00    -0.391 OA
ATOM     47  H   SIA d   1      53.992 -18.850  84.847  0.00  0.00     0.210 HD
ENDBRANCH  39  46
ENDBRANCH  37  39
BRANCH  37  48
ATOM     48  O7  SIA d   1      53.885 -16.793  88.095  0.00  0.00    -0.390 OA
ATOM     49  H   SIA d   1      54.645 -16.353  88.482  0.00  0.00     0.210 HD
ENDBRANCH  37  48
ENDBRANCH  20  37
ENDBRANCH  12  13
ENDBRANCH   8  12
BRANCH   7  50
ATOM     50  O2  GAL d   1      57.111 -23.499  88.697  0.00  0.00    -0.388 OA
ATOM     51  H   SIA d   1      57.210 -24.429  88.913  0.00  0.00     0.210 HD
ENDBRANCH   7  50
BRANCH   9  52
ATOM     52  O4  GAL d   1      53.390 -22.078  87.302  0.00  0.00    -0.390 OA
ATOM     53  H   SIA d   1      53.720 -21.830  86.435  0.00  0.00     0.210 HD
ENDBRANCH   9  52
BRANCH   6  54
ATOM     54  O4  NAG d   1      55.040 -25.034  90.045  0.00  0.00    -0.348 OA
BRANCH  54  55
ATOM     55  C4  NAG d   1      55.652 -25.338  91.291  0.00  0.00     0.095 C 
ATOM     56  C3  NAG d   1      54.622 -25.500  92.421  0.00  0.00     0.087 C 
ATOM     57  C2  NAG d   1      54.153 -26.942  92.619  0.00  0.00     0.086 C 
ATOM     58  H   SIA d   1      53.747 -24.921  92.128  0.00  0.00     0.090 H 
ATOM     59  C1  NAG d   1      54.587 -27.796  91.435  0.00  0.00     0.151 C 
ATOM     60  H   SIA d   1      54.609 -27.331  93.529  0.00  0.00     0.084 H 
ATOM     61  O5  NAG d   1      56.000 -27.799  91.366  0.00  0.00    -0.349 OA
ATOM     62  H   SIA d   1      54.183 -27.388  90.509  0.00  0.00     0.132 H 
ATOM     63  C5  NAG d   1      56.606 -26.533  91.134  0.00  0.00     0.089 C 
ATOM     64  H   SIA d   1      56.897 -26.507  90.084  0.00  0.00     0.090 H 
ATOM     65  H   SIA d   1      56.261 -24.489  91.601  0.00  0.00     0.091 H 
BRANCH  56  66
ATOM     66  O3  NAG d   1      55.168 -25.018  93.631  0.00  0.00    -0.391 OA
ATOM     67  H   SIA d   1      54.523 -25.120  94.335  0.00  0.00     0.210 HD
ENDBRANCH  56  66
BRANCH  57  68
ATOM     68  N2  NAG d   1      52.707 -27.000  92.772  0.00  0.00    -0.349 N 
ATOM     69  C7  NAG d   1      52.094 -26.982  93.957  0.00  0.00     0.214 C 
ATOM     70  O7  NAG d   1      52.696 -26.914  95.026  0.00  0.00    -0.274 OA
ATOM     71  H   SIA d   1      52.133 -27.057  91.931  0.00  0.00     0.163 HD
BRANCH  69  72
ATOM     72  C8  NAG d   1      50.594 -27.037  93.938  0.00  0.00    -0.003 C 
ATOM     73  H   SIA d   1      50.257 -27.917  94.485  0.00  0.00     0.040 H 
ATOM     74  H   SIA d   1      50.193 -26.139  94.409  0.00  0.00     0.040 H 
ATOM     75  H   SIA d   1      50.247 -27.094  92.906  0.00  0.00     0.040 H 
ENDBRANCH  69  72
ENDBRANCH  57  68
BRANCH  59  76
ATOM     76  O1  NAG d   1      54.100 -29.112  91.600  0.00  0.00    -0.369 OA
ATOM     77  H   SIA d   1      54.453 -29.483  92.412  0.00  0.00     0.212 HD
ENDBRANCH  59  76
BRANCH  63  78
ATOM     78  C6  NAG d   1      57.853 -26.393  92.013  0.00  0.00     0.043 C 
ATOM     79  H   SIA d   1      58.688 -26.907  91.536  0.00  0.00     0.078 H 
ATOM     80  H   SIA d   1      57.654 -26.832  92.990  0.00  0.00     0.078 H 
BRANCH  78  81
ATOM     81  O6  NAG d   1      58.180 -25.025  92.175  0.00  0.00    -0.398 OA
ATOM     82  H   SIA d   1      57.446 -24.569  92.593  0.00  0.00     0.209 HD
ENDBRANCH  78  81
ENDBRANCH  63  78
ENDBRANCH  54  55
ENDBRANCH   6  54
BRANCH  10  83
ATOM     83  C6  GAL d   1      52.106 -21.274  89.866  0.00  0.00     0.043 C 
ATOM     84  H   SIA d   1      51.632 -21.119  88.897  0.00  0.00     0.078 H 
ATOM     85  H   SIA d   1      52.127 -20.341  90.429  0.00  0.00     0.078 H 
BRANCH  83  86
ATOM     86  O6  GAL d   1      51.369 -22.235  90.592  0.00  0.00    -0.398 OA
ATOM     87  H   SIA d   1      51.351 -23.060  90.102  0.00  0.00     0.209 HD
ENDBRANCH  83  86
ENDBRANCH  10  83
TORSDOF 24
