REMARK  12 active torsions:
REMARK  status: ('A' for Active; 'I' for Inactive)
REMARK    1  A    between atoms: C3_3  and  C1A_12 
REMARK    2  A    between atoms: C7_8  and  O7_9 
REMARK       I    between atoms: C1A_12  and  N2A_14 
REMARK    3  A    between atoms: N2A_14  and  C2A_15 
REMARK    4  A    between atoms: C2A_15  and  C3A_16 
REMARK    5  A    between atoms: C2A_15  and  C4D_19 
REMARK    6  A    between atoms: C3A_16  and  C3D_17 
REMARK    7  A    between atoms: C3A_16  and  C3B_18 
REMARK    8  A    between atoms: C4D_19  and  N11_20 
REMARK    9  A    between atoms: C31_22  and  C34_23 
REMARK   10  A    between atoms: C41_24  and  C4E_27 
REMARK   11  A    between atoms: C41_24  and  C1C_28 
REMARK   12  A    between atoms: C3C_30  and  O3C_31 
ROOT
ATOM      1  C2A JDC d   1       2.445 -25.585  56.711  0.00  0.00     0.030 C 
ATOM      2  H   JDC d   1       2.005 -26.093  57.569  0.00  0.00     0.075 H 
ENDROOT
BRANCH   1   3
ATOM      3  N2A JDC d   1       2.503 -24.178  56.921  0.00  0.00    -0.353 N 
ATOM      4  C1A JDC d   1       2.111 -23.598  58.190  0.00  0.00     0.249 C 
ATOM      5  O1  JDC d   1       1.727 -24.318  59.120  0.00  0.00    -0.271 OA
ATOM      6  H   JDC d   1       2.825 -23.570  56.168  0.00  0.00     0.163 HD
BRANCH   4   7
ATOM      7  C3  JDC d   1       2.200 -22.081  58.366  0.00  0.00     0.181 C 
ATOM      8  N2  JDC d   1       2.925 -21.788  59.558  0.00  0.00    -0.058 N 
ATOM      9  C1  JDC d   1       3.212 -20.410  59.668  0.00  0.00     0.107 C 
ATOM     10  H   JDC d   1       2.354 -22.063  60.358  0.00  0.00     0.278 HD
ATOM     11  H   JDC d   1       3.807 -22.299  59.532  0.00  0.00     0.278 HD
ATOM     12  C8A JDC d   1       2.050 -19.540  59.431  0.00  0.00    -0.024 A 
ATOM     13  H   JDC d   1       3.956 -20.172  58.908  0.00  0.00     0.083 H 
ATOM     14  H   JDC d   1       3.550 -20.229  60.688  0.00  0.00     0.083 H 
ATOM     15  C4A JDC d   1       0.941 -19.983  58.845  0.00  0.00    -0.048 A 
ATOM     16  C8  JDC d   1       2.166 -18.147  59.863  0.00  0.00    -0.043 A 
ATOM     17  C4  JDC d   1       0.834 -21.417  58.395  0.00  0.00    -0.005 C 
ATOM     18  C5  JDC d   1      -0.162 -19.056  58.639  0.00  0.00    -0.074 A 
ATOM     19  H   JDC d   1       0.197 -21.957  59.096  0.00  0.00     0.043 H 
ATOM     20  H   JDC d   1       0.413 -21.438  57.390  0.00  0.00     0.043 H 
ATOM     21  C6  JDC d   1      -0.050 -17.705  59.061  0.00  0.00    -0.051 A 
ATOM     22  H   JDC d   1      -1.078 -19.400  58.159  0.00  0.00     0.084 H 
ATOM     23  C7  JDC d   1       1.111 -17.258  59.670  0.00  0.00     0.066 A 
ATOM     24  H   JDC d   1      -0.881 -17.017  58.905  0.00  0.00     0.087 H 
ATOM     25  H   JDC d   1       3.084 -17.802  60.339  0.00  0.00     0.088 H 
ATOM     26  H   JDC d   1       2.724 -21.673  57.502  0.00  0.00     0.100 H 
BRANCH  23  27
ATOM     27  O7  JDC d   1       1.231 -15.978  60.074  0.00  0.00    -0.361 OA
ATOM     28  H   JDC d   1       0.548 -15.782  60.720  0.00  0.00     0.217 HD
ENDBRANCH  23  27
ENDBRANCH   4   7
ENDBRANCH   1   3
BRANCH   1  29
ATOM     29  C3A JDC d   1       1.614 -25.743  55.429  0.00  0.00    -0.040 C 
ATOM     30  H   JDC d   1       2.165 -25.187  54.671  0.00  0.00     0.042 H 
BRANCH  29  31
ATOM     31  C3D JDC d   1       0.193 -25.053  55.545  0.00  0.00    -0.071 C 
ATOM     32  H   JDC d   1      -0.363 -25.505  56.366  0.00  0.00     0.028 H 
ATOM     33  H   JDC d   1       0.322 -23.988  55.735  0.00  0.00     0.028 H 
ATOM     34  H   JDC d   1      -0.355 -25.193  54.613  0.00  0.00     0.028 H 
ENDBRANCH  29  31
BRANCH  29  35
ATOM     35  C3B JDC d   1       1.576 -27.107  54.864  0.00  0.00    -0.071 C 
ATOM     36  H   JDC d   1       2.589 -27.425  54.617  0.00  0.00     0.028 H 
ATOM     37  H   JDC d   1       1.147 -27.791  55.597  0.00  0.00     0.028 H 
ATOM     38  H   JDC d   1       0.964 -27.108  53.962  0.00  0.00     0.028 H 
ENDBRANCH  29  35
ENDBRANCH   1  29
BRANCH   1  39
ATOM     39  C4D JDC d   1       3.811 -26.223  56.565  0.00  0.00     0.009 C 
ATOM     40  H   JDC d   1       4.360 -25.600  55.859  0.00  0.00     0.066 H 
ATOM     41  H   JDC d   1       3.631 -27.256  56.266  0.00  0.00     0.066 H 
BRANCH  39  42
ATOM     42  N11 JDC d   1       4.678 -26.293  57.835  0.00  0.00    -0.410 N 
ATOM     43  C21 JDC d   1       4.043 -27.036  58.903  0.00  0.00    -0.006 C 
ATOM     44  C31 JDC d   1       4.679 -26.846  60.229  0.00  0.00    -0.031 C 
ATOM     45  H   JDC d   1       4.124 -28.094  58.654  0.00  0.00     0.064 H 
ATOM     46  H   JDC d   1       3.017 -26.677  58.982  0.00  0.00     0.064 H 
ATOM     47  C41 JDC d   1       6.129 -27.032  60.202  0.00  0.00    -0.011 C 
ATOM     48  H   JDC d   1       4.299 -27.609  60.908  0.00  0.00     0.043 H 
ATOM     49  C51 JDC d   1       6.752 -26.272  59.152  0.00  0.00    -0.040 C 
ATOM     50  C61 JDC d   1       6.115 -26.461  57.818  0.00  0.00    -0.009 C 
ATOM     51  H   JDC d   1       7.785 -26.612  59.072  0.00  0.00     0.037 H 
ATOM     52  H   JDC d   1       6.658 -25.218  59.412  0.00  0.00     0.037 H 
ATOM     53  H   JDC d   1       6.525 -25.704  57.149  0.00  0.00     0.063 H 
ATOM     54  H   JDC d   1       6.322 -27.482  57.498  0.00  0.00     0.063 H 
BRANCH  44  55
ATOM     55  C34 JDC d   1       4.312 -25.401  60.739  0.00  0.00    -0.070 C 
ATOM     56  H   JDC d   1       4.686 -24.661  60.031  0.00  0.00     0.028 H 
ATOM     57  H   JDC d   1       3.229 -25.311  60.823  0.00  0.00     0.028 H 
ATOM     58  H   JDC d   1       4.768 -25.235  61.715  0.00  0.00     0.028 H 
ENDBRANCH  44  55
BRANCH  47  59
ATOM     59  C4E JDC d   1       6.423 -28.478  59.844  0.00  0.00    -0.065 C 
ATOM     60  H   JDC d   1       5.977 -29.134  60.592  0.00  0.00     0.028 H 
ATOM     61  H   JDC d   1       6.000 -28.702  58.864  0.00  0.00     0.028 H 
ATOM     62  H   JDC d   1       7.502 -28.633  59.820  0.00  0.00     0.028 H 
ENDBRANCH  47  59
BRANCH  47  63
ATOM     63  C1C JDC d   1       6.721 -26.803  61.593  0.00  0.00    -0.047 A 
ATOM     64  C2C JDC d   1       6.111 -27.382  62.709  0.00  0.00    -0.044 A 
ATOM     65  C3C JDC d   1       6.658 -27.175  63.992  0.00  0.00     0.066 A 
ATOM     66  H   JDC d   1       5.215 -27.991  62.588  0.00  0.00     0.088 H 
ATOM     67  C4C JDC d   1       7.839 -26.372  64.148  0.00  0.00    -0.051 A 
ATOM     68  C5C JDC d   1       8.441 -25.801  63.038  0.00  0.00    -0.080 A 
ATOM     69  H   JDC d   1       8.262 -26.212  65.140  0.00  0.00     0.087 H 
ATOM     70  C6C JDC d   1       7.899 -26.005  61.754  0.00  0.00    -0.076 A 
ATOM     71  H   JDC d   1       9.337 -25.192  63.159  0.00  0.00     0.083 H 
ATOM     72  H   JDC d   1       8.376 -25.555  60.883  0.00  0.00     0.084 H 
BRANCH  65  73
ATOM     73  O3C JDC d   1       6.021 -27.774  65.151  0.00  0.00    -0.361 OA
ATOM     74  H   JDC d   1       6.512 -27.539  65.942  0.00  0.00     0.217 HD
ENDBRANCH  65  73
ENDBRANCH  47  63
ENDBRANCH  39  42
ENDBRANCH   1  39
TORSDOF 12
