REMARK WARNING: 32 MAX_TORS EXCEEDED!!!
REMARK  60 active torsions:
REMARK  status: ('A' for Active; 'I' for Inactive)
REMARK    1  A    between atoms: CA_2  and  N_1 
REMARK    2  A    between atoms: C_3  and  CA_2 
REMARK    3  A    between atoms: CA_2  and  CB_5 
REMARK       I    between atoms: N_12  and  C_3 
REMARK    4  A    between atoms: CB_5  and  CG_6 
REMARK    5  A    between atoms: CG_6  and  CD_7 
REMARK    6  A    between atoms: CD_7  and  NE_8 
REMARK       I    between atoms: NE_8  and  CZ_9 
REMARK       I    between atoms: CZ_9  and  NH1_10 
REMARK       I    between atoms: CZ_9  and  NH2_11 
REMARK    7  A    between atoms: CA_13  and  N_12 
REMARK    8  A    between atoms: C_14  and  CA_13 
REMARK    9  A    between atoms: CA_13  and  CB_16 
REMARK       I    between atoms: N_26  and  C_14 
REMARK   10  A    between atoms: CB_16  and  CG_17 
REMARK   11  A    between atoms: C_28  and  CA_27 
REMARK       I    between atoms: N_33  and  C_28 
REMARK   12  A    between atoms: CA_34  and  N_33 
REMARK   13  A    between atoms: C_35  and  CA_34 
REMARK   14  A    between atoms: CA_34  and  CB_37 
REMARK       I    between atoms: N_43  and  C_35 
REMARK   15  A    between atoms: CB_37  and  CG_38 
REMARK   16  A    between atoms: CG_38  and  CD_39 
REMARK       I    between atoms: CD_39  and  NE2_41 
REMARK   17  A    between atoms: CA_45  and  N_43 
REMARK   18  A    between atoms: CA_45  and  CB1_50 
REMARK   19  A    between atoms: CA_52  and  CB_55 
REMARK   20  A    between atoms: CB_55  and  CG1_56 
REMARK   21  A    between atoms: CB_55  and  CG2_57 
REMARK   22  A    between atoms: CG1_56  and  CD1_58 
REMARK   23  A    between atoms: CA_60  and  CB_63 
REMARK   24  A    between atoms: CB_63  and  CG_64 
REMARK   25  A    between atoms: CG_64  and  CD1_65 
REMARK   26  A    between atoms: CG_64  and  CD2_66 
REMARK   27  A    between atoms: CA_68  and  CB_71 
REMARK   28  A    between atoms: CB_71  and  CG_72 
REMARK   29  A    between atoms: CA_78  and  C_75 
REMARK       I    between atoms: C_75  and  N_84 
REMARK   30  A    between atoms: CA_78  and  CB1_83 
REMARK   31  A    between atoms: N_84  and  CA_85 
REMARK   32  A    between atoms: CA_85  and  C_86 
REMARK   33  A    between atoms: CA_85  and  CB_88 
REMARK       I    between atoms: C_86  and  N_94 
REMARK   34  A    between atoms: CB_88  and  CG_89 
REMARK   35  A    between atoms: N_94  and  CA_95 
REMARK   36  A    between atoms: CA_95  and  C_96 
REMARK   37  A    between atoms: CA_95  and  CB_98 
REMARK       I    between atoms: C_96  and  N_101 
REMARK   38  A    between atoms: CB_98  and  CG1_99 
REMARK   39  A    between atoms: CB_98  and  CG2_100 
REMARK   40  A    between atoms: N_101  and  CA_102 
REMARK   41  A    between atoms: CA_102  and  C_103 
REMARK   42  A    between atoms: CA_102  and  CB_105 
REMARK       I    between atoms: C_103  and  N_112 
REMARK   43  A    between atoms: CB_105  and  CG_106 
REMARK   44  A    between atoms: CG_106  and  CD_107 
REMARK   45  A    between atoms: CD_107  and  NE_108 
REMARK       I    between atoms: NE_108  and  CZ_109 
REMARK       I    between atoms: CZ_109  and  NH1_110 
REMARK       I    between atoms: CZ_109  and  NH2_111 
REMARK   46  A    between atoms: N_112  and  CA_113 
REMARK   47  A    between atoms: CA_113  and  C_114 
REMARK   48  A    between atoms: CA_113  and  CB_116 
REMARK       I    between atoms: C_114  and  N_123 
REMARK   49  A    between atoms: CB_116  and  CG_117 
REMARK   50  A    between atoms: CG_117  and  CD_118 
REMARK   51  A    between atoms: CD_118  and  NE_119 
REMARK       I    between atoms: NE_119  and  CZ_120 
REMARK       I    between atoms: CZ_120  and  NH1_121 
REMARK       I    between atoms: CZ_120  and  NH2_122 
REMARK   52  A    between atoms: N_123  and  CA_124 
REMARK   53  A    between atoms: CA_124  and  C_125 
REMARK   54  A    between atoms: CA_124  and  CB_127 
REMARK       I    between atoms: C_125  and  N_130 
REMARK   55  A    between atoms: CB_127  and  CG1_128 
REMARK   56  A    between atoms: CB_127  and  CG2_129 
REMARK   57  A    between atoms: N_130  and  CA_131 
REMARK   58  A    between atoms: CA_131  and  C_132 
REMARK   59  A    between atoms: CA_131  and  CB_134 
REMARK   60  A    between atoms: CB_134  and  CG_135 
ROOT
ATOM      1  C   MK8 d   1     -18.007   2.307 -67.525  0.00  0.00     0.180 C 
ATOM      2  O   MK8 d   1     -17.042   1.476 -67.016  0.00  0.00    -0.175 OA
ATOM      3  CA  MK8 d   1     -19.368   1.729 -67.637  0.00  0.00     0.097 C 
ATOM      4  CB  MK8 d   1     -19.779   1.677 -69.082  0.00  0.00    -0.034 C 
ATOM      5  CD  MK8 d   1     -17.677   1.001 -70.447  0.00  0.00    -0.050 C 
ATOM      6  CE  MK8 d   1     -16.850  -0.122 -70.986  0.00  0.00    -0.106 C 
ATOM      7  CG  MK8 d   1     -19.087   0.736 -70.018  0.00  0.00    -0.059 C 
ATOM      8  N   MK8 d   1     -14.618   0.153 -66.220  0.00  0.00    -0.339 N 
ATOM      9  CA  MK8 d   1     -13.466  -0.253 -66.982  0.00  0.00     0.115 C 
ATOM     10  CB  MK8 d   1     -13.697  -0.054 -68.442  0.00  0.00    -0.072 C 
ATOM     11  CD  MK8 d   1     -14.546   1.060 -70.468  0.00  0.00    -0.035 C 
ATOM     12  CE  MK8 d   1     -15.468   0.096 -71.123  0.00  0.00    -0.103 C 
ATOM     13  CG  MK8 d   1     -14.543   1.045 -68.983  0.00  0.00    -0.101 C 
ATOM     14  H42 MK8 d   1     -19.642   2.690 -69.489  0.00  0.00     0.037 H 
ATOM     15  H43 MK8 d   1     -20.848   1.416 -69.100  0.00  0.00     0.037 H 
ATOM     16  H44 MK8 d   1     -17.720   1.772 -71.231  0.00  0.00     0.038 H 
ATOM     17  H45 MK8 d   1     -17.145   1.399 -69.570  0.00  0.00     0.038 H 
ATOM     18  H46 MK8 d   1     -17.302  -1.074 -71.262  0.00  0.00     0.076 H 
ATOM     19  H47 MK8 d   1     -19.695   0.697 -70.934  0.00  0.00     0.033 H 
ATOM     20  H48 MK8 d   1     -19.090  -0.252 -69.534  0.00  0.00     0.033 H 
ATOM     21  H78 MK8 d   1     -15.390   0.578 -66.692  0.00  0.00     0.164 HD
ATOM     22  H79 MK8 d   1     -13.226  -0.742 -69.142  0.00  0.00     0.081 H 
ATOM     23  H80 MK8 d   1     -14.828   2.072 -70.795  0.00  0.00     0.044 H 
ATOM     24  H81 MK8 d   1     -13.525   0.836 -70.810  0.00  0.00     0.044 H 
ATOM     25  H82 MK8 d   1     -14.984  -0.563 -71.842  0.00  0.00     0.076 H 
ATOM     26  H83 MK8 d   1     -15.093   1.752 -68.365  0.00  0.00     0.076 H 
ATOM     27  N   ILE d   1     -18.026   3.581 -67.790  0.00  0.00    -0.356 N 
ATOM     28  CA  ILE d   1     -16.808   4.357 -67.963  0.00  0.00     0.091 C 
ATOM     29  C   ILE d   1     -15.910   4.255 -66.736  0.00  0.00     0.241 C 
ATOM     30  O   ILE d   1     -14.688   4.159 -66.853  0.00  0.00    -0.271 OA
ATOM     31  H52 ILE d   1     -18.909   4.043 -67.878  0.00  0.00     0.162 HD
ATOM     32  H53 ILE d   1     -16.265   3.955 -68.831  0.00  0.00     0.088 H 
ATOM     33  N   LEU d   1     -16.524   4.294 -65.559  0.00  0.00    -0.346 N 
ATOM     34  CA  LEU d   1     -15.783   4.228 -64.306  0.00  0.00     0.089 C 
ATOM     35  C   LEU d   1     -15.306   2.809 -64.022  0.00  0.00     0.241 C 
ATOM     36  O   LEU d   1     -14.193   2.599 -63.537  0.00  0.00    -0.271 OA
ATOM     37  H63 LEU d   1     -17.521   4.371 -65.532  0.00  0.00     0.163 HD
ATOM     38  H64 LEU d   1     -14.902   4.882 -64.389  0.00  0.00     0.087 H 
ATOM     39  N   ASP d   1     -16.162   1.840 -64.324  0.00  0.00    -0.346 N 
ATOM     40  CA  ASP d   1     -15.865   0.441 -64.070  0.00  0.00     0.098 C 
ATOM     41  C   ASP d   1     -14.681  -0.024 -64.893  0.00  0.00     0.242 C 
ATOM     42  O   ASP d   1     -13.712  -0.531 -64.335  0.00  0.00    -0.271 OA
ATOM     43  H74 ASP d   1     -17.039   2.081 -64.740  0.00  0.00     0.163 HD
ATOM     44  H75 ASP d   1     -15.613   0.329 -63.005  0.00  0.00     0.088 H 
ENDROOT
BRANCH   9  45
ATOM     45  C   MK8 d   1     -12.293   0.537 -66.550  0.00  0.00     0.184 C 
ATOM     46  O   MK8 d   1     -11.069   0.172 -67.037  0.00  0.00    -0.174 OA
ATOM     47  N   HIS d   1     -12.374   1.686 -66.039  0.00  0.00    -0.356 N 
ATOM     48  H87 HIS d   1     -13.281   2.096 -65.941  0.00  0.00     0.162 HD
BRANCH  47  49
ATOM     49  CA  HIS d   1     -11.227   2.447 -65.586  0.00  0.00     0.093 C 
ATOM     50  H88 HIS d   1     -10.444   2.401 -66.357  0.00  0.00     0.088 H 
BRANCH  49  51
ATOM     51  C   HIS d   1     -10.662   1.866 -64.290  0.00  0.00     0.241 C 
ATOM     52  O   HIS d   1      -9.450   1.682 -64.153  0.00  0.00    -0.271 OA
ATOM     53  N   VAL d   1     -11.548   1.594 -63.337  0.00  0.00    -0.346 N 
ATOM     54  H94 VAL d   1     -12.512   1.809 -63.493  0.00  0.00     0.163 HD
BRANCH  53  55
ATOM     55  CA  VAL d   1     -11.152   0.992 -62.073  0.00  0.00     0.092 C 
ATOM     56  H95 VAL d   1     -10.534   1.717 -61.523  0.00  0.00     0.088 H 
BRANCH  55  57
ATOM     57  C   VAL d   1     -10.327  -0.264 -62.326  0.00  0.00     0.241 C 
ATOM     58  O   VAL d   1      -9.260  -0.442 -61.742  0.00  0.00    -0.271 OA
ATOM     59  N   ARG d   1     -10.823  -1.127 -63.206  0.00  0.00    -0.346 N 
ATOM     60 3H10 ARG d   1     -11.702  -0.931 -63.641  0.00  0.00     0.163 HD
BRANCH  59  61
ATOM     61  CA  ARG d   1     -10.115  -2.352 -63.552  0.00  0.00     0.089 C 
ATOM     62 4H10 ARG d   1     -10.035  -2.976 -62.650  0.00  0.00     0.087 H 
BRANCH  61  63
ATOM     63  C   ARG d   1      -8.709  -2.035 -64.051  0.00  0.00     0.241 C 
ATOM     64  O   ARG d   1      -7.745  -2.699 -63.677  0.00  0.00    -0.271 OA
ATOM     65  N   ARG d   1      -8.603  -1.012 -64.895  0.00  0.00    -0.346 N 
ATOM     66 6H11 ARG d   1      -9.429  -0.510 -65.153  0.00  0.00     0.163 HD
BRANCH  65  67
ATOM     67  CA  ARG d   1      -7.320  -0.598 -65.456  0.00  0.00     0.089 C 
ATOM     68 7H11 ARG d   1      -6.905  -1.449 -66.016  0.00  0.00     0.087 H 
BRANCH  67  69
ATOM     69  C   ARG d   1      -6.312  -0.208 -64.376  0.00  0.00     0.241 C 
ATOM     70  O   ARG d   1      -5.110  -0.423 -64.530  0.00  0.00    -0.271 OA
ATOM     71  N   VAL d   1      -6.807   0.364 -63.283  0.00  0.00    -0.346 N 
ATOM     72 9H12 VAL d   1      -7.799   0.429 -63.173  0.00  0.00     0.163 HD
BRANCH  71  73
ATOM     73  CA  VAL d   1      -5.937   0.899 -62.240  0.00  0.00     0.092 C 
ATOM     74 0H13 VAL d   1      -4.915   0.926 -62.645  0.00  0.00     0.088 H 
BRANCH  73  75
ATOM     75  C   VAL d   1      -5.919   0.039 -60.978  0.00  0.00     0.241 C 
ATOM     76  O   VAL d   1      -4.919  -0.609 -60.674  0.00  0.00    -0.271 OA
ATOM     77  N   TRP d   1      -7.024   0.047 -60.242  0.00  0.00    -0.344 N 
ATOM     78 8H13 TRP d   1      -7.809   0.588 -60.544  0.00  0.00     0.163 HD
BRANCH  77  79
ATOM     79  CA  TRP d   1      -7.119  -0.716 -59.003  0.00  0.00     0.100 C 
ATOM     80 9H13 TRP d   1      -6.201  -0.542 -58.423  0.00  0.00     0.090 H 
BRANCH  79  81
ATOM     81  C   TRP d   1      -7.228  -2.211 -59.283  0.00  0.00     0.197 C 
ATOM     82  O   TRP d   1      -6.942  -3.060 -58.397  0.00  0.00    -0.646 OA
ATOM     83  O   TRP d   1      -7.609  -2.604 -60.418  0.00  0.00    -0.646 OA
ENDBRANCH  79  81
BRANCH  79  84
ATOM     84  CB  TRP d   1      -8.312  -0.244 -58.167  0.00  0.00    -0.011 C 
ATOM     85 0H14 TRP d   1      -8.273  -0.747 -57.189  0.00  0.00     0.044 H 
ATOM     86 1H14 TRP d   1      -9.238  -0.528 -58.689  0.00  0.00     0.044 H 
BRANCH  84  87
ATOM     87  CG  TRP d   1      -8.331   1.235 -57.939  0.00  0.00    -0.028 A 
ATOM     88  CD1 TRP d   1      -9.360   2.093 -58.197  0.00  0.00    -0.015 A 
ATOM     89  NE1 TRP d   1      -9.001   3.377 -57.864  0.00  0.00    -0.365 N 
ATOM     90 2H14 TRP d   1     -10.326   1.802 -58.607  0.00  0.00     0.112 H 
ATOM     91  CE2 TRP d   1      -7.717   3.368 -57.388  0.00  0.00     0.042 A 
ATOM     92 3H14 TRP d   1      -9.600   4.210 -57.957  0.00  0.00     0.165 HD
ATOM     93  CD2 TRP d   1      -7.261   2.035 -57.423  0.00  0.00    -0.002 A 
ATOM     94  CZ2 TRP d   1      -6.921   4.416 -56.932  0.00  0.00    -0.056 A 
ATOM     95  CE3 TRP d   1      -5.964   1.753 -56.985  0.00  0.00    -0.070 A 
ATOM     96  CZ3 TRP d   1      -5.176   2.794 -56.533  0.00  0.00    -0.082 A 
ATOM     97 4H14 TRP d   1      -5.584   0.738 -57.000  0.00  0.00     0.084 H 
ATOM     98  CH2 TRP d   1      -5.656   4.109 -56.511  0.00  0.00    -0.081 A 
ATOM     99 6H14 TRP d   1      -4.168   2.589 -56.189  0.00  0.00     0.083 H 
ATOM    100 7H14 TRP d   1      -5.010   4.902 -56.152  0.00  0.00     0.083 H 
ATOM    101 5H14 TRP d   1      -7.290   5.435 -56.911  0.00  0.00     0.086 H 
ENDBRANCH  84  87
ENDBRANCH  79  84
ENDBRANCH  77  79
ENDBRANCH  73  75
BRANCH  73 102
ATOM    102  CB  VAL d   1      -6.342   2.334 -61.860  0.00  0.00    -0.033 C 
ATOM    103 1H13 VAL d   1      -7.377   2.317 -61.486  0.00  0.00     0.042 H 
BRANCH 102 104
ATOM    104  CG1 VAL d   1      -5.443   2.862 -60.756  0.00  0.00    -0.071 C 
ATOM    105 2H13 VAL d   1      -5.745   3.887 -60.496  0.00  0.00     0.028 H 
ATOM    106 3H13 VAL d   1      -4.399   2.864 -61.103  0.00  0.00     0.028 H 
ATOM    107 4H13 VAL d   1      -5.534   2.217 -59.869  0.00  0.00     0.028 H 
ENDBRANCH 102 104
BRANCH 102 108
ATOM    108  CG2 VAL d   1      -6.288   3.237 -63.081  0.00  0.00    -0.071 C 
ATOM    109 5H13 VAL d   1      -6.946   2.834 -63.865  0.00  0.00     0.028 H 
ATOM    110 6H13 VAL d   1      -5.255   3.283 -63.458  0.00  0.00     0.028 H 
ATOM    111 7H13 VAL d   1      -6.623   4.248 -62.805  0.00  0.00     0.028 H 
ENDBRANCH 102 108
ENDBRANCH  73 102
ENDBRANCH  71  73
ENDBRANCH  67  69
BRANCH  67 112
ATOM    112  CB  ARG d   1      -7.518   0.571 -66.427  0.00  0.00    -0.036 C 
ATOM    113 8H11 ARG d   1      -6.551   1.081 -66.551  0.00  0.00     0.036 H 
ATOM    114 9H11 ARG d   1      -8.245   1.267 -65.982  0.00  0.00     0.036 H 
BRANCH 112 115
ATOM    115  CG  ARG d   1      -8.026   0.173 -67.809  0.00  0.00    -0.048 C 
ATOM    116 0H12 ARG d   1      -8.671  -0.712 -67.711  0.00  0.00     0.035 H 
ATOM    117 1H12 ARG d   1      -7.165  -0.069 -68.450  0.00  0.00     0.035 H 
BRANCH 115 118
ATOM    118  CD  ARG d   1      -8.826   1.301 -68.458  0.00  0.00     0.009 C 
ATOM    119 2H12 ARG d   1      -9.816   1.349 -67.981  0.00  0.00     0.064 H 
ATOM    120 3H12 ARG d   1      -8.946   1.076 -69.528  0.00  0.00     0.064 H 
BRANCH 118 121
ATOM    121  NE  ARG d   1      -8.180   2.604 -68.325  0.00  0.00    -0.227 N 
ATOM    122  CZ  ARG d   1      -8.778   3.764 -68.588  0.00  0.00     0.665 C 
ATOM    123  NH1 ARG d   1     -10.040   3.784 -68.995  0.00  0.00    -0.235 N 
ATOM    124  NH2 ARG d   1      -8.116   4.904 -68.439  0.00  0.00    -0.235 N 
ATOM    125 5H12 ARG d   1     -10.501   4.682 -69.198  0.00  0.00     0.174 HD
ATOM    126 6H12 ARG d   1     -10.559   2.901 -69.108  0.00  0.00     0.174 HD
ATOM    127 7H12 ARG d   1      -7.136   4.893 -68.123  0.00  0.00     0.174 HD
ATOM    128 8H12 ARG d   1      -8.582   5.800 -68.639  0.00  0.00     0.174 HD
ATOM    129 4H12 ARG d   1      -7.200   2.627 -68.008  0.00  0.00     0.177 HD
ENDBRANCH 118 121
ENDBRANCH 115 118
ENDBRANCH 112 115
ENDBRANCH  67 112
ENDBRANCH  65  67
ENDBRANCH  61  63
BRANCH  61 130
ATOM    130  CB  ARG d   1     -10.885  -3.131 -64.619  0.00  0.00    -0.036 C 
ATOM    131 5H10 ARG d   1     -10.338  -4.062 -64.828  0.00  0.00     0.036 H 
ATOM    132 6H10 ARG d   1     -10.925  -2.517 -65.531  0.00  0.00     0.036 H 
BRANCH 130 133
ATOM    133  CG  ARG d   1     -12.309  -3.494 -64.226  0.00  0.00    -0.048 C 
ATOM    134 7H10 ARG d   1     -12.864  -3.777 -65.132  0.00  0.00     0.035 H 
ATOM    135 8H10 ARG d   1     -12.783  -2.615 -63.764  0.00  0.00     0.035 H 
BRANCH 133 136
ATOM    136  CD  ARG d   1     -12.361  -4.648 -63.243  0.00  0.00     0.009 C 
ATOM    137 9H10 ARG d   1     -11.839  -4.356 -62.319  0.00  0.00     0.064 H 
ATOM    138 0H11 ARG d   1     -11.860  -5.521 -63.687  0.00  0.00     0.064 H 
BRANCH 136 139
ATOM    139  NE  ARG d   1     -13.740  -5.004 -62.919  0.00  0.00    -0.227 N 
ATOM    140  CZ  ARG d   1     -14.492  -5.819 -63.650  0.00  0.00     0.665 C 
ATOM    141  NH1 ARG d   1     -14.000  -6.368 -64.752  0.00  0.00    -0.235 N 
ATOM    142  NH2 ARG d   1     -15.738  -6.085 -63.281  0.00  0.00    -0.235 N 
ATOM    143 2H11 ARG d   1     -14.585  -7.000 -65.318  0.00  0.00     0.174 HD
ATOM    144 3H11 ARG d   1     -13.033  -6.163 -65.042  0.00  0.00     0.174 HD
ATOM    145 4H11 ARG d   1     -16.124  -5.660 -62.425  0.00  0.00     0.174 HD
ATOM    146 5H11 ARG d   1     -16.320  -6.716 -63.850  0.00  0.00     0.174 HD
ATOM    147 1H11 ARG d   1     -14.156  -4.597 -62.069  0.00  0.00     0.177 HD
ENDBRANCH 136 139
ENDBRANCH 133 136
ENDBRANCH 130 133
ENDBRANCH  61 130
ENDBRANCH  59  61
ENDBRANCH  55  57
BRANCH  55 148
ATOM    148  CB  VAL d   1     -12.375   0.634 -61.206  0.00  0.00    -0.033 C 
ATOM    149  H96 VAL d   1     -13.057   0.013 -61.805  0.00  0.00     0.042 H 
BRANCH 148 150
ATOM    150  CG1 VAL d   1     -11.944  -0.166 -59.988  0.00  0.00    -0.071 C 
ATOM    151  H97 VAL d   1     -12.827  -0.413 -59.380  0.00  0.00     0.028 H 
ATOM    152  H98 VAL d   1     -11.241   0.430 -59.388  0.00  0.00     0.028 H 
ATOM    153  H99 VAL d   1     -11.452  -1.094 -60.314  0.00  0.00     0.028 H 
ENDBRANCH 148 150
BRANCH 148 154
ATOM    154  CG2 VAL d   1     -13.116   1.895 -60.788  0.00  0.00    -0.071 C 
ATOM    155 0H10 VAL d   1     -13.418   2.457 -61.684  0.00  0.00     0.028 H 
ATOM    156 1H10 VAL d   1     -12.456   2.520 -60.168  0.00  0.00     0.028 H 
ATOM    157 2H10 VAL d   1     -14.010   1.620 -60.209  0.00  0.00     0.028 H 
ENDBRANCH 148 154
ENDBRANCH  55 148
ENDBRANCH  53  55
ENDBRANCH  49  51
BRANCH  49 158
ATOM    158  CB  HIS d   1     -11.646   3.902 -65.395  0.00  0.00     0.004 C 
ATOM    159  H89 HIS d   1     -12.552   3.923 -64.771  0.00  0.00     0.046 H 
ATOM    160  H90 HIS d   1     -11.871   4.331 -66.383  0.00  0.00     0.046 H 
BRANCH 158 161
ATOM    161  CG  HIS d   1     -10.604   4.748 -64.741  0.00  0.00     0.053 A 
ATOM    162  ND1 HIS d   1      -9.363   4.964 -65.301  0.00  0.00    -0.247 NA
ATOM    163  CE1 HIS d   1      -8.651   5.738 -64.502  0.00  0.00     0.064 A 
ATOM    164  NE2 HIS d   1      -9.384   6.032 -63.444  0.00  0.00    -0.359 N 
ATOM    165  H92 HIS d   1      -7.632   6.076 -64.685  0.00  0.00     0.143 H 
ATOM    166  CD2 HIS d   1     -10.612   5.427 -63.570  0.00  0.00     0.002 A 
ATOM    167  H93 HIS d   1      -9.084   6.619 -62.653  0.00  0.00     0.166 HD
ATOM    168  H91 HIS d   1     -11.437   5.483 -62.861  0.00  0.00     0.114 H 
ENDBRANCH 158 161
ENDBRANCH  49 158
ENDBRANCH  47  49
ENDBRANCH   9  45
BRANCH   9 169
ATOM    169  CB1 MK8 d   1     -13.184  -1.687 -66.704  0.00  0.00    -0.042 C 
ATOM    170  H84 MK8 d   1     -12.305  -2.006 -67.282  0.00  0.00     0.032 H 
ATOM    171  H85 MK8 d   1     -14.054  -2.295 -66.994  0.00  0.00     0.032 H 
ATOM    172  H86 MK8 d   1     -12.985  -1.820 -65.630  0.00  0.00     0.032 H 
ENDBRANCH   9 169
BRANCH  40 173
ATOM    173  CB  ASP d   1     -17.083  -0.425 -64.372  0.00  0.00     0.043 C 
ATOM    174  H76 ASP d   1     -16.794  -1.483 -64.287  0.00  0.00     0.052 H 
ATOM    175  H77 ASP d   1     -17.418  -0.218 -65.399  0.00  0.00     0.052 H 
BRANCH 173 176
ATOM    176  CG  ASP d   1     -18.228  -0.158 -63.426  0.00  0.00     0.175 C 
ATOM    177  OD1 ASP d   1     -18.346   0.989 -62.945  0.00  0.00    -0.648 OA
ATOM    178  OD2 ASP d   1     -19.004  -1.099 -63.158  0.00  0.00    -0.648 OA
ENDBRANCH 173 176
ENDBRANCH  40 173
BRANCH  34 179
ATOM    179  CB  LEU d   1     -16.653   4.723 -63.149  0.00  0.00    -0.035 C 
ATOM    180  H65 LEU d   1     -16.044   4.688 -62.234  0.00  0.00     0.037 H 
ATOM    181  H66 LEU d   1     -17.503   4.032 -63.050  0.00  0.00     0.037 H 
BRANCH 179 182
ATOM    182  CG  LEU d   1     -17.218   6.139 -63.278  0.00  0.00    -0.059 C 
ATOM    183  H67 LEU d   1     -17.706   6.220 -64.260  0.00  0.00     0.038 H 
BRANCH 182 184
ATOM    184  CD1 LEU d   1     -18.267   6.419 -62.211  0.00  0.00    -0.073 C 
ATOM    185  H68 LEU d   1     -18.650   7.443 -62.334  0.00  0.00     0.028 H 
ATOM    186  H69 LEU d   1     -17.813   6.314 -61.214  0.00  0.00     0.028 H 
ATOM    187  H70 LEU d   1     -19.095   5.702 -62.314  0.00  0.00     0.028 H 
ENDBRANCH 182 184
BRANCH 182 188
ATOM    188  CD2 LEU d   1     -16.103   7.170 -63.221  0.00  0.00    -0.073 C 
ATOM    189  H71 LEU d   1     -15.358   6.948 -63.999  0.00  0.00     0.028 H 
ATOM    190  H72 LEU d   1     -15.622   7.135 -62.233  0.00  0.00     0.028 H 
ATOM    191  H73 LEU d   1     -16.522   8.173 -63.390  0.00  0.00     0.028 H 
ENDBRANCH 182 188
ENDBRANCH 179 182
ENDBRANCH  34 179
BRANCH  28 192
ATOM    192  CB  ILE d   1     -17.120   5.830 -68.220  0.00  0.00    -0.030 C 
ATOM    193  H54 ILE d   1     -17.706   6.218 -67.374  0.00  0.00     0.043 H 
BRANCH 192 194
ATOM    194  CG1 ILE d   1     -17.947   5.981 -69.499  0.00  0.00    -0.063 C 
ATOM    195  H55 ILE d   1     -18.855   5.368 -69.399  0.00  0.00     0.033 H 
ATOM    196  H56 ILE d   1     -17.347   5.613 -70.344  0.00  0.00     0.033 H 
BRANCH 194 197
ATOM    197  CD1 ILE d   1     -18.363   7.399 -69.795  0.00  0.00    -0.076 C 
ATOM    198  H60 ILE d   1     -18.950   7.422 -70.725  0.00  0.00     0.027 H 
ATOM    199  H61 ILE d   1     -17.468   8.027 -69.911  0.00  0.00     0.027 H 
ATOM    200  H62 ILE d   1     -18.975   7.782 -68.965  0.00  0.00     0.027 H 
ENDBRANCH 194 197
ENDBRANCH 192 194
BRANCH 192 201
ATOM    201  CG2 ILE d   1     -15.832   6.630 -68.326  0.00  0.00    -0.071 C 
ATOM    202  H57 ILE d   1     -15.249   6.511 -67.400  0.00  0.00     0.028 H 
ATOM    203  H58 ILE d   1     -16.072   7.693 -68.475  0.00  0.00     0.028 H 
ATOM    204  H59 ILE d   1     -15.242   6.264 -69.180  0.00  0.00     0.028 H 
ENDBRANCH 192 201
ENDBRANCH  28 192
BRANCH   3 205
ATOM    205  N   MK8 d   1     -20.284   2.559 -66.888  0.00  0.00    -0.343 N 
ATOM    206  C   GLN d   1     -20.038   3.033 -65.628  0.00  0.00     0.241 C 
ATOM    207  O   GLN d   1     -19.068   2.818 -64.896  0.00  0.00    -0.271 OA
ATOM    208  H41 MK8 d   1     -21.153   2.803 -67.318  0.00  0.00     0.163 HD
BRANCH 206 209
ATOM    209  CA  GLN d   1     -21.248   3.793 -65.095  0.00  0.00     0.090 C 
ATOM    210  H34 GLN d   1     -20.878   4.629 -64.484  0.00  0.00     0.087 H 
BRANCH 209 211
ATOM    211  N   GLN d   1     -22.070   4.349 -66.161  0.00  0.00    -0.346 N 
ATOM    212  C   PRO d   1     -21.564   5.128 -67.110  0.00  0.00     0.241 C 
ATOM    213  O   PRO d   1     -20.362   5.359 -67.225  0.00  0.00    -0.271 OA
ATOM    214  H33 GLN d   1     -23.047   4.137 -66.179  0.00  0.00     0.163 HD
BRANCH 212 215
ATOM    215  CA  PRO d   1     -22.562   5.741 -68.083  0.00  0.00     0.091 C 
ATOM    216  N   PRO d   1     -23.912   5.752 -67.512  0.00  0.00    -0.337 N 
ATOM    217  C   TRP d   1     -24.786   4.738 -67.605  0.00  0.00     0.243 C 
ATOM    218  CD  PRO d   1     -24.249   7.070 -66.959  0.00  0.00    -0.001 C 
ATOM    219  O   TRP d   1     -25.908   4.780 -67.100  0.00  0.00    -0.271 OA
ATOM    220  CG  PRO d   1     -23.507   7.985 -67.869  0.00  0.00    -0.048 C 
ATOM    221  H31 PRO d   1     -23.900   7.169 -65.921  0.00  0.00     0.064 H 
ATOM    222  H32 PRO d   1     -25.332   7.256 -67.001  0.00  0.00     0.064 H 
ATOM    223  CB  PRO d   1     -22.246   7.234 -68.267  0.00  0.00    -0.036 C 
ATOM    224  H29 PRO d   1     -24.113   8.216 -68.758  0.00  0.00     0.035 H 
ATOM    225  H30 PRO d   1     -23.249   8.919 -67.348  0.00  0.00     0.035 H 
ATOM    226  H27 PRO d   1     -21.992   7.444 -69.317  0.00  0.00     0.036 H 
ATOM    227  H28 PRO d   1     -21.406   7.529 -67.621  0.00  0.00     0.036 H 
ATOM    228  H26 PRO d   1     -22.537   5.200 -69.040  0.00  0.00     0.087 H 
BRANCH 217 229
ATOM    229  CA  TRP d   1     -24.330   3.507 -68.384  0.00  0.00     0.093 C 
ATOM    230  H17 TRP d   1     -23.230   3.510 -68.416  0.00  0.00     0.088 H 
BRANCH 229 231
ATOM    231  N   TRP d   1     -24.760   2.271 -67.738  0.00  0.00    -0.346 N 
ATOM    232  C   ARG d   1     -23.959   1.214 -67.648  0.00  0.00     0.249 C 
ATOM    233  O   ARG d   1     -22.807   1.207 -68.082  0.00  0.00    -0.271 OA
ATOM    234  H16 TRP d   1     -25.681   2.218 -67.353  0.00  0.00     0.163 HD
BRANCH 232 235
ATOM    235  CA  ARG d   1     -24.544  -0.018 -66.966  0.00  0.00     0.176 C 
ATOM    236  H4  ARG d   1     -24.881   0.271 -65.960  0.00  0.00     0.099 H 
BRANCH 235 237
ATOM    237  N   ARG d   1     -25.692  -0.529 -67.704  0.00  0.00    -0.067 N 
ATOM    238  H1  ARG d   1     -26.059  -1.341 -67.234  0.00  0.00     0.275 HD
ATOM    239  H2  ARG d   1     -25.406  -0.782 -68.637  0.00  0.00     0.275 HD
ATOM    240  H3  ARG d   1     -26.404   0.182 -67.752  0.00  0.00     0.275 HD
ENDBRANCH 235 237
BRANCH 235 241
ATOM    241  CB  ARG d   1     -23.475  -1.103 -66.825  0.00  0.00    -0.029 C 
ATOM    242  H5  ARG d   1     -23.394  -1.373 -65.762  0.00  0.00     0.036 H 
ATOM    243  H6  ARG d   1     -22.516  -0.691 -67.173  0.00  0.00     0.036 H 
BRANCH 241 244
ATOM    244  CG  ARG d   1     -23.769  -2.367 -67.618  0.00  0.00    -0.047 C 
ATOM    245  H7  ARG d   1     -23.929  -2.099 -68.673  0.00  0.00     0.035 H 
ATOM    246  H8  ARG d   1     -24.679  -2.838 -67.217  0.00  0.00     0.035 H 
BRANCH 244 247
ATOM    247  CD  ARG d   1     -22.619  -3.356 -67.528  0.00  0.00     0.009 C 
ATOM    248  H9  ARG d   1     -22.907  -4.284 -68.044  0.00  0.00     0.064 H 
ATOM    249  H10 ARG d   1     -22.419  -3.573 -66.468  0.00  0.00     0.064 H 
BRANCH 247 250
ATOM    250  NE  ARG d   1     -21.402  -2.833 -68.141  0.00  0.00    -0.227 N 
ATOM    251  CZ  ARG d   1     -20.240  -3.477 -68.167  0.00  0.00     0.665 C 
ATOM    252  NH1 ARG d   1     -19.185  -2.922 -68.749  0.00  0.00    -0.235 N 
ATOM    253  NH2 ARG d   1     -20.129  -4.675 -67.610  0.00  0.00    -0.235 N 
ATOM    254  H12 ARG d   1     -18.285  -3.422 -68.768  0.00  0.00     0.174 HD
ATOM    255  H13 ARG d   1     -19.266  -1.991 -69.181  0.00  0.00     0.174 HD
ATOM    256  H14 ARG d   1     -20.945  -5.110 -67.157  0.00  0.00     0.174 HD
ATOM    257  H15 ARG d   1     -19.226  -5.171 -67.630  0.00  0.00     0.174 HD
ATOM    258  H11 ARG d   1     -21.447  -1.903 -68.582  0.00  0.00     0.177 HD
ENDBRANCH 247 250
ENDBRANCH 244 247
ENDBRANCH 241 244
ENDBRANCH 235 241
ENDBRANCH 232 235
ENDBRANCH 229 231
BRANCH 229 259
ATOM    259  CB  TRP d   1     -24.855   3.572 -69.821  0.00  0.00    -0.012 C 
ATOM    260  H18 TRP d   1     -25.945   3.422 -69.800  0.00  0.00     0.044 H 
ATOM    261  H19 TRP d   1     -24.385   2.764 -70.400  0.00  0.00     0.044 H 
BRANCH 259 262
ATOM    262  CG  TRP d   1     -24.569   4.874 -70.507  0.00  0.00    -0.028 A 
ATOM    263  CD1 TRP d   1     -25.375   5.976 -70.543  0.00  0.00    -0.015 A 
ATOM    264  NE1 TRP d   1     -24.774   6.978 -71.265  0.00  0.00    -0.365 N 
ATOM    265  H20 TRP d   1     -26.352   6.050 -70.068  0.00  0.00     0.112 H 
ATOM    266  CE2 TRP d   1     -23.557   6.536 -71.713  0.00  0.00     0.042 A 
ATOM    267  H21 TRP d   1     -25.174   7.911 -71.441  0.00  0.00     0.165 HD
ATOM    268  CD2 TRP d   1     -23.393   5.213 -71.254  0.00  0.00    -0.002 A 
ATOM    269  CZ2 TRP d   1     -22.591   7.186 -72.480  0.00  0.00    -0.056 A 
ATOM    270  CE3 TRP d   1     -22.218   4.527 -71.579  0.00  0.00    -0.070 A 
ATOM    271  CZ3 TRP d   1     -21.260   5.175 -72.341  0.00  0.00    -0.082 A 
ATOM    272  H22 TRP d   1     -22.061   3.509 -71.241  0.00  0.00     0.084 H 
ATOM    273  CH2 TRP d   1     -21.453   6.491 -72.783  0.00  0.00    -0.081 A 
ATOM    274  H24 TRP d   1     -20.345   4.655 -72.600  0.00  0.00     0.083 H 
ATOM    275  H25 TRP d   1     -20.683   6.968 -73.378  0.00  0.00     0.083 H 
ATOM    276  H23 TRP d   1     -22.737   8.204 -72.823  0.00  0.00     0.086 H 
ENDBRANCH 259 262
ENDBRANCH 229 259
ENDBRANCH 217 229
ENDBRANCH 212 215
ENDBRANCH 209 211
BRANCH 209 277
ATOM    277  CB  GLN d   1     -22.094   2.883 -64.202  0.00  0.00    -0.030 C 
ATOM    278  H35 GLN d   1     -21.665   2.896 -63.189  0.00  0.00     0.037 H 
ATOM    279  H36 GLN d   1     -22.047   1.861 -64.606  0.00  0.00     0.037 H 
BRANCH 277 280
ATOM    280  CG  GLN d   1     -23.558   3.295 -64.108  0.00  0.00     0.011 C 
ATOM    281  H37 GLN d   1     -24.055   2.657 -63.362  0.00  0.00     0.047 H 
ATOM    282  H38 GLN d   1     -24.029   3.146 -65.091  0.00  0.00     0.047 H 
BRANCH 280 283
ATOM    283  CD  GLN d   1     -23.735   4.744 -63.701  0.00  0.00     0.215 C 
ATOM    284  OE1 GLN d   1     -22.860   5.334 -63.067  0.00  0.00    -0.274 OA
ATOM    285  NE2 GLN d   1     -24.869   5.328 -64.071  0.00  0.00    -0.370 N 
ATOM    286  H39 GLN d   1     -25.041   6.283 -63.831  0.00  0.00     0.159 HD
ATOM    287  H40 GLN d   1     -25.551   4.812 -64.590  0.00  0.00     0.159 HD
ENDBRANCH 280 283
ENDBRANCH 277 280
ENDBRANCH 209 277
ENDBRANCH 206 209
ENDBRANCH   3 205
BRANCH   3 288
ATOM    288  CB1 MK8 d   1     -19.334   0.352 -67.046  0.00  0.00    -0.046 C 
ATOM    289  H49 MK8 d   1     -18.636  -0.276 -67.619  0.00  0.00     0.031 H 
ATOM    290  H50 MK8 d   1     -20.341  -0.089 -67.086  0.00  0.00     0.031 H 
ATOM    291  H51 MK8 d   1     -19.000   0.410 -65.999  0.00  0.00     0.031 H 
ENDBRANCH   3 288
TORSDOF 60
