REMARK  11 active torsions:
REMARK  status: ('A' for Active; 'I' for Inactive)
REMARK    1  A    between atoms: C31_1  and  O30_2 
REMARK    2  A    between atoms: O30_2  and  C27_3 
REMARK    3  A    between atoms: C24_8  and  N7_9 
REMARK    4  A    between atoms: N7_9  and  C2_10 
REMARK    5  A    between atoms: C5_13  and  C9_14 
REMARK    6  A    between atoms: C9_14  and  N10_15 
REMARK    7  A    between atoms: N13_20  and  S16_21 
REMARK    8  A    between atoms: S16_21  and  C32_22 
REMARK    9  A    between atoms: C3_26  and  C8_27 
REMARK   10  A    between atoms: C18_30  and  C22_31 
REMARK   11  A    between atoms: C20_33  and  N23_34 
ROOT
ATOM      1  C2  0KO d   1      22.856  15.252  22.066  0.00  0.00     0.141 A 
ATOM      2  N1  0KO d   1      23.494  16.219  21.369  0.00  0.00    -0.242 NA
ATOM      3  C6  0KO d   1      22.977  17.422  21.189  0.00  0.00     0.012 A 
ATOM      4  C5  0KO d   1      21.736  17.729  21.744  0.00  0.00    -0.011 A 
ATOM      5  C4  0KO d   1      21.041  16.762  22.475  0.00  0.00    -0.056 A 
ATOM      6  C3  0KO d   1      21.607  15.501  22.631  0.00  0.00     0.059 A 
ATOM      7  H   0KO d   1      23.518  18.170  20.610  0.00  0.00     0.115 H 
ATOM      8  H   0KO d   1      20.071  16.992  22.916  0.00  0.00     0.086 H 
ENDROOT
BRANCH   4   9
ATOM      9  C9  0KO d   1      21.143  19.123  21.543  0.00  0.00     0.138 C 
ATOM     10  H   0KO d   1      21.932  19.875  21.521  0.00  0.00     0.087 H 
ATOM     11  H   0KO d   1      20.475  19.377  22.366  0.00  0.00     0.087 H 
BRANCH   9  12
ATOM     12  N10 0KO d   1      20.411  19.108  20.273  0.00  0.00     0.095 N 
ATOM     13  C15 0KO d   1      20.816  20.231  19.409  0.00  0.00     0.125 C 
ATOM     14  C14 0KO d   1      20.110  20.058  18.059  0.00  0.00     0.018 C 
ATOM     15  H   0KO d   1      21.898  20.235  19.274  0.00  0.00     0.081 H 
ATOM     16  H   0KO d   1      20.536  21.181  19.865  0.00  0.00     0.081 H 
ATOM     17  N13 0KO d   1      18.645  19.942  18.257  0.00  0.00    -0.208 NA
ATOM     18  H   0KO d   1      20.477  19.151  17.578  0.00  0.00     0.060 H 
ATOM     19  H   0KO d   1      20.317  20.927  17.434  0.00  0.00     0.060 H 
ATOM     20  C12 0KO d   1      18.258  18.882  19.212  0.00  0.00     0.018 C 
ATOM     21  C11 0KO d   1      18.962  19.144  20.541  0.00  0.00     0.125 C 
ATOM     22  H   0KO d   1      17.178  18.889  19.356  0.00  0.00     0.060 H 
ATOM     23  H   0KO d   1      18.550  17.907  18.823  0.00  0.00     0.060 H 
ATOM     24  H   0KO d   1      18.669  20.111  20.950  0.00  0.00     0.081 H 
ATOM     25  H   0KO d   1      18.687  18.391  21.279  0.00  0.00     0.081 H 
BRANCH  17  26
ATOM     26  S16 0KO d   1      17.923  19.688  16.806  0.00  0.00     0.207 S 
ATOM     27  O34 0KO d   1      16.986  18.503  16.852  0.00  0.00    -0.212 OA
ATOM     28  O33 0KO d   1      18.983  19.442  15.771  0.00  0.00    -0.212 OA
BRANCH  26  29
ATOM     29  C32 0KO d   1      16.995  21.147  16.368  0.00  0.00     0.028 C 
ATOM     30  H   0KO d   1      16.535  21.004  15.390  0.00  0.00     0.050 H 
ATOM     31  H   0KO d   1      16.219  21.320  17.114  0.00  0.00     0.050 H 
ATOM     32  H   0KO d   1      17.666  22.006  16.333  0.00  0.00     0.050 H 
ENDBRANCH  26  29
ENDBRANCH  17  26
ENDBRANCH   9  12
ENDBRANCH   4   9
BRANCH   6  33
ATOM     33  C8  0KO d   1      20.962  14.515  23.374  0.00  0.00     0.184 A 
ATOM     34  N21 0KO d   1      19.670  14.619  23.727  0.00  0.00    -0.042 NA
ATOM     35  C20 0KO d   1      19.087  13.660  24.466  0.00  0.00     0.723 A 
ATOM     36  N19 0KO d   1      19.792  12.592  24.855  0.00  0.00    -0.048 NA
ATOM     37  C18 0KO d   1      21.085  12.490  24.515  0.00  0.00     0.143 A 
ATOM     38  N17 0KO d   1      21.666  13.448  23.783  0.00  0.00    -0.212 NA
BRANCH  35  39
ATOM     39  N23 0KO d   1      17.808  13.761  24.811  0.00  0.00    -0.231 N 
ATOM     40  H   0KO d   1      17.371  13.027  25.369  0.00  0.00     0.174 HD
ATOM     41  H   0KO d   1      17.263  14.572  24.518  0.00  0.00     0.174 HD
ENDBRANCH  35  39
BRANCH  37  42
ATOM     42  C22 0KO d   1      21.912  11.292  24.958  0.00  0.00    -0.019 C 
ATOM     43  H   0KO d   1      22.294  10.771  24.080  0.00  0.00     0.037 H 
ATOM     44  H   0KO d   1      22.747  11.634  25.570  0.00  0.00     0.037 H 
ATOM     45  H   0KO d   1      21.286  10.616  25.540  0.00  0.00     0.037 H 
ENDBRANCH  37  42
ENDBRANCH   6  33
BRANCH   1  46
ATOM     46  N7  0KO d   1      23.406  14.043  22.220  0.00  0.00    -0.339 N 
ATOM     47  H   0KO d   1      22.956  13.387  22.859  0.00  0.00     0.167 HD
BRANCH  46  48
ATOM     48  C24 0KO d   1      24.509  13.648  21.585  0.00  0.00     0.051 A 
ATOM     49  C29 0KO d   1      24.699  13.892  20.220  0.00  0.00    -0.052 A 
ATOM     50  C28 0KO d   1      25.873  13.454  19.618  0.00  0.00    -0.030 A 
ATOM     51  H   0KO d   1      23.940  14.416  19.639  0.00  0.00     0.087 H 
ATOM     52  C27 0KO d   1      26.816  12.773  20.388  0.00  0.00     0.163 A 
ATOM     53  H   0KO d   1      26.054  13.640  18.559  0.00  0.00     0.090 H 
ATOM     54  N26 0KO d   1      26.593  12.547  21.699  0.00  0.00    -0.235 NA
ATOM     55  C25 0KO d   1      25.488  12.961  22.299  0.00  0.00     0.031 A 
ATOM     56  H   0KO d   1      25.343  12.763  23.361  0.00  0.00     0.118 H 
BRANCH  52  57
ATOM     57  O30 0KO d   1      27.959  12.338  19.786  0.00  0.00    -0.339 OA
BRANCH  57  58
ATOM     58  C31 0KO d   1      28.856  11.684  20.695  0.00  0.00     0.012 C 
ATOM     59  H   0KO d   1      29.140  12.379  21.485  0.00  0.00     0.067 H 
ATOM     60  H   0KO d   1      28.360  10.817  21.132  0.00  0.00     0.067 H 
ATOM     61  H   0KO d   1      29.746  11.361  20.155  0.00  0.00     0.067 H 
ENDBRANCH  57  58
ENDBRANCH  52  57
ENDBRANCH  46  48
ENDBRANCH   1  46
TORSDOF 11
