REMARK  8 active torsions:
REMARK  status: ('A' for Active; 'I' for Inactive)
REMARK    1  A    between atoms: C1_1  and  C18_18 
REMARK    2  A    between atoms: C6_6  and  N1_7 
REMARK    3  A    between atoms: N1_7  and  S2_8 
REMARK    4  A    between atoms: N1_7  and  C7_17 
REMARK    5  A    between atoms: S2_8  and  C8_11 
REMARK    6  A    between atoms: C18_18  and  C19_19 
REMARK    7  A    between atoms: C18_18  and  C20_20 
REMARK    8  A    between atoms: C18_18  and  O1_27 
ROOT
ATOM      1  C1  0KS d   1      41.540  68.085  41.228  0.00  0.00    -0.006 A 
ATOM      2  C2  0KS d   1      40.692  67.382  42.132  0.00  0.00    -0.072 A 
ATOM      3  C3  0KS d   1      40.984  68.455  39.975  0.00  0.00    -0.072 A 
ATOM      4  C4  0KS d   1      39.367  67.072  41.796  0.00  0.00    -0.061 A 
ATOM      5  C5  0KS d   1      39.669  68.147  39.638  0.00  0.00    -0.061 A 
ATOM      6  C6  0KS d   1      38.824  67.445  40.548  0.00  0.00     0.025 A 
ATOM      7  H   0KS d   1      41.081  67.079  43.104  0.00  0.00     0.084 H 
ATOM      8  H   0KS d   1      41.603  68.994  39.258  0.00  0.00     0.084 H 
ATOM      9  H   0KS d   1      38.745  66.533  42.511  0.00  0.00     0.086 H 
ATOM     10  H   0KS d   1      39.279  68.447  38.665  0.00  0.00     0.086 H 
ENDROOT
BRANCH   6  11
ATOM     11  N1  0KS d   1      37.459  67.079  40.275  0.00  0.00    -0.176 NA
BRANCH  11  12
ATOM     12  S2  0KS d   1      36.963  65.404  40.017  0.00  0.00     0.247 S 
ATOM     13  O4  0KS d   1      35.608  65.453  39.515  0.00  0.00    -0.205 OA
ATOM     14  O5  0KS d   1      37.131  64.755  41.297  0.00  0.00    -0.205 OA
BRANCH  12  15
ATOM     15  C8  0KS d   1      38.018  64.589  38.805  0.00  0.00     0.075 A 
ATOM     16  C9  0KS d   1      39.211  63.930  39.223  0.00  0.00    -0.061 A 
ATOM     17  C12 0KS d   1      40.021  63.287  38.265  0.00  0.00    -0.082 A 
ATOM     18  H   0KS d   1      39.495  63.923  40.275  0.00  0.00     0.085 H 
ATOM     19  C13 0KS d   1      39.633  63.310  36.898  0.00  0.00    -0.083 A 
ATOM     20  H   0KS d   1      40.935  62.778  38.569  0.00  0.00     0.083 H 
ATOM     21  C11 0KS d   1      38.455  63.960  36.467  0.00  0.00    -0.082 A 
ATOM     22  H   0KS d   1      40.263  62.812  36.161  0.00  0.00     0.083 H 
ATOM     23  C10 0KS d   1      37.644  64.602  37.429  0.00  0.00    -0.061 A 
ATOM     24  H   0KS d   1      38.177  63.966  35.413  0.00  0.00     0.083 H 
ATOM     25  H   0KS d   1      36.730  65.109  37.119  0.00  0.00     0.085 H 
ENDBRANCH  12  15
ENDBRANCH  11  12
BRANCH  11  26
ATOM     26  C7  0KS d   1      36.978  67.949  39.172  0.00  0.00    -0.014 C 
ATOM     27  H   0KS d   1      37.396  67.600  38.227  0.00  0.00     0.050 H 
ATOM     28  H   0KS d   1      35.890  67.908  39.127  0.00  0.00     0.050 H 
ATOM     29  H   0KS d   1      37.297  68.975  39.355  0.00  0.00     0.050 H 
ENDBRANCH  11  26
ENDBRANCH   6  11
BRANCH   1  30
ATOM     30  C18 0KS d   1      42.997  68.448  41.540  0.00  0.00     0.281 C 
BRANCH  30  31
ATOM     31  C19 0KS d   1      43.950  67.238  41.227  0.00  0.00     0.431 C 
ATOM     32  F5  0KS d   1      45.250  67.547  41.475  0.00  0.00    -0.167 F 
ATOM     33  F4  0KS d   1      43.854  66.878  39.913  0.00  0.00    -0.167 F 
ATOM     34  F6  0KS d   1      43.655  66.127  41.965  0.00  0.00    -0.167 F 
ENDBRANCH  30  31
BRANCH  30  35
ATOM     35  C20 0KS d   1      43.147  69.052  43.008  0.00  0.00     0.431 C 
ATOM     36  F7  0KS d   1      44.437  69.403  43.261  0.00  0.00    -0.167 F 
ATOM     37  F9  0KS d   1      42.811  68.167  43.978  0.00  0.00    -0.167 F 
ATOM     38  F8  0KS d   1      42.341  70.161  43.172  0.00  0.00    -0.167 F 
ENDBRANCH  30  35
BRANCH  30  39
ATOM     39  O1  0KS d   1      43.447  69.523  40.698  0.00  0.00    -0.370 OA
ATOM     40  H   0KS d   1      42.898  70.296  40.847  0.00  0.00     0.211 HD
ENDBRANCH  30  39
ENDBRANCH   1  30
TORSDOF 8
