REMARK  12 active torsions:
REMARK  status: ('A' for Active; 'I' for Inactive)
REMARK    1  A    between atoms: C1_1  and  C18_18 
REMARK    2  A    between atoms: C6_6  and  N1_7 
REMARK    3  A    between atoms: N1_7  and  S2_8 
REMARK    4  A    between atoms: N1_7  and  C7_17 
REMARK    5  A    between atoms: S2_8  and  C8_11 
REMARK    6  A    between atoms: C18_18  and  C19_19 
REMARK    7  A    between atoms: C18_18  and  C20_20 
REMARK    8  A    between atoms: C18_18  and  O1_24 
REMARK    9  A    between atoms: N2_26  and  C15_29 
REMARK   10  A    between atoms: C15_29  and  C21_30 
REMARK   11  A    between atoms: C21_30  and  O2_31 
REMARK   12  A    between atoms: O2_31  and  C23_32 
ROOT
ATOM      1  C1  0KT d   1      39.750  66.612  40.616  0.00  0.00    -0.009 A 
ATOM      2  C2  0KT d   1      40.330  67.617  39.778  0.00  0.00    -0.071 A 
ATOM      3  C3  0KT d   1      40.316  66.407  41.886  0.00  0.00    -0.071 A 
ATOM      4  C4  0KT d   1      41.440  68.357  40.196  0.00  0.00    -0.061 A 
ATOM      5  C5  0KT d   1      41.416  67.144  42.303  0.00  0.00    -0.061 A 
ATOM      6  C6  0KT d   1      41.998  68.127  41.468  0.00  0.00     0.025 A 
ATOM      7  H   0KT d   1      39.898  67.809  38.796  0.00  0.00     0.084 H 
ATOM      8  H   0KT d   1      39.886  65.659  42.552  0.00  0.00     0.084 H 
ATOM      9  H   0KT d   1      41.873  69.111  39.538  0.00  0.00     0.086 H 
ATOM     10  H   0KT d   1      41.839  66.962  43.291  0.00  0.00     0.086 H 
ENDROOT
BRANCH   1  11
ATOM     11  C18 0KT d   1      38.566  65.766  40.174  0.00  0.00     0.226 C 
BRANCH  11  12
ATOM     12  C19 0KT d   1      38.942  65.048  38.850  0.00  0.00     0.060 A 
ATOM     13  C14 0KT d   1      38.366  65.228  37.569  0.00  0.00    -0.056 A 
ATOM     14  C17 0KT d   1      39.016  64.393  36.689  0.00  0.00    -0.066 A 
ATOM     15  H   0KT d   1      37.551  65.909  37.323  0.00  0.00     0.086 H 
ATOM     16  C16 0KT d   1      39.977  63.713  37.425  0.00  0.00    -0.020 A 
ATOM     17  H   0KT d   1      38.816  64.286  35.623  0.00  0.00     0.085 H 
ATOM     18  N2  0KT d   1      39.937  64.104  38.728  0.00  0.00    -0.355 N 
ATOM     19  H   0KT d   1      40.665  62.972  37.018  0.00  0.00     0.111 H 
BRANCH  18  20
ATOM     20  C15 0KT d   1      40.864  63.538  39.750  0.00  0.00     0.019 C 
ATOM     21  H   0KT d   1      40.826  64.174  40.635  0.00  0.00     0.068 H 
ATOM     22  H   0KT d   1      41.864  63.499  39.319  0.00  0.00     0.068 H 
BRANCH  20  23
ATOM     23  C21 0KT d   1      40.465  62.121  40.162  0.00  0.00     0.034 C 
ATOM     24  H   0KT d   1      41.028  61.865  41.060  0.00  0.00     0.076 H 
ATOM     25  H   0KT d   1      40.678  61.459  39.323  0.00  0.00     0.076 H 
BRANCH  23  26
ATOM     26  O2  0KT d   1      39.087  62.001  40.467  0.00  0.00    -0.394 OA
BRANCH  26  27
ATOM     27  C23 0KT d   1      38.817  60.885  41.293  0.00  0.00     0.004 C 
ATOM     28  H   0KT d   1      39.132  59.974  40.785  0.00  0.00     0.066 H 
ATOM     29  H   0KT d   1      39.364  60.987  42.230  0.00  0.00     0.066 H 
ATOM     30  H   0KT d   1      37.748  60.837  41.498  0.00  0.00     0.066 H 
ENDBRANCH  26  27
ENDBRANCH  23  26
ENDBRANCH  20  23
ENDBRANCH  18  20
ENDBRANCH  11  12
BRANCH  11  31
ATOM     31  C20 0KT d   1      37.275  66.660  40.047  0.00  0.00     0.428 C 
ATOM     32  F7  0KT d   1      36.229  65.922  39.668  0.00  0.00    -0.167 F 
ATOM     33  F9  0KT d   1      37.406  67.624  39.141  0.00  0.00    -0.167 F 
ATOM     34  F8  0KT d   1      37.009  67.244  41.214  0.00  0.00    -0.167 F 
ENDBRANCH  11  31
BRANCH  11  35
ATOM     35  O1  0KT d   1      38.223  64.811  41.177  0.00  0.00    -0.371 OA
ATOM     36  H   0KT d   1      38.972  64.233  41.336  0.00  0.00     0.211 HD
ENDBRANCH  11  35
ENDBRANCH   1  11
BRANCH   6  37
ATOM     37  N1  0KT d   1      43.156  68.861  41.824  0.00  0.00    -0.176 NA
BRANCH  37  38
ATOM     38  S2  0KT d   1      44.662  67.960  42.236  0.00  0.00     0.247 S 
ATOM     39  O4  0KT d   1      45.637  68.990  42.493  0.00  0.00    -0.205 OA
ATOM     40  O5  0KT d   1      44.901  67.086  41.099  0.00  0.00    -0.205 OA
BRANCH  38  41
ATOM     41  C8  0KT d   1      44.562  66.967  43.715  0.00  0.00     0.075 A 
ATOM     42  C9  0KT d   1      44.060  65.645  43.659  0.00  0.00    -0.061 A 
ATOM     43  C12 0KT d   1      43.985  64.878  44.845  0.00  0.00    -0.082 A 
ATOM     44  H   0KT d   1      43.734  65.221  42.709  0.00  0.00     0.085 H 
ATOM     45  C13 0KT d   1      44.413  65.433  46.080  0.00  0.00    -0.083 A 
ATOM     46  H   0KT d   1      43.598  63.859  44.811  0.00  0.00     0.083 H 
ATOM     47  C11 0KT d   1      44.918  66.755  46.128  0.00  0.00    -0.082 A 
ATOM     48  H   0KT d   1      44.353  64.840  46.993  0.00  0.00     0.083 H 
ATOM     49  C10 0KT d   1      44.992  67.523  44.945  0.00  0.00    -0.061 A 
ATOM     50  H   0KT d   1      45.249  67.179  47.076  0.00  0.00     0.083 H 
ATOM     51  H   0KT d   1      45.379  68.541  44.978  0.00  0.00     0.085 H 
ENDBRANCH  38  41
ENDBRANCH  37  38
BRANCH  37  52
ATOM     52  C7  0KT d   1      42.703  69.822  42.859  0.00  0.00    -0.014 C 
ATOM     53  H   0KT d   1      42.506  69.287  43.788  0.00  0.00     0.050 H 
ATOM     54  H   0KT d   1      43.480  70.568  43.026  0.00  0.00     0.050 H 
ATOM     55  H   0KT d   1      41.791  70.315  42.521  0.00  0.00     0.050 H 
ENDBRANCH  37  52
ENDBRANCH   6  37
TORSDOF 12
