REMARK  12 active torsions:
REMARK  status: ('A' for Active; 'I' for Inactive)
REMARK    1  A    between atoms: N_1  and  CA_2 
REMARK    2  A    between atoms: CA_2  and  C_3 
REMARK    3  A    between atoms: CA_2  and  CB_5 
REMARK       I    between atoms: C_3  and  N10_9 
REMARK    4  A    between atoms: CB_5  and  CG_6 
REMARK    5  A    between atoms: N10_9  and  C11_10 
REMARK    6  A    between atoms: C11_10  and  C12_11 
REMARK    7  A    between atoms: C11_10  and  C15_13 
REMARK       I    between atoms: C12_11  and  N_20 
REMARK    8  A    between atoms: C15_13  and  C16_14 
REMARK    9  A    between atoms: C16_14  and  C17_15 
REMARK   10  A    between atoms: C17_15  and  N18_16 
REMARK   11  A    between atoms: N18_16  and  C19_17 
REMARK   12  A    between atoms: C19_17  and  C20_18 
ROOT
ATOM      1  C11 FIO d   1     -24.461  15.086 -21.611  0.00  0.00     0.089 C 
ATOM      2  H   FIO d   1     -24.948  15.162 -20.639  0.00  0.00     0.087 H 
ENDROOT
BRANCH   1   3
ATOM      3  N10 FIO d   1     -25.071  16.068 -22.486  0.00  0.00    -0.346 N 
ATOM      4  C   ASP d   1     -25.224  17.334 -22.111  0.00  0.00     0.249 C 
ATOM      5  O   ASP d   1     -24.887  17.747 -21.013  0.00  0.00    -0.271 OA
ATOM      6  H   FIO d   1     -25.390  15.781 -23.411  0.00  0.00     0.163 HD
BRANCH   4   7
ATOM      7  CA  ASP d   1     -25.842  18.261 -23.115  0.00  0.00     0.185 C 
ATOM      8  H   ASP d   1     -25.456  19.264 -22.936  0.00  0.00     0.100 H 
BRANCH   7   9
ATOM      9  N   ASP d   1     -25.489  17.890 -24.472  0.00  0.00    -0.066 N 
ATOM     10  H   ASP d   1     -24.474  17.899 -24.573  0.00  0.00     0.275 HD
ATOM     11  H   ASP d   1     -25.843  16.954 -24.670  0.00  0.00     0.275 HD
ATOM     12  H   ASP d   1     -25.902  18.557 -25.124  0.00  0.00     0.275 HD
ENDBRANCH   7   9
BRANCH   7  13
ATOM     13  CB  ASP d   1     -27.357  18.252 -22.949  0.00  0.00     0.050 C 
ATOM     14  H   ASP d   1     -27.677  17.275 -22.586  0.00  0.00     0.052 H 
ATOM     15  H   ASP d   1     -27.829  18.455 -23.910  0.00  0.00     0.052 H 
BRANCH  13  16
ATOM     16  CG  ASP d   1     -27.762  19.315 -21.956  0.00  0.00     0.175 C 
ATOM     17  OD1 ASP d   1     -27.080  20.361 -21.891  0.00  0.00    -0.648 OA
ATOM     18  OD2 ASP d   1     -28.763  19.109 -21.237  0.00  0.00    -0.648 OA
ENDBRANCH  13  16
ENDBRANCH   7  13
ENDBRANCH   4   7
ENDBRANCH   1   3
BRANCH   1  19
ATOM     19  C12 FIO d   1     -22.996  15.348 -21.424  0.00  0.00     0.238 C 
ATOM     20  O14 FIO d   1     -22.530  15.395 -20.297  0.00  0.00    -0.271 OA
ATOM     21  N   NH2 d   1     -22.175  15.537 -22.567  0.00  0.00    -0.368 N 
ATOM     22  H   NH2 d   1     -21.177  15.716 -22.454  0.00  0.00     0.159 HD
ATOM     23  H   NH2 d   1     -22.583  15.494 -23.501  0.00  0.00     0.159 HD
ENDBRANCH   1  19
BRANCH   1  24
ATOM     24  C15 FIO d   1     -24.658  13.686 -22.179  0.00  0.00    -0.036 C 
ATOM     25  H   FIO d   1     -24.365  13.691 -23.229  0.00  0.00     0.036 H 
ATOM     26  H   FIO d   1     -25.706  13.408 -22.066  0.00  0.00     0.036 H 
BRANCH  24  27
ATOM     27  C16 FIO d   1     -23.800  12.669 -21.437  0.00  0.00    -0.048 C 
ATOM     28  H   FIO d   1     -23.295  13.172 -20.613  0.00  0.00     0.035 H 
ATOM     29  H   FIO d   1     -23.079  12.244 -22.135  0.00  0.00     0.035 H 
BRANCH  27  30
ATOM     30  C17 FIO d   1     -24.656  11.542 -20.871  0.00  0.00    -0.006 C 
ATOM     31  H   FIO d   1     -25.366  11.235 -21.639  0.00  0.00     0.064 H 
ATOM     32  H   FIO d   1     -25.157  11.911 -19.976  0.00  0.00     0.064 H 
BRANCH  30  33
ATOM     33  N18 FIO d   1     -23.859  10.388 -20.502  0.00  0.00    -0.379 N 
ATOM     34  H   FIO d   1     -23.046  10.516 -19.899  0.00  0.00     0.160 HD
BRANCH  33  35
ATOM     35  C19 FIO d   1     -24.164   9.167 -20.932  0.00  0.00     0.087 C 
ATOM     36  N21 FIO d   1     -23.455   8.161 -20.661  0.00  0.00    -0.288 NA
ATOM     37  H   FIO d   1     -22.614   8.268 -20.093  0.00  0.00     0.188 HD
BRANCH  35  38
ATOM     38  C20 FIO d   1     -25.394   8.981 -21.769  0.00  0.00    -0.022 C 
ATOM     39  H   FIO d   1     -25.113   8.572 -22.740  0.00  0.00     0.037 H 
ATOM     40  H   FIO d   1     -26.073   8.293 -21.266  0.00  0.00     0.037 H 
ATOM     41  H   FIO d   1     -25.887   9.943 -21.907  0.00  0.00     0.037 H 
ENDBRANCH  35  38
ENDBRANCH  33  35
ENDBRANCH  30  33
ENDBRANCH  27  30
ENDBRANCH  24  27
ENDBRANCH   1  24
TORSDOF 12
