REMARK  6 active torsions:
REMARK  status: ('A' for Active; 'I' for Inactive)
REMARK    1  A    between atoms: C2_2  and  CAV_26 
REMARK    2  A    between atoms: NAS_23  and  C6_6 
REMARK    3  A    between atoms: CAT_24  and  NAA_7 
REMARK    4  A    between atoms: CAP_22  and  CAO_21 
REMARK    5  A    between atoms: CAO_21  and  NAS_23 
REMARK    6  A    between atoms: CAP_22  and  CAU_25 
ROOT
ATOM      1  N1  6RG d   1      23.875 -16.643 -11.000  0.00  0.00    -0.210 NA
ATOM      2  C2  6RG d   1      23.842 -17.397  -9.884  0.00  0.00     0.162 A 
ATOM      3  N3  6RG d   1      24.259 -16.906  -8.702  0.00  0.00    -0.228 NA
ATOM      4  C4  6RG d   1      24.733 -15.644  -8.628  0.00  0.00     0.075 A 
ATOM      5  C5  6RG d   1      24.797 -14.865  -9.792  0.00  0.00     0.038 A 
ATOM      6  C6  6RG d   1      24.369 -15.392 -11.005  0.00  0.00     0.138 A 
ATOM      7  CAL 6RG d   1      25.742 -13.029  -8.543  0.00  0.00    -0.057 A 
ATOM      8  CAM 6RG d   1      25.289 -13.554  -9.747  0.00  0.00    -0.065 A 
ATOM      9  CAN 6RG d   1      25.186 -15.114  -7.416  0.00  0.00    -0.029 A 
ATOM     10  CAT 6RG d   1      25.681 -13.800  -7.373  0.00  0.00     0.028 A 
ATOM     11  H13 6RG d   1      26.143 -12.023  -8.508  0.00  0.00     0.086 H 
ATOM     12  H14 6RG d   1      25.316 -12.952 -10.648  0.00  0.00     0.085 H 
ATOM     13  H15 6RG d   1      25.155 -15.714  -6.514  0.00  0.00     0.090 H 
ENDROOT
BRANCH   6  14
ATOM     14  NAS 6RG d   1      24.373 -14.599 -12.107  0.00  0.00    -0.374 N 
ATOM     15  H20 6RG d   1      23.910 -13.684 -12.011  0.00  0.00     0.161 HD
BRANCH  14  16
ATOM     16  CAO 6RG d   1      24.955 -14.892 -13.406  0.00  0.00    -0.002 C 
ATOM     17  H16 6RG d   1      24.800 -14.031 -14.073  0.00  0.00     0.064 H 
ATOM     18  H17 6RG d   1      26.033 -15.073 -13.286  0.00  0.00     0.064 H 
BRANCH  16  19
ATOM     19  CAP 6RG d   1      24.315 -16.111 -14.015  0.00  0.00    -0.026 C 
ATOM     20  H18 6RG d   1      23.292 -15.868 -14.337  0.00  0.00     0.042 H 
ATOM     21  H19 6RG d   1      24.283 -16.921 -13.271  0.00  0.00     0.042 H 
BRANCH  19  22
ATOM     22  CAU 6RG d   1      25.129 -16.552 -15.207  0.00  0.00    -0.057 A 
ATOM     23  CAH 6RG d   1      24.490 -17.032 -16.355  0.00  0.00    -0.077 A 
ATOM     24  CAD 6RG d   1      25.216 -17.469 -17.486  0.00  0.00    -0.082 A 
ATOM     25  H9  6RG d   1      23.407 -17.070 -16.378  0.00  0.00     0.084 H 
ATOM     26  CAB 6RG d   1      26.611 -17.421 -17.464  0.00  0.00    -0.083 A 
ATOM     27  H5  6RG d   1      24.695 -17.838 -18.362  0.00  0.00     0.083 H 
ATOM     28  CAE 6RG d   1      27.243 -16.935 -16.310  0.00  0.00    -0.082 A 
ATOM     29  H3  6RG d   1      27.192 -17.751 -18.318  0.00  0.00     0.083 H 
ATOM     30  CAI 6RG d   1      26.514 -16.503 -15.188  0.00  0.00    -0.077 A 
ATOM     31  H6  6RG d   1      28.326 -16.891 -16.282  0.00  0.00     0.083 H 
ATOM     32  H10 6RG d   1      27.033 -16.133 -14.311  0.00  0.00     0.084 H 
ENDBRANCH  19  22
ENDBRANCH  16  19
ENDBRANCH  14  16
ENDBRANCH   6  14
BRANCH   2  33
ATOM     33  CAV 6RG d   1      23.302 -18.674  -9.941  0.00  0.00     0.012 A 
ATOM     34  CAJ 6RG d   1      23.121 -19.424  -8.773  0.00  0.00    -0.069 A 
ATOM     35  CAF 6RG d   1      22.534 -20.698  -8.819  0.00  0.00    -0.082 A 
ATOM     36  H11 6RG d   1      23.438 -19.015  -7.820  0.00  0.00     0.085 H 
ATOM     37  CAC 6RG d   1      22.094 -21.209 -10.033  0.00  0.00    -0.083 A 
ATOM     38  H7  6RG d   1      22.425 -21.280  -7.911  0.00  0.00     0.083 H 
ATOM     39  CAG 6RG d   1      22.262 -20.452 -11.180  0.00  0.00    -0.082 A 
ATOM     40  H4  6RG d   1      21.626 -22.186 -10.082  0.00  0.00     0.083 H 
ATOM     41  CAK 6RG d   1      22.861 -19.186 -11.149  0.00  0.00    -0.069 A 
ATOM     42  H8  6RG d   1      21.921 -20.850 -12.129  0.00  0.00     0.083 H 
ATOM     43  H12 6RG d   1      22.978 -18.613 -12.062  0.00  0.00     0.085 H 
ENDBRANCH   2  33
BRANCH  10  44
ATOM     44  NAA 6RG d   1      26.113 -13.240  -6.233  0.00  0.00    -0.399 N 
ATOM     45  H1  6RG d   1      26.470 -12.274  -6.237  0.00  0.00     0.156 HD
ATOM     46  H2  6RG d   1      26.088 -13.776  -5.354  0.00  0.00     0.156 HD
ENDBRANCH  10  44
TORSDOF 6
