REMARK WARNING: 32 MAX_TORS EXCEEDED!!!
REMARK  57 active torsions:
REMARK  status: ('A' for Active; 'I' for Inactive)
REMARK    1  A    between atoms: N_1  and  CA_2 
REMARK    2  A    between atoms: CA_2  and  C_3 
REMARK    3  A    between atoms: CA_2  and  CB_5 
REMARK       I    between atoms: C_3  and  N_11 
REMARK    4  A    between atoms: CB_5  and  CG_6 
REMARK    5  A    between atoms: N_11  and  CA_12 
REMARK    6  A    between atoms: CA_12  and  C_13 
REMARK    7  A    between atoms: CA_12  and  CB_15 
REMARK       I    between atoms: C_13  and  N_20 
REMARK    8  A    between atoms: CB_15  and  CG_16 
REMARK    9  A    between atoms: CG_16  and  CD_17 
REMARK   10  A    between atoms: CD_17  and  CE_18 
REMARK   11  A    between atoms: CE_18  and  NZ_19 
REMARK   12  A    between atoms: N_20  and  CA_21 
REMARK   13  A    between atoms: CA_21  and  C_22 
REMARK   14  A    between atoms: CA_21  and  CB_24 
REMARK       I    between atoms: C_22  and  N_28 
REMARK   15  A    between atoms: CB_24  and  CG1_25 
REMARK   16  A    between atoms: CB_24  and  CG2_26 
REMARK   17  A    between atoms: CG1_25  and  CD1_27 
REMARK   18  A    between atoms: N_28  and  CA_29 
REMARK   19  A    between atoms: CA_29  and  C_30 
REMARK   20  A    between atoms: CA_29  and  CB_32 
REMARK       I    between atoms: C_30  and  N_36 
REMARK   21  A    between atoms: CB_32  and  CG_33 
REMARK   22  A    between atoms: CG_33  and  CD1_34 
REMARK   23  A    between atoms: CG_33  and  CD2_35 
REMARK   24  A    between atoms: N_36  and  CA_37 
REMARK   25  A    between atoms: CA_37  and  C_38 
REMARK   26  A    between atoms: CA_37  and  CB_40 
REMARK       I    between atoms: C_38  and  N_46 
REMARK   27  A    between atoms: CB_40  and  CG_41 
REMARK   28  A    between atoms: N_46  and  CA_47 
REMARK   29  A    between atoms: CA_47  and  C_48 
REMARK   30  A    between atoms: CA_47  and  CB_50 
REMARK       I    between atoms: C_48  and  N_57 
REMARK   31  A    between atoms: CB_50  and  CG_51 
REMARK   32  A    between atoms: CG_51  and  CD_52 
REMARK   33  A    between atoms: CD_52  and  NE_53 
REMARK       I    between atoms: NE_53  and  CZ_54 
REMARK       I    between atoms: CZ_54  and  NH1_55 
REMARK   34  A    between atoms: N_57  and  CA_58 
REMARK   35  A    between atoms: CA_58  and  C_59 
REMARK   36  A    between atoms: CA_58  and  CB_61 
REMARK       I    between atoms: C_59  and  N_65 
REMARK   37  A    between atoms: CB_61  and  CG_62 
REMARK   38  A    between atoms: CG_62  and  CD1_63 
REMARK   39  A    between atoms: CG_62  and  CD2_64 
REMARK   40  A    between atoms: N_65  and  CA_66 
REMARK   41  A    between atoms: CA_66  and  C_67 
REMARK   42  A    between atoms: CA_66  and  CB_69 
REMARK       I    between atoms: C_67  and  N_73 
REMARK   43  A    between atoms: CB_69  and  CG_70 
REMARK   44  A    between atoms: CG_70  and  CD1_71 
REMARK   45  A    between atoms: CG_70  and  CD2_72 
REMARK   46  A    between atoms: N_73  and  CA_74 
REMARK   47  A    between atoms: CA_74  and  C_75 
REMARK   48  A    between atoms: CA_74  and  CB_77 
REMARK       I    between atoms: C_75  and  N_82 
REMARK   49  A    between atoms: CB_77  and  CG_78 
REMARK   50  A    between atoms: CG_78  and  CD_79 
REMARK       I    between atoms: CD_79  and  NE2_81 
REMARK   51  A    between atoms: N_82  and  CA_83 
REMARK   52  A    between atoms: CA_83  and  C_84 
REMARK   53  A    between atoms: CA_83  and  CB_86 
REMARK       I    between atoms: C_84  and  N_91 
REMARK   54  A    between atoms: CB_86  and  CG_87 
REMARK   55  A    between atoms: CG_87  and  CD_88 
REMARK   56  A    between atoms: N_91  and  CA_92 
REMARK   57  A    between atoms: CA_92  and  C_93 
ROOT
ATOM      1  CA  ARG d   1      16.821 -20.656  -8.699  0.00  0.00     0.089 C 
ATOM      2  H   ARG d   1      17.454 -21.520  -8.494  0.00  0.00     0.087 H 
ENDROOT
BRANCH   1   3
ATOM      3  N   ARG d   1      16.077 -20.364  -7.483  0.00  0.00    -0.346 N 
ATOM      4  C   HIS d   1      16.673 -20.155  -6.315  0.00  0.00     0.241 C 
ATOM      5  O   HIS d   1      17.898 -20.166  -6.168  0.00  0.00    -0.271 OA
ATOM      6  H   ARG d   1      15.059 -20.318  -7.530  0.00  0.00     0.163 HD
BRANCH   4   7
ATOM      7  CA  HIS d   1      15.735 -19.873  -5.146  0.00  0.00     0.094 C 
ATOM      8  H   HIS d   1      16.328 -19.524  -4.300  0.00  0.00     0.088 H 
BRANCH   7   9
ATOM      9  N   HIS d   1      14.773 -18.847  -5.518  0.00  0.00    -0.346 N 
ATOM     10  C   LEU d   1      15.152 -17.652  -5.954  0.00  0.00     0.241 C 
ATOM     11  O   LEU d   1      16.333 -17.316  -6.082  0.00  0.00    -0.271 OA
ATOM     12  H   HIS d   1      13.777 -19.052  -5.441  0.00  0.00     0.163 HD
BRANCH  10  13
ATOM     13  CA  LEU d   1      14.020 -16.704  -6.303  0.00  0.00     0.089 C 
ATOM     14  H   LEU d   1      14.408 -15.896  -6.924  0.00  0.00     0.087 H 
BRANCH  13  15
ATOM     15  N   LEU d   1      12.987 -17.425  -7.038  0.00  0.00    -0.346 N 
ATOM     16  C   ILE d   1      13.213 -18.020  -8.207  0.00  0.00     0.241 C 
ATOM     17  O   ILE d   1      14.308 -18.022  -8.764  0.00  0.00    -0.271 OA
ATOM     18  H   LEU d   1      12.050 -17.476  -6.638  0.00  0.00     0.163 HD
BRANCH  16  19
ATOM     19  CA  ILE d   1      12.008 -18.729  -8.834  0.00  0.00     0.092 C 
ATOM     20  H   ILE d   1      12.325 -19.475  -9.563  0.00  0.00     0.088 H 
BRANCH  19  21
ATOM     21  N   ILE d   1      11.265 -19.390  -7.777  0.00  0.00    -0.346 N 
ATOM     22  C   LYS d   1      11.796 -20.375  -7.062  0.00  0.00     0.241 C 
ATOM     23  O   LYS d   1      12.923 -20.820  -7.267  0.00  0.00    -0.271 OA
ATOM     24  H   ILE d   1      10.310 -19.090  -7.578  0.00  0.00     0.163 HD
BRANCH  22  25
ATOM     25  CA  LYS d   1      10.923 -20.958  -5.956  0.00  0.00     0.089 C 
ATOM     26  H   LYS d   1       9.932 -21.184  -6.349  0.00  0.00     0.087 H 
BRANCH  25  27
ATOM     27  N   LYS d   1      11.509 -22.191  -5.462  0.00  0.00    -0.346 N 
ATOM     28  C   HIS d   1      11.510 -23.283  -6.214  0.00  0.00     0.249 C 
ATOM     29  O   HIS d   1      11.016 -23.312  -7.343  0.00  0.00    -0.271 OA
ATOM     30  H   LYS d   1      11.923 -22.217  -4.530  0.00  0.00     0.163 HD
BRANCH  28  31
ATOM     31  CA  HIS d   1      12.172 -24.519  -5.606  0.00  0.00     0.181 C 
ATOM     32  H   HIS d   1      13.226 -24.286  -5.452  0.00  0.00     0.099 H 
BRANCH  31  33
ATOM     33  N   HIS d   1      11.601 -24.859  -4.307  0.00  0.00    -0.066 N 
ATOM     34  H   HIS d   1      11.690 -24.061  -3.679  0.00  0.00     0.275 HD
ATOM     35  H   HIS d   1      10.615 -25.095  -4.421  0.00  0.00     0.275 HD
ATOM     36  H   HIS d   1      12.100 -25.658  -3.916  0.00  0.00     0.275 HD
ENDBRANCH  31  33
BRANCH  31  37
ATOM     37  CB  HIS d   1      12.047 -25.711  -6.566  0.00  0.00     0.011 C 
ATOM     38  H   HIS d   1      12.838 -26.417  -6.312  0.00  0.00     0.046 H 
ATOM     39  H   HIS d   1      12.116 -25.319  -7.581  0.00  0.00     0.046 H 
BRANCH  37  40
ATOM     40  CG  HIS d   1      10.745 -26.441  -6.457  0.00  0.00     0.053 A 
ATOM     41  ND1 HIS d   1       9.526 -25.824  -6.639  0.00  0.00    -0.247 NA
ATOM     42  CE1 HIS d   1       8.558 -26.705  -6.458  0.00  0.00     0.064 A 
ATOM     43  NE2 HIS d   1       9.104 -27.872  -6.168  0.00  0.00    -0.359 N 
ATOM     44  H   HIS d   1       7.490 -26.503  -6.535  0.00  0.00     0.143 H 
ATOM     45  CD2 HIS d   1      10.471 -27.736  -6.162  0.00  0.00     0.002 A 
ATOM     46  H   HIS d   1       8.593 -28.735  -5.979  0.00  0.00     0.166 HD
ATOM     47  H   HIS d   1      11.199 -28.521  -5.958  0.00  0.00     0.114 H 
ENDBRANCH  37  40
ENDBRANCH  31  37
ENDBRANCH  28  31
ENDBRANCH  25  27
BRANCH  25  48
ATOM     48  CB  LYS d   1      10.788 -19.930  -4.824  0.00  0.00    -0.038 C 
ATOM     49  H   LYS d   1      10.741 -18.947  -5.292  0.00  0.00     0.036 H 
ATOM     50  H   LYS d   1      11.639 -20.077  -4.159  0.00  0.00     0.036 H 
BRANCH  48  51
ATOM     51  CG  LYS d   1       9.531 -20.078  -3.976  0.00  0.00    -0.061 C 
ATOM     52  H   LYS d   1       8.758 -20.533  -4.595  0.00  0.00     0.033 H 
ATOM     53  H   LYS d   1       9.247 -19.088  -3.618  0.00  0.00     0.033 H 
BRANCH  51  54
ATOM     54  CD  LYS d   1       9.751 -20.970  -2.767  0.00  0.00    -0.043 C 
ATOM     55  H   LYS d   1      10.280 -21.866  -3.092  0.00  0.00     0.035 H 
ATOM     56  H   LYS d   1       8.779 -21.212  -2.336  0.00  0.00     0.035 H 
BRANCH  54  57
ATOM     57  CE  LYS d   1      10.589 -20.275  -1.703  0.00  0.00     0.080 C 
ATOM     58  H   LYS d   1      10.117 -19.321  -1.469  0.00  0.00     0.075 H 
ATOM     59  H   LYS d   1      11.598 -20.149  -2.095  0.00  0.00     0.075 H 
BRANCH  57  60
ATOM     60  NZ  LYS d   1      10.675 -21.072  -0.445  0.00  0.00    -0.079 N 
ATOM     61  H   LYS d   1      11.244 -20.569   0.236  0.00  0.00     0.274 HD
ATOM     62  H   LYS d   1       9.738 -21.213  -0.069  0.00  0.00     0.274 HD
ATOM     63  H   LYS d   1      11.102 -21.976  -0.645  0.00  0.00     0.274 HD
ENDBRANCH  57  60
ENDBRANCH  54  57
ENDBRANCH  51  54
ENDBRANCH  48  51
ENDBRANCH  25  48
ENDBRANCH  22  25
ENDBRANCH  19  21
BRANCH  19  64
ATOM     64  CB  ILE d   1      11.130 -17.676  -9.558  0.00  0.00    -0.030 C 
ATOM     65  H   ILE d   1      10.716 -17.001  -8.809  0.00  0.00     0.043 H 
BRANCH  64  66
ATOM     66  CG1 ILE d   1       9.982 -18.354 -10.295  0.00  0.00    -0.063 C 
ATOM     67  H   ILE d   1       9.352 -18.836  -9.548  0.00  0.00     0.033 H 
ATOM     68  H   ILE d   1      10.418 -19.051 -11.011  0.00  0.00     0.033 H 
BRANCH  66  69
ATOM     69  CD1 ILE d   1       9.106 -17.384 -11.076  0.00  0.00    -0.076 C 
ATOM     70  H   ILE d   1       8.671 -16.657 -10.390  0.00  0.00     0.027 H 
ATOM     71  H   ILE d   1       9.712 -16.867 -11.820  0.00  0.00     0.027 H 
ATOM     72  H   ILE d   1       8.310 -17.936 -11.575  0.00  0.00     0.027 H 
ENDBRANCH  66  69
ENDBRANCH  64  66
BRANCH  64  73
ATOM     73  CG2 ILE d   1      11.970 -16.873 -10.536  0.00  0.00    -0.071 C 
ATOM     74  H   ILE d   1      12.766 -16.362  -9.995  0.00  0.00     0.028 H 
ATOM     75  H   ILE d   1      12.405 -17.545 -11.276  0.00  0.00     0.028 H 
ATOM     76  H   ILE d   1      11.339 -16.138 -11.036  0.00  0.00     0.028 H 
ENDBRANCH  64  73
ENDBRANCH  19  64
ENDBRANCH  16  19
ENDBRANCH  13  15
BRANCH  13  77
ATOM     77  CB  LEU d   1      13.424 -16.107  -5.022  0.00  0.00    -0.035 C 
ATOM     78  H   LEU d   1      13.044 -16.966  -4.469  0.00  0.00     0.037 H 
ATOM     79  H   LEU d   1      12.731 -15.341  -5.371  0.00  0.00     0.037 H 
BRANCH  77  80
ATOM     80  CG  LEU d   1      14.337 -15.379  -4.028  0.00  0.00    -0.059 C 
ATOM     81  H   LEU d   1      15.103 -16.066  -3.668  0.00  0.00     0.038 H 
BRANCH  80  82
ATOM     82  CD1 LEU d   1      15.039 -14.216  -4.698  0.00  0.00    -0.073 C 
ATOM     83  H   LEU d   1      15.643 -14.586  -5.526  0.00  0.00     0.028 H 
ATOM     84  H   LEU d   1      14.296 -13.513  -5.075  0.00  0.00     0.028 H 
ATOM     85  H   LEU d   1      15.681 -13.715  -3.974  0.00  0.00     0.028 H 
ENDBRANCH  80  82
BRANCH  80  86
ATOM     86  CD2 LEU d   1      13.497 -14.891  -2.863  0.00  0.00    -0.073 C 
ATOM     87  H   LEU d   1      12.730 -14.209  -3.230  0.00  0.00     0.028 H 
ATOM     88  H   LEU d   1      13.024 -15.743  -2.376  0.00  0.00     0.028 H 
ATOM     89  H   LEU d   1      14.136 -14.371  -2.149  0.00  0.00     0.028 H 
ENDBRANCH  80  86
ENDBRANCH  77  80
ENDBRANCH  13  77
ENDBRANCH  10  13
ENDBRANCH   7   9
BRANCH   7  90
ATOM     90  CB  HIS d   1      14.990 -21.150  -4.744  0.00  0.00     0.004 C 
ATOM     91  H   HIS d   1      14.450 -21.501  -5.624  0.00  0.00     0.046 H 
ATOM     92  H   HIS d   1      14.346 -20.898  -3.902  0.00  0.00     0.046 H 
BRANCH  90  93
ATOM     93  CG  HIS d   1      15.888 -22.262  -4.300  0.00  0.00     0.053 A 
ATOM     94  ND1 HIS d   1      16.687 -22.968  -5.173  0.00  0.00    -0.247 NA
ATOM     95  CE1 HIS d   1      17.377 -23.873  -4.503  0.00  0.00     0.064 A 
ATOM     96  NE2 HIS d   1      17.054 -23.780  -3.225  0.00  0.00    -0.359 N 
ATOM     97  H   HIS d   1      18.091 -24.577  -4.931  0.00  0.00     0.143 H 
ATOM     98  CD2 HIS d   1      16.124 -22.780  -3.071  0.00  0.00     0.002 A 
ATOM     99  H   HIS d   1      17.433 -24.357  -2.474  0.00  0.00     0.166 HD
ATOM    100  H   HIS d   1      15.663 -22.463  -2.135  0.00  0.00     0.114 H 
ENDBRANCH  90  93
ENDBRANCH   7  90
ENDBRANCH   4   7
ENDBRANCH   1   3
BRANCH   1 101
ATOM    101  C   ARG d   1      17.739 -19.509  -9.113  0.00  0.00     0.241 C 
ATOM    102  O   ARG d   1      18.925 -19.724  -9.377  0.00  0.00    -0.271 OA
ATOM    103  N   LEU d   1      17.192 -18.298  -9.176  0.00  0.00    -0.346 N 
ATOM    104  H   LEU d   1      16.204 -18.180  -8.951  0.00  0.00     0.163 HD
BRANCH 103 105
ATOM    105  CA  LEU d   1      17.987 -17.133  -9.563  0.00  0.00     0.089 C 
ATOM    106  H   LEU d   1      18.429 -17.342 -10.537  0.00  0.00     0.087 H 
BRANCH 105 107
ATOM    107  C   LEU d   1      19.124 -16.880  -8.578  0.00  0.00     0.241 C 
ATOM    108  O   LEU d   1      20.147 -16.299  -8.933  0.00  0.00    -0.271 OA
ATOM    109  N   LEU d   1      18.942 -17.319  -7.339  0.00  0.00    -0.346 N 
ATOM    110  H   LEU d   1      18.066 -17.782  -7.096  0.00  0.00     0.163 HD
BRANCH 109 111
ATOM    111  CA  LEU d   1      19.967 -17.152  -6.322  0.00  0.00     0.089 C 
ATOM    112  H   LEU d   1      20.391 -16.152  -6.412  0.00  0.00     0.087 H 
BRANCH 111 113
ATOM    113  C   LEU d   1      21.081 -18.177  -6.521  0.00  0.00     0.241 C 
ATOM    114  O   LEU d   1      22.258 -17.863  -6.338  0.00  0.00    -0.271 OA
ATOM    115  N   GLN d   1      20.698 -19.396  -6.897  0.00  0.00    -0.346 N 
ATOM    116  H   GLN d   1      19.704 -19.577  -7.039  0.00  0.00     0.163 HD
BRANCH 115 117
ATOM    117  CA  GLN d   1      21.645 -20.480  -7.113  0.00  0.00     0.090 C 
ATOM    118  H   GLN d   1      22.303 -20.487  -6.244  0.00  0.00     0.087 H 
BRANCH 117 119
ATOM    119  C   GLN d   1      22.496 -20.279  -8.347  0.00  0.00     0.241 C 
ATOM    120  O   GLN d   1      23.727 -20.312  -8.279  0.00  0.00    -0.271 OA
ATOM    121  N   GLU d   1      21.835 -20.087  -9.481  0.00  0.00    -0.346 N 
ATOM    122  H   GLU d   1      20.815 -20.072  -9.470  0.00  0.00     0.163 HD
BRANCH 121 123
ATOM    123  CA  GLU d   1      22.540 -19.898 -10.740  0.00  0.00     0.090 C 
ATOM    124  H   GLU d   1      22.913 -20.876 -11.044  0.00  0.00     0.087 H 
BRANCH 123 125
ATOM    125  C   GLU d   1      23.739 -18.951 -10.594  0.00  0.00     0.240 C 
ATOM    126  O   GLU d   1      23.641 -17.900  -9.963  0.00  0.00    -0.271 OA
ATOM    127  N   GLY d   1      24.857 -19.328 -11.205  0.00  0.00    -0.349 N 
ATOM    128  H   GLY d   1      24.873 -20.206 -11.724  0.00  0.00     0.163 HD
BRANCH 127 129
ATOM    129  CA  GLY d   1      26.051 -18.514 -11.147  0.00  0.00     0.075 C 
ATOM    130  H   GLY d   1      26.864 -19.062 -11.622  0.00  0.00     0.080 H 
ATOM    131  H   GLY d   1      26.269 -18.297 -10.101  0.00  0.00     0.080 H 
BRANCH 129 132
ATOM    132  C   GLY d   1      25.869 -17.205 -11.877  0.00  0.00     0.191 C 
ATOM    133  O   GLY d   1      26.265 -16.119 -11.376  0.00  0.00    -0.647 OA
ATOM    134  O   GLY d   1      25.311 -17.198 -13.007  0.00  0.00    -0.647 OA
ENDBRANCH 129 132
ENDBRANCH 127 129
ENDBRANCH 123 125
BRANCH 123 135
ATOM    135  CB  GLU d   1      21.588 -19.343 -11.810  0.00  0.00    -0.029 C 
ATOM    136  H   GLU d   1      20.606 -19.763 -11.595  0.00  0.00     0.037 H 
ATOM    137  H   GLU d   1      22.020 -19.612 -12.774  0.00  0.00     0.037 H 
BRANCH 135 138
ATOM    138  CG  GLU d   1      21.413 -17.828 -11.825  0.00  0.00     0.018 C 
ATOM    139  H   GLU d   1      22.401 -17.367 -11.821  0.00  0.00     0.049 H 
ATOM    140  H   GLU d   1      20.832 -17.539 -10.949  0.00  0.00     0.049 H 
BRANCH 138 141
ATOM    141  CD  GLU d   1      20.669 -17.363 -13.071  0.00  0.00     0.172 C 
ATOM    142  OE1 GLU d   1      19.440 -17.589 -13.139  0.00  0.00    -0.648 OA
ATOM    143  OE2 GLU d   1      21.312 -16.788 -13.985  0.00  0.00    -0.648 OA
ENDBRANCH 138 141
ENDBRANCH 135 138
ENDBRANCH 123 135
ENDBRANCH 121 123
ENDBRANCH 117 119
BRANCH 117 144
ATOM    144  CB  GLN d   1      20.906 -21.813  -7.245  0.00  0.00    -0.030 C 
ATOM    145  H   GLN d   1      21.349 -22.337  -8.092  0.00  0.00     0.037 H 
ATOM    146  H   GLN d   1      19.847 -21.578  -7.354  0.00  0.00     0.037 H 
BRANCH 144 147
ATOM    147  CG  GLN d   1      21.031 -22.736  -6.040  0.00  0.00     0.011 C 
ATOM    148  H   GLN d   1      20.563 -22.241  -5.189  0.00  0.00     0.047 H 
ATOM    149  H   GLN d   1      22.090 -22.935  -5.879  0.00  0.00     0.047 H 
BRANCH 147 150
ATOM    150  CD  GLN d   1      20.331 -24.070  -6.249  0.00  0.00     0.215 C 
ATOM    151  OE1 GLN d   1      20.346 -24.934  -5.371  0.00  0.00    -0.274 OA
ATOM    152  NE2 GLN d   1      19.711 -24.242  -7.408  0.00  0.00    -0.370 N 
ATOM    153  H   GLN d   1      19.222 -25.116  -7.600  0.00  0.00     0.159 HD
ATOM    154  H   GLN d   1      19.723 -23.500  -8.108  0.00  0.00     0.159 HD
ENDBRANCH 147 150
ENDBRANCH 144 147
ENDBRANCH 117 144
ENDBRANCH 115 117
ENDBRANCH 111 113
BRANCH 111 155
ATOM    155  CB  LEU d   1      19.354 -17.308  -4.932  0.00  0.00    -0.035 C 
ATOM    156  H   LEU d   1      20.166 -17.585  -4.261  0.00  0.00     0.037 H 
ATOM    157  H   LEU d   1      18.556 -18.045  -5.022  0.00  0.00     0.037 H 
BRANCH 155 158
ATOM    158  CG  LEU d   1      18.722 -16.045  -4.357  0.00  0.00    -0.059 C 
ATOM    159  H   LEU d   1      18.011 -15.626  -5.069  0.00  0.00     0.038 H 
BRANCH 158 160
ATOM    160  CD1 LEU d   1      17.957 -16.367  -3.087  0.00  0.00    -0.073 C 
ATOM    161  H   LEU d   1      17.171 -17.088  -3.311  0.00  0.00     0.028 H 
ATOM    162  H   LEU d   1      18.640 -16.790  -2.350  0.00  0.00     0.028 H 
ATOM    163  H   LEU d   1      17.513 -15.454  -2.691  0.00  0.00     0.028 H 
ENDBRANCH 158 160
BRANCH 158 164
ATOM    164  CD2 LEU d   1      19.822 -15.036  -4.089  0.00  0.00    -0.073 C 
ATOM    165  H   LEU d   1      20.532 -15.455  -3.376  0.00  0.00     0.028 H 
ATOM    166  H   LEU d   1      20.336 -14.804  -5.022  0.00  0.00     0.028 H 
ATOM    167  H   LEU d   1      19.386 -14.126  -3.677  0.00  0.00     0.028 H 
ENDBRANCH 158 164
ENDBRANCH 155 158
ENDBRANCH 111 155
ENDBRANCH 109 111
ENDBRANCH 105 107
BRANCH 105 168
ATOM    168  CB  LEU d   1      17.095 -15.890  -9.676  0.00  0.00    -0.035 C 
ATOM    169  H   LEU d   1      17.746 -15.070  -9.981  0.00  0.00     0.037 H 
ATOM    170  H   LEU d   1      16.606 -15.773  -8.709  0.00  0.00     0.037 H 
BRANCH 168 171
ATOM    171  CG  LEU d   1      15.973 -15.966 -10.723  0.00  0.00    -0.059 C 
ATOM    172  H   LEU d   1      15.272 -16.752 -10.442  0.00  0.00     0.038 H 
BRANCH 171 173
ATOM    173  CD1 LEU d   1      15.228 -14.634 -10.778  0.00  0.00    -0.073 C 
ATOM    174  H   LEU d   1      14.796 -14.420  -9.800  0.00  0.00     0.028 H 
ATOM    175  H   LEU d   1      15.924 -13.841 -11.051  0.00  0.00     0.028 H 
ATOM    176  H   LEU d   1      14.434 -14.694 -11.522  0.00  0.00     0.028 H 
ENDBRANCH 171 173
BRANCH 171 177
ATOM    177  CD2 LEU d   1      16.561 -16.302 -12.095  0.00  0.00    -0.073 C 
ATOM    178  H   LEU d   1      17.271 -15.527 -12.384  0.00  0.00     0.028 H 
ATOM    179  H   LEU d   1      17.072 -17.264 -12.044  0.00  0.00     0.028 H 
ATOM    180  H   LEU d   1      15.758 -16.354 -12.830  0.00  0.00     0.028 H 
ENDBRANCH 171 177
ENDBRANCH 168 171
ENDBRANCH 105 168
ENDBRANCH 103 105
ENDBRANCH   1 101
BRANCH   1 181
ATOM    181  CB  ARG d   1      15.847 -20.966  -9.830  0.00  0.00    -0.036 C 
ATOM    182  H   ARG d   1      15.419 -20.015 -10.148  0.00  0.00     0.036 H 
ATOM    183  H   ARG d   1      15.126 -21.684  -9.439  0.00  0.00     0.036 H 
BRANCH 181 184
ATOM    184  CG  ARG d   1      16.476 -21.598 -11.057  0.00  0.00    -0.048 C 
ATOM    185  H   ARG d   1      16.717 -22.640 -10.847  0.00  0.00     0.035 H 
ATOM    186  H   ARG d   1      17.389 -21.062 -11.316  0.00  0.00     0.035 H 
BRANCH 184 187
ATOM    187  CD  ARG d   1      15.497 -21.526 -12.219  0.00  0.00     0.009 C 
ATOM    188  H   ARG d   1      14.515 -21.847 -11.872  0.00  0.00     0.064 H 
ATOM    189  H   ARG d   1      15.853 -22.173 -13.020  0.00  0.00     0.064 H 
BRANCH 187 190
ATOM    190  NE  ARG d   1      15.396 -20.161 -12.725  0.00  0.00    -0.227 N 
ATOM    191  CZ  ARG d   1      14.278 -19.604 -13.174  0.00  0.00     0.665 C 
ATOM    192  NH1 ARG d   1      13.144 -20.291 -13.179  0.00  0.00    -0.235 N 
ATOM    193  NH2 ARG d   1      14.296 -18.359 -13.624  0.00  0.00    -0.235 N 
ATOM    194  H   ARG d   1      13.128 -21.252 -12.837  0.00  0.00     0.174 HD
ATOM    195  H   ARG d   1      12.287 -19.859 -13.525  0.00  0.00     0.174 HD
ATOM    196  H   ARG d   1      15.168 -17.830 -13.625  0.00  0.00     0.174 HD
ATOM    197  H   ARG d   1      13.438 -17.929 -13.970  0.00  0.00     0.174 HD
ATOM    198  H   ARG d   1      16.244 -19.595 -12.734  0.00  0.00     0.177 HD
ENDBRANCH 187 190
ENDBRANCH 184 187
ENDBRANCH 181 184
ENDBRANCH   1 181
TORSDOF 57
