REMARK  6 active torsions:
REMARK  status: ('A' for Active; 'I' for Inactive)
REMARK    1  A    between atoms: C10_7  and  C9_8 
REMARK    2  A    between atoms: C8_9  and  C11_10 
REMARK    3  A    between atoms: C11_10  and  O13_11 
REMARK    4  A    between atoms: C11_10  and  C12_13 
REMARK    5  A    between atoms: O13_11  and  C14_12 
REMARK    6  A    between atoms: C7_24  and  C16_25 
ROOT
ATOM      1  C9  0L9 d   1     -45.466  15.344  27.901  0.00  0.00    -0.002 A 
ATOM      2  C8  0L9 d   1     -46.282  14.274  27.564  0.00  0.00     0.017 A 
ATOM      3  C5  0L9 d   1     -45.868  16.670  27.645  0.00  0.00     0.006 A 
ATOM      4  C6  0L9 d   1     -45.047  17.756  27.975  0.00  0.00    -0.053 A 
ATOM      5  C1  0L9 d   1     -45.435  19.102  27.751  0.00  0.00     0.011 A 
ATOM      6 BR   0L9 d   1     -44.213  20.484  28.286  0.00  0.00    -0.051 Br
ATOM      7  C2  0L9 d   1     -46.688  19.359  27.172  0.00  0.00    -0.064 A 
ATOM      8  C3  0L9 d   1     -47.537  18.264  26.842  0.00  0.00    -0.053 A 
ATOM      9  C4  0L9 d   1     -47.125  16.919  27.091  0.00  0.00     0.068 A 
ATOM     10  N   0L9 d   1     -47.915  15.846  26.776  0.00  0.00    -0.253 NA
ATOM     11  C7  0L9 d   1     -47.528  14.551  27.000  0.00  0.00     0.041 A 
ATOM     12  H9  0L9 d   1     -44.078  17.560  28.419  0.00  0.00     0.087 H 
ATOM     13  H10 0L9 d   1     -47.005  20.377  26.979  0.00  0.00     0.085 H 
ATOM     14  H11 0L9 d   1     -48.507  18.453  26.397  0.00  0.00     0.087 H 
ENDROOT
BRANCH   1  15
ATOM     15  C10 0L9 d   1     -44.101  15.062  28.440  0.00  0.00    -0.024 A 
ATOM     16  C21 0L9 d   1     -43.750  14.667  29.724  0.00  0.00    -0.071 A 
ATOM     17  C20 0L9 d   1     -42.382  14.427  30.018  0.00  0.00    -0.061 A 
ATOM     18  H2  0L9 d   1     -44.508  14.544  30.489  0.00  0.00     0.084 H 
ATOM     19  C19 0L9 d   1     -41.371  14.593  29.057  0.00  0.00     0.034 A 
ATOM     20  H1  0L9 d   1     -42.109  14.105  31.016  0.00  0.00     0.086 H 
ATOM     21 CL1  0L9 d   1     -39.638  14.275  29.434  0.00  0.00    -0.084 Cl
ATOM     22  C18 0L9 d   1     -41.725  14.987  27.795  0.00  0.00    -0.061 A 
ATOM     23  C17 0L9 d   1     -43.084  15.208  27.484  0.00  0.00    -0.071 A 
ATOM     24  H3  0L9 d   1     -40.964  15.129  27.036  0.00  0.00     0.086 H 
ATOM     25  H4  0L9 d   1     -43.351  15.500  26.475  0.00  0.00     0.084 H 
ENDBRANCH   1  15
BRANCH   2  26
ATOM     26  C11 0L9 d   1     -45.785  12.876  27.869  0.00  0.00     0.149 C 
ATOM     27  H5  0L9 d   1     -44.708  12.985  28.064  0.00  0.00     0.108 H 
BRANCH  26  28
ATOM     28  O13 0L9 d   1     -45.867  11.989  26.742  0.00  0.00    -0.375 OA
BRANCH  28  29
ATOM     29  C14 0L9 d   1     -44.612  11.898  26.076  0.00  0.00     0.006 C 
ATOM     30  H6  0L9 d   1     -44.701  11.214  25.219  0.00  0.00     0.066 H 
ATOM     31  H7  0L9 d   1     -43.853  11.514  26.774  0.00  0.00     0.066 H 
ATOM     32  H8  0L9 d   1     -44.312  12.895  25.721  0.00  0.00     0.066 H 
ENDBRANCH  28  29
ENDBRANCH  26  28
BRANCH  26  33
ATOM     33  C12 0L9 d   1     -46.380  12.316  29.194  0.00  0.00     0.208 C 
ATOM     34  O1  0L9 d   1     -46.486  13.078  30.183  0.00  0.00    -0.646 OA
ATOM     35  O2  0L9 d   1     -46.719  11.106  29.355  0.00  0.00    -0.646 OA
ENDBRANCH  26  33
ENDBRANCH   2  26
BRANCH  11  36
ATOM     36  C16 0L9 d   1     -48.498  13.454  26.624  0.00  0.00    -0.035 C 
ATOM     37  H12 0L9 d   1     -49.410  13.900  26.200  0.00  0.00     0.035 H 
ATOM     38  H13 0L9 d   1     -48.758  12.871  27.520  0.00  0.00     0.035 H 
ATOM     39  H14 0L9 d   1     -48.032  12.792  25.879  0.00  0.00     0.035 H 
ENDBRANCH  11  36
TORSDOF 6
