REMARK  4 active torsions:
REMARK  status: ('A' for Active; 'I' for Inactive)
REMARK       I    between atoms: C23_2  and  N25_3 
REMARK    1  A    between atoms: C23_2  and  C18_9 
REMARK    2  A    between atoms: N25_3  and  C26_4 
REMARK    3  A    between atoms: C26_4  and  C29_5 
REMARK    4  A    between atoms: C17_14  and  C15_15 
REMARK       I    between atoms: C15_15  and  N10_17 
ROOT
ATOM      1  C18 0LC d   1       9.696  26.239  12.593  0.00  0.00     0.035 C 
ATOM      2  C19 0LC d   1       8.679  27.393  12.538  0.00  0.00    -0.053 C 
ATOM      3  C20 0LC d   1       8.735  28.206  13.830  0.00  0.00    -0.064 C 
ATOM      4  C22 0LC d   1      10.160  28.756  14.051  0.00  0.00    -0.064 C 
ATOM      5  C21 0LC d   1      11.254  27.670  13.986  0.00  0.00    -0.053 C 
ATOM      6  C17 0LC d   1      11.137  26.771  12.747  0.00  0.00     0.035 C 
ATOM      7  H   0LC d   1       9.525  25.593  13.454  0.00  0.00     0.056 H 
ATOM      8  H   0LC d   1       7.677  26.981  12.418  0.00  0.00     0.034 H 
ATOM      9  H   0LC d   1       8.921  28.042  11.697  0.00  0.00     0.034 H 
ATOM     10  H   0LC d   1       8.466  27.563  14.668  0.00  0.00     0.033 H 
ATOM     11  H   0LC d   1       8.037  29.040  13.758  0.00  0.00     0.033 H 
ATOM     12  H   0LC d   1      10.192  29.194  15.049  0.00  0.00     0.033 H 
ATOM     13  H   0LC d   1      10.362  29.473  13.255  0.00  0.00     0.033 H 
ATOM     14  H   0LC d   1      11.145  27.037  14.866  0.00  0.00     0.034 H 
ATOM     15  H   0LC d   1      12.219  28.174  13.939  0.00  0.00     0.034 H 
ATOM     16  H   0LC d   1      11.360  27.347  11.849  0.00  0.00     0.056 H 
ENDROOT
BRANCH   6  17
ATOM     17  C15 0LC d   1      12.140  25.640  12.869  0.00  0.00     0.225 C 
ATOM     18  O16 0LC d   1      11.794  24.508  13.185  0.00  0.00    -0.273 OA
ATOM     19  N10 0LC d   1      13.472  25.901  12.620  0.00  0.00    -0.347 N 
ATOM     20  C12 0LC d   1      14.395  24.751  12.448  0.00  0.00     0.003 C 
ATOM     21  C11 0LC d   1      13.971  27.203  12.097  0.00  0.00     0.024 C 
ATOM     22  C13 0LC d   1      14.586  24.460  10.949  0.00  0.00    -0.011 C 
ATOM     23  H   0LC d   1      13.973  23.872  12.936  0.00  0.00     0.065 H 
ATOM     24  H   0LC d   1      15.359  24.991  12.896  0.00  0.00     0.065 H 
ATOM     25  C1  0LC d   1      15.067  25.734  10.324  0.00  0.00     0.020 A 
ATOM     26  H   0LC d   1      13.652  24.131  10.494  0.00  0.00     0.044 H 
ATOM     27  H   0LC d   1      15.306  23.656  10.797  0.00  0.00     0.044 H 
ATOM     28  C2  0LC d   1      14.787  26.975  10.854  0.00  0.00    -0.005 A 
ATOM     29  N3  0LC d   1      15.831  25.850   9.213  0.00  0.00    -0.358 N 
ATOM     30  C5  0LC d   1      15.395  27.888  10.043  0.00  0.00     0.003 A 
ATOM     31  C7  0LC d   1      15.439  29.277  10.094  0.00  0.00    -0.033 A 
ATOM     32  C4  0LC d   1      16.015  27.172   9.048  0.00  0.00     0.043 A 
ATOM     33  C6  0LC d   1      16.151  29.949   9.100  0.00  0.00     0.117 A 
ATOM     34  H   0LC d   1      14.932  29.825  10.888  0.00  0.00     0.089 H 
ATOM     35  F14 0LC d   1      16.255  31.291   9.104  0.00  0.00    -0.206 F 
ATOM     36  C8  0LC d   1      16.783  29.223   8.095  0.00  0.00    -0.043 A 
ATOM     37  C9  0LC d   1      16.729  27.827   8.050  0.00  0.00    -0.053 A 
ATOM     38  H   0LC d   1      17.335  29.758   7.322  0.00  0.00     0.088 H 
ATOM     39  H   0LC d   1      17.230  27.270   7.258  0.00  0.00     0.087 H 
ATOM     40  H   0LC d   1      16.190  25.097   8.627  0.00  0.00     0.166 HD
ATOM     41  H   0LC d   1      14.594  27.680  12.854  0.00  0.00     0.071 H 
ATOM     42  H   0LC d   1      13.122  27.844  11.858  0.00  0.00     0.071 H 
ENDBRANCH   6  17
BRANCH   1  43
ATOM     43  C23 0LC d   1       9.523  25.488  11.296  0.00  0.00     0.223 C 
ATOM     44  O24 0LC d   1       9.913  25.950  10.235  0.00  0.00    -0.273 OA
ATOM     45  N25 0LC d   1       8.911  24.258  11.417  0.00  0.00    -0.347 N 
ATOM     46  H   0LC d   1       8.665  23.949  12.357  0.00  0.00     0.163 HD
BRANCH  45  47
ATOM     47  C26 0LC d   1       8.587  23.363  10.315  0.00  0.00     0.066 A 
ATOM     48  C28 0LC d   1       9.112  21.970  10.253  0.00  0.00    -0.034 A 
ATOM     49  C27 0LC d   1       9.787  23.104   9.402  0.00  0.00    -0.034 A 
ATOM     50  H   0LC d   1       8.732  20.958  10.113  0.00  0.00     0.037 H 
ATOM     51  H   0LC d   1       9.407  21.176  10.939  0.00  0.00     0.037 H 
ATOM     52  H   0LC d   1      10.774  23.510   9.179  0.00  0.00     0.037 H 
ATOM     53  H   0LC d   1      10.124  23.301   8.384  0.00  0.00     0.037 H 
BRANCH  47  54
ATOM     54  C29 0LC d   1       7.300  23.834   9.625  0.00  0.00     0.000 C 
ATOM     55  N30 0LC d   1       6.674  23.006   8.850  0.00  0.00    -0.314 NA
ATOM     56  H   0LC d   1       7.039  22.064   8.710  0.00  0.00     0.185 HD
ATOM     57  H   0LC d   1       6.921  24.843   9.784  0.00  0.00     0.110 H 
ENDBRANCH  47  54
ENDBRANCH  45  47
ENDBRANCH   1  43
TORSDOF 4
