REMARK  6 active torsions:
REMARK  status: ('A' for Active; 'I' for Inactive)
REMARK    1  A    between atoms: C2'_10  and  O2'_11 
REMARK    2  A    between atoms: C1'_12  and  N9_13 
REMARK    3  A    between atoms: C2_20  and  N2_21 
REMARK    4  A    between atoms: C2A_33  and  O2A_34 
REMARK    5  A    between atoms: C1A_35  and  N91_36 
REMARK    6  A    between atoms: C21_43  and  N21_44 
ROOT
ATOM      1  P1  C2E d   1       7.217   6.496  -8.211  0.00  0.00     0.408 P 
ATOM      2  O2P C2E d   1       5.920   7.083  -7.796  0.00  0.00    -0.624 OA
ATOM      3  O1P C2E d   1       7.890   7.555  -9.070  0.00  0.00    -0.624 OA
ATOM      4  O5' C2E d   1       8.270   6.254  -7.058  0.00  0.00    -0.287 OA
ATOM      5  C5' C2E d   1       9.428   5.612  -7.308  0.00  0.00     0.058 C 
ATOM      6  C4' C2E d   1      10.105   5.099  -6.148  0.00  0.00     0.090 C 
ATOM      7  O4' C2E d   1      10.084   6.077  -5.157  0.00  0.00    -0.353 OA
ATOM      8  C3' C2E d   1       9.322   3.957  -5.538  0.00  0.00     0.106 C 
ATOM      9  O3' C2E d   1       9.705   2.705  -6.063  0.00  0.00    -0.279 OA
ATOM     10  C2' C2E d   1       9.634   4.014  -4.203  0.00  0.00     0.106 C 
ATOM     11  C1' C2E d   1       9.814   5.425  -3.941  0.00  0.00     0.140 C 
ATOM     12  P11 C2E d   1       8.596   1.568  -6.080  0.00  0.00     0.408 P 
ATOM     13  O21 C2E d   1       8.183   1.059  -4.723  0.00  0.00    -0.624 OA
ATOM     14  O11 C2E d   1       9.276   0.426  -6.713  0.00  0.00    -0.624 OA
ATOM     15  O5A C2E d   1       7.376   1.969  -6.987  0.00  0.00    -0.287 OA
ATOM     16  C5A C2E d   1       7.646   2.305  -8.354  0.00  0.00     0.058 C 
ATOM     17  C4A C2E d   1       6.607   2.920  -9.105  0.00  0.00     0.090 C 
ATOM     18  O4A C2E d   1       5.350   2.129  -8.988  0.00  0.00    -0.353 OA
ATOM     19  C3A C2E d   1       6.264   4.233  -8.533  0.00  0.00     0.106 C 
ATOM     20  O3A C2E d   1       7.038   5.232  -9.067  0.00  0.00    -0.279 OA
ATOM     21  C2A C2E d   1       4.873   4.412  -8.955  0.00  0.00     0.106 C 
ATOM     22  C1A C2E d   1       4.298   3.043  -8.863  0.00  0.00     0.140 C 
ATOM     23  H1  C2E d   1      10.105   6.316  -7.814  0.00  0.00     0.079 H 
ATOM     24  H2  C2E d   1       9.211   4.766  -7.977  0.00  0.00     0.079 H 
ATOM     25  H3  C2E d   1      11.131   4.794  -6.403  0.00  0.00     0.090 H 
ATOM     26  H4  C2E d   1       8.243   4.103  -5.697  0.00  0.00     0.092 H 
ATOM     27  H5  C2E d   1       8.810   3.604  -3.601  0.00  0.00     0.093 H 
ATOM     28  H7  C2E d   1      10.648   5.564  -3.238  0.00  0.00     0.122 H 
ATOM     29  H12 C2E d   1       7.918   1.374  -8.873  0.00  0.00     0.079 H 
ATOM     30  H13 C2E d   1       8.505   2.992  -8.359  0.00  0.00     0.079 H 
ATOM     31  H14 C2E d   1       6.915   3.018 -10.156  0.00  0.00     0.090 H 
ATOM     32  H15 C2E d   1       6.360   4.229  -7.437  0.00  0.00     0.092 H 
ATOM     33  H16 C2E d   1       4.343   5.111  -8.291  0.00  0.00     0.093 H 
ATOM     34  H18 C2E d   1       3.592   2.903  -9.695  0.00  0.00     0.122 H 
ENDROOT
BRANCH  11  35
ATOM     35  N9  C2E d   1       8.611   6.024  -3.400  0.00  0.00    -0.293 N 
ATOM     36  C8  C2E d   1       7.742   6.823  -4.030  0.00  0.00     0.071 A 
ATOM     37  N7  C2E d   1       6.756   7.151  -3.174  0.00  0.00    -0.235 NA
ATOM     38  H8  C2E d   1       7.820   7.154  -5.065  0.00  0.00     0.144 H 
ATOM     39  C5  C2E d   1       7.007   6.551  -1.993  0.00  0.00     0.159 A 
ATOM     40  C6  C2E d   1       6.375   6.514  -0.753  0.00  0.00     0.226 A 
ATOM     41  C4  C2E d   1       8.183   5.826  -2.148  0.00  0.00     0.185 A 
ATOM     42  O6  C2E d   1       5.242   7.191  -0.542  0.00  0.00    -0.169 OA
ATOM     43  N1  C2E d   1       6.919   5.799   0.233  0.00  0.00    -0.164 N 
ATOM     44  C2  C2E d   1       8.053   5.122   0.039  0.00  0.00     0.702 A 
ATOM     45  H9  C2E d   1       6.472   5.770   1.127  0.00  0.00     0.186 HD
ATOM     46  N3  C2E d   1       8.703   5.115  -1.135  0.00  0.00    -0.044 NA
BRANCH  44  47
ATOM     47  N2  C2E d   1       8.590   4.370   1.150  0.00  0.00    -0.233 N 
ATOM     48  H10 C2E d   1       9.463   3.836   1.036  0.00  0.00     0.174 HD
ATOM     49  H11 C2E d   1       8.100   4.368   2.056  0.00  0.00     0.174 HD
ENDBRANCH  44  47
ENDBRANCH  11  35
BRANCH  10  50
ATOM     50  O2' C2E d   1      10.850   3.310  -3.886  0.00  0.00    -0.388 OA
ATOM     51  H6  C2E d   1      10.757   2.395  -4.125  0.00  0.00     0.210 HD
ENDBRANCH  10  50
BRANCH  21  52
ATOM     52  O2A C2E d   1       4.824   4.870 -10.250  0.00  0.00    -0.388 OA
ATOM     53  H17 C2E d   1       5.276   5.704 -10.307  0.00  0.00     0.210 HD
ENDBRANCH  21  52
BRANCH  22  54
ATOM     54  N91 C2E d   1       3.565   2.791  -7.578  0.00  0.00    -0.293 N 
ATOM     55  C81 C2E d   1       3.971   2.024  -6.569  0.00  0.00     0.071 A 
ATOM     56  N71 C2E d   1       3.045   2.069  -5.581  0.00  0.00    -0.235 NA
ATOM     57  H19 C2E d   1       4.898   1.453  -6.542  0.00  0.00     0.144 H 
ATOM     58  C51 C2E d   1       2.056   2.875  -5.969  0.00  0.00     0.159 A 
ATOM     59  C61 C2E d   1       0.861   3.300  -5.401  0.00  0.00     0.226 A 
ATOM     60  C41 C2E d   1       2.389   3.337  -7.238  0.00  0.00     0.185 A 
ATOM     61  O61 C2E d   1       0.467   2.840  -4.090  0.00  0.00    -0.169 OA
ATOM     62  N11 C2E d   1       0.083   4.146  -6.089  0.00  0.00    -0.164 N 
ATOM     63  C21 C2E d   1       0.433   4.574  -7.307  0.00  0.00     0.702 A 
ATOM     64  H20 C2E d   1      -0.775   4.463  -5.685  0.00  0.00     0.186 HD
ATOM     65  N31 C2E d   1       1.573   4.173  -7.877  0.00  0.00    -0.044 NA
BRANCH  63  66
ATOM     66  N21 C2E d   1      -0.389   5.445  -8.001  0.00  0.00    -0.233 N 
ATOM     67  H21 C2E d   1      -0.117   5.773  -8.939  0.00  0.00     0.174 HD
ATOM     68  H22 C2E d   1      -1.273   5.765  -7.580  0.00  0.00     0.174 HD
ENDBRANCH  63  66
ENDBRANCH  22  54
TORSDOF 6
