REMARK  3 active torsions:
REMARK  status: ('A' for Active; 'I' for Inactive)
REMARK    1  A    between atoms: C7_14  and  C10_15 
REMARK    2  A    between atoms: C10_15  and  C14_16 
REMARK    3  A    between atoms: C10_15  and  C11_17 
ROOT
ATOM      1 CL   0LA d   1      18.283  47.040  10.366  0.00  0.00    -0.084 Cl
ATOM      2  C3  0LA d   1      19.552  47.132   9.124  0.00  0.00     0.035 A 
ATOM      3  C2  0LA d   1      19.396  46.318   7.994  0.00  0.00    -0.060 A 
ATOM      4  C1  0LA d   1      20.342  46.329   6.996  0.00  0.00    -0.055 A 
ATOM      5  C9A 0LA d   1      21.426  47.184   7.170  0.00  0.00     0.043 A 
ATOM      6  N9  0LA d   1      22.528  47.458   6.382  0.00  0.00    -0.355 N 
ATOM      7  C4  0LA d   1      20.626  47.995   9.324  0.00  0.00    -0.049 A 
ATOM      8  C4A 0LA d   1      21.556  48.008   8.301  0.00  0.00     0.005 A 
ATOM      9  C4B 0LA d   1      22.724  48.763   8.191  0.00  0.00     0.003 A 
ATOM     10  C5  0LA d   1      23.271  49.715   9.068  0.00  0.00    -0.069 A 
ATOM     11  C6  0LA d   1      24.478  50.302   8.633  0.00  0.00    -0.075 A 
ATOM     12  C8A 0LA d   1      23.343  48.408   6.970  0.00  0.00     0.044 A 
ATOM     13  C8  0LA d   1      24.532  48.995   6.566  0.00  0.00    -0.049 A 
ATOM     14  C7  0LA d   1      25.115  49.954   7.399  0.00  0.00    -0.042 A 
ATOM     15  H1  0LA d   1      18.526  45.677   7.906  0.00  0.00     0.086 H 
ATOM     16  H2  0LA d   1      20.248  45.702   6.117  0.00  0.00     0.087 H 
ATOM     17  H3  0LA d   1      22.718  47.012   5.473  0.00  0.00     0.166 HD
ATOM     18  H4  0LA d   1      20.725  48.609  10.212  0.00  0.00     0.087 H 
ATOM     19  H5  0LA d   1      22.801  49.979  10.008  0.00  0.00     0.085 H 
ATOM     20  H6  0LA d   1      24.945  51.051   9.262  0.00  0.00     0.084 H 
ATOM     21  H7  0LA d   1      24.998  48.717   5.628  0.00  0.00     0.087 H 
ENDROOT
BRANCH  14  22
ATOM     22  C10 0LA d   1      26.393  50.576   6.896  0.00  0.00     0.052 C 
ATOM     23  H8  0LA d   1      27.151  49.790   6.765  0.00  0.00     0.063 H 
BRANCH  22  24
ATOM     24  C14 0LA d   1      26.940  51.656   7.833  0.00  0.00    -0.060 C 
ATOM     25  H9  0LA d   1      27.173  51.209   8.811  0.00  0.00     0.029 H 
ATOM     26  H10 0LA d   1      26.186  52.447   7.961  0.00  0.00     0.029 H 
ATOM     27  H11 0LA d   1      27.854  52.088   7.400  0.00  0.00     0.029 H 
ENDBRANCH  22  24
BRANCH  22  28
ATOM     28  C11 0LA d   1      26.088  51.246   5.561  0.00  0.00     0.181 C 
ATOM     29  O13 0LA d   1      26.370  50.629   4.494  0.00  0.00    -0.647 OA
ATOM     30  O12 0LA d   1      25.542  52.370   5.552  0.00  0.00    -0.647 OA
ENDBRANCH  22  28
ENDBRANCH  14  22
TORSDOF 3
