REMARK WARNING: 32 MAX_TORS EXCEEDED!!!
REMARK  62 active torsions:
REMARK  status: ('A' for Active; 'I' for Inactive)
REMARK    1  A    between atoms: N_1  and  CA_2 
REMARK    2  A    between atoms: CA_2  and  C_3 
REMARK       I    between atoms: C_3  and  N_5 
REMARK    3  A    between atoms: N_5  and  CA_6 
REMARK    4  A    between atoms: CA_6  and  C_7 
REMARK    5  A    between atoms: CA_6  and  CB_9 
REMARK       I    between atoms: C_7  and  N_10 
REMARK    6  A    between atoms: N_10  and  CA_11 
REMARK    7  A    between atoms: CA_11  and  C_12 
REMARK    8  A    between atoms: CA_11  and  CB_14 
REMARK       I    between atoms: C_12  and  N_19 
REMARK    9  A    between atoms: CB_14  and  CG_15 
REMARK   10  A    between atoms: CG_15  and  CD_16 
REMARK   11  A    between atoms: CD_16  and  CE_17 
REMARK   12  A    between atoms: CE_17  and  NZ_18 
REMARK   13  A    between atoms: N_19  and  CA_20 
REMARK   14  A    between atoms: CA_20  and  C_21 
REMARK   15  A    between atoms: CA_20  and  CB_23 
REMARK       I    between atoms: C_21  and  N_30 
REMARK   16  A    between atoms: CB_23  and  CG_24 
REMARK   17  A    between atoms: CG_24  and  CD_25 
REMARK   18  A    between atoms: CD_25  and  NE_26 
REMARK       I    between atoms: NE_26  and  CZ_27 
REMARK       I    between atoms: CZ_27  and  NH1_28 
REMARK       I    between atoms: CZ_27  and  NH2_29 
REMARK   19  A    between atoms: N_30  and  CA_31 
REMARK   20  A    between atoms: CA_31  and  C_32 
REMARK   21  A    between atoms: CA_31  and  CB_34 
REMARK       I    between atoms: C_32  and  N_40 
REMARK   22  A    between atoms: CB_34  and  CG_35 
REMARK   23  A    between atoms: N_40  and  CA_41 
REMARK   24  A    between atoms: CA_41  and  C_42 
REMARK   25  A    between atoms: CA_41  and  CB_44 
REMARK       I    between atoms: C_42  and  N_51 
REMARK   26  A    between atoms: CB_44  and  CG_45 
REMARK   27  A    between atoms: CG_45  and  CD_46 
REMARK   28  A    between atoms: CD_46  and  NE_47 
REMARK       I    between atoms: NE_47  and  CZ_48 
REMARK       I    between atoms: CZ_48  and  NH1_49 
REMARK       I    between atoms: CZ_48  and  NH2_50 
REMARK   29  A    between atoms: N_51  and  CA_52 
REMARK   30  A    between atoms: CA_52  and  CB_53 
REMARK   31  A    between atoms: CA_52  and  C_60 
REMARK   32  A    between atoms: CB_53  and  CG_54 
REMARK   33  A    between atoms: CG_54  and  CD_55 
REMARK   34  A    between atoms: CD_55  and  CE_56 
REMARK   35  A    between atoms: CE_56  and  NZ_57 
REMARK   36  A    between atoms: NZ_57  and  CH1_58 
REMARK   37  A    between atoms: NZ_57  and  CH2_59 
REMARK       I    between atoms: C_60  and  N_62 
REMARK   38  A    between atoms: N_62  and  CA_63 
REMARK   39  A    between atoms: CA_63  and  C_64 
REMARK   40  A    between atoms: CA_63  and  CB_66 
REMARK       I    between atoms: C_64  and  N_69 
REMARK   41  A    between atoms: CB_66  and  CG1_67 
REMARK   42  A    between atoms: CB_66  and  CG2_68 
REMARK   43  A    between atoms: N_69  and  CA_70 
REMARK   44  A    between atoms: CA_70  and  C_71 
REMARK   45  A    between atoms: CA_70  and  CB_73 
REMARK       I    between atoms: C_71  and  N_77 
REMARK   46  A    between atoms: CB_73  and  CG_74 
REMARK   47  A    between atoms: CG_74  and  CD1_75 
REMARK   48  A    between atoms: CG_74  and  CD2_76 
REMARK   49  A    between atoms: N_77  and  CA_78 
REMARK   50  A    between atoms: CA_78  and  C_79 
REMARK   51  A    between atoms: CA_78  and  CB_81 
REMARK       I    between atoms: C_79  and  N_88 
REMARK   52  A    between atoms: CB_81  and  CG_82 
REMARK   53  A    between atoms: CG_82  and  CD_83 
REMARK   54  A    between atoms: CD_83  and  NE_84 
REMARK       I    between atoms: NE_84  and  CZ_85 
REMARK       I    between atoms: CZ_85  and  NH1_86 
REMARK   55  A    between atoms: N_88  and  CA_89 
REMARK   56  A    between atoms: CA_89  and  C_90 
REMARK   57  A    between atoms: CA_89  and  CB_92 
REMARK       I    between atoms: C_90  and  N_96 
REMARK   58  A    between atoms: CB_92  and  CG_93 
REMARK   59  A    between atoms: N_96  and  CA_97 
REMARK   60  A    between atoms: CA_97  and  C_98 
REMARK   61  A    between atoms: CA_97  and  CB_100 
REMARK   62  A    between atoms: CB_100  and  CG_101 
REMARK       I    between atoms: CG_101  and  ND2_103 
ROOT
ATOM      1  CA  MLY d   1       7.245  -9.390 -21.062  0.00  0.00     0.089 C 
ATOM      2  H   MLY d   1       7.274  -8.507 -20.424  0.00  0.00     0.087 H 
ENDROOT
BRANCH   1   3
ATOM      3  N   MLY d   1       6.037  -9.306 -21.879  0.00  0.00    -0.346 N 
ATOM      4  C   ARG d   1       5.842  -8.235 -22.665  0.00  0.00     0.241 C 
ATOM      5  O   ARG d   1       6.597  -7.267 -22.638  0.00  0.00    -0.271 OA
ATOM      6  H   MLY d   1       5.346 -10.056 -21.853  0.00  0.00     0.163 HD
BRANCH   4   7
ATOM      7  CA  ARG d   1       4.607  -8.211 -23.555  0.00  0.00     0.089 C 
ATOM      8  H   ARG d   1       4.104  -9.176 -23.497  0.00  0.00     0.087 H 
BRANCH   7   9
ATOM      9  N   ARG d   1       3.775  -7.112 -23.090  0.00  0.00    -0.346 N 
ATOM     10  C   HIS d   1       2.670  -7.350 -22.393  0.00  0.00     0.241 C 
ATOM     11  O   HIS d   1       2.281  -8.496 -22.104  0.00  0.00    -0.271 OA
ATOM     12  H   ARG d   1       4.043  -6.151 -23.301  0.00  0.00     0.163 HD
BRANCH  10  13
ATOM     13  CA  HIS d   1       1.939  -6.143 -21.887  0.00  0.00     0.094 C 
ATOM     14  H   HIS d   1       2.305  -5.220 -22.337  0.00  0.00     0.088 H 
BRANCH  13  15
ATOM     15  N   HIS d   1       0.538  -6.266 -22.232  0.00  0.00    -0.346 N 
ATOM     16  C   ARG d   1       0.058  -5.653 -23.308  0.00  0.00     0.241 C 
ATOM     17  O   ARG d   1       0.727  -4.856 -23.987  0.00  0.00    -0.271 OA
ATOM     18  H   HIS d   1      -0.082  -6.825 -21.647  0.00  0.00     0.163 HD
BRANCH  16  19
ATOM     19  CA  ARG d   1      -1.381  -5.978 -23.665  0.00  0.00     0.089 C 
ATOM     20  H   ARG d   1      -1.837  -6.521 -22.838  0.00  0.00     0.087 H 
BRANCH  19  21
ATOM     21  N   ARG d   1      -2.140  -4.763 -23.881  0.00  0.00    -0.346 N 
ATOM     22  C   LYS d   1      -2.728  -4.113 -22.885  0.00  0.00     0.241 C 
ATOM     23  O   LYS d   1      -2.585  -4.419 -21.697  0.00  0.00    -0.271 OA
ATOM     24  H   ARG d   1      -2.225  -4.396 -24.829  0.00  0.00     0.163 HD
BRANCH  22  25
ATOM     25  CA  LYS d   1      -3.580  -2.923 -23.292  0.00  0.00     0.089 C 
ATOM     26  H   LYS d   1      -4.117  -3.158 -24.211  0.00  0.00     0.087 H 
BRANCH  25  27
ATOM     27  N   LYS d   1      -4.565  -2.635 -22.269  0.00  0.00    -0.346 N 
ATOM     28  C   ALA d   1      -5.563  -3.484 -22.047  0.00  0.00     0.240 C 
ATOM     29  O   ALA d   1      -5.748  -4.487 -22.731  0.00  0.00    -0.271 OA
ATOM     30  H   LYS d   1      -4.492  -1.779 -21.718  0.00  0.00     0.163 HD
BRANCH  28  31
ATOM     31  CA  ALA d   1      -6.496  -3.168 -20.883  0.00  0.00     0.086 C 
ATOM     32  H   ALA d   1      -6.318  -2.143 -20.558  0.00  0.00     0.086 H 
BRANCH  31  33
ATOM     33  N   ALA d   1      -7.895  -3.266 -21.301  0.00  0.00    -0.347 N 
ATOM     34  C   GLY d   1      -8.451  -2.312 -22.046  0.00  0.00     0.243 C 
ATOM     35  O   GLY d   1      -7.817  -1.341 -22.462  0.00  0.00    -0.272 OA
ATOM     36  H   ALA d   1      -8.450  -4.074 -21.019  0.00  0.00     0.163 HD
BRANCH  34  37
ATOM     37  CA  GLY d   1      -9.931  -2.464 -22.359  0.00  0.00     0.152 C 
ATOM     38  H   GLY d   1     -10.023  -2.758 -23.404  0.00  0.00     0.090 H 
ATOM     39  H   GLY d   1     -10.343  -3.206 -21.675  0.00  0.00     0.090 H 
BRANCH  37  40
ATOM     40  N   GLY d   1     -10.673  -1.228 -22.176  0.00  0.00    -0.071 N 
ATOM     41  H   GLY d   1     -11.656  -1.387 -22.399  0.00  0.00     0.274 HD
ATOM     42  H   GLY d   1     -10.588  -0.922 -21.207  0.00  0.00     0.274 HD
ATOM     43  H   GLY d   1     -10.294  -0.511 -22.795  0.00  0.00     0.274 HD
ENDBRANCH  37  40
ENDBRANCH  34  37
ENDBRANCH  31  33
BRANCH  31  44
ATOM     44  CB  ALA d   1      -6.205  -4.104 -19.707  0.00  0.00    -0.049 C 
ATOM     45  H   ALA d   1      -6.359  -5.137 -20.020  0.00  0.00     0.030 H 
ATOM     46  H   ALA d   1      -5.172  -3.971 -19.385  0.00  0.00     0.030 H 
ATOM     47  H   ALA d   1      -6.877  -3.869 -18.882  0.00  0.00     0.030 H 
ENDBRANCH  31  44
ENDBRANCH  28  31
ENDBRANCH  25  27
BRANCH  25  48
ATOM     48  CB  LYS d   1      -2.684  -1.720 -23.550  0.00  0.00    -0.038 C 
ATOM     49  H   LYS d   1      -1.992  -2.003 -24.343  0.00  0.00     0.036 H 
ATOM     50  H   LYS d   1      -2.210  -1.468 -22.602  0.00  0.00     0.036 H 
BRANCH  48  51
ATOM     51  CG  LYS d   1      -3.416  -0.475 -24.025  0.00  0.00    -0.061 C 
ATOM     52  H   LYS d   1      -3.784   0.076 -23.159  0.00  0.00     0.033 H 
ATOM     53  H   LYS d   1      -4.249  -0.771 -24.662  0.00  0.00     0.033 H 
BRANCH  51  54
ATOM     54  CD  LYS d   1      -2.471   0.416 -24.820  0.00  0.00    -0.043 C 
ATOM     55  H   LYS d   1      -2.149  -0.134 -25.704  0.00  0.00     0.035 H 
ATOM     56  H   LYS d   1      -1.634   0.684 -24.175  0.00  0.00     0.035 H 
BRANCH  54  57
ATOM     57  CE  LYS d   1      -3.147   1.707 -25.283  0.00  0.00     0.080 C 
ATOM     58  H   LYS d   1      -3.293   2.354 -24.418  0.00  0.00     0.075 H 
ATOM     59  H   LYS d   1      -4.100   1.455 -25.748  0.00  0.00     0.075 H 
BRANCH  57  60
ATOM     60  NZ  LYS d   1      -2.300   2.428 -26.285  0.00  0.00    -0.079 N 
ATOM     61  H   LYS d   1      -2.773   3.283 -26.576  0.00  0.00     0.274 HD
ATOM     62  H   LYS d   1      -1.401   2.662 -25.863  0.00  0.00     0.274 HD
ATOM     63  H   LYS d   1      -2.150   1.828 -27.096  0.00  0.00     0.274 HD
ENDBRANCH  57  60
ENDBRANCH  54  57
ENDBRANCH  51  54
ENDBRANCH  48  51
ENDBRANCH  25  48
ENDBRANCH  22  25
ENDBRANCH  19  21
BRANCH  19  64
ATOM     64  CB  ARG d   1      -1.409  -6.846 -24.918  0.00  0.00    -0.036 C 
ATOM     65  H   ARG d   1      -1.524  -6.186 -25.778  0.00  0.00     0.036 H 
ATOM     66  H   ARG d   1      -2.232  -7.554 -24.815  0.00  0.00     0.036 H 
BRANCH  64  67
ATOM     67  CG  ARG d   1      -0.140  -7.638 -25.110  0.00  0.00    -0.048 C 
ATOM     68  H   ARG d   1       0.221  -7.944 -24.128  0.00  0.00     0.035 H 
ATOM     69  H   ARG d   1       0.578  -7.007 -25.634  0.00  0.00     0.035 H 
BRANCH  67  70
ATOM     70  CD  ARG d   1      -0.364  -8.886 -25.939  0.00  0.00     0.009 C 
ATOM     71  H   ARG d   1      -0.485  -8.608 -26.986  0.00  0.00     0.064 H 
ATOM     72  H   ARG d   1      -1.262  -9.396 -25.590  0.00  0.00     0.064 H 
BRANCH  70  73
ATOM     73  NE  ARG d   1       0.791  -9.782 -25.802  0.00  0.00    -0.227 N 
ATOM     74  CZ  ARG d   1       0.838 -11.032 -26.236  0.00  0.00     0.665 C 
ATOM     75  NH1 ARG d   1       1.940 -11.737 -26.055  0.00  0.00    -0.235 N 
ATOM     76  NH2 ARG d   1      -0.211 -11.575 -26.846  0.00  0.00    -0.235 N 
ATOM     77  H   ARG d   1       2.742 -11.318 -25.585  0.00  0.00     0.174 HD
ATOM     78  H   ARG d   1       1.989 -12.701 -26.385  0.00  0.00     0.174 HD
ATOM     79  H   ARG d   1      -1.061 -11.028 -26.983  0.00  0.00     0.174 HD
ATOM     80  H   ARG d   1      -0.166 -12.539 -27.177  0.00  0.00     0.174 HD
ATOM     81  H   ARG d   1       1.621  -9.413 -25.337  0.00  0.00     0.177 HD
ENDBRANCH  70  73
ENDBRANCH  67  70
ENDBRANCH  64  67
ENDBRANCH  19  64
ENDBRANCH  16  19
ENDBRANCH  13  15
BRANCH  13  82
ATOM     82  CB  HIS d   1       2.160  -6.078 -20.371  0.00  0.00     0.004 C 
ATOM     83  H   HIS d   1       1.710  -6.968 -19.930  0.00  0.00     0.046 H 
ATOM     84  H   HIS d   1       1.712  -5.153 -20.008  0.00  0.00     0.046 H 
BRANCH  82  85
ATOM     85  CG  HIS d   1       3.611  -6.063 -19.994  0.00  0.00     0.053 A 
ATOM     86  ND1 HIS d   1       4.418  -4.977 -20.218  0.00  0.00    -0.247 NA
ATOM     87  CE1 HIS d   1       5.649  -5.251 -19.811  0.00  0.00     0.064 A 
ATOM     88  NE2 HIS d   1       5.666  -6.487 -19.364  0.00  0.00    -0.359 N 
ATOM     89  H   HIS d   1       6.500  -4.570 -19.842  0.00  0.00     0.143 H 
ATOM     90  CD2 HIS d   1       4.406  -7.030 -19.478  0.00  0.00     0.002 A 
ATOM     91  H   HIS d   1       6.484  -6.968 -18.991  0.00  0.00     0.166 HD
ATOM     92  H   HIS d   1       4.106  -8.042 -19.206  0.00  0.00     0.114 H 
ENDBRANCH  82  85
ENDBRANCH  13  82
ENDBRANCH  10  13
ENDBRANCH   7   9
BRANCH   7  93
ATOM     93  CB  ARG d   1       4.965  -7.956 -25.030  0.00  0.00    -0.036 C 
ATOM     94  H   ARG d   1       5.905  -7.405 -25.030  0.00  0.00     0.036 H 
ATOM     95  H   ARG d   1       4.115  -7.434 -25.470  0.00  0.00     0.036 H 
BRANCH  93  96
ATOM     96  CG  ARG d   1       5.193  -9.205 -25.876  0.00  0.00    -0.048 C 
ATOM     97  H   ARG d   1       4.414  -9.932 -25.647  0.00  0.00     0.035 H 
ATOM     98  H   ARG d   1       6.179  -9.610 -25.647  0.00  0.00     0.035 H 
BRANCH  96  99
ATOM     99  CD  ARG d   1       5.131  -8.865 -27.386  0.00  0.00     0.009 C 
ATOM    100  H   ARG d   1       5.995  -9.311 -27.878  0.00  0.00     0.064 H 
ATOM    101  H   ARG d   1       5.128  -7.781 -27.498  0.00  0.00     0.064 H 
BRANCH  99 102
ATOM    102  NE  ARG d   1       3.914  -9.402 -28.003  0.00  0.00    -0.227 N 
ATOM    103  CZ  ARG d   1       3.344  -8.928 -29.109  0.00  0.00     0.665 C 
ATOM    104  NH1 ARG d   1       3.864  -7.885 -29.750  0.00  0.00    -0.235 N 
ATOM    105  NH2 ARG d   1       2.238  -9.497 -29.572  0.00  0.00    -0.235 N 
ATOM    106  H   ARG d   1       4.710  -7.438 -29.395  0.00  0.00     0.174 HD
ATOM    107  H   ARG d   1       3.417  -7.532 -30.596  0.00  0.00     0.174 HD
ATOM    108  H   ARG d   1       1.830 -10.292 -29.081  0.00  0.00     0.174 HD
ATOM    109  H   ARG d   1       1.796  -9.139 -30.419  0.00  0.00     0.174 HD
ATOM    110  H   ARG d   1       3.470 -10.200 -27.550  0.00  0.00     0.177 HD
ENDBRANCH  99 102
ENDBRANCH  96  99
ENDBRANCH  93  96
ENDBRANCH   7  93
ENDBRANCH   4   7
ENDBRANCH   1   3
BRANCH   1 111
ATOM    111  CB  MLY d   1       7.238 -10.635 -20.169  0.00  0.00    -0.038 C 
ATOM    112  H   MLY d   1       8.271 -10.829 -19.879  0.00  0.00     0.036 H 
ATOM    113  H   MLY d   1       6.777 -11.440 -20.742  0.00  0.00     0.036 H 
BRANCH 111 114
ATOM    114  CG  MLY d   1       6.450 -10.481 -18.914  0.00  0.00    -0.061 C 
ATOM    115  H   MLY d   1       5.387 -10.394 -19.140  0.00  0.00     0.033 H 
ATOM    116  H   MLY d   1       6.748  -9.575 -18.386  0.00  0.00     0.033 H 
BRANCH 114 117
ATOM    117  CD  MLY d   1       6.712 -11.706 -18.057  0.00  0.00    -0.040 C 
ATOM    118  H   MLY d   1       7.747 -11.668 -17.717  0.00  0.00     0.035 H 
ATOM    119  H   MLY d   1       6.510 -12.591 -18.660  0.00  0.00     0.035 H 
BRANCH 117 120
ATOM    120  CE  MLY d   1       5.843 -11.750 -16.873  0.00  0.00     0.113 C 
ATOM    121  H   MLY d   1       4.794 -11.684 -17.161  0.00  0.00     0.079 H 
ATOM    122  H   MLY d   1       6.045 -10.906 -16.214  0.00  0.00     0.079 H 
BRANCH 120 123
ATOM    123  NZ  MLY d   1       6.122 -13.047 -16.176  0.00  0.00     0.080 N 
BRANCH 123 124
ATOM    124  CH1 MLY d   1       7.521 -12.943 -15.704  0.00  0.00     0.095 C 
ATOM    125  H   MLY d   1       8.182 -12.797 -16.559  0.00  0.00     0.071 H 
ATOM    126  H   MLY d   1       7.612 -12.096 -15.024  0.00  0.00     0.071 H 
ATOM    127  H   MLY d   1       7.796 -13.860 -15.182  0.00  0.00     0.071 H 
ENDBRANCH 123 124
BRANCH 123 128
ATOM    128  CH2 MLY d   1       5.227 -13.010 -15.022  0.00  0.00     0.095 C 
ATOM    129  H   MLY d   1       5.468 -12.145 -14.404  0.00  0.00     0.071 H 
ATOM    130  H   MLY d   1       4.195 -12.936 -15.366  0.00  0.00     0.071 H 
ATOM    131  H   MLY d   1       5.352 -13.922 -14.438  0.00  0.00     0.071 H 
ENDBRANCH 123 128
ENDBRANCH 120 123
ENDBRANCH 117 120
ENDBRANCH 114 117
ENDBRANCH 111 114
ENDBRANCH   1 111
BRANCH   1 132
ATOM    132  C   MLY d   1       8.475  -9.437 -21.964  0.00  0.00     0.241 C 
ATOM    133  O   MLY d   1       8.469 -10.229 -22.905  0.00  0.00    -0.271 OA
ATOM    134  N   VAL d   1       9.560  -8.786 -21.546  0.00  0.00    -0.346 N 
ATOM    135  H   VAL d   1       9.544  -8.312 -20.643  0.00  0.00     0.163 HD
BRANCH 134 136
ATOM    136  CA  VAL d   1      10.772  -8.739 -22.359  0.00  0.00     0.092 C 
ATOM    137  H   VAL d   1      10.714  -9.528 -23.109  0.00  0.00     0.088 H 
BRANCH 136 138
ATOM    138  C   VAL d   1      11.948  -8.902 -21.429  0.00  0.00     0.241 C 
ATOM    139  O   VAL d   1      11.839  -8.599 -20.246  0.00  0.00    -0.271 OA
ATOM    140  N   LEU d   1      13.073  -9.368 -21.962  0.00  0.00    -0.346 N 
ATOM    141  H   LEU d   1      13.136  -9.462 -22.976  0.00  0.00     0.163 HD
BRANCH 140 142
ATOM    142  CA  LEU d   1      14.224  -9.750 -21.145  0.00  0.00     0.089 C 
ATOM    143  H   LEU d   1      13.791 -10.151 -20.229  0.00  0.00     0.087 H 
BRANCH 142 144
ATOM    144  C   LEU d   1      15.121  -8.588 -20.759  0.00  0.00     0.241 C 
ATOM    145  O   LEU d   1      14.813  -7.433 -21.005  0.00  0.00    -0.271 OA
ATOM    146  N   ARG d   1      16.285  -8.955 -20.237  0.00  0.00    -0.346 N 
ATOM    147  H   ARG d   1      16.465  -9.955 -20.149  0.00  0.00     0.163 HD
BRANCH 146 148
ATOM    148  CA  ARG d   1      17.330  -8.042 -19.778  0.00  0.00     0.089 C 
ATOM    149  H   ARG d   1      18.117  -8.660 -19.346  0.00  0.00     0.087 H 
BRANCH 148 150
ATOM    150  C   ARG d   1      16.822  -7.098 -18.714  0.00  0.00     0.241 C 
ATOM    151  O   ARG d   1      15.992  -7.467 -17.892  0.00  0.00    -0.271 OA
ATOM    152  N   ASP d   1      17.305  -5.862 -18.747  0.00  0.00    -0.346 N 
ATOM    153  H   ASP d   1      17.999  -5.611 -19.451  0.00  0.00     0.163 HD
BRANCH 152 154
ATOM    154  CA  ASP d   1      16.855  -4.858 -17.789  0.00  0.00     0.098 C 
ATOM    155  H   ASP d   1      17.573  -4.038 -17.775  0.00  0.00     0.088 H 
BRANCH 154 156
ATOM    156  C   ASP d   1      16.804  -5.429 -16.353  0.00  0.00     0.241 C 
ATOM    157  O   ASP d   1      15.799  -5.286 -15.641  0.00  0.00    -0.271 OA
ATOM    158  N   ASN d   1      17.891  -6.080 -15.940  0.00  0.00    -0.344 N 
ATOM    159  H   ASN d   1      18.664  -6.212 -16.592  0.00  0.00     0.163 HD
BRANCH 158 160
ATOM    160  CA  ASN d   1      18.011  -6.611 -14.582  0.00  0.00     0.104 C 
ATOM    161  H   ASN d   1      17.045  -7.051 -14.336  0.00  0.00     0.090 H 
BRANCH 160 162
ATOM    162  C   ASN d   1      18.283  -5.524 -13.540  0.00  0.00     0.197 C 
ATOM    163  O   ASN d   1      18.108  -5.748 -12.312  0.00  0.00    -0.646 OA
ATOM    164  O   ASN d   1      18.687  -4.391 -13.914  0.00  0.00    -0.646 OA
ENDBRANCH 160 162
BRANCH 160 165
ATOM    165  CB  ASN d   1      19.092  -7.701 -14.515  0.00  0.00     0.037 C 
ATOM    166  H   ASN d   1      18.814  -8.488 -15.216  0.00  0.00     0.051 H 
ATOM    167  H   ASN d   1      19.148  -8.050 -13.484  0.00  0.00     0.051 H 
BRANCH 165 168
ATOM    168  CG  ASN d   1      20.473  -7.194 -14.909  0.00  0.00     0.217 C 
ATOM    169  OD1 ASN d   1      21.249  -6.740 -14.061  0.00  0.00    -0.274 OA
ATOM    170  ND2 ASN d   1      20.791  -7.279 -16.201  0.00  0.00    -0.370 N 
ATOM    171  H   ASN d   1      21.706  -6.962 -16.523  0.00  0.00     0.159 HD
ATOM    172  H   ASN d   1      20.120  -7.661 -16.867  0.00  0.00     0.159 HD
ENDBRANCH 165 168
ENDBRANCH 160 165
ENDBRANCH 158 160
ENDBRANCH 154 156
BRANCH 154 173
ATOM    173  CB  ASP d   1      15.489  -4.312 -18.225  0.00  0.00     0.043 C 
ATOM    174  H   ASP d   1      15.317  -3.377 -17.692  0.00  0.00     0.052 H 
ATOM    175  H   ASP d   1      14.739  -5.070 -17.999  0.00  0.00     0.052 H 
BRANCH 173 176
ATOM    176  CG  ASP d   1      15.421  -4.016 -19.730  0.00  0.00     0.175 C 
ATOM    177  OD1 ASP d   1      14.620  -4.678 -20.434  0.00  0.00    -0.648 OA
ATOM    178  OD2 ASP d   1      16.149  -3.120 -20.216  0.00  0.00    -0.648 OA
ENDBRANCH 173 176
ENDBRANCH 154 173
ENDBRANCH 152 154
ENDBRANCH 148 150
BRANCH 148 179
ATOM    179  CB  ARG d   1      17.908  -7.228 -20.947  0.00  0.00    -0.036 C 
ATOM    180  H   ARG d   1      18.716  -6.622 -20.537  0.00  0.00     0.036 H 
ATOM    181  H   ARG d   1      17.079  -6.667 -21.377  0.00  0.00     0.036 H 
BRANCH 179 182
ATOM    182  CG  ARG d   1      18.516  -8.060 -22.088  0.00  0.00    -0.048 C 
ATOM    183  H   ARG d   1      18.958  -8.964 -21.670  0.00  0.00     0.035 H 
ATOM    184  H   ARG d   1      19.274  -7.464 -22.596  0.00  0.00     0.035 H 
BRANCH 182 185
ATOM    185  CD  ARG d   1      17.433  -8.457 -23.101  0.00  0.00     0.009 C 
ATOM    186  H   ARG d   1      17.131  -7.545 -23.616  0.00  0.00     0.064 H 
ATOM    187  H   ARG d   1      16.638  -8.948 -22.540  0.00  0.00     0.064 H 
BRANCH 185 188
ATOM    188  NE  ARG d   1      17.875  -9.403 -24.131  0.00  0.00    -0.227 N 
ATOM    189  CZ  ARG d   1      18.144  -9.060 -25.389  0.00  0.00     0.665 C 
ATOM    190  NH1 ARG d   1      18.529  -9.983 -26.270  0.00  0.00    -0.235 N 
ATOM    191  NH2 ARG d   1      18.024  -7.784 -25.763  0.00  0.00    -0.235 N 
ATOM    192  H   ARG d   1      18.619 -10.957 -25.982  0.00  0.00     0.174 HD
ATOM    193  H   ARG d   1      18.734  -9.715 -27.233  0.00  0.00     0.174 HD
ATOM    194  H   ARG d   1      17.728  -7.080 -25.087  0.00  0.00     0.174 HD
ATOM    195  H   ARG d   1      18.228  -7.513 -26.725  0.00  0.00     0.174 HD
ATOM    196  H   ARG d   1      17.983 -10.383 -23.868  0.00  0.00     0.177 HD
ENDBRANCH 185 188
ENDBRANCH 182 185
ENDBRANCH 179 182
ENDBRANCH 148 179
ENDBRANCH 146 148
ENDBRANCH 142 144
BRANCH 142 197
ATOM    197  CB  LEU d   1      15.084 -10.821 -21.854  0.00  0.00    -0.035 C 
ATOM    198  H   LEU d   1      16.090 -10.671 -21.463  0.00  0.00     0.037 H 
ATOM    199  H   LEU d   1      14.894 -10.670 -22.917  0.00  0.00     0.037 H 
BRANCH 197 200
ATOM    200  CG  LEU d   1      14.789 -12.306 -21.612  0.00  0.00    -0.059 C 
ATOM    201  H   LEU d   1      14.313 -12.406 -20.637  0.00  0.00     0.038 H 
BRANCH 200 202
ATOM    202  CD1 LEU d   1      13.857 -12.826 -22.693  0.00  0.00    -0.073 C 
ATOM    203  H   LEU d   1      12.924 -12.263 -22.668  0.00  0.00     0.028 H 
ATOM    204  H   LEU d   1      14.330 -12.705 -23.668  0.00  0.00     0.028 H 
ATOM    205  H   LEU d   1      13.651 -13.882 -22.516  0.00  0.00     0.028 H 
ENDBRANCH 200 202
BRANCH 200 206
ATOM    206  CD2 LEU d   1      16.080 -13.130 -21.604  0.00  0.00    -0.073 C 
ATOM    207  H   LEU d   1      16.582 -13.026 -22.566  0.00  0.00     0.028 H 
ATOM    208  H   LEU d   1      16.734 -12.770 -20.810  0.00  0.00     0.028 H 
ATOM    209  H   LEU d   1      15.839 -14.179 -21.430  0.00  0.00     0.028 H 
ENDBRANCH 200 206
ENDBRANCH 197 200
ENDBRANCH 142 197
ENDBRANCH 140 142
ENDBRANCH 136 138
BRANCH 136 210
ATOM    210  CB  VAL d   1      10.932  -7.392 -23.096  0.00  0.00    -0.033 C 
ATOM    211  H   VAL d   1      11.928  -7.344 -23.536  0.00  0.00     0.042 H 
BRANCH 210 212
ATOM    212  CG1 VAL d   1       9.922  -7.281 -24.229  0.00  0.00    -0.071 C 
ATOM    213  H   VAL d   1      10.082  -8.094 -24.937  0.00  0.00     0.028 H 
ATOM    214  H   VAL d   1       8.913  -7.345 -23.822  0.00  0.00     0.028 H 
ATOM    215  H   VAL d   1      10.051  -6.325 -24.736  0.00  0.00     0.028 H 
ENDBRANCH 210 212
BRANCH 210 216
ATOM    216  CG2 VAL d   1      10.791  -6.213 -22.092  0.00  0.00    -0.071 C 
ATOM    217  H   VAL d   1       9.807  -6.251 -21.625  0.00  0.00     0.028 H 
ATOM    218  H   VAL d   1      11.562  -6.296 -21.326  0.00  0.00     0.028 H 
ATOM    219  H   VAL d   1      10.906  -5.269 -22.624  0.00  0.00     0.028 H 
ENDBRANCH 210 216
ENDBRANCH 136 210
ENDBRANCH 134 136
ENDBRANCH   1 132
TORSDOF 62
