REMARK  14 active torsions:
REMARK  status: ('A' for Active; 'I' for Inactive)
REMARK    1  A    between atoms: S11_2  and  C12_4 
REMARK    2  A    between atoms: S11_2  and  N7_5 
REMARK    3  A    between atoms: N7_5  and  C10_6 
REMARK    4  A    between atoms: N7_5  and  C6_7 
REMARK    5  A    between atoms: C17_16  and  C18_17 
REMARK    6  A    between atoms: C18_17  and  C19_18 
REMARK    7  A    between atoms: C18_17  and  O21_30 
REMARK    8  A    between atoms: C19_18  and  N20_19 
REMARK    9  A    between atoms: N20_19  and  C37_20 
REMARK   10  A    between atoms: C37_20  and  C38_21 
REMARK   11  A    between atoms: C40_23  and  C44_24 
REMARK   12  A    between atoms: C44_24  and  C45_25 
REMARK   13  A    between atoms: C44_24  and  C46_26 
REMARK   14  A    between atoms: C25_37  and  C27_41 
ROOT
ATOM      1  C6  0LG d   1       6.998  -0.406 -14.318  0.00  0.00     0.046 A 
ATOM      2  C1  0LG d   1       6.481  -1.651 -14.683  0.00  0.00    -0.041 A 
ATOM      3  C2  0LG d   1       5.954  -1.823 -15.931  0.00  0.00     0.035 A 
ATOM      4  C5  0LG d   1       6.987   0.668 -15.227  0.00  0.00    -0.041 A 
ATOM      5  C4  0LG d   1       6.431   0.468 -16.485  0.00  0.00     0.035 A 
ATOM      6  C3  0LG d   1       5.928  -0.775 -16.836  0.00  0.00    -0.052 A 
ATOM      7  C8  0LG d   1       6.373   1.585 -17.478  0.00  0.00     0.252 C 
ATOM      8  O15 0LG d   1       7.276   2.396 -17.597  0.00  0.00    -0.268 OA
ATOM      9  N16 0LG d   1       5.245   1.586 -18.165  0.00  0.00    -0.348 N 
ATOM     10  C17 0LG d   1       4.898   2.483 -19.291  0.00  0.00     0.059 C 
ATOM     11  C22 0LG d   1       4.181   1.614 -20.358  0.00  0.00     0.041 C 
ATOM     12  O34 0LG d   1       4.828   0.311 -20.518  0.00  0.00    -0.385 OA
ATOM     13  C35 0LG d   1       3.946  -0.778 -20.913  0.00  0.00     0.034 C 
ATOM     14  C36 0LG d   1       4.504  -2.170 -20.586  0.00  0.00    -0.084 C 
ATOM     15  C33 0LG d   1       3.955  -3.070 -19.795  0.00  0.00    -0.102 C 
ATOM     16  C26 0LG d   1       4.713  -4.380 -19.633  0.00  0.00    -0.027 C 
ATOM     17  C25 0LG d   1       4.842  -4.724 -18.137  0.00  0.00     0.041 C 
ATOM     18  N23 0LG d   1       5.502  -3.551 -17.557  0.00  0.00    -0.348 N 
ATOM     19  C9  0LG d   1       5.308  -3.110 -16.336  0.00  0.00     0.252 C 
ATOM     20  O24 0LG d   1       4.521  -3.629 -15.534  0.00  0.00    -0.268 OA
ATOM     21  H7  0LG d   1       6.498  -2.476 -13.980  0.00  0.00     0.088 H 
ATOM     22  H8  0LG d   1       7.403   1.631 -14.952  0.00  0.00     0.088 H 
ATOM     23  H9  0LG d   1       5.512  -0.928 -17.825  0.00  0.00     0.086 H 
ATOM     24  H10 0LG d   1       4.556   0.913 -17.898  0.00  0.00     0.163 HD
ATOM     25  H11 0LG d   1       5.812   2.920 -19.720  0.00  0.00     0.079 H 
ATOM     26  H31 0LG d   1       4.202   2.143 -21.322  0.00  0.00     0.077 H 
ATOM     27  H32 0LG d   1       3.137   1.458 -20.048  0.00  0.00     0.077 H 
ATOM     28  H33 0LG d   1       3.781  -0.716 -21.999  0.00  0.00     0.080 H 
ATOM     29  H34 0LG d   1       2.987  -0.656 -20.389  0.00  0.00     0.080 H 
ATOM     30  H35 0LG d   1       5.449  -2.441 -21.055  0.00  0.00     0.079 H 
ATOM     31  H36 0LG d   1       3.010  -2.886 -19.285  0.00  0.00     0.076 H 
ATOM     32  H37 0LG d   1       5.716  -4.279 -20.073  0.00  0.00     0.042 H 
ATOM     33  H38 0LG d   1       4.167  -5.184 -20.147  0.00  0.00     0.042 H 
ATOM     34  H39 0LG d   1       3.840  -4.830 -17.695  0.00  0.00     0.080 H 
ATOM     35  H40 0LG d   1       6.147  -3.050 -18.134  0.00  0.00     0.163 HD
ENDROOT
BRANCH  10  36
ATOM     36  C18 0LG d   1       3.974   3.620 -18.792  0.00  0.00     0.080 C 
ATOM     37  H12 0LG d   1       3.079   3.181 -18.328  0.00  0.00     0.088 H 
BRANCH  36  38
ATOM     38  C19 0LG d   1       4.691   4.502 -17.777  0.00  0.00     0.107 C 
ATOM     39  H13 0LG d   1       5.660   4.807 -18.199  0.00  0.00     0.079 H 
ATOM     40  H14 0LG d   1       4.858   3.918 -16.860  0.00  0.00     0.079 H 
BRANCH  38  41
ATOM     41  N20 0LG d   1       3.938   5.695 -17.435  0.00  0.00    -0.069 N 
ATOM     42  H15 0LG d   1       3.212   5.417 -16.794  0.00  0.00     0.277 HD
ATOM     43  H16 0LG d   1       3.522   6.041 -18.285  0.00  0.00     0.277 HD
BRANCH  41  44
ATOM     44  C37 0LG d   1       4.656   6.805 -16.822  0.00  0.00     0.105 C 
ATOM     45  H17 0LG d   1       5.136   6.447 -15.899  0.00  0.00     0.083 H 
ATOM     46  H18 0LG d   1       3.934   7.598 -16.576  0.00  0.00     0.083 H 
BRANCH  44  47
ATOM     47  C38 0LG d   1       5.722   7.385 -17.729  0.00  0.00    -0.032 A 
ATOM     48  C39 0LG d   1       5.359   7.917 -18.945  0.00  0.00    -0.069 A 
ATOM     49  C40 0LG d   1       6.292   8.452 -19.810  0.00  0.00    -0.054 A 
ATOM     50  H19 0LG d   1       4.313   7.916 -19.231  0.00  0.00     0.085 H 
ATOM     51  C41 0LG d   1       7.641   8.440 -19.449  0.00  0.00    -0.076 A 
ATOM     52  C42 0LG d   1       8.005   7.898 -18.215  0.00  0.00    -0.082 A 
ATOM     53  H27 0LG d   1       8.393   8.845 -20.116  0.00  0.00     0.084 H 
ATOM     54  C43 0LG d   1       7.072   7.380 -17.328  0.00  0.00    -0.075 A 
ATOM     55  H28 0LG d   1       9.053   7.881 -17.940  0.00  0.00     0.083 H 
ATOM     56  H29 0LG d   1       7.371   6.987 -16.363  0.00  0.00     0.084 H 
BRANCH  49  57
ATOM     57  C44 0LG d   1       5.798   8.957 -21.121  0.00  0.00    -0.036 C 
ATOM     58  H20 0LG d   1       5.101   8.207 -21.524  0.00  0.00     0.046 H 
BRANCH  57  59
ATOM     59  C45 0LG d   1       5.033  10.240 -20.954  0.00  0.00    -0.069 C 
ATOM     60  H21 0LG d   1       4.682  10.588 -21.937  0.00  0.00     0.028 H 
ATOM     61  H22 0LG d   1       5.689  11.002 -20.508  0.00  0.00     0.028 H 
ATOM     62  H23 0LG d   1       4.169  10.069 -20.295  0.00  0.00     0.028 H 
ENDBRANCH  57  59
BRANCH  57  63
ATOM     63  C46 0LG d   1       6.932   9.106 -22.117  0.00  0.00    -0.069 C 
ATOM     64  H24 0LG d   1       7.466   8.149 -22.211  0.00  0.00     0.028 H 
ATOM     65  H25 0LG d   1       7.629   9.881 -21.766  0.00  0.00     0.028 H 
ATOM     66  H26 0LG d   1       6.524   9.396 -23.096  0.00  0.00     0.028 H 
ENDBRANCH  57  63
ENDBRANCH  49  57
ENDBRANCH  44  47
ENDBRANCH  41  44
ENDBRANCH  38  41
ENDBRANCH  36  38
BRANCH  36  67
ATOM     67  O21 0LG d   1       3.588   4.451 -19.913  0.00  0.00    -0.392 OA
ATOM     68  H30 0LG d   1       3.138   3.920 -20.559  0.00  0.00     0.210 HD
ENDBRANCH  36  67
ENDBRANCH  10  36
BRANCH   1  69
ATOM     69  N7  0LG d   1       7.546  -0.117 -13.016  0.00  0.00    -0.281 N 
BRANCH  69  70
ATOM     70  S11 0LG d   1       7.304  -1.183 -11.779  0.00  0.00     0.228 S 
ATOM     71  O14 0LG d   1       7.578  -0.443 -10.628  0.00  0.00    -0.206 OA
ATOM     72  O13 0LG d   1       5.976  -1.661 -11.793  0.00  0.00    -0.206 OA
BRANCH  70  73
ATOM     73  C12 0LG d   1       8.481  -2.435 -11.848  0.00  0.00     0.033 C 
ATOM     74  H1  0LG d   1       9.488  -1.993 -11.834  0.00  0.00     0.051 H 
ATOM     75  H2  0LG d   1       8.348  -3.013 -12.774  0.00  0.00     0.051 H 
ATOM     76  H3  0LG d   1       8.360  -3.100 -10.980  0.00  0.00     0.051 H 
ENDBRANCH  70  73
ENDBRANCH  69  70
BRANCH  69  77
ATOM     77  C10 0LG d   1       8.877   0.516 -13.070  0.00  0.00    -0.004 C 
ATOM     78  H4  0LG d   1       8.922   1.202 -13.929  0.00  0.00     0.058 H 
ATOM     79  H5  0LG d   1       9.648  -0.261 -13.180  0.00  0.00     0.058 H 
ATOM     80  H6  0LG d   1       9.053   1.079 -12.142  0.00  0.00     0.058 H 
ENDBRANCH  69  77
ENDBRANCH   1  69
BRANCH  17  81
ATOM     81  C27 0LG d   1       5.567  -5.999 -17.919  0.00  0.00    -0.035 A 
ATOM     82  C28 0LG d   1       6.925  -6.166 -18.194  0.00  0.00    -0.075 A 
ATOM     83  C29 0LG d   1       7.499  -7.396 -17.933  0.00  0.00    -0.082 A 
ATOM     84  H41 0LG d   1       7.514  -5.353 -18.602  0.00  0.00     0.084 H 
ATOM     85  C30 0LG d   1       6.732  -8.455 -17.405  0.00  0.00    -0.083 A 
ATOM     86  H42 0LG d   1       8.553  -7.549 -18.137  0.00  0.00     0.083 H 
ATOM     87  C31 0LG d   1       5.374  -8.304 -17.146  0.00  0.00    -0.082 A 
ATOM     88  H43 0LG d   1       7.210  -9.405 -17.197  0.00  0.00     0.083 H 
ATOM     89  C32 0LG d   1       4.803  -7.063 -17.403  0.00  0.00    -0.075 A 
ATOM     90  H44 0LG d   1       4.782  -9.125 -16.758  0.00  0.00     0.083 H 
ATOM     91  H45 0LG d   1       3.749  -6.912 -17.202  0.00  0.00     0.084 H 
ENDBRANCH  17  81
TORSDOF 14
