REMARK  12 active torsions:
REMARK  status: ('A' for Active; 'I' for Inactive)
REMARK    1  A    between atoms: C11_34  and  C12_1 
REMARK    2  A    between atoms: C1_3  and  C7_41 
REMARK    3  A    between atoms: C8_8  and  O9_40 
REMARK    4  A    between atoms: C38_13  and  C39_14 
REMARK    5  A    between atoms: C38_13  and  C40_15 
REMARK    6  A    between atoms: C36_18  and  C38_13 
REMARK    7  A    between atoms: C27_21  and  C29_22 
REMARK    8  A    between atoms: C23_27  and  C27_21 
REMARK    9  A    between atoms: C27_21  and  O28_30 
REMARK   10  A    between atoms: C29_22  and  N30_28 
REMARK   11  A    between atoms: C31_23  and  C32_24 
REMARK   12  A    between atoms: N30_28  and  C31_23 
ROOT
ATOM      1  C6  0N1 d   1      -7.290  -1.590  15.358  0.00  0.00    -0.067 A 
ATOM      2  C1  0N1 d   1      -7.874  -0.362  15.045  0.00  0.00    -0.060 A 
ATOM      3  C2  0N1 d   1      -7.571   0.807  15.796  0.00  0.00    -0.062 A 
ATOM      4  C5  0N1 d   1      -6.392  -1.690  16.454  0.00  0.00    -0.001 A 
ATOM      5  C4  0N1 d   1      -6.165  -0.557  17.234  0.00  0.00    -0.057 A 
ATOM      6  C3  0N1 d   1      -6.702   0.680  16.883  0.00  0.00     0.033 A 
ATOM      7  C8  0N1 d   1      -5.704  -2.947  16.850  0.00  0.00     0.217 C 
ATOM      8  C18 0N1 d   1      -3.831  -3.913  19.608  0.00  0.00    -0.019 C 
ATOM      9  C19 0N1 d   1      -3.613  -2.489  20.092  0.00  0.00    -0.102 C 
ATOM     10  C41 0N1 d   1      -4.262   1.861  20.458  0.00  0.00     0.041 C 
ATOM     11  C25 0N1 d   1      -6.446   1.884  17.732  0.00  0.00     0.252 C 
ATOM     12  O26 0N1 d   1      -7.394   2.729  17.878  0.00  0.00    -0.268 OA
ATOM     13  N24 0N1 d   1      -5.248   1.928  18.310  0.00  0.00    -0.348 N 
ATOM     14  C23 0N1 d   1      -4.997   2.742  19.472  0.00  0.00     0.059 C 
ATOM     15  O22 0N1 d   1      -4.976   0.612  20.610  0.00  0.00    -0.385 OA
ATOM     16  C21 0N1 d   1      -4.154  -0.414  21.231  0.00  0.00     0.034 C 
ATOM     17  C20 0N1 d   1      -4.527  -1.821  20.814  0.00  0.00    -0.084 C 
ATOM     18  C11 0N1 d   1      -3.882  -4.072  18.085  0.00  0.00     0.133 C 
ATOM     19  N10 0N1 d   1      -4.555  -2.905  17.585  0.00  0.00    -0.036 N 
ATOM     20  H   0N1 d   1      -7.523  -2.472  14.762  0.00  0.00     0.085 H 
ATOM     21  H   0N1 d   1      -8.003   1.772  15.532  0.00  0.00     0.085 H 
ATOM     22  H   0N1 d   1      -5.557  -0.640  18.134  0.00  0.00     0.086 H 
ATOM     23  H   0N1 d   1      -5.843  -3.388  17.837  0.00  0.00     0.137 H 
ATOM     24  H   0N1 d   1      -4.799  -4.234  19.993  0.00  0.00     0.042 H 
ATOM     25  H   0N1 d   1      -2.983  -4.500  19.960  0.00  0.00     0.042 H 
ATOM     26  H   0N1 d   1      -2.677  -1.990  19.843  0.00  0.00     0.076 H 
ATOM     27  H   0N1 d   1      -4.201   2.365  21.422  0.00  0.00     0.077 H 
ATOM     28  H   0N1 d   1      -3.256   1.663  20.090  0.00  0.00     0.077 H 
ATOM     29  H   0N1 d   1      -4.488   1.371  17.920  0.00  0.00     0.163 HD
ATOM     30  H   0N1 d   1      -5.899   3.127  19.948  0.00  0.00     0.079 H 
ATOM     31  H   0N1 d   1      -4.299  -0.342  22.309  0.00  0.00     0.080 H 
ATOM     32  H   0N1 d   1      -3.124  -0.242  20.919  0.00  0.00     0.080 H 
ATOM     33  H   0N1 d   1      -5.484  -2.267  21.085  0.00  0.00     0.079 H 
ATOM     34  H   0N1 d   1      -4.406  -5.004  17.874  0.00  0.00     0.092 H 
ATOM     35  H   0N1 d   1      -4.850  -2.431  18.439  0.00  0.00     0.281 HD
ATOM     36  H   0N1 d   1      -3.879  -2.519  16.926  0.00  0.00     0.281 HD
ENDROOT
BRANCH  14  37
ATOM     37  C27 0N1 d   1      -4.161   3.931  19.015  0.00  0.00     0.080 C 
ATOM     38  H   0N1 d   1      -3.268   3.540  18.528  0.00  0.00     0.088 H 
BRANCH  37  39
ATOM     39  C29 0N1 d   1      -4.884   4.784  17.955  0.00  0.00     0.107 C 
ATOM     40  H   0N1 d   1      -5.814   5.136  18.402  0.00  0.00     0.079 H 
ATOM     41  H   0N1 d   1      -5.025   4.156  17.076  0.00  0.00     0.079 H 
BRANCH  39  42
ATOM     42  N30 0N1 d   1      -4.130   5.970  17.527  0.00  0.00    -0.069 N 
ATOM     43  H   0N1 d   1      -3.524   5.641  16.775  0.00  0.00     0.277 HD
ATOM     44  H   0N1 d   1      -3.702   6.333  18.379  0.00  0.00     0.277 HD
BRANCH  42  45
ATOM     45  C31 0N1 d   1      -4.881   7.131  16.943  0.00  0.00     0.105 C 
ATOM     46  H   0N1 d   1      -4.172   7.930  16.727  0.00  0.00     0.083 H 
ATOM     47  H   0N1 d   1      -5.388   6.797  16.038  0.00  0.00     0.083 H 
BRANCH  45  48
ATOM     48  C32 0N1 d   1      -5.930   7.661  17.922  0.00  0.00    -0.032 A 
ATOM     49  C37 0N1 d   1      -5.521   8.146  19.155  0.00  0.00    -0.069 A 
ATOM     50  C36 0N1 d   1      -6.440   8.608  20.092  0.00  0.00    -0.054 A 
ATOM     51  H   0N1 d   1      -4.458   8.166  19.395  0.00  0.00     0.085 H 
ATOM     52  C35 0N1 d   1      -7.776   8.623  19.766  0.00  0.00    -0.076 A 
ATOM     53  C34 0N1 d   1      -8.201   8.132  18.533  0.00  0.00    -0.082 A 
ATOM     54  H   0N1 d   1      -8.504   9.020  20.474  0.00  0.00     0.084 H 
ATOM     55  C33 0N1 d   1      -7.285   7.680  17.591  0.00  0.00    -0.075 A 
ATOM     56  H   0N1 d   1      -9.266   8.102  18.305  0.00  0.00     0.083 H 
ATOM     57  H   0N1 d   1      -7.620   7.346  16.609  0.00  0.00     0.084 H 
BRANCH  50  58
ATOM     58  C38 0N1 d   1      -5.824   9.042  21.387  0.00  0.00    -0.036 C 
ATOM     59  H   0N1 d   1      -4.992   8.360  21.563  0.00  0.00     0.046 H 
BRANCH  58  60
ATOM     60  C39 0N1 d   1      -5.267  10.446  21.263  0.00  0.00    -0.069 C 
ATOM     61  H   0N1 d   1      -6.090  11.160  21.230  0.00  0.00     0.028 H 
ATOM     62  H   0N1 d   1      -4.632  10.661  22.123  0.00  0.00     0.028 H 
ATOM     63  H   0N1 d   1      -4.680  10.523  20.348  0.00  0.00     0.028 H 
ENDBRANCH  58  60
BRANCH  58  64
ATOM     64  C40 0N1 d   1      -6.668   8.817  22.639  0.00  0.00    -0.069 C 
ATOM     65  H   0N1 d   1      -6.059   9.002  23.524  0.00  0.00     0.028 H 
ATOM     66  H   0N1 d   1      -7.517   9.501  22.631  0.00  0.00     0.028 H 
ATOM     67  H   0N1 d   1      -7.029   7.788  22.652  0.00  0.00     0.028 H 
ENDBRANCH  58  64
ENDBRANCH  50  58
ENDBRANCH  45  48
ENDBRANCH  42  45
ENDBRANCH  39  42
ENDBRANCH  37  39
BRANCH  37  68
ATOM     68  O28 0N1 d   1      -3.746   4.723  20.154  0.00  0.00    -0.392 OA
ATOM     69  H   0N1 d   1      -3.221   4.180  20.746  0.00  0.00     0.210 HD
ENDBRANCH  37  68
ENDBRANCH  14  37
BRANCH   2  70
ATOM     70  C7  0N1 d   1      -8.838  -0.224  13.875  0.00  0.00    -0.051 C 
ATOM     71  H   0N1 d   1      -8.330  -0.505  12.952  0.00  0.00     0.033 H 
ATOM     72  H   0N1 d   1      -9.695  -0.878  14.033  0.00  0.00     0.033 H 
ATOM     73  H   0N1 d   1      -9.177   0.810  13.805  0.00  0.00     0.033 H 
ENDBRANCH   2  70
BRANCH   7  74
ATOM     74  O9  0N1 d   1      -6.184  -4.001  16.000  0.00  0.00    -0.366 OA
ATOM     75  H   0N1 d   1      -5.546  -4.162  15.301  0.00  0.00     0.212 HD
ENDBRANCH   7  74
BRANCH  18  76
ATOM     76  C12 0N1 d   1      -2.553  -4.285  17.367  0.00  0.00    -0.027 A 
ATOM     77  C17 0N1 d   1      -2.201  -5.554  16.876  0.00  0.00    -0.075 A 
ATOM     78  C16 0N1 d   1      -0.992  -5.739  16.172  0.00  0.00    -0.082 A 
ATOM     79  H   0N1 d   1      -2.867  -6.401  17.040  0.00  0.00     0.084 H 
ATOM     80  C15 0N1 d   1      -0.151  -4.634  15.961  0.00  0.00    -0.083 A 
ATOM     81  H   0N1 d   1      -0.715  -6.724  15.798  0.00  0.00     0.083 H 
ATOM     82  C14 0N1 d   1      -0.501  -3.361  16.414  0.00  0.00    -0.082 A 
ATOM     83  H   0N1 d   1       0.793  -4.773  15.434  0.00  0.00     0.083 H 
ATOM     84  C13 0N1 d   1      -1.719  -3.203  17.070  0.00  0.00    -0.075 A 
ATOM     85  H   0N1 d   1       0.163  -2.511  16.258  0.00  0.00     0.083 H 
ATOM     86  H   0N1 d   1      -2.033  -2.201  17.362  0.00  0.00     0.084 H 
ENDBRANCH  18  76
TORSDOF 12
