REMARK  10 active torsions:
REMARK  status: ('A' for Active; 'I' for Inactive)
REMARK    1  A    between atoms: CAQ_17  and  OAE_5 
REMARK    2  A    between atoms: CAQ_17  and  CAJ_10 
REMARK    3  A    between atoms: CAK_11  and  CAL_12 
REMARK    4  A    between atoms: OAN_14  and  CAK_11 
REMARK    5  A    between atoms: CAL_12  and  CAQ_17 
REMARK    6  A    between atoms: CAM_13  and  CAP_16 
REMARK    7  A    between atoms: CAQ_17  and  CAM_13 
REMARK    8  A    between atoms: PAS_19  and  OAN_14 
REMARK    9  A    between atoms: OAO_15  and  PAR_18 
REMARK   10  A    between atoms: OAO_15  and  PAS_19 
ROOT
ATOM      1  CAL FM0 d   1       6.358  21.497  20.811  0.00  0.00    -0.013 C 
ATOM      2  H   FM0 d   1       6.642  21.794  19.801  0.00  0.00     0.040 H 
ATOM      3  H   FM0 d   1       6.613  22.123  21.666  0.00  0.00     0.040 H 
ENDROOT
BRANCH   1   4
ATOM      4  CAK FM0 d   1       7.130  20.201  21.052  0.00  0.00     0.034 C 
ATOM      5  H   FM0 d   1       6.365  19.439  21.202  0.00  0.00     0.075 H 
ATOM      6  H   FM0 d   1       7.812  20.426  21.872  0.00  0.00     0.075 H 
BRANCH   4   7
ATOM      7  OAN FM0 d   1       7.935  19.708  20.038  0.00  0.00    -0.289 OA
BRANCH   7   8
ATOM      8  PAS FM0 d   1       9.159  18.713  20.275  0.00  0.00     0.418 P 
ATOM      9  OAC FM0 d   1       8.763  17.515  21.106  0.00  0.00    -0.624 OA
ATOM     10  OAH FM0 d   1       9.640  18.225  18.937  0.00  0.00    -0.624 OA
BRANCH   8  11
ATOM     11  OAO FM0 d   1      10.425  19.413  20.863  0.00  0.00    -0.173 OA
BRANCH  11  12
ATOM     12  PAR FM0 d   1      11.821  18.709  20.829  0.00  0.00     0.431 P 
ATOM     13  OAB FM0 d   1      12.110  18.194  22.206  0.00  0.00    -0.616 OA
ATOM     14  OAF FM0 d   1      12.915  19.654  20.420  0.00  0.00    -0.616 OA
ATOM     15  OAG FM0 d   1      11.799  17.566  19.836  0.00  0.00    -0.616 OA
ENDBRANCH  11  12
ENDBRANCH   8  11
ENDBRANCH   7   8
ENDBRANCH   4   7
ENDBRANCH   1   4
BRANCH   1  16
ATOM     16  CAQ FM0 d   1       4.848  21.500  20.787  0.00  0.00     0.095 C 
BRANCH  16  17
ATOM     17  OAE FM0 d   1       4.457  20.690  19.733  0.00  0.00    -0.387 OA
ATOM     18  H   FM0 d   1       4.786  19.800  19.876  0.00  0.00     0.210 HD
ENDBRANCH  16  17
BRANCH  16  19
ATOM     19  CAJ FM0 d   1       4.281  22.818  20.438  0.00  0.00     0.087 C 
ATOM     20  FAI FM0 d   1       4.736  23.369  19.316  0.00  0.00    -0.252 F 
ATOM     21  H   FM0 d   1       3.212  22.663  20.292  0.00  0.00     0.086 H 
ATOM     22  H   FM0 d   1       4.559  23.495  21.246  0.00  0.00     0.086 H 
ENDBRANCH  16  19
BRANCH  16  23
ATOM     23  CAM FM0 d   1       4.294  21.112  22.152  0.00  0.00     0.046 C 
ATOM     24  H   FM0 d   1       5.028  21.471  22.874  0.00  0.00     0.053 H 
ATOM     25  H   FM0 d   1       3.291  21.536  22.187  0.00  0.00     0.053 H 
BRANCH  23  26
ATOM     26  CAP FM0 d   1       4.119  19.648  22.455  0.00  0.00     0.175 C 
ATOM     27  OAA FM0 d   1       4.101  18.785  21.517  0.00  0.00    -0.648 OA
ATOM     28  OAD FM0 d   1       3.993  19.269  23.647  0.00  0.00    -0.648 OA
ENDBRANCH  23  26
ENDBRANCH  16  23
ENDBRANCH   1  16
TORSDOF 10
