REMARK  10 active torsions:
REMARK  status: ('A' for Active; 'I' for Inactive)
REMARK    1  A    between atoms: CAQ_17  and  OAE_5 
REMARK    2  A    between atoms: CAQ_17  and  CAJ_10 
REMARK    3  A    between atoms: CAK_11  and  CAL_12 
REMARK    4  A    between atoms: OAN_14  and  CAK_11 
REMARK    5  A    between atoms: CAL_12  and  CAQ_17 
REMARK    6  A    between atoms: CAM_13  and  CAP_16 
REMARK    7  A    between atoms: CAQ_17  and  CAM_13 
REMARK    8  A    between atoms: PAS_19  and  OAN_14 
REMARK    9  A    between atoms: OAO_15  and  PAR_18 
REMARK   10  A    between atoms: OAO_15  and  PAS_19 
ROOT
ATOM      1  CAL FM0 d   1      14.418 -22.184 -19.777  0.00  0.00    -0.013 C 
ATOM      2  H   FM0 d   1      13.620 -21.850 -20.440  0.00  0.00     0.040 H 
ATOM      3  H   FM0 d   1      14.315 -21.980 -18.711  0.00  0.00     0.040 H 
ENDROOT
BRANCH   1   4
ATOM      4  CAK FM0 d   1      15.651 -21.422 -20.215  0.00  0.00     0.034 C 
ATOM      5  H   FM0 d   1      15.638 -21.448 -21.305  0.00  0.00     0.075 H 
ATOM      6  H   FM0 d   1      16.487 -21.903 -19.707  0.00  0.00     0.075 H 
BRANCH   4   7
ATOM      7  OAN FM0 d   1      15.733 -20.089 -19.879  0.00  0.00    -0.289 OA
BRANCH   7   8
ATOM      8  PAS FM0 d   1      16.828 -19.184 -20.565  0.00  0.00     0.418 P 
ATOM      9  OAC FM0 d   1      18.047 -19.108 -19.676  0.00  0.00    -0.624 OA
ATOM     10  OAH FM0 d   1      17.216 -19.785 -21.905  0.00  0.00    -0.624 OA
BRANCH   8  11
ATOM     11  OAO FM0 d   1      16.262 -17.760 -20.782  0.00  0.00    -0.173 OA
BRANCH  11  12
ATOM     12  PAR FM0 d   1      17.126 -16.538 -20.410  0.00  0.00     0.431 P 
ATOM     13  OAB FM0 d   1      17.558 -16.647 -18.967  0.00  0.00    -0.616 OA
ATOM     14  OAF FM0 d   1      16.326 -15.280 -20.598  0.00  0.00    -0.616 OA
ATOM     15  OAG FM0 d   1      18.350 -16.497 -21.302  0.00  0.00    -0.616 OA
ENDBRANCH  11  12
ENDBRANCH   8  11
ENDBRANCH   7   8
ENDBRANCH   4   7
ENDBRANCH   1   4
BRANCH   1  16
ATOM     16  CAQ FM0 d   1      14.436 -23.679 -19.897  0.00  0.00     0.095 C 
BRANCH  16  17
ATOM     17  OAE FM0 d   1      15.425 -24.009 -20.804  0.00  0.00    -0.387 OA
ATOM     18  H   FM0 d   1      15.235 -23.594 -21.648  0.00  0.00     0.210 HD
ENDBRANCH  16  17
BRANCH  16  19
ATOM     19  CAJ FM0 d   1      13.172 -24.189 -20.472  0.00  0.00     0.087 C 
ATOM     20  FAI FM0 d   1      12.639 -23.517 -21.490  0.00  0.00    -0.252 F 
ATOM     21  H   FM0 d   1      13.409 -25.177 -20.867  0.00  0.00     0.086 H 
ATOM     22  H   FM0 d   1      12.440 -24.127 -19.667  0.00  0.00     0.086 H 
ENDBRANCH  16  19
BRANCH  16  23
ATOM     23  CAM FM0 d   1      14.639 -24.297 -18.522  0.00  0.00     0.046 C 
ATOM     24  H   FM0 d   1      14.017 -23.712 -17.844  0.00  0.00     0.053 H 
ATOM     25  H   FM0 d   1      14.403 -25.355 -18.640  0.00  0.00     0.053 H 
BRANCH  23  26
ATOM     26  CAP FM0 d   1      16.026 -24.256 -17.934  0.00  0.00     0.175 C 
ATOM     27  OAA FM0 d   1      17.042 -24.234 -18.700  0.00  0.00    -0.648 OA
ATOM     28  OAD FM0 d   1      16.179 -24.244 -16.683  0.00  0.00    -0.648 OA
ENDBRANCH  23  26
ENDBRANCH  16  23
ENDBRANCH   1  16
TORSDOF 10
