REMARK  6 active torsions:
REMARK  status: ('A' for Active; 'I' for Inactive)
REMARK    1  A    between atoms: CA_4  and  C_1 
REMARK       I    between atoms: CAP_17  and  N_2 
REMARK    2  A    between atoms: OAM_15  and  CAK_14 
REMARK    3  A    between atoms: CAK_14  and  CAP_17 
REMARK    4  A    between atoms: PAT_19  and  OAM_15 
REMARK    5  A    between atoms: OAN_16  and  PAS_18 
REMARK    6  A    between atoms: OAN_16  and  PAT_19 
ROOT
ATOM      1  N   2P0 d   1     -14.421 -28.062 -20.030  0.00  0.00    -0.336 N 
ATOM      2  CA  2P0 d   1     -14.536 -27.865 -18.593  0.00  0.00     0.098 C 
ATOM      3  CB  2P0 d   1     -13.550 -26.841 -18.196  0.00  0.00    -0.035 C 
ATOM      4  CD  2P0 d   1     -13.673 -26.958 -20.580  0.00  0.00    -0.001 C 
ATOM      5  CG  2P0 d   1     -12.826 -26.427 -19.453  0.00  0.00    -0.048 C 
ATOM      6  OAB 2P0 d   1     -14.786 -29.210 -22.018  0.00  0.00    -0.271 OA
ATOM      7  CAP 2P0 d   1     -14.963 -29.185 -20.810  0.00  0.00     0.244 C 
ATOM      8  H1  2P0 d   1     -14.289 -28.809 -18.085  0.00  0.00     0.089 H 
ATOM      9  H2  2P0 d   1     -12.839 -27.261 -17.470  0.00  0.00     0.036 H 
ATOM     10  H3  2P0 d   1     -14.061 -25.975 -17.750  0.00  0.00     0.036 H 
ATOM     11  H4  2P0 d   1     -14.357 -26.177 -20.945  0.00  0.00     0.064 H 
ATOM     12  H5  2P0 d   1     -13.035 -27.303 -21.407  0.00  0.00     0.064 H 
ATOM     13  H6  2P0 d   1     -11.819 -26.869 -19.484  0.00  0.00     0.035 H 
ATOM     14  H7  2P0 d   1     -12.747 -25.331 -19.511  0.00  0.00     0.035 H 
ENDROOT
BRANCH   2  15
ATOM     15  C   2P0 d   1     -15.974 -27.468 -18.189  0.00  0.00     0.196 C 
ATOM     16  O   2P0 d   1     -16.307 -27.375 -16.945  0.00  0.00    -0.646 OA
ATOM     17  OXT 2P0 d   1     -16.865 -27.219 -19.073  0.00  0.00    -0.646 OA
ENDBRANCH   2  15
BRANCH   7  18
ATOM     18  CAK 2P0 d   1     -15.716 -30.273 -20.164  0.00  0.00     0.105 C 
ATOM     19  H8  2P0 d   1     -15.034 -30.885 -19.555  0.00  0.00     0.089 H 
ATOM     20  H9  2P0 d   1     -16.501 -29.849 -19.521  0.00  0.00     0.089 H 
BRANCH  18  21
ATOM     21  OAM 2P0 d   1     -16.321 -31.095 -21.195  0.00  0.00    -0.280 OA
BRANCH  21  22
ATOM     22  PAT 2P0 d   1     -17.279 -32.328 -20.874  0.00  0.00     0.418 P 
ATOM     23  OAD 2P0 d   1     -18.011 -32.675 -22.172  0.00  0.00    -0.624 OA
ATOM     24  OAH 2P0 d   1     -18.251 -31.910 -19.787  0.00  0.00    -0.624 OA
BRANCH  22  25
ATOM     25  OAN 2P0 d   1     -16.406 -33.555 -20.402  0.00  0.00    -0.173 OA
BRANCH  25  26
ATOM     26  PAS 2P0 d   1     -17.004 -34.946 -19.932  0.00  0.00     0.431 P 
ATOM     27  OAC 2P0 d   1     -17.452 -34.889 -18.474  0.00  0.00    -0.616 OA
ATOM     28  OAF 2P0 d   1     -15.925 -35.985 -20.052  0.00  0.00    -0.616 OA
ATOM     29  OAG 2P0 d   1     -18.186 -35.293 -20.828  0.00  0.00    -0.616 OA
ENDBRANCH  25  26
ENDBRANCH  22  25
ENDBRANCH  21  22
ENDBRANCH  18  21
ENDBRANCH   7  18
TORSDOF 6
