REMARK  16 active torsions:
REMARK  status: ('A' for Active; 'I' for Inactive)
REMARK    1  A    between atoms: C5_1  and  C3_2 
REMARK    2  A    between atoms: C5_1  and  C6_6 
REMARK       I    between atoms: C3_2  and  N1_4 
REMARK    3  A    between atoms: N1_4  and  O2_5 
REMARK    4  A    between atoms: C6_6  and  C12_7 
REMARK    5  A    between atoms: C6_6  and  C7_9 
REMARK       I    between atoms: C12_7  and  N14_14 
REMARK    6  A    between atoms: C7_9  and  C8_10 
REMARK    7  A    between atoms: C8_10  and  C9_11 
REMARK    8  A    between atoms: C9_11  and  C10_12 
REMARK    9  A    between atoms: C10_12  and  C11_13 
REMARK   10  A    between atoms: N14_14  and  C15_15 
REMARK   11  A    between atoms: C15_15  and  C16_16 
REMARK   12  A    between atoms: C15_15  and  C19_19 
REMARK   13  A    between atoms: C16_16  and  C18_17 
REMARK   14  A    between atoms: C16_16  and  C17_18 
REMARK       I    between atoms: C19_19  and  N21_21 
REMARK   15  A    between atoms: C22_22  and  C26_26 
REMARK   16  A    between atoms: C26_26  and  O27_27 
ROOT
ATOM      1  C12 BB2 d   1      35.921  49.734   3.297  0.00  0.00     0.223 C 
ATOM      2  O13 BB2 d   1      37.067  49.354   3.287  0.00  0.00    -0.273 OA
ATOM      3  N14 BB2 d   1      34.885  48.898   3.361  0.00  0.00    -0.347 N 
ATOM      4  H17 BB2 d   1      33.972  49.297   3.451  0.00  0.00     0.163 HD
ENDROOT
BRANCH   3   5
ATOM      5  C15 BB2 d   1      34.984  47.452   3.309  0.00  0.00     0.092 C 
ATOM      6  H18 BB2 d   1      36.027  47.166   3.107  0.00  0.00     0.088 H 
BRANCH   5   7
ATOM      7  C16 BB2 d   1      34.558  46.849   4.660  0.00  0.00    -0.033 C 
ATOM      8  H19 BB2 d   1      33.459  46.854   4.710  0.00  0.00     0.042 H 
BRANCH   7   9
ATOM      9  C18 BB2 d   1      35.051  45.425   4.809  0.00  0.00    -0.071 C 
ATOM     10  H20 BB2 d   1      34.730  45.026   5.782  0.00  0.00     0.028 H 
ATOM     11  H21 BB2 d   1      36.149  45.409   4.750  0.00  0.00     0.028 H 
ATOM     12  H22 BB2 d   1      34.632  44.806   4.003  0.00  0.00     0.028 H 
ENDBRANCH   7   9
BRANCH   7  13
ATOM     13  C17 BB2 d   1      35.112  47.663   5.828  0.00  0.00    -0.071 C 
ATOM     14  H23 BB2 d   1      34.768  48.705   5.745  0.00  0.00     0.028 H 
ATOM     15  H24 BB2 d   1      36.211  47.637   5.804  0.00  0.00     0.028 H 
ATOM     16  H25 BB2 d   1      34.755  47.234   6.776  0.00  0.00     0.028 H 
ENDBRANCH   7  13
ENDBRANCH   5   7
BRANCH   5  17
ATOM     17  C19 BB2 d   1      34.109  46.948   2.183  0.00  0.00     0.243 C 
ATOM     18  O20 BB2 d   1      32.912  47.152   2.236  0.00  0.00    -0.271 OA
ATOM     19  N21 BB2 d   1      34.588  46.308   1.145  0.00  0.00    -0.344 N 
ATOM     20  C22 BB2 d   1      33.658  45.750   0.165  0.00  0.00     0.035 C 
ATOM     21  C23 BB2 d   1      35.992  46.115   0.823  0.00  0.00    -0.002 C 
ATOM     22  C25 BB2 d   1      34.549  45.123  -0.901  0.00  0.00    -0.043 C 
ATOM     23  H26 BB2 d   1      33.054  46.558  -0.273  0.00  0.00     0.076 H 
ATOM     24  C24 BB2 d   1      35.937  45.639  -0.618  0.00  0.00    -0.048 C 
ATOM     25  H31 BB2 d   1      34.222  45.430  -1.905  0.00  0.00     0.036 H 
ATOM     26  H32 BB2 d   1      34.524  44.026  -0.827  0.00  0.00     0.036 H 
ATOM     27  H29 BB2 d   1      36.670  44.833  -0.770  0.00  0.00     0.035 H 
ATOM     28  H30 BB2 d   1      36.166  46.476  -1.294  0.00  0.00     0.035 H 
ATOM     29  H27 BB2 d   1      36.449  45.356   1.475  0.00  0.00     0.064 H 
ATOM     30  H28 BB2 d   1      36.553  47.057   0.909  0.00  0.00     0.064 H 
BRANCH  20  31
ATOM     31  C26 BB2 d   1      32.710  44.704   0.759  0.00  0.00     0.036 C 
ATOM     32  H33 BB2 d   1      31.953  44.433   0.008  0.00  0.00     0.077 H 
ATOM     33  H34 BB2 d   1      32.213  45.127   1.644  0.00  0.00     0.077 H 
BRANCH  31  34
ATOM     34  O27 BB2 d   1      33.434  43.530   1.142  0.00  0.00    -0.399 OA
ATOM     35  H35 BB2 d   1      34.087  43.760   1.793  0.00  0.00     0.209 HD
ENDBRANCH  31  34
ENDBRANCH  20  31
ENDBRANCH   5  17
ENDBRANCH   3   5
BRANCH   1  36
ATOM     36  C6  BB2 d   1      35.584  51.186   3.222  0.00  0.00     0.032 C 
ATOM     37  H5  BB2 d   1      34.495  51.310   3.312  0.00  0.00     0.055 H 
BRANCH  36  38
ATOM     38  C5  BB2 d   1      36.265  51.878   4.409  0.00  0.00     0.022 C 
ATOM     39  H1  BB2 d   1      36.241  51.222   5.292  0.00  0.00     0.048 H 
ATOM     40  H2  BB2 d   1      37.309  52.116   4.158  0.00  0.00     0.048 H 
BRANCH  38  41
ATOM     41  C3  BB2 d   1      35.498  53.149   4.688  0.00  0.00     0.241 C 
ATOM     42  O4  BB2 d   1      34.506  53.258   5.386  0.00  0.00    -0.271 OA
ATOM     43  N1  BB2 d   1      35.889  54.189   4.048  0.00  0.00    -0.237 N 
ATOM     44  H3  BB2 d   1      36.637  54.168   3.385  0.00  0.00     0.197 HD
BRANCH  43  45
ATOM     45  O2  BB2 d   1      35.197  55.328   4.348  0.00  0.00    -0.287 OA
ATOM     46  H4  BB2 d   1      35.291  55.520   5.274  0.00  0.00     0.244 HD
ENDBRANCH  43  45
ENDBRANCH  38  41
ENDBRANCH  36  38
BRANCH  36  47
ATOM     47  C7  BB2 d   1      36.026  51.778   1.889  0.00  0.00    -0.053 C 
ATOM     48  H6  BB2 d   1      37.126  51.784   1.875  0.00  0.00     0.034 H 
ATOM     49  H7  BB2 d   1      35.653  52.812   1.843  0.00  0.00     0.034 H 
BRANCH  47  50
ATOM     50  C8  BB2 d   1      35.544  51.047   0.613  0.00  0.00    -0.064 C 
ATOM     51  H8  BB2 d   1      35.879  50.000   0.659  0.00  0.00     0.033 H 
ATOM     52  H9  BB2 d   1      35.991  51.537  -0.264  0.00  0.00     0.033 H 
BRANCH  50  53
ATOM     53  C9  BB2 d   1      34.037  51.068   0.465  0.00  0.00    -0.065 C 
ATOM     54  H10 BB2 d   1      33.661  52.063   0.746  0.00  0.00     0.033 H 
ATOM     55  H11 BB2 d   1      33.599  50.309   1.130  0.00  0.00     0.033 H 
BRANCH  53  56
ATOM     56  C10 BB2 d   1      33.626  50.765  -0.984  0.00  0.00    -0.069 C 
ATOM     57  H12 BB2 d   1      34.415  51.114  -1.666  0.00  0.00     0.032 H 
ATOM     58  H13 BB2 d   1      32.686  51.288  -1.212  0.00  0.00     0.032 H 
BRANCH  56  59
ATOM     59  C11 BB2 d   1      33.427  49.269  -1.170  0.00  0.00    -0.077 C 
ATOM     60  H14 BB2 d   1      33.133  49.065  -2.210  0.00  0.00     0.027 H 
ATOM     61  H15 BB2 d   1      32.637  48.917  -0.490  0.00  0.00     0.027 H 
ATOM     62  H16 BB2 d   1      34.367  48.743  -0.944  0.00  0.00     0.027 H 
ENDBRANCH  56  59
ENDBRANCH  53  56
ENDBRANCH  50  53
ENDBRANCH  47  50
ENDBRANCH  36  47
ENDBRANCH   1  36
TORSDOF 16
