REMARK  20 active torsions:
REMARK  status: ('A' for Active; 'I' for Inactive)
REMARK    1  A    between atoms: C40_2  and  C39_4 
REMARK    2  A    between atoms: C39_4  and  O38_5 
REMARK    3  A    between atoms: O38_5  and  C26_6 
REMARK    4  A    between atoms: C24_11  and  C15_12 
REMARK    5  A    between atoms: C15_12  and  C16_13 
REMARK    6  A    between atoms: C15_12  and  O1_25 
REMARK    7  A    between atoms: C16_13  and  C17_14 
REMARK    8  A    between atoms: C17_14  and  C18_15 
REMARK    9  A    between atoms: C21_18  and  O34_19 
REMARK   10  A    between atoms: O34_19  and  C35_20 
REMARK   11  A    between atoms: C20_21  and  O36_22 
REMARK   12  A    between atoms: O36_22  and  C37_23 
REMARK   13  A    between atoms: O1_25  and  C1_26 
REMARK   14  A    between atoms: C1_26  and  C2_28 
REMARK       I    between atoms: N7_29  and  C8_34 
REMARK   15  A    between atoms: C8_34  and  C9_36 
REMARK   16  A    between atoms: C9_36  and  C10_38 
REMARK   17  A    between atoms: C10_38  and  C13_39 
REMARK   18  A    between atoms: C10_38  and  C14_40 
REMARK   19  A    between atoms: C10_38  and  C11_41 
REMARK   20  A    between atoms: C11_41  and  C12_42 
ROOT
ATOM      1  C15 I63 d   1      19.203 -13.517  31.595  0.00  0.00     0.073 C 
ATOM      2  H7  I63 d   1      19.576 -12.485  31.670  0.00  0.00     0.091 H 
ENDROOT
BRANCH   1   3
ATOM      3  C24 I63 d   1      18.031 -13.607  30.664  0.00  0.00    -0.026 A 
ATOM      4  C25 I63 d   1      17.368 -14.827  30.401  0.00  0.00    -0.042 A 
ATOM      5  C26 I63 d   1      16.328 -14.852  29.481  0.00  0.00     0.070 A 
ATOM      6  H3  I63 d   1      17.668 -15.734  30.912  0.00  0.00     0.088 H 
ATOM      7  C27 I63 d   1      15.945 -13.684  28.813  0.00  0.00    -0.051 A 
ATOM      8  C28 I63 d   1      16.612 -12.474  29.072  0.00  0.00    -0.080 A 
ATOM      9  H4  I63 d   1      15.133 -13.712  28.095  0.00  0.00     0.087 H 
ATOM     10  C29 I63 d   1      17.660 -12.432  29.989  0.00  0.00    -0.074 A 
ATOM     11  H5  I63 d   1      16.310 -11.570  28.556  0.00  0.00     0.083 H 
ATOM     12  H6  I63 d   1      18.184 -11.502  30.180  0.00  0.00     0.084 H 
BRANCH   5  13
ATOM     13  O38 I63 d   1      15.730 -16.068  29.294  0.00  0.00    -0.341 OA
BRANCH  13  14
ATOM     14  C39 I63 d   1      14.751 -16.298  28.277  0.00  0.00     0.105 C 
ATOM     15  H1  I63 d   1      15.057 -15.771  27.361  0.00  0.00     0.091 H 
ATOM     16  H2  I63 d   1      14.691 -17.378  28.076  0.00  0.00     0.091 H 
BRANCH  14  17
ATOM     17  C40 I63 d   1      13.387 -15.800  28.698  0.00  0.00     0.198 C 
ATOM     18  O42 I63 d   1      13.175 -15.540  29.898  0.00  0.00    -0.646 OA
ATOM     19  O41 I63 d   1      12.527 -15.717  27.791  0.00  0.00    -0.646 OA
ENDBRANCH  14  17
ENDBRANCH  13  14
ENDBRANCH   5  13
ENDBRANCH   1   3
BRANCH   1  20
ATOM     20  C16 I63 d   1      18.936 -14.085  32.990  0.00  0.00    -0.033 C 
ATOM     21  H8  I63 d   1      19.896 -14.324  33.470  0.00  0.00     0.037 H 
ATOM     22  H9  I63 d   1      18.335 -15.002  32.895  0.00  0.00     0.037 H 
BRANCH  20  23
ATOM     23  C17 I63 d   1      18.185 -13.088  33.854  0.00  0.00    -0.038 C 
ATOM     24  H10 I63 d   1      17.719 -13.634  34.688  0.00  0.00     0.040 H 
ATOM     25  H11 I63 d   1      17.402 -12.618  33.240  0.00  0.00     0.040 H 
BRANCH  23  26
ATOM     26  C18 I63 d   1      19.063 -11.990  34.432  0.00  0.00    -0.055 A 
ATOM     27  C23 I63 d   1      18.991 -10.671  33.958  0.00  0.00    -0.074 A 
ATOM     28  C22 I63 d   1      19.779  -9.643  34.494  0.00  0.00    -0.048 A 
ATOM     29  H12 I63 d   1      18.304 -10.440  33.152  0.00  0.00     0.084 H 
ATOM     30  C21 I63 d   1      20.690  -9.930  35.525  0.00  0.00     0.101 A 
ATOM     31  H13 I63 d   1      19.686  -8.632  34.115  0.00  0.00     0.087 H 
ATOM     32  C20 I63 d   1      20.746 -11.249  35.991  0.00  0.00     0.102 A 
ATOM     33  C19 I63 d   1      19.973 -12.280  35.464  0.00  0.00    -0.042 A 
ATOM     34  H20 I63 d   1      20.071 -13.291  35.843  0.00  0.00     0.088 H 
BRANCH  30  35
ATOM     35  O34 I63 d   1      21.525  -9.029  36.151  0.00  0.00    -0.353 OA
BRANCH  35  36
ATOM     36  C35 I63 d   1      21.307  -7.631  35.879  0.00  0.00     0.010 C 
ATOM     37  H14 I63 d   1      22.038  -7.030  36.440  0.00  0.00     0.066 H 
ATOM     38  H15 I63 d   1      20.289  -7.352  36.188  0.00  0.00     0.066 H 
ATOM     39  H16 I63 d   1      21.428  -7.444  34.802  0.00  0.00     0.066 H 
ENDBRANCH  35  36
ENDBRANCH  30  35
BRANCH  32  40
ATOM     40  O36 I63 d   1      21.643 -11.474  36.999  0.00  0.00    -0.353 OA
BRANCH  40  41
ATOM     41  C37 I63 d   1      21.639 -12.682  37.800  0.00  0.00     0.010 C 
ATOM     42  H17 I63 d   1      22.449 -12.633  38.542  0.00  0.00     0.066 H 
ATOM     43  H18 I63 d   1      21.792 -13.555  37.148  0.00  0.00     0.066 H 
ATOM     44  H19 I63 d   1      20.673 -12.775  38.318  0.00  0.00     0.066 H 
ENDBRANCH  40  41
ENDBRANCH  32  40
ENDBRANCH  23  26
ENDBRANCH  20  23
ENDBRANCH   1  20
BRANCH   1  45
ATOM     45  O1  I63 d   1      20.140 -14.406  30.950  0.00  0.00    -0.310 OA
BRANCH  45  46
ATOM     46  C1  I63 d   1      21.490 -14.006  30.851  0.00  0.00     0.282 C 
ATOM     47  O2  I63 d   1      21.844 -12.975  31.341  0.00  0.00    -0.263 OA
BRANCH  46  48
ATOM     48  C2  I63 d   1      22.442 -15.000  30.230  0.00  0.00     0.099 C 
ATOM     49  N7  I63 d   1      21.786 -16.183  29.639  0.00  0.00    -0.332 N 
ATOM     50  C6  I63 d   1      20.979 -15.947  28.390  0.00  0.00    -0.001 C 
ATOM     51  C8  I63 d   1      21.928 -17.384  30.246  0.00  0.00     0.291 C 
ATOM     52  C5  I63 d   1      21.798 -15.142  27.338  0.00  0.00    -0.050 C 
ATOM     53  H22 I63 d   1      20.072 -15.381  28.649  0.00  0.00     0.064 H 
ATOM     54  H23 I63 d   1      20.694 -16.917  27.957  0.00  0.00     0.064 H 
ATOM     55  C4  I63 d   1      22.424 -13.882  27.940  0.00  0.00    -0.061 C 
ATOM     56  H24 I63 d   1      21.128 -14.848  26.516  0.00  0.00     0.035 H 
ATOM     57  H25 I63 d   1      22.600 -15.784  26.945  0.00  0.00     0.035 H 
ATOM     58  C3  I63 d   1      23.271 -14.287  29.156  0.00  0.00    -0.037 C 
ATOM     59  H26 I63 d   1      21.631 -13.189  28.256  0.00  0.00     0.033 H 
ATOM     60  H27 I63 d   1      23.063 -13.392  27.191  0.00  0.00     0.033 H 
ATOM     61  H28 I63 d   1      24.072 -14.963  28.820  0.00  0.00     0.036 H 
ATOM     62  H29 I63 d   1      23.715 -13.382  29.595  0.00  0.00     0.036 H 
ATOM     63  O3  I63 d   1      22.630 -17.545  31.266  0.00  0.00    -0.264 OA
ATOM     64  H21 I63 d   1      23.119 -15.355  31.021  0.00  0.00     0.088 H 
BRANCH  51  65
ATOM     65  C9  I63 d   1      21.274 -18.619  29.696  0.00  0.00     0.224 C 
ATOM     66  O4  I63 d   1      21.813 -19.208  28.760  0.00  0.00    -0.286 OA
BRANCH  65  67
ATOM     67  C10 I63 d   1      20.058 -19.220  30.399  0.00  0.00     0.022 C 
BRANCH  67  68
ATOM     68  C13 I63 d   1      19.229 -20.061  29.428  0.00  0.00    -0.062 C 
ATOM     69  H30 I63 d   1      18.361 -20.482  29.956  0.00  0.00     0.029 H 
ATOM     70  H31 I63 d   1      19.848 -20.879  29.030  0.00  0.00     0.029 H 
ATOM     71  H32 I63 d   1      18.881 -19.427  28.599  0.00  0.00     0.029 H 
ENDBRANCH  67  68
BRANCH  67  72
ATOM     72  C14 I63 d   1      19.262 -18.117  31.132  0.00  0.00    -0.062 C 
ATOM     73  H33 I63 d   1      19.934 -17.566  31.806  0.00  0.00     0.029 H 
ATOM     74  H34 I63 d   1      18.453 -18.577  31.718  0.00  0.00     0.029 H 
ATOM     75  H35 I63 d   1      18.832 -17.423  30.394  0.00  0.00     0.029 H 
ENDBRANCH  67  72
BRANCH  67  76
ATOM     76  C11 I63 d   1      20.569 -20.179  31.487  0.00  0.00    -0.055 C 
ATOM     77  H36 I63 d   1      21.324 -19.646  32.084  0.00  0.00     0.034 H 
ATOM     78  H37 I63 d   1      21.037 -21.041  30.989  0.00  0.00     0.034 H 
BRANCH  76  79
ATOM     79  C12 I63 d   1      19.513 -20.700  32.428  0.00  0.00    -0.075 C 
ATOM     80  H38 I63 d   1      19.977 -21.373  33.164  0.00  0.00     0.027 H 
ATOM     81  H39 I63 d   1      18.752 -21.251  31.856  0.00  0.00     0.027 H 
ATOM     82  H40 I63 d   1      19.039 -19.856  32.951  0.00  0.00     0.027 H 
ENDBRANCH  76  79
ENDBRANCH  67  76
ENDBRANCH  65  67
ENDBRANCH  51  65
ENDBRANCH  46  48
ENDBRANCH  45  46
ENDBRANCH   1  45
TORSDOF 20
