REMARK  19 active torsions:
REMARK  status: ('A' for Active; 'I' for Inactive)
REMARK    1  A    between atoms: CAA_1  and  CAQ_2 
REMARK    2  A    between atoms: CAQ_2  and  CBQ_3 
REMARK    3  A    between atoms: CBT_8  and  OAI_9 
REMARK    4  A    between atoms: CBT_8  and  CBJ_10 
REMARK    5  A    between atoms: CBJ_10  and  CBI_12 
REMARK       I    between atoms: CBI_12  and  N_14 
REMARK    6  A    between atoms: CA_19  and  C_20 
REMARK    7  A    between atoms: C_20  and  OBF_22 
REMARK    8  A    between atoms: OBF_22  and  CBP_23 
REMARK    9  A    between atoms: CBP_23  and  CAZ_24 
REMARK   10  A    between atoms: CBP_23  and  CBM_36 
REMARK   11  A    between atoms: CAZ_24  and  CAV_25 
REMARK   12  A    between atoms: CAV_25  and  CBK_26 
REMARK   13  A    between atoms: CBN_30  and  OBC_31 
REMARK   14  A    between atoms: OBC_31  and  CAB_32 
REMARK   15  A    between atoms: CBO_33  and  OBD_34 
REMARK   16  A    between atoms: OBD_34  and  CAC_35 
REMARK   17  A    between atoms: CBL_41  and  OBE_42 
REMARK   18  A    between atoms: OBE_42  and  CAW_43 
REMARK   19  A    between atoms: CAW_43  and  CBG_44 
ROOT
ATOM      1  C   0MC d   1      32.251  13.229 -17.910  0.00  0.00     0.282 C 
ATOM      2  O   0MC d   1      33.359  13.390 -17.409  0.00  0.00    -0.263 OA
ENDROOT
BRANCH   1   3
ATOM      3  CA  0MC d   1      30.993  13.759 -17.220  0.00  0.00     0.099 C 
ATOM      4  N   0MC d   1      29.780  13.267 -17.881  0.00  0.00    -0.332 N 
ATOM      5  CBI 0MC d   1      29.049  14.108 -18.627  0.00  0.00     0.293 C 
ATOM      6  CBA 0MC d   1      29.411  11.789 -17.740  0.00  0.00    -0.001 C 
ATOM      7  OAF 0MC d   1      29.321  15.319 -18.734  0.00  0.00    -0.264 OA
ATOM      8  CAT 0MC d   1      29.402  11.394 -16.252  0.00  0.00    -0.050 C 
ATOM      9  H16 0MC d   1      30.150  11.175 -18.276  0.00  0.00     0.064 H 
ATOM     10  H17 0MC d   1      28.412  11.619 -18.169  0.00  0.00     0.064 H 
ATOM     11  CAR 0MC d   1      30.733  11.809 -15.566  0.00  0.00    -0.061 C 
ATOM     12  H18 0MC d   1      29.277  10.304 -16.168  0.00  0.00     0.035 H 
ATOM     13  H19 0MC d   1      28.564  11.899 -15.749  0.00  0.00     0.035 H 
ATOM     14  CB  0MC d   1      30.969  13.327 -15.740  0.00  0.00    -0.037 C 
ATOM     15  H20 0MC d   1      31.566  11.256 -16.024  0.00  0.00     0.033 H 
ATOM     16  H21 0MC d   1      30.680  11.570 -14.494  0.00  0.00     0.033 H 
ATOM     17  H22 0MC d   1      31.934  13.588 -15.281  0.00  0.00     0.036 H 
ATOM     18  H23 0MC d   1      30.161  13.870 -15.228  0.00  0.00     0.036 H 
ATOM     19  H24 0MC d   1      31.003  14.858 -17.271  0.00  0.00     0.088 H 
BRANCH   5  20
ATOM     20  CBJ 0MC d   1      27.783  13.632 -19.338  0.00  0.00     0.251 C 
ATOM     21  OAG 0MC d   1      26.762  13.629 -18.657  0.00  0.00    -0.284 OA
BRANCH  20  22
ATOM     22  CBT 0MC d   1      27.781  13.250 -20.829  0.00  0.00     0.131 C 
ATOM     23  CBQ 0MC d   1      28.418  14.404 -21.672  0.00  0.00    -0.017 C 
ATOM     24  CAX 0MC d   1      28.601  13.976 -23.148  0.00  0.00    -0.059 C 
ATOM     25  H6  0MC d   1      29.434  14.539 -21.272  0.00  0.00     0.045 H 
ATOM     26  CAS 0MC d   1      29.466  12.694 -23.232  0.00  0.00    -0.064 C 
ATOM     27  H7  0MC d   1      29.098  14.786 -23.702  0.00  0.00     0.033 H 
ATOM     28  H8  0MC d   1      27.615  13.778 -23.594  0.00  0.00     0.033 H 
ATOM     29  CAU 0MC d   1      28.848  11.526 -22.428  0.00  0.00    -0.062 C 
ATOM     30  H9  0MC d   1      30.466  12.913 -22.829  0.00  0.00     0.033 H 
ATOM     31  H10 0MC d   1      29.553  12.393 -24.286  0.00  0.00     0.033 H 
ATOM     32  CBB 0MC d   1      28.571  11.918 -20.960  0.00  0.00    -0.029 C 
ATOM     33  H11 0MC d   1      29.546  10.676 -22.443  0.00  0.00     0.033 H 
ATOM     34  H12 0MC d   1      27.900  11.231 -22.902  0.00  0.00     0.033 H 
ATOM     35  H13 0MC d   1      29.533  12.028 -20.438  0.00  0.00     0.038 H 
ATOM     36  H14 0MC d   1      27.987  11.115 -20.486  0.00  0.00     0.038 H 
BRANCH  23  37
ATOM     37  CAQ 0MC d   1      27.726  15.786 -21.493  0.00  0.00    -0.062 C 
ATOM     38  H4  0MC d   1      27.363  15.856 -20.457  0.00  0.00     0.033 H 
ATOM     39  H5  0MC d   1      28.476  16.571 -21.672  0.00  0.00     0.033 H 
BRANCH  37  40
ATOM     40  CAA 0MC d   1      26.536  16.035 -22.437  0.00  0.00    -0.076 C 
ATOM     41  H1  0MC d   1      26.113  17.031 -22.239  0.00  0.00     0.027 H 
ATOM     42  H2  0MC d   1      25.766  15.269 -22.266  0.00  0.00     0.027 H 
ATOM     43  H3  0MC d   1      26.879  15.983 -23.481  0.00  0.00     0.027 H 
ENDBRANCH  37  40
ENDBRANCH  23  37
BRANCH  22  44
ATOM     44  OAI 0MC d   1      26.450  13.000 -21.262  0.00  0.00    -0.381 OA
ATOM     45  H15 0MC d   1      26.061  12.327 -20.715  0.00  0.00     0.211 HD
ENDBRANCH  22  44
ENDBRANCH  20  22
ENDBRANCH   5  20
ENDBRANCH   1   3
BRANCH   1  46
ATOM     46  OBF 0MC d   1      32.102  12.604 -19.077  0.00  0.00    -0.310 OA
BRANCH  46  47
ATOM     47  CBP 0MC d   1      33.287  12.146 -19.783  0.00  0.00     0.073 C 
ATOM     48  H25 0MC d   1      34.176  12.229 -19.140  0.00  0.00     0.091 H 
BRANCH  47  49
ATOM     49  CAZ 0MC d   1      33.502  13.062 -20.981  0.00  0.00    -0.033 C 
ATOM     50  H26 0MC d   1      33.407  14.109 -20.659  0.00  0.00     0.037 H 
ATOM     51  H27 0MC d   1      32.742  12.843 -21.746  0.00  0.00     0.037 H 
BRANCH  49  52
ATOM     52  CAV 0MC d   1      34.924  12.836 -21.587  0.00  0.00    -0.038 C 
ATOM     53  H28 0MC d   1      34.945  13.297 -22.586  0.00  0.00     0.040 H 
ATOM     54  H29 0MC d   1      35.086  11.752 -21.680  0.00  0.00     0.040 H 
BRANCH  52  55
ATOM     55  CBK 0MC d   1      36.108  13.432 -20.754  0.00  0.00    -0.055 A 
ATOM     56  CAO 0MC d   1      36.328  14.817 -20.783  0.00  0.00    -0.042 A 
ATOM     57  CBO 0MC d   1      37.374  15.377 -20.038  0.00  0.00     0.102 A 
ATOM     58  H30 0MC d   1      35.688  15.455 -21.382  0.00  0.00     0.088 H 
ATOM     59  CBN 0MC d   1      38.210  14.564 -19.282  0.00  0.00     0.101 A 
ATOM     60  CAN 0MC d   1      37.994  13.174 -19.241  0.00  0.00    -0.048 A 
ATOM     61  CAM 0MC d   1      36.939  12.630 -19.990  0.00  0.00    -0.074 A 
ATOM     62  H32 0MC d   1      38.632  12.534 -18.641  0.00  0.00     0.087 H 
ATOM     63  H31 0MC d   1      36.771  11.559 -19.970  0.00  0.00     0.084 H 
BRANCH  57  64
ATOM     64  OBD 0MC d   1      37.655  16.717 -20.009  0.00  0.00    -0.353 OA
BRANCH  64  65
ATOM     65  CAC 0MC d   1      36.908  17.620 -20.860  0.00  0.00     0.010 C 
ATOM     66  H36 0MC d   1      37.265  18.649 -20.706  0.00  0.00     0.066 H 
ATOM     67  H37 0MC d   1      35.839  17.562 -20.608  0.00  0.00     0.066 H 
ATOM     68  H38 0MC d   1      37.052  17.335 -21.913  0.00  0.00     0.066 H 
ENDBRANCH  64  65
ENDBRANCH  57  64
BRANCH  59  69
ATOM     69  OBC 0MC d   1      39.225  15.209 -18.592  0.00  0.00    -0.353 OA
BRANCH  69  70
ATOM     70  CAB 0MC d   1      40.200  14.358 -17.945  0.00  0.00     0.010 C 
ATOM     71  H33 0MC d   1      40.949  14.981 -17.434  0.00  0.00     0.066 H 
ATOM     72  H34 0MC d   1      40.698  13.731 -18.700  0.00  0.00     0.066 H 
ATOM     73  H35 0MC d   1      39.695  13.715 -17.209  0.00  0.00     0.066 H 
ENDBRANCH  69  70
ENDBRANCH  59  69
ENDBRANCH  52  55
ENDBRANCH  49  52
ENDBRANCH  47  49
BRANCH  47  74
ATOM     74  CBM 0MC d   1      33.009  10.651 -20.030  0.00  0.00    -0.026 A 
ATOM     75  CAP 0MC d   1      33.724   9.733 -19.274  0.00  0.00    -0.042 A 
ATOM     76  CBL 0MC d   1      33.522   8.365 -19.412  0.00  0.00     0.070 A 
ATOM     77  H39 0MC d   1      34.457  10.091 -18.560  0.00  0.00     0.088 H 
ATOM     78  CAK 0MC d   1      32.585   7.923 -20.368  0.00  0.00    -0.051 A 
ATOM     79  CAJ 0MC d   1      31.871   8.843 -21.141  0.00  0.00    -0.080 A 
ATOM     80  H42 0MC d   1      32.417   6.861 -20.505  0.00  0.00     0.087 H 
ATOM     81  CAL 0MC d   1      32.065  10.219 -20.983  0.00  0.00    -0.074 A 
ATOM     82  H41 0MC d   1      31.157   8.485 -21.873  0.00  0.00     0.083 H 
ATOM     83  H40 0MC d   1      31.505  10.933 -21.577  0.00  0.00     0.084 H 
BRANCH  76  84
ATOM     84  OBE 0MC d   1      34.282   7.543 -18.572  0.00  0.00    -0.341 OA
BRANCH  84  85
ATOM     85  CAW 0MC d   1      33.934   6.127 -18.446  0.00  0.00     0.105 C 
ATOM     86  H43 0MC d   1      32.844   6.014 -18.346  0.00  0.00     0.091 H 
ATOM     87  H44 0MC d   1      34.430   5.694 -17.565  0.00  0.00     0.091 H 
BRANCH  85  88
ATOM     88  CBG 0MC d   1      34.422   5.424 -19.724  0.00  0.00     0.198 C 
ATOM     89  OAH 0MC d   1      35.347   5.964 -20.384  0.00  0.00    -0.646 OA
ATOM     90  OAD 0MC d   1      33.852   4.357 -20.050  0.00  0.00    -0.646 OA
ENDBRANCH  85  88
ENDBRANCH  84  85
ENDBRANCH  76  84
ENDBRANCH  47  74
ENDBRANCH  46  47
ENDBRANCH   1  46
TORSDOF 19
