REMARK  19 active torsions:
REMARK  status: ('A' for Active; 'I' for Inactive)
REMARK    1  A    between atoms: CAA_1  and  CAQ_2 
REMARK    2  A    between atoms: CAQ_2  and  CBQ_3 
REMARK    3  A    between atoms: CBT_8  and  OAI_9 
REMARK    4  A    between atoms: CBT_8  and  CBJ_10 
REMARK    5  A    between atoms: CBJ_10  and  CBI_12 
REMARK       I    between atoms: CBI_12  and  N_14 
REMARK    6  A    between atoms: CA_19  and  C_20 
REMARK    7  A    between atoms: C_20  and  OBF_22 
REMARK    8  A    between atoms: OBF_22  and  CBP_23 
REMARK    9  A    between atoms: CBP_23  and  CAZ_24 
REMARK   10  A    between atoms: CBP_23  and  CBM_36 
REMARK   11  A    between atoms: CAZ_24  and  CAV_25 
REMARK   12  A    between atoms: CAV_25  and  CBK_26 
REMARK   13  A    between atoms: CBN_30  and  OBC_31 
REMARK   14  A    between atoms: OBC_31  and  CAB_32 
REMARK   15  A    between atoms: CBO_33  and  OBD_34 
REMARK   16  A    between atoms: OBD_34  and  CAC_35 
REMARK   17  A    between atoms: CBL_41  and  OBE_42 
REMARK   18  A    between atoms: OBE_42  and  CAW_43 
REMARK   19  A    between atoms: CAW_43  and  CBG_44 
ROOT
ATOM      1  C   0MC d   1      10.343  -2.353  -8.248  0.00  0.00     0.282 C 
ATOM      2  O   0MC d   1      11.484  -2.649  -7.981  0.00  0.00    -0.263 OA
ENDROOT
BRANCH   1   3
ATOM      3  CA  0MC d   1       9.240  -2.443  -7.218  0.00  0.00     0.099 C 
ATOM      4  N   0MC d   1       7.893  -2.327  -7.809  0.00  0.00    -0.332 N 
ATOM      5  CBI 0MC d   1       7.213  -1.194  -7.625  0.00  0.00     0.293 C 
ATOM      6  CBA 0MC d   1       7.363  -3.477  -8.569  0.00  0.00    -0.001 C 
ATOM      7  OAF 0MC d   1       7.673  -0.240  -6.996  0.00  0.00    -0.264 OA
ATOM      8  CAT 0MC d   1       7.521  -4.784  -7.792  0.00  0.00    -0.050 C 
ATOM      9  H16 0MC d   1       7.909  -3.559  -9.520  0.00  0.00     0.064 H 
ATOM     10  H17 0MC d   1       6.295  -3.309  -8.772  0.00  0.00     0.064 H 
ATOM     11  CAR 0MC d   1       8.967  -4.934  -7.348  0.00  0.00    -0.061 C 
ATOM     12  H18 0MC d   1       7.245  -5.631  -8.438  0.00  0.00     0.035 H 
ATOM     13  H19 0MC d   1       6.865  -4.768  -6.909  0.00  0.00     0.035 H 
ATOM     14  CB  0MC d   1       9.364  -3.787  -6.461  0.00  0.00    -0.037 C 
ATOM     15  H20 0MC d   1       9.619  -4.949  -8.234  0.00  0.00     0.033 H 
ATOM     16  H21 0MC d   1       9.080  -5.877  -6.793  0.00  0.00     0.033 H 
ATOM     17  H22 0MC d   1      10.406  -3.925  -6.137  0.00  0.00     0.036 H 
ATOM     18  H23 0MC d   1       8.706  -3.767  -5.580  0.00  0.00     0.036 H 
ATOM     19  H24 0MC d   1       9.371  -1.619  -6.502  0.00  0.00     0.088 H 
BRANCH   5  20
ATOM     20  CBJ 0MC d   1       5.796  -1.060  -8.127  0.00  0.00     0.251 C 
ATOM     21  OAG 0MC d   1       4.927  -1.576  -7.413  0.00  0.00    -0.284 OA
BRANCH  20  22
ATOM     22  CBT 0MC d   1       5.467  -0.338  -9.445  0.00  0.00     0.131 C 
ATOM     23  CBQ 0MC d   1       6.083   1.053  -9.498  0.00  0.00    -0.017 C 
ATOM     24  CAX 0MC d   1       5.853   1.683 -10.899  0.00  0.00    -0.059 C 
ATOM     25  H6  0MC d   1       7.159   0.996  -9.275  0.00  0.00     0.045 H 
ATOM     26  CAS 0MC d   1       6.449   0.780 -12.001  0.00  0.00    -0.064 C 
ATOM     27  H7  0MC d   1       6.339   2.669 -10.937  0.00  0.00     0.033 H 
ATOM     28  H8  0MC d   1       4.773   1.799 -11.071  0.00  0.00     0.033 H 
ATOM     29  CAU 0MC d   1       5.811  -0.605 -11.946  0.00  0.00    -0.062 C 
ATOM     30  H9  0MC d   1       7.534   0.687 -11.848  0.00  0.00     0.033 H 
ATOM     31  H10 0MC d   1       6.255   1.231 -12.985  0.00  0.00     0.033 H 
ATOM     32  CBB 0MC d   1       6.022  -1.227 -10.569  0.00  0.00    -0.029 C 
ATOM     33  H11 0MC d   1       6.272  -1.248 -12.710  0.00  0.00     0.033 H 
ATOM     34  H12 0MC d   1       4.732  -0.516 -12.143  0.00  0.00     0.033 H 
ATOM     35  H13 0MC d   1       7.100  -1.373 -10.407  0.00  0.00     0.038 H 
ATOM     36  H14 0MC d   1       5.511  -2.201 -10.537  0.00  0.00     0.038 H 
BRANCH  23  37
ATOM     37  CAQ 0MC d   1       5.380   1.942  -8.498  0.00  0.00    -0.062 C 
ATOM     38  H4  0MC d   1       4.303   1.954  -8.721  0.00  0.00     0.033 H 
ATOM     39  H5  0MC d   1       5.540   1.543  -7.486  0.00  0.00     0.033 H 
BRANCH  37  40
ATOM     40  CAA 0MC d   1       5.918   3.358  -8.566  0.00  0.00    -0.076 C 
ATOM     41  H1  0MC d   1       5.393   3.986  -7.831  0.00  0.00     0.027 H 
ATOM     42  H2  0MC d   1       5.757   3.763  -9.576  0.00  0.00     0.027 H 
ATOM     43  H3  0MC d   1       6.995   3.353  -8.341  0.00  0.00     0.027 H 
ENDBRANCH  37  40
ENDBRANCH  23  37
BRANCH  22  44
ATOM     44  OAI 0MC d   1       4.036  -0.225  -9.568  0.00  0.00    -0.381 OA
ATOM     45  H15 0MC d   1       3.645  -1.089  -9.507  0.00  0.00     0.211 HD
ENDBRANCH  22  44
ENDBRANCH  20  22
ENDBRANCH   5  20
ENDBRANCH   1   3
BRANCH   1  46
ATOM     46  OBF 0MC d   1       9.957  -1.895  -9.441  0.00  0.00    -0.310 OA
BRANCH  46  47
ATOM     47  CBP 0MC d   1      10.987  -1.815 -10.470  0.00  0.00     0.073 C 
ATOM     48  H25 0MC d   1      11.942  -2.185 -10.069  0.00  0.00     0.091 H 
BRANCH  47  49
ATOM     49  CAZ 0MC d   1      11.169  -0.360 -10.854  0.00  0.00    -0.033 C 
ATOM     50  H26 0MC d   1      11.252   0.243  -9.938  0.00  0.00     0.037 H 
ATOM     51  H27 0MC d   1      10.292  -0.031 -11.431  0.00  0.00     0.037 H 
BRANCH  49  52
ATOM     52  CAV 0MC d   1      12.422  -0.154 -11.697  0.00  0.00    -0.038 C 
ATOM     53  H28 0MC d   1      12.400   0.864 -12.113  0.00  0.00     0.040 H 
ATOM     54  H29 0MC d   1      12.416  -0.886 -12.518  0.00  0.00     0.040 H 
BRANCH  52  55
ATOM     55  CBK 0MC d   1      13.715  -0.327 -10.902  0.00  0.00    -0.055 A 
ATOM     56  CAO 0MC d   1      14.123   0.650 -10.000  0.00  0.00    -0.042 A 
ATOM     57  CBO 0MC d   1      15.322   0.525  -9.283  0.00  0.00     0.102 A 
ATOM     58  H30 0MC d   1      13.502   1.525  -9.848  0.00  0.00     0.088 H 
ATOM     59  CBN 0MC d   1      16.139  -0.590  -9.488  0.00  0.00     0.101 A 
ATOM     60  CAN 0MC d   1      15.758  -1.584 -10.389  0.00  0.00    -0.048 A 
ATOM     61  CAM 0MC d   1      14.559  -1.428 -11.104  0.00  0.00    -0.074 A 
ATOM     62  H32 0MC d   1      16.377  -2.462 -10.535  0.00  0.00     0.087 H 
ATOM     63  H31 0MC d   1      14.278  -2.180 -11.832  0.00  0.00     0.084 H 
BRANCH  57  64
ATOM     64  OBD 0MC d   1      15.784   1.430  -8.379  0.00  0.00    -0.353 OA
BRANCH  64  65
ATOM     65  CAC 0MC d   1      15.040   2.639  -8.196  0.00  0.00     0.010 C 
ATOM     66  H36 0MC d   1      15.536   3.264  -7.439  0.00  0.00     0.066 H 
ATOM     67  H37 0MC d   1      14.021   2.395  -7.860  0.00  0.00     0.066 H 
ATOM     68  H38 0MC d   1      14.991   3.187  -9.148  0.00  0.00     0.066 H 
ENDBRANCH  64  65
ENDBRANCH  57  64
BRANCH  59  69
ATOM     69  OBC 0MC d   1      17.286  -0.615  -8.765  0.00  0.00    -0.353 OA
BRANCH  69  70
ATOM     70  CAB 0MC d   1      18.276  -1.654  -9.020  0.00  0.00     0.010 C 
ATOM     71  H33 0MC d   1      19.134  -1.517  -8.345  0.00  0.00     0.066 H 
ATOM     72  H34 0MC d   1      18.617  -1.587 -10.064  0.00  0.00     0.066 H 
ATOM     73  H35 0MC d   1      17.825  -2.642  -8.844  0.00  0.00     0.066 H 
ENDBRANCH  69  70
ENDBRANCH  59  69
ENDBRANCH  52  55
ENDBRANCH  49  52
ENDBRANCH  47  49
BRANCH  47  74
ATOM     74  CBM 0MC d   1      10.562  -2.722 -11.595  0.00  0.00    -0.026 A 
ATOM     75  CAP 0MC d   1       9.470  -2.461 -12.371  0.00  0.00    -0.042 A 
ATOM     76  CBL 0MC d   1       9.161  -3.383 -13.364  0.00  0.00     0.070 A 
ATOM     77  H39 0MC d   1       8.869  -1.572 -12.219  0.00  0.00     0.088 H 
ATOM     78  CAK 0MC d   1       9.920  -4.525 -13.537  0.00  0.00    -0.051 A 
ATOM     79  CAJ 0MC d   1      10.997  -4.813 -12.737  0.00  0.00    -0.080 A 
ATOM     80  H42 0MC d   1       9.656  -5.215 -14.330  0.00  0.00     0.087 H 
ATOM     81  CAL 0MC d   1      11.284  -3.888 -11.766  0.00  0.00    -0.074 A 
ATOM     82  H41 0MC d   1      11.584  -5.715 -12.864  0.00  0.00     0.083 H 
ATOM     83  H40 0MC d   1      12.118  -4.081 -11.100  0.00  0.00     0.084 H 
BRANCH  76  84
ATOM     84  OBE 0MC d   1       8.157  -3.081 -14.183  0.00  0.00    -0.341 OA
BRANCH  84  85
ATOM     85  CAW 0MC d   1       7.921  -3.968 -15.257  0.00  0.00     0.105 C 
ATOM     86  H43 0MC d   1       6.953  -3.691 -15.700  0.00  0.00     0.091 H 
ATOM     87  H44 0MC d   1       7.853  -4.981 -14.832  0.00  0.00     0.091 H 
BRANCH  85  88
ATOM     88  CBG 0MC d   1       8.943  -4.025 -16.402  0.00  0.00     0.198 C 
ATOM     89  OAH 0MC d   1       8.771  -4.989 -17.186  0.00  0.00    -0.646 OA
ATOM     90  OAD 0MC d   1       9.876  -3.173 -16.529  0.00  0.00    -0.646 OA
ENDBRANCH  85  88
ENDBRANCH  84  85
ENDBRANCH  76  84
ENDBRANCH  47  74
ENDBRANCH  46  47
ENDBRANCH   1  46
TORSDOF 19
