REMARK  16 active torsions:
REMARK  status: ('A' for Active; 'I' for Inactive)
REMARK    1  A    between atoms: CAA_1  and  CAQ_2 
REMARK    2  A    between atoms: CAQ_2  and  CBQ_3 
REMARK    3  A    between atoms: CBT_8  and  OAI_9 
REMARK    4  A    between atoms: CBT_8  and  CBJ_10 
REMARK    5  A    between atoms: CBJ_10  and  CBI_12 
REMARK       I    between atoms: CBI_12  and  N_14 
REMARK    6  A    between atoms: CA_19  and  C_20 
REMARK    7  A    between atoms: C_20  and  OBF_22 
REMARK    8  A    between atoms: OBF_22  and  CBP_23 
REMARK    9  A    between atoms: CBP_23  and  CAZ_24 
REMARK   10  A    between atoms: CBP_23  and  CBM_36 
REMARK   11  A    between atoms: CAZ_24  and  CAV_25 
REMARK   12  A    between atoms: CAV_25  and  CBK_26 
REMARK   13  A    between atoms: CBN_30  and  OBC_31 
REMARK   14  A    between atoms: OBC_31  and  CAB_32 
REMARK   15  A    between atoms: CBO_33  and  OBD_34 
REMARK   16  A    between atoms: OBD_34  and  CAC_35 
ROOT
ATOM      1  CBI 0MD d   1      29.086  14.090 -18.634  0.00  0.00     0.293 C 
ATOM      2  OAF 0MD d   1      29.301  15.292 -18.789  0.00  0.00    -0.264 OA
ATOM      3  N   0MD d   1      29.819  13.288 -17.854  0.00  0.00    -0.332 N 
ATOM      4  CBA 0MD d   1      29.475  11.837 -17.673  0.00  0.00    -0.001 C 
ATOM      5  CAT 0MD d   1      29.483  11.481 -16.191  0.00  0.00    -0.050 C 
ATOM      6  CAR 0MD d   1      30.793  11.914 -15.536  0.00  0.00    -0.061 C 
ATOM      7  CB  0MD d   1      31.014  13.405 -15.688  0.00  0.00    -0.037 C 
ATOM      8  CA  0MD d   1      31.007  13.819 -17.157  0.00  0.00     0.099 C 
ATOM      9  H   0MD d   1      30.213  11.226 -18.193  0.00  0.00     0.064 H 
ATOM     10  H   0MD d   1      28.482  11.650 -18.082  0.00  0.00     0.064 H 
ATOM     11  H   0MD d   1      29.379  10.401 -16.088  0.00  0.00     0.035 H 
ATOM     12  H   0MD d   1      28.658  11.998 -15.701  0.00  0.00     0.035 H 
ATOM     13  H   0MD d   1      31.615  11.389 -16.022  0.00  0.00     0.033 H 
ATOM     14  H   0MD d   1      30.747  11.675 -14.473  0.00  0.00     0.033 H 
ATOM     15  H   0MD d   1      31.984  13.658 -15.261  0.00  0.00     0.036 H 
ATOM     16  H   0MD d   1      30.208  13.930 -15.176  0.00  0.00     0.036 H 
ATOM     17  H   0MD d   1      30.947  14.905 -17.232  0.00  0.00     0.088 H 
ENDROOT
BRANCH   8  18
ATOM     18  C   0MD d   1      32.291  13.360 -17.799  0.00  0.00     0.282 C 
ATOM     19  O   0MD d   1      33.368  13.594 -17.298  0.00  0.00    -0.263 OA
BRANCH  18  20
ATOM     20  OBF 0MD d   1      32.159  12.691 -18.945  0.00  0.00    -0.310 OA
BRANCH  20  21
ATOM     21  CBP 0MD d   1      33.354  12.238 -19.604  0.00  0.00     0.073 C 
ATOM     22  H   0MD d   1      34.252  12.264 -18.987  0.00  0.00     0.091 H 
BRANCH  21  23
ATOM     23  CAZ 0MD d   1      33.666  13.170 -20.776  0.00  0.00    -0.033 C 
ATOM     24  H   0MD d   1      33.630  14.199 -20.418  0.00  0.00     0.037 H 
ATOM     25  H   0MD d   1      32.931  12.995 -21.562  0.00  0.00     0.037 H 
BRANCH  23  26
ATOM     26  CAV 0MD d   1      35.062  12.904 -21.349  0.00  0.00    -0.038 C 
ATOM     27  H   0MD d   1      35.090  13.340 -22.348  0.00  0.00     0.040 H 
ATOM     28  H   0MD d   1      35.219  11.825 -21.331  0.00  0.00     0.040 H 
BRANCH  26  29
ATOM     29  CBK 0MD d   1      36.196  13.540 -20.546  0.00  0.00    -0.055 A 
ATOM     30  CAO 0MD d   1      36.396  14.924 -20.547  0.00  0.00    -0.042 A 
ATOM     31  CBO 0MD d   1      37.429  15.494 -19.808  0.00  0.00     0.102 A 
ATOM     32  H   0MD d   1      35.736  15.564 -21.133  0.00  0.00     0.088 H 
ATOM     33  CBN 0MD d   1      38.294  14.678 -19.050  0.00  0.00     0.101 A 
ATOM     34  CAN 0MD d   1      38.085  13.309 -19.031  0.00  0.00    -0.048 A 
ATOM     35  CAM 0MD d   1      37.033  12.748 -19.772  0.00  0.00    -0.074 A 
ATOM     36  H   0MD d   1      38.738  12.667 -18.440  0.00  0.00     0.087 H 
ATOM     37  H   0MD d   1      36.870  11.671 -19.739  0.00  0.00     0.084 H 
BRANCH  31  38
ATOM     38  OBD 0MD d   1      37.717  16.830 -19.765  0.00  0.00    -0.353 OA
BRANCH  38  39
ATOM     39  CAC 0MD d   1      36.992  17.696 -20.687  0.00  0.00     0.010 C 
ATOM     40  H   0MD d   1      37.196  17.386 -21.712  0.00  0.00     0.066 H 
ATOM     41  H   0MD d   1      35.923  17.621 -20.489  0.00  0.00     0.066 H 
ATOM     42  H   0MD d   1      37.317  18.727 -20.547  0.00  0.00     0.066 H 
ENDBRANCH  38  39
ENDBRANCH  31  38
BRANCH  33  43
ATOM     43  OBC 0MD d   1      39.291  15.317 -18.372  0.00  0.00    -0.353 OA
BRANCH  43  44
ATOM     44  CAB 0MD d   1      40.261  14.464 -17.757  0.00  0.00     0.010 C 
ATOM     45  H   0MD d   1      39.766  13.813 -17.036  0.00  0.00     0.066 H 
ATOM     46  H   0MD d   1      40.747  13.858 -18.522  0.00  0.00     0.066 H 
ATOM     47  H   0MD d   1      41.007  15.073 -17.246  0.00  0.00     0.066 H 
ENDBRANCH  43  44
ENDBRANCH  33  43
ENDBRANCH  26  29
ENDBRANCH  23  26
ENDBRANCH  21  23
BRANCH  21  48
ATOM     48  CBM 0MD d   1      33.064  10.790 -19.991  0.00  0.00    -0.029 A 
ATOM     49  CAP 0MD d   1      31.955  10.495 -20.781  0.00  0.00    -0.074 A 
ATOM     50  CBL 0MD d   1      31.672   9.186 -21.148  0.00  0.00    -0.082 A 
ATOM     51  H   0MD d   1      31.302  11.301 -21.115  0.00  0.00     0.084 H 
ATOM     52  CAK 0MD d   1      32.498   8.164 -20.708  0.00  0.00    -0.083 A 
ATOM     53  H   0MD d   1      30.809   8.965 -21.776  0.00  0.00     0.083 H 
ATOM     54  CAJ 0MD d   1      33.586   8.466 -19.919  0.00  0.00    -0.082 A 
ATOM     55  H   0MD d   1      32.289   7.130 -20.984  0.00  0.00     0.083 H 
ATOM     56  CAL 0MD d   1      33.889   9.763 -19.552  0.00  0.00    -0.074 A 
ATOM     57  H   0MD d   1      34.228   7.656 -19.573  0.00  0.00     0.083 H 
ATOM     58  H   0MD d   1      34.758   9.976 -18.930  0.00  0.00     0.084 H 
ENDBRANCH  21  48
ENDBRANCH  20  21
ENDBRANCH  18  20
ENDBRANCH   8  18
BRANCH   1  59
ATOM     59  CBJ 0MD d   1      27.879  13.523 -19.375  0.00  0.00     0.251 C 
ATOM     60  OAG 0MD d   1      26.811  13.534 -18.779  0.00  0.00    -0.284 OA
BRANCH  59  61
ATOM     61  CBT 0MD d   1      28.058  12.919 -20.813  0.00  0.00     0.131 C 
ATOM     62  CBQ 0MD d   1      27.112  13.637 -21.803  0.00  0.00    -0.017 C 
ATOM     63  CAX 0MD d   1      27.243  13.008 -23.202  0.00  0.00    -0.059 C 
ATOM     64  H   0MD d   1      26.078  13.508 -21.483  0.00  0.00     0.045 H 
ATOM     65  CAS 0MD d   1      26.806  11.547 -23.138  0.00  0.00    -0.064 C 
ATOM     66  H   0MD d   1      28.280  13.066 -23.534  0.00  0.00     0.033 H 
ATOM     67  H   0MD d   1      26.611  13.548 -23.907  0.00  0.00     0.033 H 
ATOM     68  CAU 0MD d   1      27.713  10.751 -22.175  0.00  0.00    -0.062 C 
ATOM     69  H   0MD d   1      26.881  11.112 -24.135  0.00  0.00     0.033 H 
ATOM     70  H   0MD d   1      25.779  11.501 -22.776  0.00  0.00     0.033 H 
ATOM     71  CBB 0MD d   1      27.759  11.393 -20.780  0.00  0.00    -0.029 C 
ATOM     72  H   0MD d   1      28.724  10.742 -22.583  0.00  0.00     0.033 H 
ATOM     73  H   0MD d   1      27.310   9.743 -22.077  0.00  0.00     0.033 H 
ATOM     74  H   0MD d   1      28.563  10.912 -20.223  0.00  0.00     0.038 H 
ATOM     75  H   0MD d   1      26.778  11.260 -20.324  0.00  0.00     0.038 H 
BRANCH  62  76
ATOM     76  CAQ 0MD d   1      27.396  15.150 -21.809  0.00  0.00    -0.062 C 
ATOM     77  H   0MD d   1      27.398  15.513 -20.781  0.00  0.00     0.033 H 
ATOM     78  H   0MD d   1      28.363  15.326 -22.280  0.00  0.00     0.033 H 
BRANCH  76  79
ATOM     79  CAA 0MD d   1      26.314  15.900 -22.600  0.00  0.00    -0.076 C 
ATOM     80  H   0MD d   1      26.301  15.538 -23.628  0.00  0.00     0.027 H 
ATOM     81  H   0MD d   1      25.342  15.724 -22.140  0.00  0.00     0.027 H 
ATOM     82  H   0MD d   1      26.534  16.968 -22.592  0.00  0.00     0.027 H 
ENDBRANCH  76  79
ENDBRANCH  62  76
BRANCH  61  83
ATOM     83  OAI 0MD d   1      29.460  13.042 -21.197  0.00  0.00    -0.381 OA
ATOM     84  H   0MD d   1      29.590  12.643 -22.060  0.00  0.00     0.211 HD
ENDBRANCH  61  83
ENDBRANCH  59  61
ENDBRANCH   1  59
TORSDOF 16
