REMARK  19 active torsions:
REMARK  status: ('A' for Active; 'I' for Inactive)
REMARK    1  A    between atoms: CAA_1  and  CAQ_2 
REMARK    2  A    between atoms: CAQ_2  and  CBQ_3 
REMARK    3  A    between atoms: CBT_8  and  OAI_9 
REMARK    4  A    between atoms: CBT_8  and  CBJ_10 
REMARK    5  A    between atoms: CBJ_10  and  CBI_12 
REMARK       I    between atoms: CBI_12  and  N_14 
REMARK    6  A    between atoms: CA_19  and  C_20 
REMARK    7  A    between atoms: C_20  and  OBF_22 
REMARK    8  A    between atoms: OBF_22  and  CBP_23 
REMARK    9  A    between atoms: CBP_23  and  CAZ_24 
REMARK   10  A    between atoms: CBP_23  and  CBM_36 
REMARK   11  A    between atoms: CAZ_24  and  CAV_25 
REMARK   12  A    between atoms: CAV_25  and  CBK_26 
REMARK   13  A    between atoms: CBN_30  and  OBC_31 
REMARK   14  A    between atoms: OBC_31  and  CAB_32 
REMARK   15  A    between atoms: CBO_33  and  OBD_34 
REMARK   16  A    between atoms: OBD_34  and  CAC_35 
REMARK   17  A    between atoms: CBL_41  and  OBE_42 
REMARK   18  A    between atoms: OBE_42  and  CAW_43 
REMARK   19  A    between atoms: CAW_43  and  CBG_44 
ROOT
ATOM      1  C   0MD d   1       0.437   5.109  10.263  0.00  0.00     0.282 C 
ATOM      2  O   0MD d   1      -0.751   5.437  10.104  0.00  0.00    -0.263 OA
ENDROOT
BRANCH   1   3
ATOM      3  CA  0MD d   1       1.569   6.160  10.188  0.00  0.00     0.099 C 
ATOM      4  N   0MD d   1       2.906   5.495  10.222  0.00  0.00    -0.332 N 
ATOM      5  CBI 0MD d   1       3.682   5.545  11.321  0.00  0.00     0.293 C 
ATOM      6  CBA 0MD d   1       3.391   4.710   9.039  0.00  0.00    -0.001 C 
ATOM      7  OAF 0MD d   1       3.322   6.183  12.317  0.00  0.00    -0.264 OA
ATOM      8  CAT 0MD d   1       3.258   5.574   7.790  0.00  0.00    -0.050 C 
ATOM      9  H16 0MD d   1       2.784   3.800   8.925  0.00  0.00     0.064 H 
ATOM     10  H17 0MD d   1       4.445   4.432   9.186  0.00  0.00     0.064 H 
ATOM     11  CAR 0MD d   1       1.819   6.109   7.672  0.00  0.00    -0.061 C 
ATOM     12  H18 0MD d   1       3.496   4.970   6.902  0.00  0.00     0.035 H 
ATOM     13  H19 0MD d   1       3.957   6.420   7.856  0.00  0.00     0.035 H 
ATOM     14  CB  0MD d   1       1.428   6.969   8.886  0.00  0.00    -0.037 C 
ATOM     15  H20 0MD d   1       1.127   5.257   7.602  0.00  0.00     0.033 H 
ATOM     16  H21 0MD d   1       1.740   6.721   6.762  0.00  0.00     0.033 H 
ATOM     17  H22 0MD d   1       0.384   7.298   8.775  0.00  0.00     0.036 H 
ATOM     18  H23 0MD d   1       2.087   7.849   8.934  0.00  0.00     0.036 H 
ATOM     19  H24 0MD d   1       1.485   6.840  11.049  0.00  0.00     0.088 H 
BRANCH   5  20
ATOM     20  CBJ 0MD d   1       5.032   4.806  11.371  0.00  0.00     0.251 C 
ATOM     21  OAG 0MD d   1       6.072   5.417  11.101  0.00  0.00    -0.284 OA
BRANCH  20  22
ATOM     22  CBT 0MD d   1       5.060   3.329  11.874  0.00  0.00     0.131 C 
ATOM     23  CBQ 0MD d   1       5.944   3.275  13.138  0.00  0.00    -0.017 C 
ATOM     24  CAX 0MD d   1       6.154   1.810  13.621  0.00  0.00    -0.059 C 
ATOM     25  H6  0MD d   1       6.930   3.686  12.875  0.00  0.00     0.045 H 
ATOM     26  CAS 0MD d   1       6.689   0.912  12.491  0.00  0.00    -0.064 C 
ATOM     27  H7  0MD d   1       5.192   1.408  13.971  0.00  0.00     0.033 H 
ATOM     28  H8  0MD d   1       6.876   1.808  14.451  0.00  0.00     0.033 H 
ATOM     29  CAU 0MD d   1       5.780   0.953  11.255  0.00  0.00    -0.062 C 
ATOM     30  H9  0MD d   1       6.747  -0.124  12.856  0.00  0.00     0.033 H 
ATOM     31  H10 0MD d   1       7.694   1.258  12.206  0.00  0.00     0.033 H 
ATOM     32  CBB 0MD d   1       5.587   2.399  10.757  0.00  0.00    -0.029 C 
ATOM     33  H11 0MD d   1       4.799   0.529  11.516  0.00  0.00     0.033 H 
ATOM     34  H12 0MD d   1       6.237   0.355  10.453  0.00  0.00     0.033 H 
ATOM     35  H13 0MD d   1       4.865   2.396   9.927  0.00  0.00     0.038 H 
ATOM     36  H14 0MD d   1       6.554   2.784  10.400  0.00  0.00     0.038 H 
BRANCH  23  37
ATOM     37  CAQ 0MD d   1       5.353   4.149  14.262  0.00  0.00    -0.062 C 
ATOM     38  H4  0MD d   1       5.137   5.148  13.854  0.00  0.00     0.033 H 
ATOM     39  H5  0MD d   1       4.419   3.687  14.613  0.00  0.00     0.033 H 
BRANCH  37  40
ATOM     40  CAA 0MD d   1       6.308   4.302  15.462  0.00  0.00    -0.076 C 
ATOM     41  H1  0MD d   1       5.835   4.933  16.229  0.00  0.00     0.027 H 
ATOM     42  H2  0MD d   1       7.245   4.772  15.128  0.00  0.00     0.027 H 
ATOM     43  H3  0MD d   1       6.526   3.311  15.886  0.00  0.00     0.027 H 
ENDBRANCH  37  40
ENDBRANCH  23  37
BRANCH  22  44
ATOM     44  OAI 0MD d   1       3.733   2.882  12.196  0.00  0.00    -0.381 OA
ATOM     45  H15 0MD d   1       3.373   3.431  12.882  0.00  0.00     0.211 HD
ENDBRANCH  22  44
ENDBRANCH  20  22
ENDBRANCH   5  20
ENDBRANCH   1   3
BRANCH   1  46
ATOM     46  OBF 0MD d   1       0.787   3.810  10.532  0.00  0.00    -0.310 OA
BRANCH  46  47
ATOM     47  CBP 0MD d   1      -0.263   2.790  10.576  0.00  0.00     0.073 C 
ATOM     48  H25 0MD d   1      -1.195   3.148  10.115  0.00  0.00     0.091 H 
BRANCH  47  49
ATOM     49  CAZ 0MD d   1      -0.483   2.507  12.041  0.00  0.00    -0.033 C 
ATOM     50  H26 0MD d   1      -0.525   3.459  12.591  0.00  0.00     0.037 H 
ATOM     51  H27 0MD d   1       0.352   1.901  12.421  0.00  0.00     0.037 H 
BRANCH  49  52
ATOM     52  CAV 0MD d   1      -1.788   1.749  12.251  0.00  0.00    -0.038 C 
ATOM     53  H28 0MD d   1      -1.746   1.262  13.237  0.00  0.00     0.040 H 
ATOM     54  H29 0MD d   1      -1.869   0.982  11.466  0.00  0.00     0.040 H 
BRANCH  52  55
ATOM     55  CBK 0MD d   1      -3.064   2.627  12.200  0.00  0.00    -0.055 A 
ATOM     56  CAO 0MD d   1      -3.383   3.522  13.234  0.00  0.00    -0.042 A 
ATOM     57  CBO 0MD d   1      -4.546   4.305  13.195  0.00  0.00     0.102 A 
ATOM     58  H30 0MD d   1      -2.714   3.610  14.083  0.00  0.00     0.088 H 
ATOM     59  CBN 0MD d   1      -5.405   4.160  12.093  0.00  0.00     0.101 A 
ATOM     60  CAN 0MD d   1      -5.107   3.253  11.049  0.00  0.00    -0.048 A 
ATOM     61  CAM 0MD d   1      -3.925   2.491  11.114  0.00  0.00    -0.074 A 
ATOM     62  H32 0MD d   1      -5.782   3.146  10.207  0.00  0.00     0.087 H 
ATOM     63  H31 0MD d   1      -3.685   1.797  10.317  0.00  0.00     0.084 H 
BRANCH  57  64
ATOM     64  OBD 0MD d   1      -4.910   5.216  14.182  0.00  0.00    -0.353 OA
BRANCH  64  65
ATOM     65  CAC 0MD d   1      -4.187   5.212  15.440  0.00  0.00     0.010 C 
ATOM     66  H36 0MD d   1      -4.599   5.988  16.102  0.00  0.00     0.066 H 
ATOM     67  H37 0MD d   1      -3.123   5.418  15.252  0.00  0.00     0.066 H 
ATOM     68  H38 0MD d   1      -4.291   4.228  15.920  0.00  0.00     0.066 H 
ENDBRANCH  64  65
ENDBRANCH  57  64
BRANCH  59  69
ATOM     69  OBC 0MD d   1      -6.535   4.926  12.065  0.00  0.00    -0.353 OA
BRANCH  69  70
ATOM     70  CAB 0MD d   1      -7.643   4.432  11.250  0.00  0.00     0.010 C 
ATOM     71  H33 0MD d   1      -8.486   5.136  11.312  0.00  0.00     0.066 H 
ATOM     72  H34 0MD d   1      -7.960   3.446  11.621  0.00  0.00     0.066 H 
ATOM     73  H35 0MD d   1      -7.317   4.343  10.203  0.00  0.00     0.066 H 
ENDBRANCH  69  70
ENDBRANCH  59  69
ENDBRANCH  52  55
ENDBRANCH  49  52
ENDBRANCH  47  49
BRANCH  47  74
ATOM     74  CBM 0MD d   1       0.279   1.581   9.795  0.00  0.00    -0.026 A 
ATOM     75  CAP 0MD d   1       1.460   0.972  10.217  0.00  0.00    -0.042 A 
ATOM     76  CBL 0MD d   1       1.984  -0.116   9.526  0.00  0.00     0.070 A 
ATOM     77  H39 0MD d   1       1.975   1.350  11.092  0.00  0.00     0.088 H 
ATOM     78  CAK 0MD d   1       1.308  -0.592   8.400  0.00  0.00    -0.051 A 
ATOM     79  CAJ 0MD d   1       0.119   0.005   7.979  0.00  0.00    -0.080 A 
ATOM     80  H42 0MD d   1       1.711  -1.433   7.848  0.00  0.00     0.087 H 
ATOM     81  CAL 0MD d   1      -0.406   1.090   8.681  0.00  0.00    -0.074 A 
ATOM     82  H41 0MD d   1      -0.398  -0.375   7.105  0.00  0.00     0.083 H 
ATOM     83  H40 0MD d   1      -1.337   1.548   8.365  0.00  0.00     0.084 H 
BRANCH  76  84
ATOM     84  OBE 0MD d   1       3.144  -0.658  10.001  0.00  0.00    -0.341 OA
BRANCH  84  85
ATOM     85  CAW 0MD d   1       3.699  -1.745   9.213  0.00  0.00     0.105 C 
ATOM     86  H43 0MD d   1       4.766  -1.832   9.467  0.00  0.00     0.091 H 
ATOM     87  H44 0MD d   1       3.595  -1.476   8.151  0.00  0.00     0.091 H 
BRANCH  85  88
ATOM     88  CBG 0MD d   1       3.062  -3.117   9.409  0.00  0.00     0.198 C 
ATOM     89  OAH 0MD d   1       3.459  -4.027   8.654  0.00  0.00    -0.646 OA
ATOM     90  OAD 0MD d   1       2.165  -3.261  10.278  0.00  0.00    -0.646 OA
ENDBRANCH  85  88
ENDBRANCH  84  85
ENDBRANCH  76  84
ENDBRANCH  47  74
ENDBRANCH  46  47
ENDBRANCH   1  46
TORSDOF 19
