REMARK  5 active torsions:
REMARK  status: ('A' for Active; 'I' for Inactive)
REMARK    1  A    between atoms: N35_3  and  C38_4 
REMARK    2  A    between atoms: N31_9  and  C42_10 
REMARK    3  A    between atoms: C23_26  and  O25_27 
REMARK    4  A    between atoms: O25_27  and  C26_28 
REMARK    5  A    between atoms: C7_33  and  C10_37 
ROOT
ATOM      1  O36 0LN d   1      75.704 -13.106 -33.277  0.00  0.00    -0.268 OA
ATOM      2  C34 0LN d   1      76.709 -13.606 -32.813  0.00  0.00     0.251 C 
ATOM      3  N35 0LN d   1      77.645 -14.125 -33.719  0.00  0.00    -0.352 N 
ATOM      4  C37 0LN d   1      78.933 -14.778 -33.358  0.00  0.00    -0.003 C 
ATOM      5  C39 0LN d   1      80.016 -15.002 -34.440  0.00  0.00    -0.049 C 
ATOM      6  C40 0LN d   1      79.871 -16.391 -35.093  0.00  0.00    -0.052 C 
ATOM      7  C41 0LN d   1      81.082 -17.313 -34.842  0.00  0.00    -0.006 C 
ATOM      8  N31 0LN d   1      80.658 -18.745 -34.851  0.00  0.00    -0.197 NA
ATOM      9  S30 0LN d   1      80.785 -19.455 -33.356  0.00  0.00     0.305 S 
ATOM     10  O32 0LN d   1      79.720 -20.409 -33.190  0.00  0.00    -0.188 OA
ATOM     11  O33 0LN d   1      82.054 -20.116 -33.217  0.00  0.00    -0.188 OA
ATOM     12  N29 0LN d   1      80.596 -18.320 -32.205  0.00  0.00    -0.237 N 
ATOM     13  C27 0LN d   1      81.627 -17.760 -31.483  0.00  0.00     0.266 C 
ATOM     14  O28 0LN d   1      82.784 -18.048 -31.674  0.00  0.00    -0.267 OA
ATOM     15  C1  0LN d   1      81.261 -16.707 -30.549  0.00  0.00     0.035 A 
ATOM     16  C19 0LN d   1      76.829 -13.568 -31.329  0.00  0.00     0.029 C 
ATOM     17  C20 0LN d   1      77.186 -14.822 -30.513  0.00  0.00     0.029 C 
ATOM     18  N9  0LN d   1      78.390 -14.583 -29.725  0.00  0.00    -0.340 N 
ATOM     19  C5  0LN d   1      79.574 -15.187 -29.824  0.00  0.00     0.047 A 
ATOM     20  C6  0LN d   1      79.964 -16.217 -30.645  0.00  0.00    -0.041 A 
ATOM     21  C18 0LN d   1      76.649 -12.322 -30.810  0.00  0.00    -0.059 C 
ATOM     22  C17 0LN d   1      76.580 -12.078 -29.360  0.00  0.00    -0.020 A 
ATOM     23  C24 0LN d   1      75.548 -11.246 -28.952  0.00  0.00    -0.040 A 
ATOM     24  C23 0LN d   1      75.290 -11.038 -27.604  0.00  0.00     0.069 A 
ATOM     25  C22 0LN d   1      76.057 -11.689 -26.651  0.00  0.00    -0.050 A 
ATOM     26  C21 0LN d   1      77.068 -12.544 -27.055  0.00  0.00    -0.067 A 
ATOM     27  C16 0LN d   1      77.344 -12.754 -28.404  0.00  0.00     0.002 A 
ATOM     28  C8  0LN d   1      78.462 -13.656 -28.776  0.00  0.00     0.054 A 
ATOM     29  C7  0LN d   1      79.762 -13.661 -28.255  0.00  0.00    -0.014 A 
ATOM     30  C4  0LN d   1      80.446 -14.643 -28.932  0.00  0.00    -0.000 A 
ATOM     31  C3  0LN d   1      81.753 -15.101 -28.827  0.00  0.00    -0.069 A 
ATOM     32  C2  0LN d   1      82.167 -16.140 -29.653  0.00  0.00    -0.067 A 
ATOM     33  H   0LN d   1      78.651 -15.783 -33.043  0.00  0.00     0.064 H 
ATOM     34  H   0LN d   1      79.396 -14.094 -32.647  0.00  0.00     0.064 H 
ATOM     35  H   0LN d   1      80.997 -14.939 -33.969  0.00  0.00     0.035 H 
ATOM     36  H   0LN d   1      79.900 -14.241 -35.211  0.00  0.00     0.035 H 
ATOM     37  H   0LN d   1      79.788 -16.242 -36.170  0.00  0.00     0.034 H 
ATOM     38  H   0LN d   1      78.996 -16.871 -34.656  0.00  0.00     0.034 H 
ATOM     39  H   0LN d   1      81.512 -17.077 -33.869  0.00  0.00     0.057 H 
ATOM     40  H   0LN d   1      81.817 -17.156 -35.631  0.00  0.00     0.057 H 
ATOM     41  H   0LN d   1      79.648 -18.001 -32.004  0.00  0.00     0.183 HD
ATOM     42  H   0LN d   1      77.365 -15.653 -31.195  0.00  0.00     0.072 H 
ATOM     43  H   0LN d   1      76.361 -15.058 -29.841  0.00  0.00     0.072 H 
ATOM     44  H   0LN d   1      79.265 -16.645 -31.363  0.00  0.00     0.088 H 
ATOM     45  H   0LN d   1      76.553 -11.477 -31.491  0.00  0.00     0.086 H 
ATOM     46  H   0LN d   1      74.931 -10.748 -29.700  0.00  0.00     0.089 H 
ATOM     47  H   0LN d   1      75.865 -11.529 -25.590  0.00  0.00     0.087 H 
ATOM     48  H   0LN d   1      77.660 -13.064 -26.302  0.00  0.00     0.085 H 
ATOM     49  H   0LN d   1      82.442 -14.654 -28.110  0.00  0.00     0.085 H 
ATOM     50  H   0LN d   1      83.192 -16.509 -29.601  0.00  0.00     0.085 H 
ENDROOT
BRANCH  29  51
ATOM     51  C10 0LN d   1      80.340 -12.749 -27.174  0.00  0.00    -0.025 C 
ATOM     52  C15 0LN d   1      81.014 -13.490 -26.009  0.00  0.00    -0.058 C 
ATOM     53  C14 0LN d   1      81.520 -12.436 -25.006  0.00  0.00    -0.064 C 
ATOM     54  H   0LN d   1      81.846 -14.092 -26.375  0.00  0.00     0.034 H 
ATOM     55  H   0LN d   1      80.302 -14.160 -25.526  0.00  0.00     0.034 H 
ATOM     56  C13 0LN d   1      82.546 -11.520 -25.690  0.00  0.00    -0.065 C 
ATOM     57  H   0LN d   1      81.991 -12.938 -24.161  0.00  0.00     0.033 H 
ATOM     58  H   0LN d   1      80.679 -11.838 -24.656  0.00  0.00     0.033 H 
ATOM     59  C12 0LN d   1      81.860 -10.774 -26.844  0.00  0.00    -0.064 C 
ATOM     60  H   0LN d   1      83.371 -12.118 -26.078  0.00  0.00     0.033 H 
ATOM     61  H   0LN d   1      82.936 -10.802 -24.969  0.00  0.00     0.033 H 
ATOM     62  C11 0LN d   1      81.341 -11.798 -27.857  0.00  0.00    -0.058 C 
ATOM     63  H   0LN d   1      82.573 -10.107 -27.327  0.00  0.00     0.033 H 
ATOM     64  H   0LN d   1      81.029 -10.183 -26.459  0.00  0.00     0.033 H 
ATOM     65  H   0LN d   1      80.842 -11.276 -28.673  0.00  0.00     0.034 H 
ATOM     66  H   0LN d   1      82.179 -12.377 -28.245  0.00  0.00     0.034 H 
ATOM     67  H   0LN d   1      79.511 -12.210 -26.716  0.00  0.00     0.047 H 
ENDBRANCH  29  51
BRANCH  24  68
ATOM     68  O25 0LN d   1      74.288 -10.192 -27.211  0.00  0.00    -0.356 OA
BRANCH  68  69
ATOM     69  C26 0LN d   1      73.047 -10.704 -26.720  0.00  0.00     0.010 C 
ATOM     70  H   0LN d   1      72.578 -11.316 -27.490  0.00  0.00     0.066 H 
ATOM     71  H   0LN d   1      73.231 -11.311 -25.834  0.00  0.00     0.066 H 
ATOM     72  H   0LN d   1      72.389  -9.874 -26.463  0.00  0.00     0.066 H 
ENDBRANCH  68  69
ENDBRANCH  24  68
BRANCH   3  73
ATOM     73  C38 0LN d   1      77.315 -14.060 -35.167  0.00  0.00    -0.016 C 
ATOM     74  H   0LN d   1      78.090 -13.499 -35.690  0.00  0.00     0.056 H 
ATOM     75  H   0LN d   1      77.260 -15.071 -35.572  0.00  0.00     0.056 H 
ATOM     76  H   0LN d   1      76.354 -13.562 -35.297  0.00  0.00     0.056 H 
ENDBRANCH   3  73
BRANCH   8  77
ATOM     77  C42 0LN d   1      81.364 -19.569 -35.863  0.00  0.00    -0.018 C 
ATOM     78  H   0LN d   1      82.416 -19.652 -35.592  0.00  0.00     0.050 H 
ATOM     79  H   0LN d   1      80.917 -20.562 -35.897  0.00  0.00     0.050 H 
ATOM     80  H   0LN d   1      81.275 -19.096 -36.841  0.00  0.00     0.050 H 
ENDBRANCH   8  77
TORSDOF 5
