REMARK WARNING: 32 MAX_TORS EXCEEDED!!!
REMARK  45 active torsions:
REMARK  status: ('A' for Active; 'I' for Inactive)
REMARK    1  A    between atoms: N_1  and  CA_2 
REMARK    2  A    between atoms: CA_2  and  C_3 
REMARK    3  A    between atoms: CA_2  and  CB_5 
REMARK       I    between atoms: C_3  and  N_13 
REMARK    4  A    between atoms: CB_5  and  CG_6 
REMARK    5  A    between atoms: CZ_11  and  OH_12 
REMARK    6  A    between atoms: N_13  and  CA_14 
REMARK    7  A    between atoms: CA_14  and  C_15 
REMARK    8  A    between atoms: CA_14  and  CB_17 
REMARK       I    between atoms: C_15  and  N_18 
REMARK    9  A    between atoms: N_18  and  CA_19 
REMARK   10  A    between atoms: CA_19  and  C_20 
REMARK   11  A    between atoms: CA_19  and  CB_22 
REMARK       I    between atoms: C_20  and  N_27 
REMARK   12  A    between atoms: CB_22  and  CG_23 
REMARK   13  A    between atoms: CG_23  and  CD_24 
REMARK   14  A    between atoms: N_27  and  CA_28 
REMARK   15  A    between atoms: CA_28  and  C_29 
REMARK   16  A    between atoms: CA_28  and  CB_31 
REMARK       I    between atoms: C_29  and  N_33 
REMARK   17  A    between atoms: CB_31  and  OG_32 
REMARK   18  A    between atoms: N_33  and  CA_34 
REMARK   19  A    between atoms: CA_34  and  C_35 
REMARK       I    between atoms: C_35  and  N_37 
REMARK   20  A    between atoms: N_37  and  CA_38 
REMARK   21  A    between atoms: CA_38  and  C_39 
REMARK   22  A    between atoms: CA_38  and  CB_41 
REMARK       I    between atoms: C_39  and  N_45 
REMARK   23  A    between atoms: CB_41  and  CG1_42 
REMARK   24  A    between atoms: CB_41  and  CG2_43 
REMARK   25  A    between atoms: CG1_42  and  CD1_44 
REMARK   26  A    between atoms: N_45  and  CA_46 
REMARK   27  A    between atoms: CA_46  and  C_47 
REMARK   28  A    between atoms: CA_46  and  CB_49 
REMARK       I    between atoms: C_47  and  N_54 
REMARK   29  A    between atoms: CB_49  and  CG_50 
REMARK   30  A    between atoms: CG_50  and  CD_51 
REMARK       I    between atoms: CD_51  and  NE2_53 
REMARK   31  A    between atoms: N_54  and  CA_55 
REMARK   32  A    between atoms: CA_55  and  C_56 
REMARK   33  A    between atoms: CA_55  and  CB_58 
REMARK       I    between atoms: C_56  and  N_61 
REMARK   34  A    between atoms: CB_58  and  OG1_59 
REMARK   35  A    between atoms: CB_58  and  CG2_60 
REMARK   36  A    between atoms: N_61  and  CA_62 
REMARK   37  A    between atoms: CA_62  and  C_63 
REMARK   38  A    between atoms: CA_62  and  CB_65 
REMARK       I    between atoms: C_63  and  N_69 
REMARK   39  A    between atoms: CB_65  and  CG_66 
REMARK   40  A    between atoms: N_69  and  CA_70 
REMARK   41  A    between atoms: CA_70  and  C_71 
REMARK   42  A    between atoms: CA_70  and  CB_73 
REMARK   43  A    between atoms: CB_73  and  CG_74 
REMARK   44  A    between atoms: CG_74  and  CD1_75 
REMARK   45  A    between atoms: CG_74  and  CD2_76 
ROOT
ATOM      1  CA  ILE d   1      16.292  17.520  59.737  0.00  0.00     0.092 C 
ATOM      2  H32 ILE d   1      16.362  17.947  58.726  0.00  0.00     0.088 H 
ENDROOT
BRANCH   1   3
ATOM      3  N   ILE d   1      15.328  16.423  59.696  0.00  0.00    -0.346 N 
ATOM      4  C   GLY d   1      14.422  16.343  58.726  0.00  0.00     0.236 C 
ATOM      5  O   GLY d   1      14.353  17.167  57.817  0.00  0.00    -0.272 OA
ATOM      6  H31 ILE d   1      15.350  15.722  60.408  0.00  0.00     0.163 HD
BRANCH   4   7
ATOM      7  CA  GLY d   1      13.448  15.179  58.784  0.00  0.00     0.069 C 
ATOM      8  H29 GLY d   1      13.730  14.423  58.036  0.00  0.00     0.078 H 
ATOM      9  H30 GLY d   1      13.470  14.728  59.787  0.00  0.00     0.078 H 
BRANCH   7  10
ATOM     10  N   GLY d   1      12.109  15.672  58.499  0.00  0.00    -0.350 N 
ATOM     11  C   SER d   1      11.179  15.755  59.444  0.00  0.00     0.242 C 
ATOM     12  O   SER d   1      11.308  15.258  60.569  0.00  0.00    -0.271 OA
ATOM     13  H28 GLY d   1      11.883  15.956  57.567  0.00  0.00     0.163 HD
BRANCH  11  14
ATOM     14  CA  SER d   1       9.909  16.499  59.070  0.00  0.00     0.109 C 
ATOM     15  H24 SER d   1       9.977  16.845  58.028  0.00  0.00     0.090 H 
BRANCH  14  16
ATOM     16  N   SER d   1       8.774  15.599  59.203  0.00  0.00    -0.344 N 
ATOM     17  C   GLU d   1       7.759  15.582  58.340  0.00  0.00     0.241 C 
ATOM     18  O   GLU d   1       7.664  16.352  57.379  0.00  0.00    -0.271 OA
ATOM     19  H23 SER d   1       8.755  14.965  59.976  0.00  0.00     0.163 HD
BRANCH  17  20
ATOM     20  CA  GLU d   1       6.664  14.563  58.634  0.00  0.00     0.090 C 
ATOM     21  H18 GLU d   1       6.619  14.434  59.725  0.00  0.00     0.087 H 
BRANCH  20  22
ATOM     22  N   GLU d   1       5.359  15.054  58.195  0.00  0.00    -0.346 N 
ATOM     23  C   ALA d   1       4.487  15.563  59.058  0.00  0.00     0.240 C 
ATOM     24  O   ALA d   1       4.737  15.706  60.259  0.00  0.00    -0.271 OA
ATOM     25  H17 GLU d   1       5.118  15.006  57.226  0.00  0.00     0.163 HD
BRANCH  23  26
ATOM     26  CA  ALA d   1       3.115  15.956  58.517  0.00  0.00     0.086 C 
ATOM     27  H13 ALA d   1       2.796  15.238  57.748  0.00  0.00     0.086 H 
BRANCH  26  28
ATOM     28  N   ALA d   1       2.188  15.921  59.646  0.00  0.00    -0.346 N 
ATOM     29  C   TYR d   1       0.933  15.497  59.534  0.00  0.00     0.249 C 
ATOM     30  O   TYR d   1       0.438  15.129  58.464  0.00  0.00    -0.271 OA
ATOM     31  H12 ALA d   1       2.511  16.229  60.541  0.00  0.00     0.163 HD
BRANCH  29  32
ATOM     32  CA  TYR d   1       0.109  15.489  60.820  0.00  0.00     0.179 C 
ATOM     33  H4  TYR d   1       0.431  16.333  61.447  0.00  0.00     0.099 H 
BRANCH  32  34
ATOM     34  N   TYR d   1      -1.318  15.650  60.533  0.00  0.00    -0.066 N 
ATOM     35  H1  TYR d   1      -1.837  15.641  61.397  0.00  0.00     0.275 HD
ATOM     36  H2  TYR d   1      -1.630  14.893  59.946  0.00  0.00     0.275 HD
ATOM     37  H3  TYR d   1      -1.469  16.527  60.059  0.00  0.00     0.275 HD
ENDBRANCH  32  34
BRANCH  32  38
ATOM     38  CB  TYR d   1       0.372  14.186  61.583  0.00  0.00    -0.006 C 
ATOM     39  H5  TYR d   1       1.424  13.908  61.424  0.00  0.00     0.043 H 
ATOM     40  H6  TYR d   1      -0.281  13.409  61.159  0.00  0.00     0.043 H 
BRANCH  38  41
ATOM     41  CG  TYR d   1       0.124  14.238  63.081  0.00  0.00    -0.056 A 
ATOM     42  CD1 TYR d   1      -0.288  15.410  63.710  0.00  0.00    -0.074 A 
ATOM     43  CE1 TYR d   1      -0.507  15.448  65.091  0.00  0.00    -0.051 A 
ATOM     44  H7  TYR d   1      -0.441  16.307  63.120  0.00  0.00     0.084 H 
ATOM     45  CZ  TYR d   1      -0.303  14.307  65.844  0.00  0.00     0.065 A 
ATOM     46  H9  TYR d   1      -0.834  16.365  65.567  0.00  0.00     0.087 H 
ATOM     47  CE2 TYR d   1       0.112  13.135  65.238  0.00  0.00    -0.051 A 
ATOM     48  CD2 TYR d   1       0.330  13.110  63.868  0.00  0.00    -0.074 A 
ATOM     49  H10 TYR d   1       0.266  12.240  65.831  0.00  0.00     0.087 H 
ATOM     50  H8  TYR d   1       0.668  12.192  63.401  0.00  0.00     0.084 H 
BRANCH  45  51
ATOM     51  OH  TYR d   1      -0.520  14.323  67.204  0.00  0.00    -0.361 OA
ATOM     52  H11 TYR d   1       0.285  14.096  67.655  0.00  0.00     0.217 HD
ENDBRANCH  45  51
ENDBRANCH  38  41
ENDBRANCH  32  38
ENDBRANCH  29  32
ENDBRANCH  26  28
BRANCH  26  53
ATOM     53  CB  ALA d   1       3.159  17.340  57.916  0.00  0.00    -0.049 C 
ATOM     54  H14 ALA d   1       3.860  17.350  57.069  0.00  0.00     0.030 H 
ATOM     55  H15 ALA d   1       3.494  18.060  58.677  0.00  0.00     0.030 H 
ATOM     56  H16 ALA d   1       2.155  17.619  57.564  0.00  0.00     0.030 H 
ENDBRANCH  26  53
ENDBRANCH  23  26
ENDBRANCH  20  22
BRANCH  20  57
ATOM     57  CB  GLU d   1       6.982  13.181  58.021  0.00  0.00    -0.029 C 
ATOM     58  H19 GLU d   1       8.009  12.899  58.296  0.00  0.00     0.037 H 
ATOM     59  H20 GLU d   1       6.902  13.252  56.926  0.00  0.00     0.037 H 
BRANCH  57  60
ATOM     60  CG  GLU d   1       6.011  12.081  58.522  0.00  0.00     0.018 C 
ATOM     61  H21 GLU d   1       5.000  12.329  58.165  0.00  0.00     0.049 H 
ATOM     62  H22 GLU d   1       6.023  12.089  59.622  0.00  0.00     0.049 H 
BRANCH  60  63
ATOM     63  CD  GLU d   1       6.346  10.668  58.055  0.00  0.00     0.172 C 
ATOM     64  OE1 GLU d   1       7.350  10.470  57.341  0.00  0.00    -0.648 OA
ATOM     65  OE2 GLU d   1       5.592   9.743  58.425  0.00  0.00    -0.648 OA
ENDBRANCH  60  63
ENDBRANCH  57  60
ENDBRANCH  20  57
ENDBRANCH  17  20
ENDBRANCH  14  16
BRANCH  14  66
ATOM     66  CB  SER d   1       9.755  17.710  59.996  0.00  0.00     0.044 C 
ATOM     67  H25 SER d   1      10.691  18.288  59.988  0.00  0.00     0.077 H 
ATOM     68  H26 SER d   1       9.552  17.356  61.017  0.00  0.00     0.077 H 
BRANCH  66  69
ATOM     69  OG  SER d   1       8.692  18.547  59.578  0.00  0.00    -0.398 OA
ATOM     70  H27 SER d   1       8.864  18.860  58.697  0.00  0.00     0.209 HD
ENDBRANCH  66  69
ENDBRANCH  14  66
ENDBRANCH  11  14
ENDBRANCH   7  10
ENDBRANCH   4   7
ENDBRANCH   1   3
BRANCH   1  71
ATOM     71  C   ILE d   1      17.671  17.011  60.141  0.00  0.00     0.241 C 
ATOM     72  O   ILE d   1      17.804  15.946  60.753  0.00  0.00    -0.271 OA
ATOM     73  N   GLN d   1      18.696  17.782  59.799  0.00  0.00    -0.346 N 
ATOM     74  H42 GLN d   1      18.512  18.632  59.306  0.00  0.00     0.163 HD
BRANCH  73  75
ATOM     75  CA  GLN d   1      20.078  17.441  60.112  0.00  0.00     0.090 C 
ATOM     76  H43 GLN d   1      20.109  16.767  60.981  0.00  0.00     0.087 H 
BRANCH  75  77
ATOM     77  C   GLN d   1      20.842  18.720  60.415  0.00  0.00     0.241 C 
ATOM     78  O   GLN d   1      20.846  19.643  59.596  0.00  0.00    -0.271 OA
ATOM     79  N   THR d   1      21.484  18.792  61.578  0.00  0.00    -0.344 N 
ATOM     80  H50 THR d   1      21.428  18.031  62.224  0.00  0.00     0.163 HD
BRANCH  79  81
ATOM     81  CA  THR d   1      22.271  19.978  61.917  0.00  0.00     0.113 C 
ATOM     82  H51 THR d   1      21.613  20.858  61.866  0.00  0.00     0.091 H 
BRANCH  81  83
ATOM     83  C   THR d   1      23.418  20.154  60.932  0.00  0.00     0.243 C 
ATOM     84  O   THR d   1      23.888  19.172  60.356  0.00  0.00    -0.271 OA
ATOM     85  N   ASP d   1      23.869  21.399  60.752  0.00  0.00    -0.345 N 
ATOM     86  H57 ASP d   1      23.408  22.147  61.230  0.00  0.00     0.163 HD
BRANCH  85  87
ATOM     87  CA  ASP d   1      25.013  21.721  59.882  0.00  0.00     0.098 C 
ATOM     88  H58 ASP d   1      24.801  21.334  58.874  0.00  0.00     0.088 H 
BRANCH  87  89
ATOM     89  C   ASP d   1      26.303  21.101  60.390  0.00  0.00     0.241 C 
ATOM     90  O   ASP d   1      27.155  20.688  59.607  0.00  0.00    -0.271 OA
ATOM     91  N   LEU d   1      26.459  21.082  61.711  0.00  0.00    -0.345 N 
ATOM     92  H61 LEU d   1      25.762  21.507  62.288  0.00  0.00     0.163 HD
BRANCH  91  93
ATOM     93  CA  LEU d   1      27.618  20.459  62.343  0.00  0.00     0.096 C 
ATOM     94  H62 LEU d   1      28.259  20.029  61.559  0.00  0.00     0.089 H 
BRANCH  93  95
ATOM     95  C   LEU d   1      27.162  19.348  63.277  0.00  0.00     0.196 C 
ATOM     96  O   LEU d   1      26.115  18.721  63.052  0.00  0.00    -0.646 OA
ATOM     97  OXT LEU d   1      27.836  19.073  64.281  0.00  0.00    -0.646 OA
ENDBRANCH  93  95
BRANCH  93  98
ATOM     98  CB  LEU d   1      28.430  21.487  63.137  0.00  0.00    -0.034 C 
ATOM     99  H63 LEU d   1      29.239  20.938  63.640  0.00  0.00     0.037 H 
ATOM    100  H64 LEU d   1      27.754  21.917  63.891  0.00  0.00     0.037 H 
BRANCH  98 101
ATOM    101  CG  LEU d   1      29.076  22.656  62.400  0.00  0.00    -0.059 C 
ATOM    102  H65 LEU d   1      28.283  23.268  61.945  0.00  0.00     0.038 H 
BRANCH 101 103
ATOM    103  CD1 LEU d   1      29.847  23.516  63.396  0.00  0.00    -0.073 C 
ATOM    104  H66 LEU d   1      30.314  24.360  62.867  0.00  0.00     0.028 H 
ATOM    105  H67 LEU d   1      30.627  22.909  63.878  0.00  0.00     0.028 H 
ATOM    106  H68 LEU d   1      29.156  23.900  64.161  0.00  0.00     0.028 H 
ENDBRANCH 101 103
BRANCH 101 107
ATOM    107  CD2 LEU d   1      29.993  22.155  61.291  0.00  0.00    -0.073 C 
ATOM    108  H69 LEU d   1      29.414  21.539  60.587  0.00  0.00     0.028 H 
ATOM    109  H70 LEU d   1      30.801  21.551  61.728  0.00  0.00     0.028 H 
ATOM    110  H71 LEU d   1      30.425  23.014  60.757  0.00  0.00     0.028 H 
ENDBRANCH 101 107
ENDBRANCH  98 101
ENDBRANCH  93  98
ENDBRANCH  91  93
ENDBRANCH  87  89
BRANCH  87 111
ATOM    111  CB  ASP d   1      25.232  23.237  59.805  0.00  0.00     0.043 C 
ATOM    112  H59 ASP d   1      26.149  23.430  59.228  0.00  0.00     0.052 H 
ATOM    113  H60 ASP d   1      25.352  23.627  60.827  0.00  0.00     0.052 H 
BRANCH 111 114
ATOM    114  CG  ASP d   1      24.081  23.966  59.142  0.00  0.00     0.175 C 
ATOM    115  OD1 ASP d   1      23.274  23.309  58.450  0.00  0.00    -0.648 OA
ATOM    116  OD2 ASP d   1      23.995  25.204  59.307  0.00  0.00    -0.648 OA
ENDBRANCH 111 114
ENDBRANCH  87 111
ENDBRANCH  85  87
ENDBRANCH  81  83
BRANCH  81 117
ATOM    117  CB  THR d   1      22.869  19.883  63.335  0.00  0.00     0.060 C 
ATOM    118  H52 THR d   1      23.594  20.698  63.473  0.00  0.00     0.086 H 
BRANCH 117 119
ATOM    119  OG1 THR d   1      23.541  18.626  63.480  0.00  0.00    -0.393 OA
ATOM    120  H53 THR d   1      24.236  18.564  62.836  0.00  0.00     0.210 HD
ENDBRANCH 117 119
BRANCH 117 121
ATOM    121  CG2 THR d   1      21.772  20.011  64.396  0.00  0.00    -0.050 C 
ATOM    122  H54 THR d   1      22.221  19.941  65.398  0.00  0.00     0.031 H 
ATOM    123  H55 THR d   1      21.039  19.201  64.265  0.00  0.00     0.031 H 
ATOM    124  H56 THR d   1      21.268  20.983  64.287  0.00  0.00     0.031 H 
ENDBRANCH 117 121
ENDBRANCH  81 117
ENDBRANCH  79  81
ENDBRANCH  75  77
BRANCH  75 125
ATOM    125  CB  GLN d   1      20.727  16.767  58.909  0.00  0.00    -0.030 C 
ATOM    126  H44 GLN d   1      20.629  17.436  58.042  0.00  0.00     0.037 H 
ATOM    127  H45 GLN d   1      20.193  15.826  58.708  0.00  0.00     0.037 H 
BRANCH 125 128
ATOM    128  CG  GLN d   1      22.201  16.449  59.106  0.00  0.00     0.011 C 
ATOM    129  H46 GLN d   1      22.742  17.384  59.312  0.00  0.00     0.047 H 
ATOM    130  H47 GLN d   1      22.593  15.994  58.185  0.00  0.00     0.047 H 
BRANCH 128 131
ATOM    131  CD  GLN d   1      22.422  15.492  60.257  0.00  0.00     0.215 C 
ATOM    132  OE1 GLN d   1      21.808  14.424  60.314  0.00  0.00    -0.274 OA
ATOM    133  NE2 GLN d   1      23.289  15.876  61.191  0.00  0.00    -0.370 N 
ATOM    134  H48 GLN d   1      23.475  15.283  61.975  0.00  0.00     0.159 HD
ATOM    135  H49 GLN d   1      23.755  16.757  61.109  0.00  0.00     0.159 HD
ENDBRANCH 128 131
ENDBRANCH 125 128
ENDBRANCH  75 125
ENDBRANCH  73  75
ENDBRANCH   1  71
BRANCH   1 136
ATOM    136  CB  ILE d   1      15.849  18.649  60.710  0.00  0.00    -0.030 C 
ATOM    137  H33 ILE d   1      16.558  19.484  60.609  0.00  0.00     0.043 H 
BRANCH 136 138
ATOM    138  CG1 ILE d   1      15.885  18.160  62.162  0.00  0.00    -0.063 C 
ATOM    139  H34 ILE d   1      15.620  17.092  62.174  0.00  0.00     0.033 H 
ATOM    140  H35 ILE d   1      15.140  18.729  62.737  0.00  0.00     0.033 H 
BRANCH 138 141
ATOM    141  CD1 ILE d   1      17.248  18.326  62.842  0.00  0.00    -0.076 C 
ATOM    142  H39 ILE d   1      17.190  17.953  63.875  0.00  0.00     0.027 H 
ATOM    143  H40 ILE d   1      17.526  19.390  62.851  0.00  0.00     0.027 H 
ATOM    144  H41 ILE d   1      18.006  17.753  62.288  0.00  0.00     0.027 H 
ENDBRANCH 138 141
ENDBRANCH 136 138
BRANCH 136 145
ATOM    145  CG2 ILE d   1      14.440  19.169  60.363  0.00  0.00    -0.071 C 
ATOM    146  H36 ILE d   1      14.424  19.517  59.320  0.00  0.00     0.028 H 
ATOM    147  H37 ILE d   1      14.182  20.003  61.032  0.00  0.00     0.028 H 
ATOM    148  H38 ILE d   1      13.708  18.358  60.489  0.00  0.00     0.028 H 
ENDBRANCH 136 145
ENDBRANCH   1 136
TORSDOF 45
