REMARK  4 active torsions:
REMARK  status: ('A' for Active; 'I' for Inactive)
REMARK    1  A    between atoms: CAM_2  and  CAA_3 
REMARK    2  A    between atoms: CAM_2  and  CAB_4 
REMARK    3  A    between atoms: CAJ_11  and  CAG_12 
REMARK    4  A    between atoms: CAG_12  and  OAC_13 
ROOT
ATOM      1  CAH 0LV d   1     -69.525  33.194 -43.754  0.00  0.00    -0.010 A 
ATOM      2  CAM 0LV d   1     -70.446  34.293 -44.121  0.00  0.00     0.064 A 
ATOM      3  OAI 0LV d   1     -71.278  34.492 -42.992  0.00  0.00    -0.340 OA
ATOM      4  CAL 0LV d   1     -70.805  33.653 -41.941  0.00  0.00     0.084 A 
ATOM      5  CAK 0LV d   1     -69.776  32.877 -42.366  0.00  0.00    -0.021 A 
ATOM      6  CAF 0LV d   1     -69.156  31.948 -41.445  0.00  0.00    -0.074 A 
ATOM      7  CAD 0LV d   1     -69.584  31.823 -40.129  0.00  0.00    -0.082 A 
ATOM      8  CAE 0LV d   1     -70.636  32.623 -39.708  0.00  0.00    -0.072 A 
ATOM      9  CAJ 0LV d   1     -71.237  33.541 -40.614  0.00  0.00    -0.001 A 
ATOM     10  H   0LV d   1     -68.488  33.496 -43.899  0.00  0.00     0.044 H 
ATOM     11  H   0LV d   1     -69.695  32.322 -44.385  0.00  0.00     0.044 H 
ATOM     12  H   0LV d   1     -68.330  31.329 -41.794  0.00  0.00     0.084 H 
ATOM     13  H   0LV d   1     -69.108  31.118 -39.448  0.00  0.00     0.083 H 
ATOM     14  H   0LV d   1     -71.002  32.548 -38.684  0.00  0.00     0.084 H 
ENDROOT
BRANCH   2  15
ATOM     15  CAA 0LV d   1     -71.291  33.952 -45.325  0.00  0.00    -0.047 C 
ATOM     16  H   0LV d   1     -71.854  33.040 -45.126  0.00  0.00     0.031 H 
ATOM     17  H   0LV d   1     -71.982  34.770 -45.526  0.00  0.00     0.031 H 
ATOM     18  H   0LV d   1     -70.645  33.800 -46.190  0.00  0.00     0.031 H 
ENDBRANCH   2  15
BRANCH   2  19
ATOM     19  CAB 0LV d   1     -69.611  35.567 -44.390  0.00  0.00    -0.047 C 
ATOM     20  H   0LV d   1     -70.281  36.406 -44.579  0.00  0.00     0.031 H 
ATOM     21  H   0LV d   1     -68.992  35.784 -43.520  0.00  0.00     0.031 H 
ATOM     22  H   0LV d   1     -68.974  35.406 -45.260  0.00  0.00     0.031 H 
ENDBRANCH   2  19
BRANCH   9  23
ATOM     23  CAG 0LV d   1     -72.365  34.416 -40.238  0.00  0.00     0.043 C 
ATOM     24  H   0LV d   1     -72.034  35.440 -40.410  0.00  0.00     0.081 H 
ATOM     25  H   0LV d   1     -72.617  34.171 -39.206  0.00  0.00     0.081 H 
BRANCH  23  26
ATOM     26  OAC 0LV d   1     -73.506  34.250 -40.966  0.00  0.00    -0.396 OA
ATOM     27  H   0LV d   1     -74.177  34.859 -40.650  0.00  0.00     0.209 HD
ENDBRANCH  23  26
ENDBRANCH   9  23
TORSDOF 4
