REMARK  11 active torsions:
REMARK  status: ('A' for Active; 'I' for Inactive)
REMARK    1  A    between atoms: N1_2  and  C1_1 
REMARK    2  A    between atoms: O4_14  and  P1_4 
REMARK    3  A    between atoms: C2_6  and  C5_15 
REMARK    4  A    between atoms: C11_27  and  N2_7 
REMARK    5  A    between atoms: C4_12  and  O2_8 
REMARK    6  A    between atoms: C3_9  and  O3_11 
REMARK    7  A    between atoms: C5_15  and  O4_14 
REMARK    8  A    between atoms: C9_24  and  N5_16 
REMARK    9  A    between atoms: O6_19  and  C12_28 
REMARK   10  A    between atoms: C13_29  and  O6_19 
REMARK   11  A    between atoms: C12_28  and  C11_27 
ROOT
ATOM      1  N1  6LI d   1       1.254   0.413 -24.498  0.00  0.00    -0.296 N 
ATOM      2  N2  6LI d   1       0.400   2.372 -24.194  0.00  0.00    -0.333 N 
ATOM      3  N3  6LI d   1      -2.732   0.682 -25.293  0.00  0.00    -0.154 N 
ATOM      4  N4  6LI d   1      -0.764  -0.737 -25.212  0.00  0.00    -0.174 N 
ATOM      5  O5  6LI d   1      -2.436   2.884 -24.691  0.00  0.00    -0.265 OA
ATOM      6  C6  6LI d   1      -0.578   1.578 -24.633  0.00  0.00     0.150 A 
ATOM      7  C7  6LI d   1      -0.028   0.315 -24.806  0.00  0.00     0.159 A 
ATOM      8  C8  6LI d   1       1.528   1.675 -24.135  0.00  0.00     0.050 A 
ATOM      9  C9  6LI d   1      -2.093  -0.570 -25.462  0.00  0.00     0.680 A 
ATOM     10  C10 6LI d   1      -1.941   1.769 -24.867  0.00  0.00     0.290 A 
ATOM     11  H   6LI d   1      -3.730   0.794 -25.473  0.00  0.00     0.187 HD
ATOM     12  H   6LI d   1      -0.330  -1.652 -25.331  0.00  0.00     0.186 HD
ATOM     13  H   6LI d   1       2.505   2.060 -23.843  0.00  0.00     0.141 H 
ENDROOT
BRANCH   1  14
ATOM     14  C1  6LI d   1       2.232  -0.733 -24.582  0.00  0.00     0.139 C 
ATOM     15  O1  6LI d   1       3.482  -0.384 -23.886  0.00  0.00    -0.353 OA
ATOM     16  C2  6LI d   1       4.569  -0.529 -24.849  0.00  0.00     0.089 C 
ATOM     17  C3  6LI d   1       3.868  -0.084 -26.139  0.00  0.00     0.091 C 
ATOM     18  H   6LI d   1       5.022  -1.517 -24.923  0.00  0.00     0.090 H 
ATOM     19  C4  6LI d   1       2.635  -0.944 -26.050  0.00  0.00     0.105 C 
ATOM     20  H   6LI d   1       3.677   0.984 -26.244  0.00  0.00     0.091 H 
ATOM     21  H   6LI d   1       1.852  -0.705 -26.770  0.00  0.00     0.093 H 
ATOM     22  H   6LI d   1       1.758  -1.612 -24.145  0.00  0.00     0.122 H 
BRANCH  16  23
ATOM     23  C5  6LI d   1       5.683   0.421 -24.460  0.00  0.00     0.059 C 
ATOM     24  H   6LI d   1       6.452   0.474 -25.230  0.00  0.00     0.079 H 
ATOM     25  H   6LI d   1       6.200   0.086 -23.561  0.00  0.00     0.079 H 
BRANCH  23  26
ATOM     26  O4  6LI d   1       5.063   1.655 -24.267  0.00  0.00    -0.280 OA
BRANCH  26  27
ATOM     27  P1  6LI d   1       5.869   3.029 -23.954  0.00  0.00     0.422 P 
ATOM     28  O7  6LI d   1       7.222   2.936 -24.622  0.00  0.00    -0.617 OA
ATOM     29  O8  6LI d   1       5.797   3.209 -22.335  0.00  0.00    -0.617 OA
ATOM     30  O9  6LI d   1       4.880   4.229 -24.481  0.00  0.00    -0.617 OA
ENDBRANCH  26  27
ENDBRANCH  23  26
ENDBRANCH  16  23
BRANCH  17  31
ATOM     31  O3  6LI d   1       4.672  -0.440 -27.275  0.00  0.00    -0.390 OA
ATOM     32  H   6LI d   1       4.796  -1.392 -27.292  0.00  0.00     0.210 HD
ENDBRANCH  17  31
BRANCH  19  33
ATOM     33  O2  6LI d   1       2.999  -2.321 -26.269  0.00  0.00    -0.388 OA
ATOM     34  H   6LI d   1       3.249  -2.442 -27.188  0.00  0.00     0.210 HD
ENDBRANCH  19  33
ENDBRANCH   1  14
BRANCH   2  35
ATOM     35  C11 6LI d   1       0.307   3.831 -23.917  0.00  0.00     0.021 C 
ATOM     36  H   6LI d   1      -0.421   4.244 -24.615  0.00  0.00     0.068 H 
ATOM     37  H   6LI d   1       1.311   4.242 -24.020  0.00  0.00     0.068 H 
BRANCH  35  38
ATOM     38  C12 6LI d   1      -0.171   4.170 -22.524  0.00  0.00     0.041 C 
ATOM     39  H   6LI d   1      -0.577   5.181 -22.481  0.00  0.00     0.077 H 
ATOM     40  H   6LI d   1      -0.979   3.508 -22.212  0.00  0.00     0.077 H 
BRANCH  38  41
ATOM     41  O6  6LI d   1       0.974   4.033 -21.667  0.00  0.00    -0.350 OA
BRANCH  41  42
ATOM     42  C13 6LI d   1       0.748   4.266 -20.332  0.00  0.00     0.068 A 
ATOM     43  C14 6LI d   1      -0.453   4.786 -19.836  0.00  0.00    -0.049 A 
ATOM     44  C15 6LI d   1      -0.600   4.983 -18.472  0.00  0.00    -0.059 A 
ATOM     45  H   6LI d   1      -1.267   5.034 -20.517  0.00  0.00     0.087 H 
ATOM     46  C16 6LI d   1       0.451   4.649 -17.623  0.00  0.00     0.034 A 
ATOM     47  H   6LI d   1      -1.526   5.394 -18.070  0.00  0.00     0.086 H 
ATOM     48 CL1  6LI d   1       0.333   4.903 -15.923  0.00  0.00    -0.084 Cl
ATOM     49  C17 6LI d   1       1.637   4.159 -18.104  0.00  0.00    -0.059 A 
ATOM     50  C18 6LI d   1       1.780   3.961 -19.451  0.00  0.00    -0.049 A 
ATOM     51  H   6LI d   1       2.456   3.930 -17.422  0.00  0.00     0.086 H 
ATOM     52  H   6LI d   1       2.716   3.559 -19.838  0.00  0.00     0.087 H 
ENDBRANCH  41  42
ENDBRANCH  38  41
ENDBRANCH  35  38
ENDBRANCH   2  35
BRANCH   9  53
ATOM     53  N5  6LI d   1      -2.817  -1.611 -25.879  0.00  0.00    -0.234 N 
ATOM     54  H   6LI d   1      -3.812  -1.496 -26.070  0.00  0.00     0.174 HD
ATOM     55  H   6LI d   1      -2.375  -2.521 -26.007  0.00  0.00     0.174 HD
ENDBRANCH   9  53
TORSDOF 11
