REMARK  7 active torsions:
REMARK  status: ('A' for Active; 'I' for Inactive)
REMARK    1  A    between atoms: C1_5  and  C_1 
REMARK    2  A    between atoms: C8_16  and  N_2 
REMARK    3  A    between atoms: O_3  and  C1_5 
REMARK    4  A    between atoms: C3_11  and  O_3 
REMARK    5  A    between atoms: C1_5  and  C2_8 
REMARK    6  A    between atoms: C12_20  and  N1_6 
REMARK    7  A    between atoms: C14_22  and  C7_15 
ROOT
ATOM      1  C3  7LI d   1      20.630 -39.026  -1.598  0.00  0.00     0.096 A 
ATOM      2  C4  7LI d   1      21.181 -39.701  -0.513  0.00  0.00    -0.048 A 
ATOM      3  C5  7LI d   1      20.985 -39.217   0.769  0.00  0.00    -0.079 A 
ATOM      4  C6  7LI d   1      20.247 -38.065   0.971  0.00  0.00    -0.071 A 
ATOM      5  C7  7LI d   1      19.701 -37.359  -0.109  0.00  0.00    -0.005 A 
ATOM      6  C8  7LI d   1      19.899 -37.845  -1.411  0.00  0.00     0.074 A 
ATOM      7  H12 7LI d   1      21.762 -40.603  -0.671  0.00  0.00     0.087 H 
ATOM      8  H13 7LI d   1      21.411 -39.742   1.616  0.00  0.00     0.083 H 
ATOM      9  H14 7LI d   1      20.089 -37.703   1.980  0.00  0.00     0.084 H 
ENDROOT
BRANCH   6  10
ATOM     10  N   7LI d   1      19.333 -37.164  -2.537  0.00  0.00    -0.376 N 
ATOM     11  C9  7LI d   1      20.140 -36.208  -3.307  0.00  0.00    -0.005 C 
ATOM     12  C10 7LI d   1      19.351 -35.149  -4.047  0.00  0.00    -0.048 C 
ATOM     13  H15 7LI d   1      20.726 -36.774  -4.046  0.00  0.00     0.064 H 
ATOM     14  H16 7LI d   1      20.822 -35.699  -2.610  0.00  0.00     0.064 H 
ATOM     15  C11 7LI d   1      18.233 -35.786  -4.861  0.00  0.00    -0.036 C 
ATOM     16  H17 7LI d   1      20.025 -34.603  -4.723  0.00  0.00     0.035 H 
ATOM     17  H18 7LI d   1      18.915 -34.449  -3.320  0.00  0.00     0.035 H 
ATOM     18  C12 7LI d   1      17.369 -36.651  -3.958  0.00  0.00     0.115 C 
ATOM     19  H19 7LI d   1      18.669 -36.409  -5.656  0.00  0.00     0.036 H 
ATOM     20  H20 7LI d   1      17.614 -34.996  -5.312  0.00  0.00     0.036 H 
ATOM     21  C13 7LI d   1      18.170 -37.715  -3.243  0.00  0.00     0.022 C 
ATOM     22  H21 7LI d   1      16.901 -36.000  -3.205  0.00  0.00     0.086 H 
ATOM     23  H22 7LI d   1      17.518 -38.215  -2.512  0.00  0.00     0.067 H 
ATOM     24  H23 7LI d   1      18.522 -38.449  -3.983  0.00  0.00     0.067 H 
BRANCH  18  25
ATOM     25  N1  7LI d   1      16.311 -37.316  -4.742  0.00  0.00    -0.073 N 
ATOM     26  H5  7LI d   1      15.765 -36.621  -5.227  0.00  0.00     0.274 HD
ATOM     27  H6  7LI d   1      15.713 -37.841  -4.123  0.00  0.00     0.274 HD
ATOM     28  H7  7LI d   1      16.732 -37.941  -5.412  0.00  0.00     0.274 HD
ENDBRANCH  18  25
ENDBRANCH   6  10
BRANCH   1  29
ATOM     29  O   7LI d   1      20.733 -39.453  -2.909  0.00  0.00    -0.344 OA
BRANCH  29  30
ATOM     30  C1  7LI d   1      21.465 -40.649  -3.277  0.00  0.00     0.038 C 
ATOM     31  H4  7LI d   1      21.569 -41.344  -2.431  0.00  0.00     0.082 H 
BRANCH  30  32
ATOM     32  C   7LI d   1      22.797 -40.153  -3.715  0.00  0.00    -0.052 C 
ATOM     33  H1  7LI d   1      23.425 -41.005  -4.016  0.00  0.00     0.030 H 
ATOM     34  H2  7LI d   1      23.280 -39.617  -2.885  0.00  0.00     0.030 H 
ATOM     35  H3  7LI d   1      22.672 -39.471  -4.569  0.00  0.00     0.030 H 
ENDBRANCH  30  32
BRANCH  30  36
ATOM     36  C2  7LI d   1      20.696 -41.292  -4.384  0.00  0.00    -0.052 C 
ATOM     37  H8  7LI d   1      19.724 -41.638  -4.003  0.00  0.00     0.030 H 
ATOM     38  H9  7LI d   1      21.263 -42.150  -4.774  0.00  0.00     0.030 H 
ATOM     39  H10 7LI d   1      20.535 -40.562  -5.191  0.00  0.00     0.030 H 
ENDBRANCH  30  36
ENDBRANCH  29  30
ENDBRANCH   1  29
BRANCH   5  40
ATOM     40  C14 7LI d   1      18.761 -36.257   0.102  0.00  0.00    -0.049 C 
ATOM     41  C15 7LI d   1      18.023 -35.923   1.173  0.00  0.00     0.079 A 
ATOM     42  S   7LI d   1      17.784 -36.807   2.651  0.00  0.00    -0.024 SA
ATOM     43  C16 7LI d   1      17.094 -34.772   1.110  0.00  0.00     0.266 A 
ATOM     44  C17 7LI d   1      16.467 -35.736   3.161  0.00  0.00     0.291 A 
ATOM     45  N2  7LI d   1      16.278 -34.759   2.228  0.00  0.00    -0.283 N 
ATOM     46  O2  7LI d   1      15.805 -35.897   4.167  0.00  0.00    -0.260 OA
ATOM     47  H11 7LI d   1      15.575 -34.058   2.348  0.00  0.00     0.172 HD
ATOM     48  O1  7LI d   1      17.034 -33.939   0.201  0.00  0.00    -0.267 OA
ATOM     49  H24 7LI d   1      18.640 -35.596  -0.755  0.00  0.00     0.087 H 
ENDBRANCH   5  40
TORSDOF 7
