REMARK  12 active torsions:
REMARK  status: ('A' for Active; 'I' for Inactive)
REMARK    1  A    between atoms: C03_2  and  O02_3 
REMARK    2  A    between atoms: C03_2  and  C05_5 
REMARK    3  A    between atoms: O02_3  and  C01_4 
REMARK    4  A    between atoms: C05_5  and  C06_6 
REMARK    5  A    between atoms: C05_5  and  N12_12 
REMARK    6  A    between atoms: C06_6  and  C07_7 
REMARK       I    between atoms: N12_12  and  C13_13 
REMARK    7  A    between atoms: C13_13  and  C15_15 
REMARK    8  A    between atoms: C15_15  and  N16_16 
REMARK    9  A    between atoms: N16_16  and  C17_17 
REMARK   10  A    between atoms: N16_16  and  C21_21 
REMARK   11  A    between atoms: C17_17  and  C18_18 
REMARK   12  A    between atoms: C21_21  and  C22_22 
ROOT
ATOM      1  C15 I41 d   1      86.520 -69.597   2.080  0.00  0.00     0.157 C 
ATOM      2  H   I41 d   1      87.322 -68.869   1.891  0.00  0.00     0.090 H 
ATOM      3  H   I41 d   1      85.621 -69.306   1.517  0.00  0.00     0.090 H 
ENDROOT
BRANCH   1   4
ATOM      4  C13 I41 d   1      86.166 -69.489   3.564  0.00  0.00     0.244 C 
ATOM      5  N12 I41 d   1      84.869 -69.152   3.802  0.00  0.00    -0.345 N 
ATOM      6  H   I41 d   1      84.355 -69.066   2.949  0.00  0.00     0.163 HD
ATOM      7  O14 I41 d   1      87.038 -69.670   4.396  0.00  0.00    -0.272 OA
BRANCH   5   8
ATOM      8  C05 I41 d   1      84.004 -68.876   4.985  0.00  0.00     0.101 C 
ATOM      9  H   I41 d   1      82.991 -68.727   4.584  0.00  0.00     0.089 H 
BRANCH   8  10
ATOM     10  C03 I41 d   1      84.350 -67.484   5.524  0.00  0.00     0.281 C 
ATOM     11  O04 I41 d   1      85.511 -67.081   5.524  0.00  0.00    -0.263 OA
BRANCH  10  12
ATOM     12  O02 I41 d   1      83.314 -66.528   5.938  0.00  0.00    -0.325 OA
BRANCH  12  13
ATOM     13  C01 I41 d   1      83.253 -65.235   5.321  0.00  0.00     0.013 C 
ATOM     14  H   I41 d   1      82.421 -64.661   5.754  0.00  0.00     0.067 H 
ATOM     15  H   I41 d   1      83.094 -65.352   4.239  0.00  0.00     0.067 H 
ATOM     16  H   I41 d   1      84.198 -64.700   5.497  0.00  0.00     0.067 H 
ENDBRANCH  12  13
ENDBRANCH  10  12
ENDBRANCH   8  10
BRANCH   8  17
ATOM     17  C06 I41 d   1      83.832 -70.187   5.831  0.00  0.00     0.004 C 
ATOM     18  H   I41 d   1      84.617 -70.869   5.473  0.00  0.00     0.046 H 
ATOM     19  H   I41 d   1      82.845 -70.585   5.552  0.00  0.00     0.046 H 
BRANCH  17  20
ATOM     20  C07 I41 d   1      83.886 -70.277   7.363  0.00  0.00     0.053 A 
ATOM     21  C08 I41 d   1      83.369 -71.363   8.087  0.00  0.00     0.002 A 
ATOM     22  N09 I41 d   1      83.574 -71.214   9.425  0.00  0.00    -0.359 N 
ATOM     23  H   I41 d   1      82.867 -72.217   7.635  0.00  0.00     0.114 H 
ATOM     24  C10 I41 d   1      84.278 -69.953   9.621  0.00  0.00     0.064 A 
ATOM     25  H   I41 d   1      83.285 -71.872  10.163  0.00  0.00     0.166 HD
ATOM     26  N11 I41 d   1      84.445 -69.414   8.267  0.00  0.00    -0.247 NA
ATOM     27  H   I41 d   1      84.606 -69.511  10.561  0.00  0.00     0.143 H 
ENDBRANCH  17  20
ENDBRANCH   8  17
ENDBRANCH   5   8
ENDBRANCH   1   4
BRANCH   1  28
ATOM     28  N16 I41 d   1      86.976 -70.891   1.520  0.00  0.00    -0.049 N 
ATOM     29  H   I41 d   1      87.270 -71.536   2.237  0.00  0.00     0.281 HD
BRANCH  28  30
ATOM     30  C17 I41 d   1      85.885 -71.496   0.676  0.00  0.00     0.163 C 
ATOM     31  H   I41 d   1      86.354 -72.324   0.125  0.00  0.00     0.093 H 
ATOM     32  H   I41 d   1      85.581 -70.711  -0.032  0.00  0.00     0.093 H 
BRANCH  30  33
ATOM     33  C18 I41 d   1      84.570 -72.069   1.266  0.00  0.00     0.199 C 
ATOM     34  O19 I41 d   1      83.635 -72.302   0.481  0.00  0.00    -0.647 OA
ATOM     35  O20 I41 d   1      84.380 -72.327   2.476  0.00  0.00    -0.647 OA
ENDBRANCH  30  33
ENDBRANCH  28  30
BRANCH  28  36
ATOM     36  C21 I41 d   1      88.110 -70.457   0.649  0.00  0.00     0.108 C 
ATOM     37  H   I41 d   1      88.458 -69.493   1.048  0.00  0.00     0.083 H 
ATOM     38  H   I41 d   1      87.691 -70.308  -0.357  0.00  0.00     0.083 H 
BRANCH  36  39
ATOM     39  C22 I41 d   1      89.354 -71.328   0.476  0.00  0.00    -0.033 A 
ATOM     40  C23 I41 d   1      89.902 -71.454  -0.819  0.00  0.00    -0.075 A 
ATOM     41  C24 I41 d   1      91.098 -72.265  -1.120  0.00  0.00    -0.082 A 
ATOM     42  H   I41 d   1      89.419 -70.928  -1.635  0.00  0.00     0.084 H 
ATOM     43  C25 I41 d   1      91.668 -72.915   0.073  0.00  0.00    -0.083 A 
ATOM     44  H   I41 d   1      91.514 -72.371  -2.115  0.00  0.00     0.083 H 
ATOM     45  C26 I41 d   1      91.109 -72.762   1.355  0.00  0.00    -0.082 A 
ATOM     46  H   I41 d   1      92.551 -73.534  -0.041  0.00  0.00     0.083 H 
ATOM     47  C27 I41 d   1      89.963 -71.976   1.562  0.00  0.00    -0.075 A 
ATOM     48  H   I41 d   1      91.571 -73.260   2.199  0.00  0.00     0.083 H 
ATOM     49  H   I41 d   1      89.550 -71.870   2.559  0.00  0.00     0.084 H 
ENDBRANCH  36  39
ENDBRANCH  28  36
ENDBRANCH   1  28
TORSDOF 12
