REMARK  8 active torsions:
REMARK  status: ('A' for Active; 'I' for Inactive)
REMARK    1  A    between atoms: O5_17  and  C1_1 
REMARK    2  A    between atoms: C1_1  and  C8_20 
REMARK    3  A    between atoms: C11_23  and  P1_4 
REMARK    4  A    between atoms: C8_20  and  N2_7 
REMARK    5  A    between atoms: C4_12  and  C7_19 
REMARK    6  A    between atoms: C5_15  and  N5_16 
REMARK    7  A    between atoms: N5_16  and  C14_26 
REMARK    8  A    between atoms: C15_27  and  O5_17 
ROOT
ATOM      1  N1  HLI d   1       0.504   0.400 -25.004  0.00  0.00    -0.209 NA
ATOM      2  O1  HLI d   1      -3.075   2.953 -24.879  0.00  0.00    -0.265 OA
ATOM      3  C2  HLI d   1      -1.304   1.581 -24.948  0.00  0.00     0.152 A 
ATOM      4  N2  HLI d   1      -0.271   2.389 -24.780  0.00  0.00    -0.321 N 
ATOM      5  C3  HLI d   1      -0.806   0.303 -25.088  0.00  0.00     0.177 A 
ATOM      6  N3  HLI d   1      -3.507   0.696 -25.188  0.00  0.00    -0.154 N 
ATOM      7  C4  HLI d   1       0.848   1.663 -24.815  0.00  0.00     0.143 A 
ATOM      8  N4  HLI d   1      -1.608  -0.752 -25.265  0.00  0.00    -0.172 N 
ATOM      9  C5  HLI d   1      -2.952  -0.604 -25.324  0.00  0.00     0.682 A 
ATOM     10  C6  HLI d   1      -2.659   1.801 -24.997  0.00  0.00     0.290 A 
ATOM     11  H   HLI d   1      -4.518   0.828 -25.229  0.00  0.00     0.187 HD
ATOM     12  H   HLI d   1      -1.201  -1.683 -25.357  0.00  0.00     0.186 HD
ENDROOT
BRANCH   4  13
ATOM     13  C8  HLI d   1      -0.384   3.859 -24.611  0.00  0.00     0.022 C 
ATOM     14  H   HLI d   1       0.574   4.312 -24.867  0.00  0.00     0.068 H 
ATOM     15  H   HLI d   1      -1.181   4.222 -25.260  0.00  0.00     0.068 H 
BRANCH  13  16
ATOM     16  C1  HLI d   1      -0.724   4.228 -23.175  0.00  0.00     0.041 C 
ATOM     17  H   HLI d   1      -1.061   5.263 -23.114  0.00  0.00     0.077 H 
ATOM     18  H   HLI d   1      -1.534   3.602 -22.800  0.00  0.00     0.077 H 
BRANCH  16  19
ATOM     19  O5  HLI d   1       0.460   4.038 -22.397  0.00  0.00    -0.350 OA
BRANCH  19  20
ATOM     20  C15 HLI d   1       0.294   4.249 -21.058  0.00  0.00     0.068 A 
ATOM     21  C16 HLI d   1      -0.843   4.881 -20.549  0.00  0.00    -0.049 A 
ATOM     22  C17 HLI d   1      -0.980   5.090 -19.175  0.00  0.00    -0.059 A 
ATOM     23  H   HLI d   1      -1.628   5.213 -21.228  0.00  0.00     0.087 H 
ATOM     24  C18 HLI d   1       0.018   4.666 -18.290  0.00  0.00     0.034 A 
ATOM     25  H   HLI d   1      -1.870   5.587 -18.789  0.00  0.00     0.086 H 
ATOM     26 CL1  HLI d   1      -0.151   4.935 -16.575  0.00  0.00    -0.084 Cl
ATOM     27  C19 HLI d   1       1.156   4.038 -18.805  0.00  0.00    -0.059 A 
ATOM     28  C20 HLI d   1       1.297   3.834 -20.179  0.00  0.00    -0.049 A 
ATOM     29  H   HLI d   1       1.941   3.704 -18.127  0.00  0.00     0.086 H 
ATOM     30  H   HLI d   1       2.193   3.349 -20.567  0.00  0.00     0.087 H 
ENDBRANCH  19  20
ENDBRANCH  16  19
ENDBRANCH  13  16
ENDBRANCH   4  13
BRANCH   7  31
ATOM     31  C7  HLI d   1       2.163   2.077 -24.705  0.00  0.00     0.010 A 
ATOM     32  C9  HLI d   1       3.086   1.258 -24.050  0.00  0.00    -0.068 A 
ATOM     33  C10 HLI d   1       4.420   1.667 -23.956  0.00  0.00    -0.063 A 
ATOM     34  H   HLI d   1       2.769   0.309 -23.616  0.00  0.00     0.085 H 
ATOM     35  C11 HLI d   1       4.802   2.877 -24.528  0.00  0.00     0.068 A 
ATOM     36  H   HLI d   1       5.152   1.045 -23.441  0.00  0.00     0.085 H 
ATOM     37  C12 HLI d   1       3.900   3.702 -25.196  0.00  0.00    -0.063 A 
ATOM     38  C13 HLI d   1       2.572   3.285 -25.295  0.00  0.00    -0.068 A 
ATOM     39  H   HLI d   1       4.223   4.648 -25.630  0.00  0.00     0.085 H 
ATOM     40  H   HLI d   1       1.849   3.899 -25.832  0.00  0.00     0.085 H 
BRANCH  35  41
ATOM     41  P1  HLI d   1       6.480   3.399 -24.407  0.00  0.00     0.295 P 
ATOM     42  O2  HLI d   1       6.767   4.786 -23.970  0.00  0.00    -0.636 OA
ATOM     43  O3  HLI d   1       7.117   3.280 -25.845  0.00  0.00    -0.636 OA
ATOM     44  O4  HLI d   1       7.284   2.305 -23.491  0.00  0.00    -0.636 OA
ENDBRANCH  35  41
ENDBRANCH   7  31
BRANCH   9  45
ATOM     45  N5  HLI d   1      -3.747  -1.681 -25.512  0.00  0.00    -0.230 N 
ATOM     46  H   HLI d   1      -4.335  -2.020 -24.750  0.00  0.00     0.177 HD
BRANCH  45  47
ATOM     47  C14 HLI d   1      -3.765  -2.371 -26.826  0.00  0.00    -0.005 C 
ATOM     48  H   HLI d   1      -4.083  -1.671 -27.598  0.00  0.00     0.057 H 
ATOM     49  H   HLI d   1      -2.765  -2.738 -27.056  0.00  0.00     0.057 H 
ATOM     50  H   HLI d   1      -4.461  -3.209 -26.785  0.00  0.00     0.057 H 
ENDBRANCH  45  47
ENDBRANCH   9  45
TORSDOF 8
