REMARK  14 active torsions:
REMARK  status: ('A' for Active; 'I' for Inactive)
REMARK    1  A    between atoms: C8_10  and  C14_11 
REMARK    2  A    between atoms: C14_11  and  C15_12 
REMARK    3  A    between atoms: C15_12  and  C17_13 
REMARK    4  A    between atoms: C15_12  and  C18_14 
REMARK    5  A    between atoms: C15_12  and  C16_15 
REMARK    6  A    between atoms: C11_18  and  N29_19 
REMARK    7  A    between atoms: N29_19  and  C28_20 
REMARK    8  A    between atoms: C28_20  and  C26_21 
REMARK    9  A    between atoms: C26_21  and  O30_22 
REMARK   10  A    between atoms: C26_21  and  C25_23 
REMARK   11  A    between atoms: C25_23  and  N27_24 
REMARK   12  A    between atoms: C25_23  and  C31_28 
REMARK       I    between atoms: N27_24  and  C33_25 
REMARK   13  A    between atoms: C33_25  and  C35_26 
REMARK   14  A    between atoms: C31_28  and  C19_29 
ROOT
ATOM      1  C2  0MP d   1      61.059  45.409   9.381  0.00  0.00    -0.035 A 
ATOM      2  C3  0MP d   1      60.770  43.941   9.045  0.00  0.00    -0.060 A 
ATOM      3  C4  0MP d   1      62.268  43.611   9.104  0.00  0.00    -0.035 A 
ATOM      4  C1  0MP d   1      62.571  45.105   9.331  0.00  0.00     0.071 A 
ATOM      5  C13 0MP d   1      63.301  45.728   8.124  0.00  0.00    -0.005 C 
ATOM      6  O12 0MP d   1      63.243  45.371  10.561  0.00  0.00    -0.323 OA
ATOM      7  C5  0MP d   1      63.468  46.702  10.815  0.00  0.00     0.173 A 
ATOM      8  N10 0MP d   1      63.620  47.076  12.105  0.00  0.00    -0.236 NA
ATOM      9  C9  0MP d   1      63.859  48.338  12.447  0.00  0.00     0.011 A 
ATOM     10  C8  0MP d   1      63.954  49.328  11.467  0.00  0.00    -0.039 A 
ATOM     11  C7  0MP d   1      63.806  48.985  10.116  0.00  0.00    -0.063 A 
ATOM     12  C6  0MP d   1      63.570  47.655   9.786  0.00  0.00     0.026 A 
ATOM     13  C11 0MP d   1      63.391  47.252   8.306  0.00  0.00     0.134 C 
ATOM     14  H1  0MP d   1      60.695  45.726  10.369  0.00  0.00     0.037 H 
ATOM     15  H2  0MP d   1      60.717  46.123   8.617  0.00  0.00     0.037 H 
ATOM     16  H3  0MP d   1      60.319  43.791   8.053  0.00  0.00     0.033 H 
ATOM     17  H4  0MP d   1      60.168  43.420   9.804  0.00  0.00     0.033 H 
ATOM     18  H5  0MP d   1      62.678  43.204   8.168  0.00  0.00     0.037 H 
ATOM     19  H6  0MP d   1      62.554  42.960   9.943  0.00  0.00     0.037 H 
ATOM     20  H7  0MP d   1      62.744  45.502   7.203  0.00  0.00     0.041 H 
ATOM     21  H8  0MP d   1      64.315  45.307   8.052  0.00  0.00     0.041 H 
ATOM     22  H9  0MP d   1      63.981  48.600  13.492  0.00  0.00     0.115 H 
ATOM     23  H21 0MP d   1      63.874  49.742   9.343  0.00  0.00     0.085 H 
ATOM     24  H22 0MP d   1      62.434  47.679   7.971  0.00  0.00     0.092 H 
ENDROOT
BRANCH  13  25
ATOM     25  N29 0MP d   1      64.446  47.808   7.440  0.00  0.00    -0.064 N 
ATOM     26  H23 0MP d   1      64.375  48.813   7.472  0.00  0.00     0.278 HD
ATOM     27  H24 0MP d   1      64.275  47.489   6.499  0.00  0.00     0.278 HD
BRANCH  25  28
ATOM     28  C28 0MP d   1      65.828  47.440   7.799  0.00  0.00     0.108 C 
ATOM     29  H25 0MP d   1      66.062  46.436   7.414  0.00  0.00     0.079 H 
ATOM     30  H26 0MP d   1      65.948  47.451   8.892  0.00  0.00     0.079 H 
BRANCH  28  31
ATOM     31  C26 0MP d   1      66.761  48.480   7.157  0.00  0.00     0.078 C 
ATOM     32  H27 0MP d   1      66.731  48.347   6.066  0.00  0.00     0.088 H 
BRANCH  31  33
ATOM     33  O30 0MP d   1      66.308  49.798   7.478  0.00  0.00    -0.392 OA
ATOM     34  H28 0MP d   1      66.887  50.437   7.079  0.00  0.00     0.210 HD
ENDBRANCH  31  33
BRANCH  31  35
ATOM     35  C25 0MP d   1      68.204  48.323   7.624  0.00  0.00     0.042 C 
ATOM     36  H29 0MP d   1      68.213  48.322   8.724  0.00  0.00     0.077 H 
BRANCH  35  37
ATOM     37  N27 0MP d   1      68.753  47.033   7.157  0.00  0.00    -0.354 N 
ATOM     38  C33 0MP d   1      68.889  46.015   8.005  0.00  0.00     0.214 C 
ATOM     39  O34 0MP d   1      68.564  46.078   9.190  0.00  0.00    -0.274 OA
ATOM     40  H30 0MP d   1      69.023  46.924   6.200  0.00  0.00     0.162 HD
BRANCH  38  41
ATOM     41  C35 0MP d   1      69.443  44.715   7.403  0.00  0.00    -0.003 C 
ATOM     42  H31 0MP d   1      69.513  43.948   8.188  0.00  0.00     0.040 H 
ATOM     43  H32 0MP d   1      70.443  44.902   6.984  0.00  0.00     0.040 H 
ATOM     44  H33 0MP d   1      68.771  44.364   6.606  0.00  0.00     0.040 H 
ENDBRANCH  38  41
ENDBRANCH  35  37
BRANCH  35  45
ATOM     45  C31 0MP d   1      69.062  49.503   7.141  0.00  0.00    -0.020 C 
ATOM     46  H34 0MP d   1      68.781  50.406   7.702  0.00  0.00     0.043 H 
ATOM     47  H35 0MP d   1      68.879  49.666   6.069  0.00  0.00     0.043 H 
BRANCH  45  48
ATOM     48  C19 0MP d   1      70.552  49.220   7.359  0.00  0.00    -0.056 A 
ATOM     49  C20 0MP d   1      71.397  49.044   6.277  0.00  0.00    -0.074 A 
ATOM     50  C21 0MP d   1      72.741  48.772   6.502  0.00  0.00    -0.045 A 
ATOM     51  H36 0MP d   1      71.015  49.117   5.265  0.00  0.00     0.084 H 
ATOM     52  C22 0MP d   1      73.228  48.687   7.803  0.00  0.00     0.116 A 
ATOM     53  H37 0MP d   1      73.411  48.626   5.663  0.00  0.00     0.088 H 
ATOM     54  F32 0MP d   1      74.529  48.434   8.034  0.00  0.00    -0.206 F 
ATOM     55  C23 0MP d   1      72.383  48.849   8.880  0.00  0.00    -0.045 A 
ATOM     56  C24 0MP d   1      71.040  49.113   8.648  0.00  0.00    -0.074 A 
ATOM     57  H38 0MP d   1      72.761  48.771   9.893  0.00  0.00     0.088 H 
ATOM     58  H39 0MP d   1      70.366  49.237   9.488  0.00  0.00     0.084 H 
ENDBRANCH  45  48
ENDBRANCH  35  45
ENDBRANCH  31  35
ENDBRANCH  28  31
ENDBRANCH  25  28
ENDBRANCH  13  25
BRANCH  10  59
ATOM     59  C14 0MP d   1      64.225  50.773  11.880  0.00  0.00    -0.034 C 
ATOM     60  H10 0MP d   1      64.681  51.298  11.028  0.00  0.00     0.041 H 
ATOM     61  H11 0MP d   1      64.928  50.767  12.726  0.00  0.00     0.041 H 
BRANCH  59  62
ATOM     62  C15 0MP d   1      62.974  51.532  12.300  0.00  0.00    -0.047 C 
BRANCH  62  63
ATOM     63  C17 0MP d   1      62.202  50.688  13.315  0.00  0.00    -0.069 C 
ATOM     64  H12 0MP d   1      61.295  51.227  13.626  0.00  0.00     0.028 H 
ATOM     65  H13 0MP d   1      62.836  50.500  14.194  0.00  0.00     0.028 H 
ATOM     66  H14 0MP d   1      61.919  49.730  12.855  0.00  0.00     0.028 H 
ENDBRANCH  62  63
BRANCH  62  67
ATOM     67  C18 0MP d   1      62.081  51.876  11.090  0.00  0.00    -0.069 C 
ATOM     68  H15 0MP d   1      62.653  52.482  10.373  0.00  0.00     0.028 H 
ATOM     69  H16 0MP d   1      61.203  52.444  11.432  0.00  0.00     0.028 H 
ATOM     70  H17 0MP d   1      61.750  50.947  10.603  0.00  0.00     0.028 H 
ENDBRANCH  62  67
BRANCH  62  71
ATOM     71  C16 0MP d   1      63.421  52.847  12.956  0.00  0.00    -0.069 C 
ATOM     72  H18 0MP d   1      64.060  52.625  13.823  0.00  0.00     0.028 H 
ATOM     73  H19 0MP d   1      62.536  53.411  13.287  0.00  0.00     0.028 H 
ATOM     74  H20 0MP d   1      63.986  53.447  12.227  0.00  0.00     0.028 H 
ENDBRANCH  62  71
ENDBRANCH  59  62
ENDBRANCH  10  59
TORSDOF 14
