REMARK WARNING: 32 MAX_TORS EXCEEDED!!!
REMARK  38 active torsions:
REMARK  status: ('A' for Active; 'I' for Inactive)
REMARK    1  A    between atoms: C_1  and  CA_5 
REMARK       I    between atoms: N_6  and  C_1 
REMARK    2  A    between atoms: CA_5  and  CB_3 
REMARK    3  A    between atoms: CA_5  and  OHN_4 
REMARK    4  A    between atoms: CA_7  and  N_6 
REMARK    5  A    between atoms: C_8  and  CA_7 
REMARK    6  A    between atoms: CA_7  and  CB_10 
REMARK       I    between atoms: N_22  and  C_8 
REMARK    7  A    between atoms: CB_10  and  CG1_11 
REMARK    8  A    between atoms: CB_10  and  CG2_12 
REMARK    9  A    between atoms: N_22  and  C1_13 
REMARK       I    between atoms: CD_19  and  NE2_14 
REMARK   10  A    between atoms: CB_18  and  CG_17 
REMARK   11  A    between atoms: CG_17  and  CD_19 
REMARK   12  A    between atoms: CA_21  and  CB_18 
REMARK   13  A    between atoms: C_20  and  CA_21 
REMARK       I    between atoms: N_23  and  C_20 
REMARK   14  A    between atoms: CA_21  and  N_22 
REMARK   15  A    between atoms: CA_24  and  N_23 
REMARK   16  A    between atoms: CA_24  and  CB_25 
REMARK   17  A    between atoms: CH_32  and  CA_24 
REMARK   18  A    between atoms: CB_25  and  CG_26 
REMARK   19  A    between atoms: CH_32  and  OH_33 
REMARK   20  A    between atoms: CM_34  and  CH_32 
REMARK   21  A    between atoms: C_35  and  CM_34 
REMARK       I    between atoms: N_37  and  C_35 
REMARK   22  A    between atoms: CA_38  and  N_37 
REMARK   23  A    between atoms: C_39  and  CA_38 
REMARK   24  A    between atoms: CA_38  and  CB_41 
REMARK       I    between atoms: N_45  and  C_39 
REMARK   25  A    between atoms: CB_41  and  CG_42 
REMARK   26  A    between atoms: CG_42  and  CD1_43 
REMARK   27  A    between atoms: CG_42  and  CD2_44 
REMARK   28  A    between atoms: CA_46  and  N_45 
REMARK   29  A    between atoms: C_47  and  CA_46 
REMARK   30  A    between atoms: CA_46  and  CB_49 
REMARK       I    between atoms: N_50  and  C_47 
REMARK   31  A    between atoms: CA_51  and  N_50 
REMARK   32  A    between atoms: N_50  and  C10_61 
REMARK   33  A    between atoms: C_52  and  CA_51 
REMARK   34  A    between atoms: CA_51  and  CB_54 
REMARK       I    between atoms: N_70  and  C_52 
REMARK   35  A    between atoms: CB_54  and  CG_55 
REMARK   36  A    between atoms: OXT_67  and  CM_62 
REMARK   37  A    between atoms: C_68  and  OXT_67 
REMARK   38  A    between atoms: C_68  and  CA_69 
ROOT
ATOM      1  C   PSA d   1     -22.909 -27.962   1.322  0.00  0.00     0.220 C 
ATOM      2  O   PSA d   1     -22.814 -27.638   0.157  0.00  0.00    -0.274 OA
ATOM      3  N   LEU d   1     -22.718 -29.363   1.734  0.00  0.00    -0.348 N 
ATOM      4  H38 LEU d   1     -22.793 -29.614   2.699  0.00  0.00     0.163 HD
ENDROOT
BRANCH   1   5
ATOM      5  CM  PSA d   1     -23.204 -26.914   2.403  0.00  0.00     0.035 C 
ATOM      6  H36 PSA d   1     -23.795 -26.091   1.975  0.00  0.00     0.051 H 
ATOM      7  H37 PSA d   1     -23.763 -27.376   3.230  0.00  0.00     0.051 H 
BRANCH   5   8
ATOM      8  CH  PSA d   1     -21.870 -26.384   2.912  0.00  0.00     0.063 C 
ATOM      9  H34 PSA d   1     -21.270 -27.299   2.804  0.00  0.00     0.086 H 
BRANCH   8  10
ATOM     10  CA  PSA d   1     -21.042 -25.438   2.027  0.00  0.00     0.041 C 
ATOM     11  H26 PSA d   1     -20.991 -25.850   1.008  0.00  0.00     0.076 H 
BRANCH  10  12
ATOM     12  N   PSA d   1     -21.650 -24.104   1.992  0.00  0.00    -0.352 N 
ATOM     13  C   GNC d   1     -22.312 -23.616   0.762  0.00  0.00     0.241 C 
ATOM     14  O   GNC d   1     -22.350 -24.310  -0.239  0.00  0.00    -0.271 OA
ATOM     15  H25 PSA d   1     -21.617 -23.521   2.804  0.00  0.00     0.163 HD
BRANCH  13  16
ATOM     16  CA  GNC d   1     -22.933 -22.192   0.778  0.00  0.00     0.091 C 
ATOM     17  H24 GNC d   1     -23.550 -22.122   1.686  0.00  0.00     0.087 H 
BRANCH  16  18
ATOM     18  CB  GNC d   1     -23.847 -21.853  -0.410  0.00  0.00    -0.030 C 
ATOM     19  H22 GNC d   1     -23.281 -21.274  -1.155  0.00  0.00     0.037 H 
ATOM     20  H23 GNC d   1     -24.212 -22.784  -0.869  0.00  0.00     0.037 H 
BRANCH  18  21
ATOM     21  CG  GNC d   1     -25.026 -21.034   0.078  0.00  0.00     0.011 C 
ATOM     22  H20 GNC d   1     -24.732 -19.977   0.156  0.00  0.00     0.047 H 
ATOM     23  H21 GNC d   1     -25.343 -21.400   1.066  0.00  0.00     0.047 H 
BRANCH  21  24
ATOM     24  CD  GNC d   1     -26.178 -21.169  -0.908  0.00  0.00     0.215 C 
ATOM     25  NE2 GNC d   1     -26.034 -20.731  -2.260  0.00  0.00    -0.370 N 
ATOM     26  H18 GNC d   1     -25.172 -20.326  -2.565  0.00  0.00     0.159 HD
ATOM     27  H19 GNC d   1     -26.795 -20.829  -2.901  0.00  0.00     0.159 HD
ATOM     28  OE1 GNC d   1     -27.234 -21.662  -0.546  0.00  0.00    -0.274 OA
ENDBRANCH  21  24
ENDBRANCH  18  21
ENDBRANCH  16  18
BRANCH  16  29
ATOM     29  N   GNC d   1     -21.854 -21.186   0.876  0.00  0.00    -0.341 N 
ATOM     30  C   VAL d   1     -21.964 -20.091   1.853  0.00  0.00     0.243 C 
ATOM     31  O   VAL d   1     -22.937 -19.997   2.595  0.00  0.00    -0.271 OA
BRANCH  30  32
ATOM     32  CA  VAL d   1     -20.832 -19.072   1.928  0.00  0.00     0.092 C 
ATOM     33  H7  VAL d   1     -20.405 -18.975   0.919  0.00  0.00     0.088 H 
BRANCH  32  34
ATOM     34  N   VAL d   1     -21.363 -17.777   2.294  0.00  0.00    -0.345 N 
ATOM     35  C   2OP d   1     -21.836 -16.937   1.216  0.00  0.00     0.246 C 
ATOM     36  O   2OP d   1     -21.765 -17.362   0.071  0.00  0.00    -0.271 OA
ATOM     37  H6  VAL d   1     -21.401 -17.477   3.247  0.00  0.00     0.163 HD
BRANCH  35  38
ATOM     38  CA  2OP d   1     -22.393 -15.568   1.481  0.00  0.00     0.109 C 
ATOM     39  H5  2OP d   1     -23.436 -15.523   1.133  0.00  0.00     0.097 H 
BRANCH  38  40
ATOM     40  CB  2OP d   1     -21.560 -14.561   0.719  0.00  0.00    -0.044 C 
ATOM     41  H1  2OP d   1     -21.952 -13.549   0.900  0.00  0.00     0.031 H 
ATOM     42  H2  2OP d   1     -21.607 -14.786  -0.357  0.00  0.00     0.031 H 
ATOM     43  H3  2OP d   1     -20.516 -14.616   1.060  0.00  0.00     0.031 H 
ENDBRANCH  38  40
BRANCH  38  44
ATOM     44  OHN 2OP d   1     -22.354 -15.281   2.828  0.00  0.00    -0.387 OA
ATOM     45  H4  2OP d   1     -21.455 -15.320   3.133  0.00  0.00     0.210 HD
ENDBRANCH  38  44
ENDBRANCH  35  38
ENDBRANCH  32  34
BRANCH  32  46
ATOM     46  CB  VAL d   1     -19.699 -19.553   2.846  0.00  0.00    -0.033 C 
ATOM     47  H8  VAL d   1     -19.595 -20.643   2.744  0.00  0.00     0.042 H 
BRANCH  46  48
ATOM     48  CG1 VAL d   1     -18.401 -18.879   2.422  0.00  0.00    -0.071 C 
ATOM     49  H9  VAL d   1     -17.582 -19.217   3.074  0.00  0.00     0.028 H 
ATOM     50  H10 VAL d   1     -18.510 -17.788   2.506  0.00  0.00     0.028 H 
ATOM     51  H11 VAL d   1     -18.173 -19.145   1.379  0.00  0.00     0.028 H 
ENDBRANCH  46  48
BRANCH  46  52
ATOM     52  CG2 VAL d   1     -19.980 -19.225   4.282  0.00  0.00    -0.071 C 
ATOM     53  H12 VAL d   1     -20.917 -19.710   4.592  0.00  0.00     0.028 H 
ATOM     54  H13 VAL d   1     -20.076 -18.135   4.397  0.00  0.00     0.028 H 
ATOM     55  H14 VAL d   1     -19.153 -19.589   4.910  0.00  0.00     0.028 H 
ENDBRANCH  46  52
ENDBRANCH  32  46
ENDBRANCH  30  32
BRANCH  29  56
ATOM     56  C1  GNC d   1     -20.701 -21.270  -0.003  0.00  0.00    -0.015 C 
ATOM     57  H15 GNC d   1     -20.011 -20.442   0.217  0.00  0.00     0.056 H 
ATOM     58  H16 GNC d   1     -21.032 -21.203  -1.050  0.00  0.00     0.056 H 
ATOM     59  H17 GNC d   1     -20.186 -22.229   0.158  0.00  0.00     0.056 H 
ENDBRANCH  29  56
ENDBRANCH  16  29
ENDBRANCH  13  16
ENDBRANCH  10  12
BRANCH  10  60
ATOM     60  CB  PSA d   1     -19.651 -25.281   2.584  0.00  0.00    -0.020 C 
ATOM     61  H27 PSA d   1     -19.152 -26.261   2.555  0.00  0.00     0.043 H 
ATOM     62  H28 PSA d   1     -19.730 -24.940   3.627  0.00  0.00     0.043 H 
BRANCH  60  63
ATOM     63  CG  PSA d   1     -18.784 -24.267   1.802  0.00  0.00    -0.056 A 
ATOM     64  CD1 PSA d   1     -17.970 -23.250   2.542  0.00  0.00    -0.077 A 
ATOM     65  CE1 PSA d   1     -17.108 -22.264   1.808  0.00  0.00    -0.082 A 
ATOM     66  H29 PSA d   1     -18.004 -23.226   3.625  0.00  0.00     0.084 H 
ATOM     67  CZ  PSA d   1     -17.074 -22.291   0.302  0.00  0.00    -0.083 A 
ATOM     68  H31 PSA d   1     -16.516 -21.540   2.356  0.00  0.00     0.083 H 
ATOM     69  CE2 PSA d   1     -17.886 -23.309  -0.447  0.00  0.00    -0.082 A 
ATOM     70  H33 PSA d   1     -16.465 -21.577  -0.240  0.00  0.00     0.083 H 
ATOM     71  CD2 PSA d   1     -18.739 -24.286   0.312  0.00  0.00    -0.077 A 
ATOM     72  H32 PSA d   1     -17.857 -23.339  -1.530  0.00  0.00     0.083 H 
ATOM     73  H30 PSA d   1     -19.330 -25.015  -0.231  0.00  0.00     0.084 H 
ENDBRANCH  60  63
ENDBRANCH  10  60
ENDBRANCH   8  10
BRANCH   8  74
ATOM     74  OH  PSA d   1     -21.747 -26.181   4.282  0.00  0.00    -0.393 OA
ATOM     75  H35 PSA d   1     -20.840 -26.298   4.538  0.00  0.00     0.210 HD
ENDBRANCH   8  74
ENDBRANCH   5   8
ENDBRANCH   1   5
BRANCH   3  76
ATOM     76  CA  LEU d   1     -22.415 -30.402   0.720  0.00  0.00     0.089 C 
ATOM     77  H39 LEU d   1     -21.587 -30.043   0.091  0.00  0.00     0.087 H 
BRANCH  76  78
ATOM     78  C   LEU d   1     -23.643 -30.584  -0.183  0.00  0.00     0.241 C 
ATOM     79  O   LEU d   1     -24.776 -30.623   0.277  0.00  0.00    -0.271 OA
ATOM     80  N   ALA d   1     -23.406 -30.713  -1.613  0.00  0.00    -0.346 N 
ATOM     81  H49 ALA d   1     -22.475 -30.675  -1.977  0.00  0.00     0.163 HD
BRANCH  80  82
ATOM     82  CA  ALA d   1     -24.550 -30.900  -2.515  0.00  0.00     0.086 C 
ATOM     83  H50 ALA d   1     -25.475 -30.587  -2.009  0.00  0.00     0.086 H 
BRANCH  82  84
ATOM     84  C   ALA d   1     -24.673 -32.367  -2.918  0.00  0.00     0.242 C 
ATOM     85  O   ALA d   1     -23.660 -33.044  -2.883  0.00  0.00    -0.271 OA
ATOM     86  N   ZAE d   1     -25.971 -32.956  -3.374  0.00  0.00    -0.341 N 
BRANCH  86  87
ATOM     87  CA  ZAE d   1     -26.037 -34.371  -3.783  0.00  0.00     0.095 C 
ATOM     88  H54 ZAE d   1     -27.066 -34.699  -3.575  0.00  0.00     0.088 H 
BRANCH  87  89
ATOM     89  C   ZAE d   1     -25.756 -34.639  -5.265  0.00  0.00     0.243 C 
ATOM     90  O   ZAE d   1     -26.314 -35.610  -5.795  0.00  0.00    -0.271 OA
ATOM     91  N   PLJ d   1     -24.835 -33.813  -6.110  0.00  0.00    -0.336 N 
ATOM     92  CD  PLJ d   1     -24.056 -32.622  -5.732  0.00  0.00    -0.001 C 
ATOM     93  CA  PLJ d   1     -24.524 -34.019  -7.511  0.00  0.00     0.098 C 
ATOM     94  CG  PLJ d   1     -23.717 -31.855  -7.014  0.00  0.00    -0.048 C 
ATOM     95  H72 PLJ d   1     -24.650 -31.984  -5.061  0.00  0.00     0.064 H 
ATOM     96  H73 PLJ d   1     -23.130 -32.927  -5.223  0.00  0.00     0.064 H 
ATOM     97  CB  PLJ d   1     -24.338 -32.643  -8.114  0.00  0.00    -0.036 C 
ATOM     98  H68 PLJ d   1     -24.140 -30.840  -6.980  0.00  0.00     0.035 H 
ATOM     99  H69 PLJ d   1     -22.627 -31.794  -7.151  0.00  0.00     0.035 H 
ATOM    100  H70 PLJ d   1     -23.673 -32.685  -8.989  0.00  0.00     0.036 H 
ATOM    101  H71 PLJ d   1     -25.305 -32.210  -8.409  0.00  0.00     0.036 H 
ATOM    102  H74 PLJ d   1     -25.371 -34.526  -7.996  0.00  0.00     0.088 H 
BRANCH  93 103
ATOM    103  C   PLJ d   1     -23.279 -34.850  -7.733  0.00  0.00     0.281 C 
ATOM    104  O   PLJ d   1     -23.063 -35.805  -6.994  0.00  0.00    -0.263 OA
BRANCH 103 105
ATOM    105  OXT PLJ d   1     -22.482 -34.665  -8.846  0.00  0.00    -0.325 OA
BRANCH 105 106
ATOM    106  CM  PLJ d   1     -21.356 -33.828  -8.799  0.00  0.00     0.013 C 
ATOM    107  H65 PLJ d   1     -20.864 -33.819  -9.783  0.00  0.00     0.067 H 
ATOM    108  H66 PLJ d   1     -20.652 -34.202  -8.041  0.00  0.00     0.067 H 
ATOM    109  H67 PLJ d   1     -21.669 -32.807  -8.537  0.00  0.00     0.067 H 
ENDBRANCH 105 106
ENDBRANCH 103 105
ENDBRANCH  93 103
ENDBRANCH  87  89
BRANCH  87 110
ATOM    110  CB  ZAE d   1     -25.089 -35.283  -3.009  0.00  0.00    -0.014 C 
ATOM    111  H55 ZAE d   1     -24.153 -34.741  -2.808  0.00  0.00     0.043 H 
ATOM    112  H56 ZAE d   1     -24.873 -36.175  -3.615  0.00  0.00     0.043 H 
BRANCH 110 113
ATOM    113  CG  ZAE d   1     -25.714 -35.721  -1.673  0.00  0.00    -0.056 A 
ATOM    114  CD1 ZAE d   1     -27.188 -35.670  -1.489  0.00  0.00    -0.077 A 
ATOM    115  CE1 ZAE d   1     -27.801 -36.102  -0.188  0.00  0.00    -0.082 A 
ATOM    116  H57 ZAE d   1     -27.822 -35.320  -2.296  0.00  0.00     0.084 H 
ATOM    117  CZ  ZAE d   1     -26.913 -36.584   0.912  0.00  0.00    -0.083 A 
ATOM    118  H59 ZAE d   1     -28.875 -36.065  -0.049  0.00  0.00     0.083 H 
ATOM    119  CE2 ZAE d   1     -25.421 -36.636   0.740  0.00  0.00    -0.082 A 
ATOM    120  H61 ZAE d   1     -27.352 -36.902   1.851  0.00  0.00     0.083 H 
ATOM    121  CD2 ZAE d   1     -24.824 -36.200  -0.562  0.00  0.00    -0.077 A 
ATOM    122  H60 ZAE d   1     -24.786 -36.984   1.547  0.00  0.00     0.083 H 
ATOM    123  H58 ZAE d   1     -23.750 -36.230  -0.703  0.00  0.00     0.084 H 
ENDBRANCH 110 113
ENDBRANCH  87 110
ENDBRANCH  86  87
BRANCH  86 124
ATOM    124  C10 ZAE d   1     -27.181 -32.146  -3.425  0.00  0.00    -0.015 C 
ATOM    125  H62 ZAE d   1     -26.953 -31.124  -3.088  0.00  0.00     0.056 H 
ATOM    126  H63 ZAE d   1     -27.945 -32.586  -2.768  0.00  0.00     0.056 H 
ATOM    127  H64 ZAE d   1     -27.559 -32.116  -4.458  0.00  0.00     0.056 H 
ENDBRANCH  86 124
ENDBRANCH  82  84
BRANCH  82 128
ATOM    128  CB  ALA d   1     -24.323 -30.040  -3.728  0.00  0.00    -0.049 C 
ATOM    129  H51 ALA d   1     -25.166 -30.159  -4.425  0.00  0.00     0.030 H 
ATOM    130  H52 ALA d   1     -23.391 -30.346  -4.225  0.00  0.00     0.030 H 
ATOM    131  H53 ALA d   1     -24.247 -28.986  -3.421  0.00  0.00     0.030 H 
ENDBRANCH  82 128
ENDBRANCH  80  82
ENDBRANCH  76  78
BRANCH  76 132
ATOM    132  CB  LEU d   1     -21.950 -31.691   1.395  0.00  0.00    -0.035 C 
ATOM    133  H40 LEU d   1     -22.685 -31.974   2.163  0.00  0.00     0.037 H 
ATOM    134  H41 LEU d   1     -20.974 -31.510   1.870  0.00  0.00     0.037 H 
BRANCH 132 135
ATOM    135  CG  LEU d   1     -21.806 -32.856   0.393  0.00  0.00    -0.059 C 
ATOM    136  H42 LEU d   1     -22.604 -32.816  -0.363  0.00  0.00     0.038 H 
BRANCH 135 137
ATOM    137  CD1 LEU d   1     -20.451 -32.775  -0.271  0.00  0.00    -0.073 C 
ATOM    138  H43 LEU d   1     -20.343 -33.603  -0.987  0.00  0.00     0.028 H 
ATOM    139  H44 LEU d   1     -19.663 -32.846   0.493  0.00  0.00     0.028 H 
ATOM    140  H45 LEU d   1     -20.360 -31.817  -0.803  0.00  0.00     0.028 H 
ENDBRANCH 135 137
BRANCH 135 141
ATOM    141  CD2 LEU d   1     -21.883 -34.152   1.188  0.00  0.00    -0.073 C 
ATOM    142  H46 LEU d   1     -22.866 -34.224   1.677  0.00  0.00     0.028 H 
ATOM    143  H47 LEU d   1     -21.091 -34.161   1.952  0.00  0.00     0.028 H 
ATOM    144  H48 LEU d   1     -21.748 -35.007   0.509  0.00  0.00     0.028 H 
ENDBRANCH 135 141
ENDBRANCH 132 135
ENDBRANCH  76 132
ENDBRANCH   3  76
TORSDOF 38
