REMARK  5 active torsions:
REMARK  status: ('A' for Active; 'I' for Inactive)
REMARK    1  A    between atoms: C11_1  and  C10_4 
REMARK    2  A    between atoms: C10_4  and  C9_5 
REMARK    3  A    between atoms: C9_5  and  C8_6 
REMARK    4  A    between atoms: C8_6  and  C7_7 
REMARK    5  A    between atoms: C7_7  and  C2_8 
ROOT
ATOM      1  C2  BTN d   1      45.123 -46.924  69.640  0.00  0.00     0.012 C 
ATOM      2  S1  BTN d   1      43.469 -46.249  69.872  0.00  0.00    -0.160 SA
ATOM      3  C6  BTN d   1      43.513 -46.655  71.604  0.00  0.00    -0.002 C 
ATOM      4  C5  BTN d   1      44.970 -46.472  72.097  0.00  0.00     0.042 A 
ATOM      5  N1  BTN d   1      45.185 -45.134  72.584  0.00  0.00    -0.336 N 
ATOM      6  C3  BTN d   1      46.045 -44.442  71.842  0.00  0.00     0.316 A 
ATOM      7  O3  BTN d   1      46.403 -43.282  72.052  0.00  0.00    -0.247 OA
ATOM      8  N2  BTN d   1      46.467 -45.234  70.841  0.00  0.00    -0.335 N 
ATOM      9  C4  BTN d   1      45.909 -46.562  70.893  0.00  0.00     0.046 A 
ATOM     10  H   BTN d   1      45.119 -48.008  69.526  0.00  0.00     0.059 H 
ATOM     11  H   BTN d   1      43.187 -47.684  71.760  0.00  0.00     0.052 H 
ATOM     12  H   BTN d   1      42.840 -46.004  72.162  0.00  0.00     0.052 H 
ATOM     13  H   BTN d   1      45.148 -47.225  72.865  0.00  0.00     0.077 H 
ATOM     14  H   BTN d   1      44.725 -44.756  73.412  0.00  0.00     0.164 HD
ATOM     15  H   BTN d   1      47.117 -44.926  70.118  0.00  0.00     0.164 HD
ATOM     16  H   BTN d   1      46.678 -47.331  70.967  0.00  0.00     0.077 H 
ENDROOT
BRANCH   1  17
ATOM     17  C7  BTN d   1      45.739 -46.423  68.346  0.00  0.00    -0.051 C 
ATOM     18  H   BTN d   1      45.652 -45.337  68.334  0.00  0.00     0.034 H 
ATOM     19  H   BTN d   1      46.774 -46.765  68.315  0.00  0.00     0.034 H 
BRANCH  17  20
ATOM     20  C8  BTN d   1      45.027 -46.966  67.097  0.00  0.00    -0.063 C 
ATOM     21  H   BTN d   1      45.123 -48.052  67.087  0.00  0.00     0.033 H 
ATOM     22  H   BTN d   1      43.981 -46.661  67.133  0.00  0.00     0.033 H 
BRANCH  20  23
ATOM     23  C9  BTN d   1      45.659 -46.404  65.802  0.00  0.00    -0.056 C 
ATOM     24  H   BTN d   1      45.772 -45.325  65.903  0.00  0.00     0.033 H 
ATOM     25  H   BTN d   1      46.629 -46.877  65.647  0.00  0.00     0.033 H 
BRANCH  23  26
ATOM     26  C10 BTN d   1      44.764 -46.699  64.596  0.00  0.00     0.016 C 
ATOM     27  H   BTN d   1      44.639 -47.780  64.535  0.00  0.00     0.049 H 
ATOM     28  H   BTN d   1      43.826 -46.164  64.743  0.00  0.00     0.049 H 
BRANCH  26  29
ATOM     29  C11 BTN d   1      45.366 -46.224  63.260  0.00  0.00     0.172 C 
ATOM     30  O11 BTN d   1      45.259 -45.034  62.885  0.00  0.00    -0.648 OA
ATOM     31  O12 BTN d   1      45.950 -47.048  62.542  0.00  0.00    -0.648 OA
ENDBRANCH  26  29
ENDBRANCH  23  26
ENDBRANCH  20  23
ENDBRANCH  17  20
ENDBRANCH   1  17
TORSDOF 5
