REMARK WARNING: 32 MAX_TORS EXCEEDED!!!
REMARK  36 active torsions:
REMARK  status: ('A' for Active; 'I' for Inactive)
REMARK    1  A    between atoms: CCL_9  and  CAE_1 
REMARK    2  A    between atoms: NBR_7  and  CCL_9 
REMARK       I    between atoms: CBX_19  and  NBR_7 
REMARK    3  A    between atoms: CCL_9  and  CCI_8 
REMARK    4  A    between atoms: SCT_24  and  CAG_10 
REMARK    5  A    between atoms: CCF_21  and  NBU_18 
REMARK    6  A    between atoms: NBU_18  and  SCT_24 
REMARK    7  A    between atoms: CCG_22  and  CBX_19 
REMARK    8  A    between atoms: CBY_20  and  CCH_23 
REMARK       I    between atoms: N_25  and  CBY_20 
REMARK    9  A    between atoms: CA_26  and  N_25 
REMARK   10  A    between atoms: CA_26  and  CB_27 
REMARK   11  A    between atoms: CH_34  and  CA_26 
REMARK   12  A    between atoms: CB_27  and  CG_28 
REMARK   13  A    between atoms: CH_34  and  OH_35 
REMARK   14  A    between atoms: CM_36  and  CH_34 
REMARK   15  A    between atoms: C_37  and  CM_36 
REMARK       I    between atoms: N_39  and  C_37 
REMARK   16  A    between atoms: CA_40  and  N_39 
REMARK   17  A    between atoms: C_41  and  CA_40 
REMARK   18  A    between atoms: CA_40  and  CB_43 
REMARK       I    between atoms: N_47  and  C_41 
REMARK   19  A    between atoms: CB_43  and  CG_44 
REMARK   20  A    between atoms: CG_44  and  CD1_45 
REMARK   21  A    between atoms: CG_44  and  CD2_46 
REMARK   22  A    between atoms: CA_48  and  N_47 
REMARK   23  A    between atoms: C_49  and  CA_48 
REMARK   24  A    between atoms: CA_48  and  CB_51 
REMARK       I    between atoms: N_52  and  C_49 
REMARK   25  A    between atoms: CA_53  and  N_52 
REMARK   26  A    between atoms: N_52  and  C10_62 
REMARK   27  A    between atoms: C_54  and  CA_53 
REMARK   28  A    between atoms: CA_53  and  CB_56 
REMARK       I    between atoms: N_71  and  C_54 
REMARK   29  A    between atoms: CB_56  and  CG_57 
REMARK   30  A    between atoms: CG_57  and  CD2_58 
REMARK   31  A    between atoms: CD2_58  and  CE2_60 
REMARK   32  A    between atoms: CZ_61  and  CE1_59 
REMARK   33  A    between atoms: CE2_60  and  CZ_61 
REMARK   34  A    between atoms: OXT_68  and  CM_63 
REMARK   35  A    between atoms: C_69  and  OXT_68 
REMARK   36  A    between atoms: C_69  and  CA_70 
ROOT
ATOM      1  CA  LEU d   1       8.663   6.968  -7.039  0.00  0.00     0.089 C 
ATOM      2  H32 LEU d   1       9.373   6.351  -6.469  0.00  0.00     0.087 H 
ENDROOT
BRANCH   1   3
ATOM      3  N   LEU d   1       7.346   6.892  -6.475  0.00  0.00    -0.348 N 
ATOM      4  C   PSA d   1       7.134   7.369  -5.103  0.00  0.00     0.220 C 
ATOM      5  O   PSA d   1       8.057   7.818  -4.420  0.00  0.00    -0.274 OA
ATOM      6  H31 LEU d   1       6.585   6.520  -7.007  0.00  0.00     0.163 HD
BRANCH   4   7
ATOM      7  CM  PSA d   1       5.678   7.261  -4.613  0.00  0.00     0.035 C 
ATOM      8  H29 PSA d   1       5.527   7.973  -3.788  0.00  0.00     0.051 H 
ATOM      9  H30 PSA d   1       5.003   7.514  -5.444  0.00  0.00     0.051 H 
BRANCH   7  10
ATOM     10  CH  PSA d   1       5.343   5.841  -4.114  0.00  0.00     0.063 C 
ATOM     11  H27 PSA d   1       5.759   5.200  -4.905  0.00  0.00     0.086 H 
BRANCH  10  12
ATOM     12  CA  PSA d   1       6.112   5.410  -2.863  0.00  0.00     0.041 C 
ATOM     13  H19 PSA d   1       7.155   5.749  -2.945  0.00  0.00     0.076 H 
BRANCH  12  14
ATOM     14  N   PSA d   1       5.472   5.993  -1.705  0.00  0.00    -0.349 N 
ATOM     15  CBY USC d   1       6.142   7.042  -0.956  0.00  0.00     0.252 C 
ATOM     16  OAJ USC d   1       7.241   7.510  -1.206  0.00  0.00    -0.268 OA
ATOM     17  H18 PSA d   1       4.568   5.674  -1.420  0.00  0.00     0.163 HD
BRANCH  15  18
ATOM     18  CCH USC d   1       5.442   7.519   0.284  0.00  0.00     0.035 A 
ATOM     19  CBH USC d   1       5.369   8.951   0.614  0.00  0.00    -0.041 A 
ATOM     20  CCF USC d   1       4.666   9.300   1.894  0.00  0.00     0.044 A 
ATOM     21  H15 USC d   1       5.798   9.710  -0.030  0.00  0.00     0.088 H 
ATOM     22  CBG USC d   1       4.107   8.253   2.827  0.00  0.00    -0.041 A 
ATOM     23  CCG USC d   1       4.223   6.809   2.443  0.00  0.00     0.035 A 
ATOM     24  H14 USC d   1       3.631   8.540   3.757  0.00  0.00     0.088 H 
ATOM     25  CBI USC d   1       4.891   6.436   1.160  0.00  0.00    -0.052 A 
ATOM     26  H16 USC d   1       4.976   5.396   0.867  0.00  0.00     0.086 H 
BRANCH  20  27
ATOM     27  NBU USC d   1       4.600  10.710   2.195  0.00  0.00    -0.285 N 
ATOM     28  H17 USC d   1       5.271  11.343   1.809  0.00  0.00     0.178 HD
BRANCH  27  29
ATOM     29  SCT USC d   1       3.428  11.250   3.163  0.00  0.00     0.227 S 
ATOM     30  OAO USC d   1       2.216  10.492   2.969  0.00  0.00    -0.206 OA
ATOM     31  OAP USC d   1       3.330  12.678   2.847  0.00  0.00    -0.206 OA
BRANCH  29  32
ATOM     32  CAG USC d   1       3.937  11.065   4.880  0.00  0.00     0.033 C 
ATOM     33  H11 USC d   1       4.013   9.996   5.127  0.00  0.00     0.051 H 
ATOM     34  H12 USC d   1       3.193  11.540   5.536  0.00  0.00     0.051 H 
ATOM     35  H13 USC d   1       4.915  11.546   5.026  0.00  0.00     0.051 H 
ENDBRANCH  29  32
ENDBRANCH  27  29
ENDBRANCH  20  27
BRANCH  23  36
ATOM     36  CBX USC d   1       3.677   5.678   3.300  0.00  0.00     0.252 C 
ATOM     37  NBR QSC d   1       3.023   4.598   2.612  0.00  0.00    -0.349 N 
ATOM     38  H9  QSC d   1       2.953   4.611   1.615  0.00  0.00     0.163 HD
ATOM     39  OAI USC d   1       3.833   5.707   4.515  0.00  0.00    -0.268 OA
BRANCH  37  40
ATOM     40  CCL QSC d   1       2.459   3.479   3.369  0.00  0.00     0.034 C 
ATOM     41  H10 QSC d   1       2.806   3.514   4.412  0.00  0.00     0.079 H 
BRANCH  40  42
ATOM     42  CAE QSC d   1       2.842   2.154   2.762  0.00  0.00    -0.053 C 
ATOM     43  H1  QSC d   1       2.402   1.338   3.355  0.00  0.00     0.030 H 
ATOM     44  H2  QSC d   1       3.938   2.055   2.759  0.00  0.00     0.030 H 
ATOM     45  H3  QSC d   1       2.466   2.101   1.730  0.00  0.00     0.030 H 
ENDBRANCH  40  42
BRANCH  40  46
ATOM     46  CCI QSC d   1       0.955   3.661   3.305  0.00  0.00    -0.036 A 
ATOM     47  CBE QSC d   1       0.321   3.824   1.972  0.00  0.00    -0.075 A 
ATOM     48  CAY QSC d   1      -1.162   4.010   1.886  0.00  0.00    -0.082 A 
ATOM     49  H7  QSC d   1       0.925   3.808   1.072  0.00  0.00     0.084 H 
ATOM     50  CAT QSC d   1      -1.970   4.042   3.146  0.00  0.00    -0.083 A 
ATOM     51  H5  QSC d   1      -1.645   4.120   0.922  0.00  0.00     0.083 H 
ATOM     52  CAZ QSC d   1      -1.336   3.888   4.480  0.00  0.00    -0.082 A 
ATOM     53  H4  QSC d   1      -3.043   4.181   3.083  0.00  0.00     0.083 H 
ATOM     54  CBF QSC d   1       0.140   3.701   4.567  0.00  0.00    -0.075 A 
ATOM     55  H6  QSC d   1      -1.940   3.911   5.380  0.00  0.00     0.083 H 
ATOM     56  H8  QSC d   1       0.622   3.595   5.532  0.00  0.00     0.084 H 
ENDBRANCH  40  46
ENDBRANCH  37  40
ENDBRANCH  23  36
ENDBRANCH  15  18
ENDBRANCH  12  14
BRANCH  12  57
ATOM     57  CB  PSA d   1       6.074   3.919  -2.628  0.00  0.00    -0.020 C 
ATOM     58  H20 PSA d   1       6.775   3.431  -3.321  0.00  0.00     0.043 H 
ATOM     59  H21 PSA d   1       5.054   3.554  -2.821  0.00  0.00     0.043 H 
BRANCH  57  60
ATOM     60  CG  PSA d   1       6.465   3.561  -1.196  0.00  0.00    -0.056 A 
ATOM     61  CD1 PSA d   1       7.596   4.217  -0.461  0.00  0.00    -0.077 A 
ATOM     62  CE1 PSA d   1       7.944   3.783   0.924  0.00  0.00    -0.082 A 
ATOM     63  H22 PSA d   1       8.163   5.009  -0.937  0.00  0.00     0.084 H 
ATOM     64  CZ  PSA d   1       7.194   2.697   1.606  0.00  0.00    -0.083 A 
ATOM     65  H24 PSA d   1       8.761   4.271   1.443  0.00  0.00     0.083 H 
ATOM     66  CE2 PSA d   1       6.076   2.048   0.884  0.00  0.00    -0.082 A 
ATOM     67  H26 PSA d   1       7.459   2.386   2.610  0.00  0.00     0.083 H 
ATOM     68  CD2 PSA d   1       5.736   2.476  -0.492  0.00  0.00    -0.077 A 
ATOM     69  H25 PSA d   1       5.506   1.260   1.363  0.00  0.00     0.083 H 
ATOM     70  H23 PSA d   1       4.922   1.977  -1.006  0.00  0.00     0.084 H 
ENDBRANCH  57  60
ENDBRANCH  12  57
ENDBRANCH  10  12
BRANCH  10  71
ATOM     71  OH  PSA d   1       4.006   5.480  -4.092  0.00  0.00    -0.393 OA
ATOM     72  H28 PSA d   1       3.586   5.774  -4.892  0.00  0.00     0.210 HD
ENDBRANCH  10  71
ENDBRANCH   7  10
ENDBRANCH   4   7
ENDBRANCH   1   3
BRANCH   1  73
ATOM     73  C   LEU d   1       9.069   8.405  -7.019  0.00  0.00     0.241 C 
ATOM     74  O   LEU d   1       8.298   9.288  -7.321  0.00  0.00    -0.271 OA
ATOM     75  N   ALA d   1      10.441   8.714  -6.681  0.00  0.00    -0.346 N 
ATOM     76  H42 ALA d   1      11.065   7.976  -6.424  0.00  0.00     0.163 HD
BRANCH  75  77
ATOM     77  CA  ALA d   1      10.918  10.065  -6.710  0.00  0.00     0.086 C 
ATOM     78  H43 ALA d   1      10.077  10.773  -6.745  0.00  0.00     0.086 H 
BRANCH  77  79
ATOM     79  C   ALA d   1      11.842  10.245  -7.914  0.00  0.00     0.242 C 
ATOM     80  O   ALA d   1      12.482   9.294  -8.322  0.00  0.00    -0.271 OA
ATOM     81  N   ZAE d   1      11.991  11.536  -8.554  0.00  0.00    -0.341 N 
BRANCH  81  82
ATOM     82  CA  ZAE d   1      12.930  11.666  -9.654  0.00  0.00     0.091 C 
ATOM     83  H47 ZAE d   1      13.292  10.660  -9.911  0.00  0.00     0.087 H 
BRANCH  82  84
ATOM     84  C   ZAE d   1      12.335  12.282 -10.875  0.00  0.00     0.243 C 
ATOM     85  O   ZAE d   1      12.619  13.406 -11.225  0.00  0.00    -0.271 OA
ATOM     86  N   PLJ d   1      11.394  11.505 -11.643  0.00  0.00    -0.336 N 
ATOM     87  CD  PLJ d   1      10.970  10.149 -11.340  0.00  0.00    -0.001 C 
ATOM     88  CA  PLJ d   1      10.763  11.997 -12.870  0.00  0.00     0.098 C 
ATOM     89  CG  PLJ d   1      10.276   9.703 -12.607  0.00  0.00    -0.048 C 
ATOM     90  H69 PLJ d   1      11.835   9.507 -11.119  0.00  0.00     0.064 H 
ATOM     91  H70 PLJ d   1      10.276  10.136 -10.486  0.00  0.00     0.064 H 
ATOM     92  CB  PLJ d   1       9.774  10.970 -13.251  0.00  0.00    -0.036 C 
ATOM     93  H65 PLJ d   1      10.983   9.186 -13.273  0.00  0.00     0.035 H 
ATOM     94  H66 PLJ d   1       9.437   9.032 -12.371  0.00  0.00     0.035 H 
ATOM     95  H67 PLJ d   1       8.776  11.231 -12.869  0.00  0.00     0.036 H 
ATOM     96  H68 PLJ d   1       9.731  10.859 -14.345  0.00  0.00     0.036 H 
ATOM     97  H71 PLJ d   1      11.534  12.055 -13.653  0.00  0.00     0.088 H 
BRANCH  88  98
ATOM     98  C   PLJ d   1      10.137  13.371 -12.762  0.00  0.00     0.281 C 
ATOM     99  O   PLJ d   1       9.489  13.713 -11.770  0.00  0.00    -0.263 OA
BRANCH  98 100
ATOM    100  OXT PLJ d   1      10.455  14.327 -13.716  0.00  0.00    -0.325 OA
BRANCH 100 101
ATOM    101  CM  PLJ d   1       9.895  15.610 -13.636  0.00  0.00     0.013 C 
ATOM    102  H62 PLJ d   1      10.262  16.223 -14.472  0.00  0.00     0.067 H 
ATOM    103  H63 PLJ d   1      10.185  16.078 -12.684  0.00  0.00     0.067 H 
ATOM    104  H64 PLJ d   1       8.799  15.536 -13.689  0.00  0.00     0.067 H 
ENDBRANCH 100 101
ENDBRANCH  98 100
ENDBRANCH  88  98
ENDBRANCH  82  84
BRANCH  82 105
ATOM    105  CB  ZAE d   1      14.112  12.533  -9.239  0.00  0.00    -0.037 C 
ATOM    106  H48 ZAE d   1      13.755  13.546  -9.003  0.00  0.00     0.036 H 
ATOM    107  H49 ZAE d   1      14.835  12.583 -10.066  0.00  0.00     0.036 H 
BRANCH 105 108
ATOM    108  CG  ZAE d   1      14.796  11.935  -8.003  0.00  0.00    -0.060 C 
ATOM    109  H50 ZAE d   1      15.877  11.938  -8.206  0.00  0.00     0.033 H 
ATOM    110  H51 ZAE d   1      14.442  10.897  -7.915  0.00  0.00     0.033 H 
BRANCH 108 111
ATOM    111  CD2 ZAE d   1      14.606  12.571  -6.661  0.00  0.00    -0.050 C 
ATOM    112  H52 ZAE d   1      13.526  12.563  -6.453  0.00  0.00     0.038 H 
ATOM    113  H53 ZAE d   1      14.955  13.611  -6.747  0.00  0.00     0.038 H 
BRANCH 111 114
ATOM    114  CE2 ZAE d   1      15.287  11.979  -5.459  0.00  0.00    -0.107 C 
ATOM    115  H57 ZAE d   1      15.154  12.443  -4.483  0.00  0.00     0.076 H 
BRANCH 114 116
ATOM    116  CZ  ZAE d   1      16.140  10.767  -5.587  0.00  0.00    -0.110 C 
ATOM    117  H58 ZAE d   1      16.623  10.340  -4.710  0.00  0.00     0.075 H 
BRANCH 116 118
ATOM    118  CE1 ZAE d   1      16.326  10.145  -6.923  0.00  0.00    -0.060 C 
ATOM    119  H54 ZAE d   1      16.981   9.266  -6.830  0.00  0.00     0.032 H 
ATOM    120  H55 ZAE d   1      16.785  10.874  -7.606  0.00  0.00     0.032 H 
ATOM    121  H56 ZAE d   1      15.349   9.834  -7.322  0.00  0.00     0.032 H 
ENDBRANCH 116 118
ENDBRANCH 114 116
ENDBRANCH 111 114
ENDBRANCH 108 111
ENDBRANCH 105 108
ENDBRANCH  82 105
ENDBRANCH  81  82
BRANCH  81 122
ATOM    122  C10 ZAE d   1      11.244  12.683  -8.100  0.00  0.00    -0.015 C 
ATOM    123  H59 ZAE d   1      10.591  12.388  -7.266  0.00  0.00     0.056 H 
ATOM    124  H60 ZAE d   1      10.631  13.072  -8.926  0.00  0.00     0.056 H 
ATOM    125  H61 ZAE d   1      11.941  13.464  -7.762  0.00  0.00     0.056 H 
ENDBRANCH  81 122
ENDBRANCH  77  79
BRANCH  77 126
ATOM    126  CB  ALA d   1      11.777  10.292  -5.486  0.00  0.00    -0.049 C 
ATOM    127  H44 ALA d   1      12.154  11.325  -5.489  0.00  0.00     0.030 H 
ATOM    128  H45 ALA d   1      12.626   9.592  -5.499  0.00  0.00     0.030 H 
ATOM    129  H46 ALA d   1      11.176  10.124  -4.580  0.00  0.00     0.030 H 
ENDBRANCH  77 126
ENDBRANCH  75  77
ENDBRANCH   1  73
BRANCH   1 130
ATOM    130  CB  LEU d   1       8.587   6.502  -8.491  0.00  0.00    -0.035 C 
ATOM    131  H33 LEU d   1       7.848   7.117  -9.026  0.00  0.00     0.037 H 
ATOM    132  H34 LEU d   1       8.271   5.449  -8.512  0.00  0.00     0.037 H 
BRANCH 130 133
ATOM    133  CG  LEU d   1       9.941   6.629  -9.192  0.00  0.00    -0.059 C 
ATOM    134  H35 LEU d   1      10.386   7.615  -8.992  0.00  0.00     0.038 H 
BRANCH 133 135
ATOM    135  CD1 LEU d   1      10.858   5.545  -8.705  0.00  0.00    -0.073 C 
ATOM    136  H36 LEU d   1      11.832   5.635  -9.208  0.00  0.00     0.028 H 
ATOM    137  H37 LEU d   1      10.418   4.563  -8.932  0.00  0.00     0.028 H 
ATOM    138  H38 LEU d   1      10.996   5.643  -7.618  0.00  0.00     0.028 H 
ENDBRANCH 133 135
BRANCH 133 139
ATOM    139  CD2 LEU d   1       9.689   6.454 -10.681  0.00  0.00    -0.073 C 
ATOM    140  H39 LEU d   1       9.017   7.250 -11.035  0.00  0.00     0.028 H 
ATOM    141  H40 LEU d   1       9.224   5.474 -10.861  0.00  0.00     0.028 H 
ATOM    142  H41 LEU d   1      10.644   6.512 -11.224  0.00  0.00     0.028 H 
ENDBRANCH 133 139
ENDBRANCH 130 133
ENDBRANCH   1 130
TORSDOF 36
