REMARK  4 active torsions:
REMARK  status: ('A' for Active; 'I' for Inactive)
REMARK    1  A    between atoms: C23_29  and  N1_2 
REMARK    2  A    between atoms: N3_8  and  C10_16 
REMARK       I    between atoms: C11_17  and  N3_8 
REMARK    3  A    between atoms: C26_32  and  C11_17 
REMARK    4  A    between atoms: C13_19  and  C20_26 
ROOT
ATOM      1  C21 2IW d   1      -7.991  40.572  28.409  0.00  0.00    -0.066 A 
ATOM      2  C22 2IW d   1      -7.131  41.717  28.290  0.00  0.00    -0.056 A 
ATOM      3  C23 2IW d   1      -6.820  42.235  26.970  0.00  0.00     0.045 A 
ATOM      4  C24 2IW d   1      -7.327  41.675  25.738  0.00  0.00    -0.056 A 
ATOM      5  C25 2IW d   1      -8.192  40.526  25.848  0.00  0.00    -0.066 A 
ATOM      6  C26 2IW d   1      -8.498  40.015  27.179  0.00  0.00     0.032 A 
ATOM      7  H18 2IW d   1      -8.246  40.148  29.374  0.00  0.00     0.085 H 
ATOM      8  H19 2IW d   1      -6.719  42.188  29.175  0.00  0.00     0.087 H 
ATOM      9  H20 2IW d   1      -7.069  42.099  24.774  0.00  0.00     0.087 H 
ATOM     10  H21 2IW d   1      -8.604  40.054  24.963  0.00  0.00     0.085 H 
ENDROOT
BRANCH   6  11
ATOM     11  C11 2IW d   1      -9.405  38.861  27.258  0.00  0.00     0.256 C 
ATOM     12  N3  2IW d   1     -10.521  39.058  28.052  0.00  0.00    -0.321 N 
ATOM     13  H4  2IW d   1     -10.578  39.931  28.536  0.00  0.00     0.169 HD
ATOM     14  O3  2IW d   1      -9.186  37.805  26.653  0.00  0.00    -0.267 OA
BRANCH  12  15
ATOM     15  C10 2IW d   1     -11.565  38.174  28.246  0.00  0.00     0.064 A 
ATOM     16  C15 2IW d   1     -12.808  38.670  28.881  0.00  0.00     0.094 A 
ATOM     17  N2  2IW d   1     -13.029  40.025  29.346  0.00  0.00    -0.258 NA
ATOM     18  C14 2IW d   1     -13.977  37.704  29.070  0.00  0.00     0.001 A 
ATOM     19  C16 2IW d   1     -14.191  40.510  29.965  0.00  0.00     0.003 A 
ATOM     20  C12 2IW d   1     -15.313  39.599  30.157  0.00  0.00    -0.059 A 
ATOM     21  H11 2IW d   1     -14.253  41.541  30.294  0.00  0.00     0.114 H 
ATOM     22  C13 2IW d   1     -15.194  38.220  29.720  0.00  0.00    -0.048 A 
ATOM     23  H10 2IW d   1     -16.228  39.948  30.622  0.00  0.00     0.086 H 
ATOM     24  C17 2IW d   1     -13.768  36.330  28.629  0.00  0.00    -0.070 A 
ATOM     25  C18 2IW d   1     -12.534  35.855  28.014  0.00  0.00    -0.080 A 
ATOM     26  H12 2IW d   1     -14.576  35.621  28.766  0.00  0.00     0.084 H 
ATOM     27  C19 2IW d   1     -11.440  36.771  27.831  0.00  0.00    -0.055 A 
ATOM     28  H13 2IW d   1     -12.442  34.822  27.698  0.00  0.00     0.083 H 
ATOM     29  H14 2IW d   1     -10.516  36.423  27.383  0.00  0.00     0.087 H 
BRANCH  22  30
ATOM     30  C20 2IW d   1     -16.385  37.371  29.934  0.00  0.00    -0.050 C 
ATOM     31  H15 2IW d   1     -17.170  37.959  30.433  0.00  0.00     0.033 H 
ATOM     32  H16 2IW d   1     -16.114  36.512  30.565  0.00  0.00     0.033 H 
ATOM     33  H17 2IW d   1     -16.758  37.011  28.964  0.00  0.00     0.033 H 
ENDBRANCH  22  30
ENDBRANCH  12  15
ENDBRANCH   6  11
BRANCH   3  34
ATOM     34  N1  2IW d   1      -6.005  43.307  26.917  0.00  0.00    -0.252 N 
ATOM     35  C4  2IW d   1      -4.625  43.188  26.846  0.00  0.00     0.236 A 
ATOM     36  C1  2IW d   1      -4.041  44.603  26.727  0.00  0.00     0.043 A 
ATOM     37  O1  2IW d   1      -3.912  42.187  26.860  0.00  0.00    -0.272 OA
ATOM     38  C2  2IW d   1      -3.363  45.116  28.073  0.00  0.00    -0.025 C 
ATOM     39  C3  2IW d   1      -5.268  45.544  26.841  0.00  0.00     0.043 A 
ATOM     40  H1  2IW d   1      -3.416  44.724  25.830  0.00  0.00     0.057 H 
ATOM     41  C7  2IW d   1      -4.139  44.538  29.259  0.00  0.00    -0.101 C 
ATOM     42  C8  2IW d   1      -3.614  46.588  28.172  0.00  0.00    -0.051 C 
ATOM     43  H2  2IW d   1      -2.292  44.865  28.109  0.00  0.00     0.047 H 
ATOM     44  C9  2IW d   1      -5.140  45.463  29.362  0.00  0.00    -0.101 C 
ATOM     45  H6  2IW d   1      -3.948  43.645  29.852  0.00  0.00     0.077 H 
ATOM     46  C6  2IW d   1      -5.139  46.467  28.166  0.00  0.00    -0.025 C 
ATOM     47  H9  2IW d   1      -5.855  45.496  30.183  0.00  0.00     0.077 H 
ATOM     48  H5  2IW d   1      -5.771  47.365  28.229  0.00  0.00     0.047 H 
ATOM     49  H7  2IW d   1      -3.225  47.148  27.309  0.00  0.00     0.035 H 
ATOM     50  H8  2IW d   1      -3.223  47.028  29.101  0.00  0.00     0.035 H 
ATOM     51  C5  2IW d   1      -6.460  44.602  26.950  0.00  0.00     0.236 A 
ATOM     52  H3  2IW d   1      -5.357  46.184  25.951  0.00  0.00     0.057 H 
ATOM     53  O2  2IW d   1      -7.607  45.012  27.053  0.00  0.00    -0.272 OA
ENDBRANCH   3  34
TORSDOF 4
