REMARK  9 active torsions:
REMARK  status: ('A' for Active; 'I' for Inactive)
REMARK    1  A    between atoms: P3_2  and  C2_5 
REMARK    2  A    between atoms: C2_5  and  P1_6 
REMARK    3  A    between atoms: C2_5  and  C4_10 
REMARK    4  A    between atoms: C4_10  and  N5_11 
REMARK    5  A    between atoms: N5_11  and  C6_12 
REMARK    6  A    between atoms: C6_12  and  C7_13 
REMARK    7  A    between atoms: C7_13  and  C8_14 
REMARK    8  A    between atoms: C8_14  and  C9_15 
REMARK    9  A    between atoms: C9_15  and  C10_16 
ROOT
ATOM      1  N5  0M7 d   1      10.757  17.252 176.160  0.00  0.00    -0.073 N 
ATOM      2  H4  0M7 d   1      10.918  17.709 177.044  0.00  0.00     0.277 HD
ATOM      3  H5  0M7 d   1      10.014  16.578 176.261  0.00  0.00     0.277 HD
ENDROOT
BRANCH   1   4
ATOM      4  C4  0M7 d   1      11.967  16.508 175.839  0.00  0.00     0.109 C 
ATOM      5  H2  0M7 d   1      11.782  15.826 174.996  0.00  0.00     0.078 H 
ATOM      6  H3  0M7 d   1      12.781  17.200 175.579  0.00  0.00     0.078 H 
BRANCH   4   7
ATOM      7  C2  0M7 d   1      12.327  15.718 177.085  0.00  0.00     0.185 C 
ATOM      8  H1  0M7 d   1      11.455  15.624 177.749  0.00  0.00     0.086 H 
BRANCH   7   9
ATOM      9  P3  0M7 d   1      12.800  14.094 176.456  0.00  0.00     0.279 P 
ATOM     10  O11 0M7 d   1      13.150  13.248 177.641  0.00  0.00    -0.639 OA
ATOM     11  O13 0M7 d   1      13.969  14.315 175.487  0.00  0.00    -0.639 OA
ATOM     12  O12 0M7 d   1      11.520  13.649 175.806  0.00  0.00    -0.639 OA
ENDBRANCH   7   9
BRANCH   7  13
ATOM     13  P1  0M7 d   1      13.666  16.556 177.990  0.00  0.00     0.279 P 
ATOM     14  O15 0M7 d   1      14.021  15.550 179.058  0.00  0.00    -0.639 OA
ATOM     15  O14 0M7 d   1      14.709  16.762 176.902  0.00  0.00    -0.639 OA
ATOM     16  O16 0M7 d   1      13.130  17.849 178.486  0.00  0.00    -0.639 OA
ENDBRANCH   7  13
ENDBRANCH   4   7
ENDBRANCH   1   4
BRANCH   1  17
ATOM     17  C6  0M7 d   1      10.287  18.264 175.240  0.00  0.00     0.082 C 
ATOM     18  H6  0M7 d   1       9.336  18.677 175.607  0.00  0.00     0.075 H 
ATOM     19  H7  0M7 d   1      10.133  17.813 174.249  0.00  0.00     0.075 H 
BRANCH  17  20
ATOM     20  C7  0M7 d   1      11.319  19.385 175.132  0.00  0.00    -0.043 C 
ATOM     21  H8  0M7 d   1      12.325  18.967 175.283  0.00  0.00     0.035 H 
ATOM     22  H9  0M7 d   1      11.116  20.140 175.906  0.00  0.00     0.035 H 
BRANCH  20  23
ATOM     23  C8  0M7 d   1      11.251  20.040 173.765  0.00  0.00    -0.064 C 
ATOM     24  H10 0M7 d   1      10.802  19.340 173.045  0.00  0.00     0.033 H 
ATOM     25  H11 0M7 d   1      12.266  20.306 173.434  0.00  0.00     0.033 H 
BRANCH  23  26
ATOM     26  C9  0M7 d   1      10.408  21.284 173.849  0.00  0.00    -0.069 C 
ATOM     27  H12 0M7 d   1      10.840  22.068 173.209  0.00  0.00     0.032 H 
ATOM     28  H13 0M7 d   1      10.373  21.638 174.890  0.00  0.00     0.032 H 
BRANCH  26  29
ATOM     29  C10 0M7 d   1       8.997  20.952 173.372  0.00  0.00    -0.077 C 
ATOM     30  H14 0M7 d   1       8.369  21.854 173.428  0.00  0.00     0.027 H 
ATOM     31  H15 0M7 d   1       8.569  20.167 174.012  0.00  0.00     0.027 H 
ATOM     32  H16 0M7 d   1       9.036  20.596 172.332  0.00  0.00     0.027 H 
ENDBRANCH  26  29
ENDBRANCH  23  26
ENDBRANCH  20  23
ENDBRANCH  17  20
ENDBRANCH   1  17
TORSDOF 9
