REMARK  14 active torsions:
REMARK  status: ('A' for Active; 'I' for Inactive)
REMARK       I    between atoms: N12_2  and  C13_3 
REMARK    1  A    between atoms: C05_20  and  N12_2 
REMARK    2  A    between atoms: C13_3  and  C15_4 
REMARK    3  A    between atoms: C15_4  and  N16_14 
REMARK    4  A    between atoms: N16_14  and  C17_5 
REMARK    5  A    between atoms: C17_5  and  C18_15 
REMARK    6  A    between atoms: C19_16  and  C20_6 
REMARK    7  A    between atoms: C26_10  and  C27_12 
REMARK    8  A    between atoms: N16_14  and  C26_10 
REMARK    9  A    between atoms: C18_15  and  C19_16 
REMARK   10  A    between atoms: C05_20  and  C03_21 
REMARK   11  A    between atoms: C06_25  and  C05_20 
REMARK   12  A    between atoms: C03_21  and  O02_23 
REMARK   13  A    between atoms: O02_23  and  C01_24 
REMARK   14  A    between atoms: C07_26  and  C06_25 
ROOT
ATOM      1  N16 MGK d   1     102.989 -71.115  -9.750  0.00  0.00    -0.053 N 
ATOM      2  H   MGK d   1     102.810 -71.456 -10.681  0.00  0.00     0.281 HD
ENDROOT
BRANCH   1   3
ATOM      3  C15 MGK d   1     104.300 -70.407  -9.852  0.00  0.00     0.156 C 
ATOM      4  H   MGK d   1     105.053 -71.142 -10.172  0.00  0.00     0.090 H 
ATOM      5  H   MGK d   1     104.200 -69.626 -10.620  0.00  0.00     0.090 H 
BRANCH   3   6
ATOM      6  C13 MGK d   1     104.814 -69.740  -8.573  0.00  0.00     0.244 C 
ATOM      7  N12 MGK d   1     106.067 -69.249  -8.464  0.00  0.00    -0.345 N 
ATOM      8  H   MGK d   1     106.259 -68.621  -7.709  0.00  0.00     0.163 HD
ATOM      9  O14 MGK d   1     104.055 -69.648  -7.630  0.00  0.00    -0.272 OA
BRANCH   7  10
ATOM     10  C05 MGK d   1     107.154 -69.572  -9.370  0.00  0.00     0.101 C 
ATOM     11  H   MGK d   1     106.690 -70.145 -10.187  0.00  0.00     0.089 H 
BRANCH  10  12
ATOM     12  C03 MGK d   1     108.191 -70.500  -8.768  0.00  0.00     0.281 C 
ATOM     13  O04 MGK d   1     108.970 -70.002  -7.982  0.00  0.00    -0.263 OA
BRANCH  12  14
ATOM     14  O02 MGK d   1     108.289 -71.939  -9.123  0.00  0.00    -0.325 OA
BRANCH  14  15
ATOM     15  C01 MGK d   1     108.519 -73.007  -8.197  0.00  0.00     0.013 C 
ATOM     16  H   MGK d   1     108.544 -73.964  -8.739  0.00  0.00     0.067 H 
ATOM     17  H   MGK d   1     107.709 -73.028  -7.453  0.00  0.00     0.067 H 
ATOM     18  H   MGK d   1     109.481 -72.850  -7.687  0.00  0.00     0.067 H 
ENDBRANCH  14  15
ENDBRANCH  12  14
ENDBRANCH  10  12
BRANCH  10  19
ATOM     19  C06 MGK d   1     107.777 -68.325 -10.044  0.00  0.00     0.004 C 
ATOM     20  H   MGK d   1     107.243 -68.193 -10.997  0.00  0.00     0.046 H 
ATOM     21  H   MGK d   1     108.828 -68.578 -10.245  0.00  0.00     0.046 H 
BRANCH  19  22
ATOM     22  C07 MGK d   1     107.791 -66.964  -9.376  0.00  0.00     0.053 A 
ATOM     23  N11 MGK d   1     108.289 -65.851  -9.958  0.00  0.00    -0.247 NA
ATOM     24  C10 MGK d   1     108.171 -64.807  -9.113  0.00  0.00     0.064 A 
ATOM     25  N09 MGK d   1     107.571 -65.250  -7.981  0.00  0.00    -0.359 N 
ATOM     26  H   MGK d   1     108.500 -63.787  -9.306  0.00  0.00     0.143 H 
ATOM     27  C08 MGK d   1     107.337 -66.579  -8.118  0.00  0.00     0.002 A 
ATOM     28  H   MGK d   1     107.334 -64.677  -7.159  0.00  0.00     0.166 HD
ATOM     29  H   MGK d   1     106.876 -67.229  -7.376  0.00  0.00     0.114 H 
ENDBRANCH  19  22
ENDBRANCH  10  19
ENDBRANCH   7  10
ENDBRANCH   3   6
ENDBRANCH   1   3
BRANCH   1  30
ATOM     30  C17 MGK d   1     101.842 -70.215  -9.449  0.00  0.00     0.085 C 
ATOM     31  H   MGK d   1     102.166 -69.175  -9.602  0.00  0.00     0.076 H 
ATOM     32  H   MGK d   1     101.554 -70.358  -8.397  0.00  0.00     0.076 H 
BRANCH  30  33
ATOM     33  C18 MGK d   1     100.615 -70.474 -10.326  0.00  0.00    -0.039 C 
ATOM     34  H   MGK d   1     100.832 -71.328 -10.984  0.00  0.00     0.035 H 
ATOM     35  H   MGK d   1     100.429 -69.578 -10.937  0.00  0.00     0.035 H 
BRANCH  33  36
ATOM     36  C19 MGK d   1      99.338 -70.790  -9.522  0.00  0.00    -0.040 C 
ATOM     37  H   MGK d   1      99.016 -71.806  -9.794  0.00  0.00     0.040 H 
ATOM     38  H   MGK d   1      99.601 -70.762  -8.454  0.00  0.00     0.040 H 
BRANCH  36  39
ATOM     39  C20 MGK d   1      98.138 -69.850  -9.731  0.00  0.00    -0.058 A 
ATOM     40  C21 MGK d   1      96.947 -70.115  -9.021  0.00  0.00    -0.077 A 
ATOM     41  C22 MGK d   1      95.821 -69.281  -9.173  0.00  0.00    -0.082 A 
ATOM     42  H   MGK d   1      96.898 -70.967  -8.353  0.00  0.00     0.084 H 
ATOM     43  C23 MGK d   1      95.875 -68.175 -10.039  0.00  0.00    -0.083 A 
ATOM     44  H   MGK d   1      94.912 -69.493  -8.621  0.00  0.00     0.083 H 
ATOM     45  C24 MGK d   1      97.053 -67.898 -10.754  0.00  0.00    -0.082 A 
ATOM     46  H   MGK d   1      95.008 -67.535 -10.155  0.00  0.00     0.083 H 
ATOM     47  C25 MGK d   1      98.174 -68.728 -10.598  0.00  0.00    -0.077 A 
ATOM     48  H   MGK d   1      97.096 -67.046 -11.423  0.00  0.00     0.083 H 
ATOM     49  H   MGK d   1      99.081 -68.508 -11.149  0.00  0.00     0.084 H 
ENDBRANCH  36  39
ENDBRANCH  33  36
ENDBRANCH  30  33
ENDBRANCH   1  30
BRANCH   1  50
ATOM     50  C26 MGK d   1     103.026 -72.356  -8.887  0.00  0.00     0.162 C 
ATOM     51  H   MGK d   1     102.009 -72.774  -8.914  0.00  0.00     0.093 H 
ATOM     52  H   MGK d   1     103.720 -73.050  -9.384  0.00  0.00     0.093 H 
BRANCH  50  53
ATOM     53  C27 MGK d   1     103.438 -72.335  -7.399  0.00  0.00     0.199 C 
ATOM     54  O29 MGK d   1     102.608 -72.041  -6.489  0.00  0.00    -0.647 OA
ATOM     55  O28 MGK d   1     104.619 -72.652  -7.112  0.00  0.00    -0.647 OA
ENDBRANCH  50  53
ENDBRANCH   1  50
TORSDOF 14
