REMARK WARNING: 32 MAX_TORS EXCEEDED!!!
REMARK  44 active torsions:
REMARK  status: ('A' for Active; 'I' for Inactive)
REMARK    1  A    between atoms: N_1  and  CA_2 
REMARK    2  A    between atoms: CA_2  and  C_3 
REMARK    3  A    between atoms: CA_2  and  CB_5 
REMARK       I    between atoms: C_3  and  N_10 
REMARK    4  A    between atoms: CB_5  and  CG_6 
REMARK    5  A    between atoms: CG_6  and  CD_7 
REMARK    6  A    between atoms: CD_7  and  CE_8 
REMARK    7  A    between atoms: CE_8  and  NZ_9 
REMARK    8  A    between atoms: N_10  and  CA_11 
REMARK    9  A    between atoms: CA_11  and  C_12 
REMARK   10  A    between atoms: CA_11  and  CB_14 
REMARK       I    between atoms: C_12  and  N_16 
REMARK   11  A    between atoms: CB_14  and  OG_15 
REMARK   12  A    between atoms: N_16  and  CA_17 
REMARK   13  A    between atoms: CA_17  and  C_18 
REMARK   14  A    between atoms: CA_17  and  CB_20 
REMARK       I    between atoms: C_18  and  N_21 
REMARK   15  A    between atoms: N_21  and  CA_22 
REMARK   16  A    between atoms: CA_22  and  C_23 
REMARK   17  A    between atoms: CA_22  and  CB_25 
REMARK       I    between atoms: C_23  and  N_28 
REMARK   18  A    between atoms: CB_25  and  CG1_26 
REMARK   19  A    between atoms: CB_25  and  CG2_27 
REMARK   20  A    between atoms: N_28  and  CA_29 
REMARK   21  A    between atoms: CA_29  and  C_30 
REMARK   22  A    between atoms: CA_29  and  CB_32 
REMARK       I    between atoms: C_30  and  N_35 
REMARK   23  A    between atoms: CB_32  and  OG1_33 
REMARK   24  A    between atoms: CB_32  and  CG2_34 
REMARK   25  A    between atoms: N_35  and  CA_36 
REMARK   26  A    between atoms: CA_36  and  C_37 
REMARK   27  A    between atoms: CA_36  and  CB_39 
REMARK       I    between atoms: C_37  and  N_42 
REMARK   28  A    between atoms: CB_39  and  OG1_40 
REMARK   29  A    between atoms: CB_39  and  CG2_41 
REMARK   30  A    between atoms: N_42  and  CA_43 
REMARK   31  A    between atoms: CA_43  and  C_44 
REMARK   32  A    between atoms: CA_43  and  CB_46 
REMARK       I    between atoms: C_44  and  N_49 
REMARK   33  A    between atoms: CB_46  and  CG1_47 
REMARK   34  A    between atoms: CB_46  and  CG2_48 
REMARK   35  A    between atoms: N_49  and  CA_50 
REMARK   36  A    between atoms: CA_50  and  C_51 
REMARK   37  A    between atoms: CA_50  and  CB_53 
REMARK       I    between atoms: C_51  and  N_56 
REMARK   38  A    between atoms: CB_53  and  CG1_54 
REMARK   39  A    between atoms: CB_53  and  CG2_55 
REMARK   40  A    between atoms: N_56  and  CA_57 
REMARK   41  A    between atoms: CA_57  and  C_58 
REMARK   42  A    between atoms: CA_57  and  CB_60 
REMARK       I    between atoms: C_58  and  N_64 
REMARK   43  A    between atoms: CB_60  and  CG_61 
REMARK       I    between atoms: CG_61  and  ND2_63 
REMARK   44  A    between atoms: CA_65  and  C_66 
ROOT
ATOM      1  C   THR d   1      25.469  82.214 -77.869  0.00  0.00     0.243 C 
ATOM      2  O   THR d   1      25.141  83.405 -77.889  0.00  0.00    -0.271 OA
ATOM      3  N   THR d   1      26.738  81.801 -77.865  0.00  0.00    -0.344 N 
ATOM      4  H42 THR d   1      26.922  80.818 -77.892  0.00  0.00     0.163 HD
ENDROOT
BRANCH   1   5
ATOM      5  CA  THR d   1      24.410  81.106 -77.868  0.00  0.00     0.113 C 
ATOM      6  H36 THR d   1      24.816  80.261 -77.292  0.00  0.00     0.091 H 
BRANCH   5   7
ATOM      7  N   THR d   1      23.147  81.497 -77.218  0.00  0.00    -0.344 N 
ATOM      8  C   VAL d   1      22.744  80.939 -76.077  0.00  0.00     0.241 C 
ATOM      9  O   VAL d   1      23.421  80.108 -75.468  0.00  0.00    -0.271 OA
ATOM     10  H35 THR d   1      22.577  82.200 -77.644  0.00  0.00     0.163 HD
BRANCH   8  11
ATOM     11  CA  VAL d   1      21.378  81.380 -75.530  0.00  0.00     0.092 C 
ATOM     12  H27 VAL d   1      20.942  82.117 -76.221  0.00  0.00     0.088 H 
BRANCH  11  13
ATOM     13  N   VAL d   1      20.468  80.231 -75.447  0.00  0.00    -0.346 N 
ATOM     14  C   ALA d   1      19.214  80.256 -75.901  0.00  0.00     0.240 C 
ATOM     15  O   ALA d   1      18.692  81.259 -76.392  0.00  0.00    -0.271 OA
ATOM     16  H26 VAL d   1      20.805  79.387 -75.029  0.00  0.00     0.163 HD
BRANCH  14  17
ATOM     17  CA  ALA d   1      18.420  78.951 -75.781  0.00  0.00     0.086 C 
ATOM     18  H22 ALA d   1      17.599  78.984 -76.513  0.00  0.00     0.086 H 
BRANCH  17  19
ATOM     19  N   ALA d   1      19.253  77.789 -76.090  0.00  0.00    -0.346 N 
ATOM     20  C   SER d   1      18.796  76.708 -76.722  0.00  0.00     0.243 C 
ATOM     21  O   SER d   1      17.612  76.547 -77.025  0.00  0.00    -0.271 OA
ATOM     22  H21 ALA d   1      20.214  77.806 -75.813  0.00  0.00     0.163 HD
BRANCH  20  23
ATOM     23  CA  SER d   1      19.849  75.650 -77.064  0.00  0.00     0.109 C 
ATOM     24  H17 SER d   1      20.461  75.503 -76.162  0.00  0.00     0.090 H 
BRANCH  23  25
ATOM     25  N   SER d   1      19.329  74.332 -77.449  0.00  0.00    -0.344 N 
ATOM     26  C   LYS d   1      18.679  73.507 -76.627  0.00  0.00     0.249 C 
ATOM     27  O   LYS d   1      18.248  73.839 -75.521  0.00  0.00    -0.271 OA
ATOM     28  H16 SER d   1      19.472  74.032 -78.392  0.00  0.00     0.163 HD
BRANCH  26  29
ATOM     29  CA  LYS d   1      18.477  72.087 -77.153  0.00  0.00     0.176 C 
ATOM     30  H4  LYS d   1      19.448  71.737 -77.533  0.00  0.00     0.099 H 
BRANCH  29  31
ATOM     31  N   LYS d   1      18.048  71.139 -76.085  0.00  0.00    -0.067 N 
ATOM     32  H1  LYS d   1      17.928  70.219 -76.480  0.00  0.00     0.275 HD
ATOM     33  H2  LYS d   1      17.175  71.451 -75.690  0.00  0.00     0.275 HD
ATOM     34  H3  LYS d   1      18.751  71.106 -75.363  0.00  0.00     0.275 HD
ENDBRANCH  29  31
BRANCH  29  35
ATOM     35  CB  LYS d   1      17.487  72.070 -78.319  0.00  0.00    -0.030 C 
ATOM     36  H5  LYS d   1      17.640  72.981 -78.916  0.00  0.00     0.036 H 
ATOM     37  H6  LYS d   1      16.467  72.069 -77.907  0.00  0.00     0.036 H 
BRANCH  35  38
ATOM     38  CG  LYS d   1      17.634  70.864 -79.238  0.00  0.00    -0.061 C 
ATOM     39  H7  LYS d   1      17.618  69.949 -78.628  0.00  0.00     0.033 H 
ATOM     40  H8  LYS d   1      18.596  70.936 -79.766  0.00  0.00     0.033 H 
BRANCH  38  41
ATOM     41  CD  LYS d   1      16.514  70.788 -80.267  0.00  0.00    -0.043 C 
ATOM     42  H9  LYS d   1      16.767  70.020 -81.013  0.00  0.00     0.035 H 
ATOM     43  H10 LYS d   1      16.419  71.765 -80.764  0.00  0.00     0.035 H 
BRANCH  41  44
ATOM     44  CE  LYS d   1      15.180  70.430 -79.622  0.00  0.00     0.080 C 
ATOM     45  H11 LYS d   1      14.839  71.283 -79.017  0.00  0.00     0.075 H 
ATOM     46  H12 LYS d   1      15.324  69.554 -78.973  0.00  0.00     0.075 H 
BRANCH  44  47
ATOM     47  NZ  LYS d   1      14.135  70.111 -80.631  0.00  0.00    -0.079 N 
ATOM     48  H13 LYS d   1      13.273  69.881 -80.161  0.00  0.00     0.274 HD
ATOM     49  H14 LYS d   1      14.434  69.326 -81.188  0.00  0.00     0.274 HD
ATOM     50  H15 LYS d   1      13.989  70.910 -81.228  0.00  0.00     0.274 HD
ENDBRANCH  44  47
ENDBRANCH  41  44
ENDBRANCH  38  41
ENDBRANCH  35  38
ENDBRANCH  29  35
ENDBRANCH  26  29
ENDBRANCH  23  25
BRANCH  23  51
ATOM     51  CB  SER d   1      20.757  76.179 -78.178  0.00  0.00     0.044 C 
ATOM     52  H18 SER d   1      21.607  75.493 -78.306  0.00  0.00     0.077 H 
ATOM     53  H19 SER d   1      21.129  77.175 -77.897  0.00  0.00     0.077 H 
BRANCH  51  54
ATOM     54  OG  SER d   1      20.049  76.276 -79.404  0.00  0.00    -0.398 OA
ATOM     55  H20 SER d   1      20.631  76.606 -80.079  0.00  0.00     0.209 HD
ENDBRANCH  51  54
ENDBRANCH  23  51
ENDBRANCH  20  23
ENDBRANCH  17  19
BRANCH  17  56
ATOM     56  CB  ALA d   1      17.811  78.822 -74.392  0.00  0.00    -0.049 C 
ATOM     57  H23 ALA d   1      17.190  79.705 -74.181  0.00  0.00     0.030 H 
ATOM     58  H24 ALA d   1      18.615  78.752 -73.644  0.00  0.00     0.030 H 
ATOM     59  H25 ALA d   1      17.188  77.916 -74.347  0.00  0.00     0.030 H 
ENDBRANCH  17  56
ENDBRANCH  14  17
ENDBRANCH  11  13
BRANCH  11  60
ATOM     60  CB  VAL d   1      21.567  82.053 -74.150  0.00  0.00    -0.033 C 
ATOM     61  H28 VAL d   1      22.015  81.314 -73.470  0.00  0.00     0.042 H 
BRANCH  60  62
ATOM     62  CG1 VAL d   1      22.513  83.243 -74.245  0.00  0.00    -0.071 C 
ATOM     63  H29 VAL d   1      22.628  83.700 -73.251  0.00  0.00     0.028 H 
ATOM     64  H30 VAL d   1      22.100  83.985 -74.944  0.00  0.00     0.028 H 
ATOM     65  H31 VAL d   1      23.494  82.903 -74.608  0.00  0.00     0.028 H 
ENDBRANCH  60  62
BRANCH  60  66
ATOM     66  CG2 VAL d   1      20.230  82.484 -73.566  0.00  0.00    -0.071 C 
ATOM     67  H32 VAL d   1      19.559  81.614 -73.504  0.00  0.00     0.028 H 
ATOM     68  H33 VAL d   1      19.778  83.251 -74.212  0.00  0.00     0.028 H 
ATOM     69  H34 VAL d   1      20.386  82.899 -72.559  0.00  0.00     0.028 H 
ENDBRANCH  60  66
ENDBRANCH  11  60
ENDBRANCH   8  11
ENDBRANCH   5   7
BRANCH   5  70
ATOM     70  CB  THR d   1      24.195  80.627 -79.321  0.00  0.00     0.060 C 
ATOM     71  H37 THR d   1      25.161  80.297 -79.731  0.00  0.00     0.086 H 
BRANCH  70  72
ATOM     72  OG1 THR d   1      23.696  81.708 -80.115  0.00  0.00    -0.393 OA
ATOM     73  H38 THR d   1      22.869  82.008 -79.756  0.00  0.00     0.210 HD
ENDBRANCH  70  72
BRANCH  70  74
ATOM     74  CG2 THR d   1      23.217  79.462 -79.375  0.00  0.00    -0.050 C 
ATOM     75  H39 THR d   1      23.084  79.143 -80.419  0.00  0.00     0.031 H 
ATOM     76  H40 THR d   1      22.248  79.778 -78.962  0.00  0.00     0.031 H 
ATOM     77  H41 THR d   1      23.613  78.623 -78.783  0.00  0.00     0.031 H 
ENDBRANCH  70  74
ENDBRANCH   5  70
ENDBRANCH   1   5
BRANCH   3  78
ATOM     78  CA  THR d   1      27.876  82.727 -77.823  0.00  0.00     0.113 C 
ATOM     79  H43 THR d   1      27.547  83.661 -78.302  0.00  0.00     0.091 H 
BRANCH  78  80
ATOM     80  C   THR d   1      29.098  82.221 -78.599  0.00  0.00     0.243 C 
ATOM     81  O   THR d   1      29.197  81.032 -78.915  0.00  0.00    -0.271 OA
ATOM     82  N   VAL d   1      30.014  83.143 -78.902  0.00  0.00    -0.346 N 
ATOM     83  H49 VAL d   1      29.811  84.099 -78.690  0.00  0.00     0.163 HD
BRANCH  82  84
ATOM     84  CA  VAL d   1      31.303  82.829 -79.530  0.00  0.00     0.092 C 
ATOM     85  H50 VAL d   1      31.522  81.765 -79.356  0.00  0.00     0.088 H 
BRANCH  84  86
ATOM     86  C   VAL d   1      32.408  83.671 -78.879  0.00  0.00     0.241 C 
ATOM     87  O   VAL d   1      32.316  84.903 -78.837  0.00  0.00    -0.271 OA
ATOM     88  N   VAL d   1      33.446  83.003 -78.376  0.00  0.00    -0.346 N 
ATOM     89  H58 VAL d   1      33.462  82.006 -78.452  0.00  0.00     0.163 HD
BRANCH  88  90
ATOM     90  CA  VAL d   1      34.567  83.684 -77.714  0.00  0.00     0.092 C 
ATOM     91  H59 VAL d   1      34.209  84.689 -77.445  0.00  0.00     0.088 H 
BRANCH  90  92
ATOM     92  C   VAL d   1      35.791  83.869 -78.615  0.00  0.00     0.241 C 
ATOM     93  O   VAL d   1      36.106  83.009 -79.444  0.00  0.00    -0.271 OA
ATOM     94  N   ASN d   1      36.473  85.000 -78.436  0.00  0.00    -0.346 N 
ATOM     95  H67 ASN d   1      36.155  85.648 -77.743  0.00  0.00     0.163 HD
BRANCH  94  96
ATOM     96  CA  ASN d   1      37.667  85.332 -79.211  0.00  0.00     0.097 C 
ATOM     97  H68 ASN d   1      37.493  85.016 -80.250  0.00  0.00     0.088 H 
BRANCH  96  98
ATOM     98  C   ASN d   1      38.898  84.590 -78.695  0.00  0.00     0.243 C 
ATOM     99  O   ASN d   1      39.215  84.665 -77.506  0.00  0.00    -0.271 OA
ATOM    100  N   PRO d   1      39.595  83.868 -79.591  0.00  0.00    -0.336 N 
ATOM    101  CA  PRO d   1      40.824  83.182 -79.221  0.00  0.00     0.098 C 
ATOM    102  CD  PRO d   1      39.244  83.629 -81.002  0.00  0.00    -0.001 C 
ATOM    103  CB  PRO d   1      40.852  81.983 -80.174  0.00  0.00    -0.035 C 
ATOM    104  H73 PRO d   1      40.788  82.853 -78.172  0.00  0.00     0.089 H 
ATOM    105  CG  PRO d   1      40.017  82.386 -81.351  0.00  0.00    -0.048 C 
ATOM    106  H74 PRO d   1      40.425  81.094 -79.686  0.00  0.00     0.036 H 
ATOM    107  H75 PRO d   1      41.883  81.768 -80.490  0.00  0.00     0.036 H 
ATOM    108  H76 PRO d   1      39.317  81.575 -81.602  0.00  0.00     0.035 H 
ATOM    109  H77 PRO d   1      40.669  82.588 -82.214  0.00  0.00     0.035 H 
ATOM    110  H78 PRO d   1      39.554  84.475 -81.633  0.00  0.00     0.064 H 
ATOM    111  H79 PRO d   1      38.162  83.464 -81.116  0.00  0.00     0.064 H 
BRANCH 101 112
ATOM    112  C   PRO d   1      42.053  84.065 -79.432  0.00  0.00     0.196 C 
ATOM    113  O   PRO d   1      42.058  85.249 -79.001  0.00  0.00    -0.646 OA
ATOM    114  O   PRO d   1      43.060  83.610 -80.037  0.00  0.00    -0.646 OA
ENDBRANCH 101 112
ENDBRANCH  96  98
BRANCH  96 115
ATOM    115  CB  ASN d   1      37.911  86.849 -79.210  0.00  0.00     0.036 C 
ATOM    116  H69 ASN d   1      38.310  87.140 -78.227  0.00  0.00     0.051 H 
ATOM    117  H70 ASN d   1      36.952  87.359 -79.381  0.00  0.00     0.051 H 
BRANCH 115 118
ATOM    118  CG  ASN d   1      38.895  87.292 -80.284  0.00  0.00     0.217 C 
ATOM    119  OD1 ASN d   1      38.505  87.888 -81.286  0.00  0.00    -0.274 OA
ATOM    120  ND2 ASN d   1      40.177  87.006 -80.077  0.00  0.00    -0.370 N 
ATOM    121  H71 ASN d   1      40.864  87.275 -80.752  0.00  0.00     0.159 HD
ATOM    122  H72 ASN d   1      40.454  86.522 -79.247  0.00  0.00     0.159 HD
ENDBRANCH 115 118
ENDBRANCH  96 115
ENDBRANCH  94  96
ENDBRANCH  90  92
BRANCH  90 123
ATOM    123  CB  VAL d   1      34.992  82.979 -76.403  0.00  0.00    -0.033 C 
ATOM    124  H60 VAL d   1      35.938  83.429 -76.067  0.00  0.00     0.042 H 
BRANCH 123 125
ATOM    125  CG1 VAL d   1      33.952  83.204 -75.319  0.00  0.00    -0.071 C 
ATOM    126  H61 VAL d   1      34.269  82.697 -74.396  0.00  0.00     0.028 H 
ATOM    127  H62 VAL d   1      32.985  82.795 -75.648  0.00  0.00     0.028 H 
ATOM    128  H63 VAL d   1      33.849  84.282 -75.128  0.00  0.00     0.028 H 
ENDBRANCH 123 125
BRANCH 123 129
ATOM    129  CG2 VAL d   1      35.236  81.489 -76.624  0.00  0.00    -0.071 C 
ATOM    130  H64 VAL d   1      35.992  81.354 -77.412  0.00  0.00     0.028 H 
ATOM    131  H65 VAL d   1      34.297  81.005 -76.930  0.00  0.00     0.028 H 
ATOM    132  H66 VAL d   1      35.596  81.034 -75.689  0.00  0.00     0.028 H 
ENDBRANCH 123 129
ENDBRANCH  90 123
ENDBRANCH  88  90
ENDBRANCH  84  86
BRANCH  84 133
ATOM    133  CB  VAL d   1      31.281  83.075 -81.061  0.00  0.00    -0.033 C 
ATOM    134  H51 VAL d   1      30.887  84.087 -81.237  0.00  0.00     0.042 H 
BRANCH 133 135
ATOM    135  CG1 VAL d   1      32.685  83.001 -81.648  0.00  0.00    -0.071 C 
ATOM    136  H52 VAL d   1      32.639  83.179 -82.733  0.00  0.00     0.028 H 
ATOM    137  H53 VAL d   1      33.110  82.004 -81.458  0.00  0.00     0.028 H 
ATOM    138  H54 VAL d   1      33.320  83.766 -81.178  0.00  0.00     0.028 H 
ENDBRANCH 133 135
BRANCH 133 139
ATOM    139  CG2 VAL d   1      30.368  82.080 -81.764  0.00  0.00    -0.071 C 
ATOM    140  H55 VAL d   1      29.358  82.141 -81.333  0.00  0.00     0.028 H 
ATOM    141  H56 VAL d   1      30.762  81.062 -81.630  0.00  0.00     0.028 H 
ATOM    142  H57 VAL d   1      30.324  82.318 -82.837  0.00  0.00     0.028 H 
ENDBRANCH 133 139
ENDBRANCH  84 133
ENDBRANCH  82  84
ENDBRANCH  78  80
BRANCH  78 143
ATOM    143  CB  THR d   1      28.286  83.063 -76.368  0.00  0.00     0.060 C 
ATOM    144  H44 THR d   1      27.425  83.516 -75.856  0.00  0.00     0.086 H 
BRANCH 143 145
ATOM    145  OG1 THR d   1      29.373  83.999 -76.375  0.00  0.00    -0.393 OA
ATOM    146  H45 THR d   1      29.102  84.794 -76.818  0.00  0.00     0.210 HD
ENDBRANCH 143 145
BRANCH 143 147
ATOM    147  CG2 THR d   1      28.707  81.808 -75.604  0.00  0.00    -0.050 C 
ATOM    148  H46 THR d   1      28.991  82.082 -74.577  0.00  0.00     0.031 H 
ATOM    149  H47 THR d   1      29.565  81.341 -76.110  0.00  0.00     0.031 H 
ATOM    150  H48 THR d   1      27.868  81.097 -75.575  0.00  0.00     0.031 H 
ENDBRANCH 143 147
ENDBRANCH  78 143
ENDBRANCH   3  78
TORSDOF 44
