REMARK  29 active torsions:
REMARK  status: ('A' for Active; 'I' for Inactive)
REMARK    1  A    between atoms: C2_2  and  C1_1 
REMARK    2  A    between atoms: O3_43  and  C2_2 
REMARK    3  A    between atoms: C4_4  and  O4_15 
REMARK    4  A    between atoms: C5_5  and  N5_12 
REMARK    5  A    between atoms: C6_6  and  C7_7 
REMARK    6  A    between atoms: C7_7  and  C8_8 
REMARK    7  A    between atoms: C7_7  and  O7_17 
REMARK    8  A    between atoms: C8_8  and  C9_9 
REMARK    9  A    between atoms: C8_8  and  O8_18 
REMARK   10  A    between atoms: C9_9  and  O9_19 
REMARK   11  A    between atoms: C10_10  and  C11_11 
REMARK       I    between atoms: N5_12  and  C10_10 
REMARK   12  A    between atoms: C1_21  and  O1L_35 
REMARK   13  A    between atoms: C2_22  and  N2_34 
REMARK   14  A    between atoms: C3_23  and  O3_30 
REMARK   15  A    between atoms: O4_31  and  C4_24 
REMARK   16  A    between atoms: C5_25  and  C6_26 
REMARK   17  A    between atoms: C6_26  and  O6_32 
REMARK   18  A    between atoms: C7_27  and  C8_28 
REMARK       I    between atoms: N2_34  and  C7_27 
REMARK   19  A    between atoms: O3_30  and  C1_47 
REMARK   20  A    between atoms: C1_36  and  O4_31 
REMARK   21  A    between atoms: C2_37  and  O2_42 
REMARK   22  A    between atoms: C3_38  and  O3_43 
REMARK   23  A    between atoms: C4_39  and  O4_44 
REMARK   24  A    between atoms: C5_40  and  C6_41 
REMARK   25  A    between atoms: C6_41  and  O6_46 
REMARK   26  A    between atoms: C2_48  and  O2_53 
REMARK   27  A    between atoms: C3_49  and  O3_54 
REMARK   28  A    between atoms: C4_50  and  O4_55 
REMARK   29  A    between atoms: C5_51  and  C6_52 
ROOT
ATOM      1  H31 SIA d   1     -16.599 -21.341  24.218  0.00  0.00     0.133 H 
ATOM      2  H32 SIA d   1     -17.113 -23.877  22.584  0.00  0.00     0.094 H 
ATOM      3  H33 SIA d   1     -14.510 -22.620  23.555  0.00  0.00     0.091 H 
ATOM      4  H34 SIA d   1     -13.988 -22.301  21.189  0.00  0.00     0.091 H 
ATOM      5  H35 SIA d   1     -15.047 -20.448  22.376  0.00  0.00     0.090 H 
ATOM      6  C1  GAL d   1     -17.126 -21.897  23.429  0.00  0.00     0.159 C 
ATOM      7  C2  GAL d   1     -16.520 -23.277  23.289  0.00  0.00     0.110 C 
ATOM      8  C3  GAL d   1     -15.098 -23.187  22.818  0.00  0.00     0.099 C 
ATOM      9  C4  GAL d   1     -15.041 -22.423  21.482  0.00  0.00     0.090 C 
ATOM     10  C5  GAL d   1     -15.672 -21.043  21.694  0.00  0.00     0.089 C 
ATOM     11  O5  GAL d   1     -16.989 -21.160  22.220  0.00  0.00    -0.348 OA
ENDROOT
BRANCH   6  12
ATOM     12  O4  NDG d   1     -18.496 -22.127  23.857  0.00  0.00    -0.348 OA
BRANCH  12  13
ATOM     13  C4  NDG d   1     -19.003 -20.961  24.539  0.00  0.00     0.096 C 
ATOM     14  C3  NDG d   1     -20.402 -20.608  24.020  0.00  0.00     0.093 C 
ATOM     15  C2  NDG d   1     -21.100 -19.477  24.830  0.00  0.00     0.087 C 
ATOM     16  H20 SIA d   1     -21.046 -21.499  24.044  0.00  0.00     0.091 H 
ATOM     17  C1  NDG d   1     -21.041 -19.720  26.337  0.00  0.00     0.151 C 
ATOM     18  H19 SIA d   1     -20.532 -18.552  24.651  0.00  0.00     0.084 H 
ATOM     19  O   NDG d   1     -19.707 -20.118  26.749  0.00  0.00    -0.349 OA
ATOM     20  H18 SIA d   1     -21.314 -18.790  26.857  0.00  0.00     0.132 H 
ATOM     21  C5  NDG d   1     -19.074 -21.200  26.046  0.00  0.00     0.089 C 
ATOM     22  H22 SIA d   1     -19.717 -22.078  26.205  0.00  0.00     0.090 H 
ATOM     23  H21 SIA d   1     -18.325 -20.117  24.344  0.00  0.00     0.091 H 
BRANCH  14  24
ATOM     24  O3  NDG d   1     -20.162 -20.210  22.687  0.00  0.00    -0.348 OA
BRANCH  24  25
ATOM     25  C1  FUC d   1     -21.104 -20.710  21.736  0.00  0.00     0.159 C 
ATOM     26  C2  FUC d   1     -21.007 -19.827  20.500  0.00  0.00     0.110 C 
ATOM     27  C3  FUC d   1     -19.790 -20.112  19.687  0.00  0.00     0.092 C 
ATOM     28  H42 SIA d   1     -21.910 -19.982  19.891  0.00  0.00     0.094 H 
ATOM     29  C4  FUC d   1     -19.748 -21.570  19.347  0.00  0.00     0.087 C 
ATOM     30  H43 SIA d   1     -18.876 -19.826  20.227  0.00  0.00     0.091 H 
ATOM     31  C5  FUC d   1     -19.780 -22.383  20.655  0.00  0.00     0.065 C 
ATOM     32  H44 SIA d   1     -18.819 -21.818  18.813  0.00  0.00     0.091 H 
ATOM     33  O5  FUC d   1     -20.946 -22.085  21.398  0.00  0.00    -0.351 OA
ATOM     34  H45 SIA d   1     -18.895 -22.087  21.238  0.00  0.00     0.086 H 
ATOM     35  H41 SIA d   1     -22.109 -20.598  22.168  0.00  0.00     0.133 H 
BRANCH  26  36
ATOM     36  O2  FUC d   1     -20.878 -18.467  20.837  0.00  0.00    -0.388 OA
ATOM     37  H49 SIA d   1     -20.847 -17.947  20.043  0.00  0.00     0.210 HD
ENDBRANCH  26  36
BRANCH  27  38
ATOM     38  O3  FUC d   1     -19.949 -19.336  18.520  0.00  0.00    -0.390 OA
ATOM     39  H50 SIA d   1     -19.219 -19.495  17.933  0.00  0.00     0.210 HD
ENDBRANCH  27  38
BRANCH  29  40
ATOM     40  O4  FUC d   1     -20.863 -21.742  18.454  0.00  0.00    -0.390 OA
ATOM     41  H51 SIA d   1     -20.739 -21.197  17.686  0.00  0.00     0.210 HD
ENDBRANCH  29  40
BRANCH  31  42
ATOM     42  C6  FUC d   1     -19.764 -23.892  20.517  0.00  0.00    -0.050 C 
ATOM     43  H46 SIA d   1     -19.790 -24.352  21.516  0.00  0.00     0.031 H 
ATOM     44  H47 SIA d   1     -18.848 -24.203  19.994  0.00  0.00     0.031 H 
ATOM     45  H48 SIA d   1     -20.643 -24.217  19.941  0.00  0.00     0.031 H 
ENDBRANCH  31  42
ENDBRANCH  24  25
ENDBRANCH  14  24
BRANCH  15  46
ATOM     46  N2  NDG d   1     -22.438 -19.255  24.283  0.00  0.00    -0.349 N 
ATOM     47  C7  NDG d   1     -22.940 -18.063  23.917  0.00  0.00     0.214 C 
ATOM     48  O7  NDG d   1     -22.342 -16.996  24.074  0.00  0.00    -0.274 OA
ATOM     49  H29 SIA d   1     -23.027 -20.055  24.172  0.00  0.00     0.163 HD
BRANCH  47  50
ATOM     50  C8  NDG d   1     -24.341 -18.027  23.325  0.00  0.00    -0.003 C 
ATOM     51  H25 SIA d   1     -24.734 -19.052  23.250  0.00  0.00     0.040 H 
ATOM     52  H26 SIA d   1     -24.304 -17.575  22.323  0.00  0.00     0.040 H 
ATOM     53  H27 SIA d   1     -24.998 -17.429  23.974  0.00  0.00     0.040 H 
ENDBRANCH  47  50
ENDBRANCH  15  46
BRANCH  17  54
ATOM     54  O1L NDG d   1     -21.949 -20.737  26.698  0.00  0.00    -0.369 OA
ATOM     55  H30 SIA d   1     -22.826 -20.486  26.432  0.00  0.00     0.212 HD
ENDBRANCH  17  54
BRANCH  21  56
ATOM     56  C6  NDG d   1     -17.674 -21.584  26.552  0.00  0.00     0.043 C 
ATOM     57  H23 SIA d   1     -16.924 -20.993  26.006  0.00  0.00     0.078 H 
ATOM     58  H24 SIA d   1     -17.508 -22.654  26.361  0.00  0.00     0.078 H 
BRANCH  56  59
ATOM     59  O6  NDG d   1     -17.532 -21.340  27.926  0.00  0.00    -0.398 OA
ATOM     60  H28 SIA d   1     -17.669 -20.416  28.098  0.00  0.00     0.209 HD
ENDBRANCH  56  59
ENDBRANCH  21  56
ENDBRANCH  12  13
ENDBRANCH   6  12
BRANCH   7  61
ATOM     61  O2  GAL d   1     -16.507 -23.871  24.545  0.00  0.00    -0.388 OA
ATOM     62  H38 SIA d   1     -16.123 -24.737  24.480  0.00  0.00     0.210 HD
ENDBRANCH   7  61
BRANCH   8  63
ATOM     63  O3  GAL d   1     -14.583 -24.496  22.759  0.00  0.00    -0.336 OA
BRANCH  63  64
ATOM     64  C2  SIA d   1     -13.316 -24.574  23.470  0.00  0.00     0.259 C 
ATOM     65  C3  SIA d   1     -12.844 -26.037  23.411  0.00  0.00     0.024 C 
ATOM     66  C4  SIA d   1     -11.656 -26.320  24.340  0.00  0.00     0.063 C 
ATOM     67  H1  SIA d   1     -12.544 -26.267  22.378  0.00  0.00     0.045 H 
ATOM     68  H2  SIA d   1     -13.681 -26.688  23.704  0.00  0.00     0.045 H 
ATOM     69  C5  SIA d   1     -11.865 -25.783  25.767  0.00  0.00     0.064 C 
ATOM     70  H3  SIA d   1     -10.777 -25.823  23.905  0.00  0.00     0.086 H 
ATOM     71  C6  SIA d   1     -12.339 -24.331  25.673  0.00  0.00     0.091 C 
ATOM     72  H4  SIA d   1     -12.614 -26.386  26.300  0.00  0.00     0.080 H 
ATOM     73  O6  SIA d   1     -13.524 -24.272  24.854  0.00  0.00    -0.336 OA
ATOM     74  H5  SIA d   1     -11.539 -23.748  25.193  0.00  0.00     0.090 H 
BRANCH  64  75
ATOM     75  C1  SIA d   1     -12.281 -23.690  22.740  0.00  0.00     0.239 C 
ATOM     76  O1A SIA d   1     -11.757 -24.140  21.675  0.00  0.00    -0.644 OA
ATOM     77  O1B SIA d   1     -12.017 -22.544  23.205  0.00  0.00    -0.644 OA
ENDBRANCH  64  75
BRANCH  66  78
ATOM     78  O4  SIA d   1     -11.368 -27.727  24.474  0.00  0.00    -0.393 OA
ATOM     79  H14 SIA d   1     -10.585 -27.840  24.999  0.00  0.00     0.210 HD
ENDBRANCH  66  78
BRANCH  69  80
ATOM     80  N5  SIA d   1     -10.572 -25.863  26.455  0.00  0.00    -0.352 N 
ATOM     81  C10 SIA d   1     -10.317 -26.569  27.564  0.00  0.00     0.214 C 
ATOM     82  O10 SIA d   1     -11.152 -27.228  28.177  0.00  0.00    -0.274 OA
ATOM     83  H13 SIA d   1      -9.813 -25.344  26.061  0.00  0.00     0.163 HD
BRANCH  81  84
ATOM     84  C11 SIA d   1      -8.907 -26.477  28.037  0.00  0.00    -0.003 C 
ATOM     85  H10 SIA d   1      -8.785 -27.083  28.947  0.00  0.00     0.040 H 
ATOM     86  H11 SIA d   1      -8.663 -25.428  28.260  0.00  0.00     0.040 H 
ATOM     87  H12 SIA d   1      -8.232 -26.852  27.254  0.00  0.00     0.040 H 
ENDBRANCH  81  84
ENDBRANCH  69  80
BRANCH  71  88
ATOM     88  C7  SIA d   1     -12.666 -23.671  27.015  0.00  0.00     0.089 C 
ATOM     89  H6  SIA d   1     -11.765 -23.622  27.645  0.00  0.00     0.091 H 
BRANCH  88  90
ATOM     90  C8  SIA d   1     -13.241 -22.280  26.796  0.00  0.00     0.083 C 
ATOM     91  H7  SIA d   1     -14.268 -22.380  26.415  0.00  0.00     0.090 H 
BRANCH  90  92
ATOM     92  C9  SIA d   1     -13.304 -21.452  28.092  0.00  0.00     0.043 C 
ATOM     93  H8  SIA d   1     -12.302 -21.394  28.543  0.00  0.00     0.078 H 
ATOM     94  H9  SIA d   1     -13.998 -21.927  28.801  0.00  0.00     0.078 H 
BRANCH  92  95
ATOM     95  O9  SIA d   1     -13.770 -20.124  27.772  0.00  0.00    -0.398 OA
ATOM     96  H17 SIA d   1     -13.812 -19.605  28.566  0.00  0.00     0.209 HD
ENDBRANCH  92  95
ENDBRANCH  90  92
BRANCH  90  97
ATOM     97  O8  SIA d   1     -12.430 -21.649  25.783  0.00  0.00    -0.391 OA
ATOM     98  H16 SIA d   1     -12.419 -22.192  25.004  0.00  0.00     0.210 HD
ENDBRANCH  90  97
ENDBRANCH  88  90
BRANCH  88  99
ATOM     99  O7  SIA d   1     -13.680 -24.429  27.639  0.00  0.00    -0.390 OA
ATOM    100  H15 SIA d   1     -14.443 -24.461  27.074  0.00  0.00     0.210 HD
ENDBRANCH  88  99
ENDBRANCH  71  88
ENDBRANCH  63  64
ENDBRANCH   8  63
BRANCH  10 101
ATOM    101  C6  GAL d   1     -15.780 -20.368  20.350  0.00  0.00     0.043 C 
ATOM    102  H36 SIA d   1     -16.450 -20.948  19.698  0.00  0.00     0.078 H 
ATOM    103  H37 SIA d   1     -14.784 -20.303  19.888  0.00  0.00     0.078 H 
BRANCH 101 104
ATOM    104  O6  GAL d   1     -16.305 -19.067  20.535  0.00  0.00    -0.398 OA
ATOM    105  H40 SIA d   1     -16.377 -18.633  19.693  0.00  0.00     0.209 HD
ENDBRANCH 101 104
ENDBRANCH  10 101
BRANCH   9 106
ATOM    106  O4  GAL d   1     -15.731 -23.109  20.424  0.00  0.00    -0.390 OA
ATOM    107  H39 SIA d   1     -15.338 -23.964  20.294  0.00  0.00     0.210 HD
ENDBRANCH   9 106
TORSDOF 29
