REMARK  5 active torsions:
REMARK  status: ('A' for Active; 'I' for Inactive)
REMARK    1  A    between atoms: P2_2  and  C1_5 
REMARK    2  A    between atoms: C1_5  and  P1_6 
REMARK    3  A    between atoms: C1_5  and  C2_10 
REMARK    4  A    between atoms: C2_10  and  N1_11 
REMARK    5  A    between atoms: N1_11  and  C3_12 
ROOT
ATOM      1  C3  0MQ d   1     -13.658 -18.209 -20.937  0.00  0.00     0.102 C 
ATOM      2  C4  0MQ d   1     -12.289 -17.608 -21.270  0.00  0.00    -0.038 C 
ATOM      3  C5  0MQ d   1     -11.586 -18.393 -22.376  0.00  0.00    -0.063 C 
ATOM      4  C6  0MQ d   1     -11.519 -19.893 -22.073  0.00  0.00    -0.065 C 
ATOM      5  C7  0MQ d   1     -12.869 -20.483 -21.666  0.00  0.00    -0.063 C 
ATOM      6  C8  0MQ d   1     -13.488 -19.672 -20.529  0.00  0.00    -0.038 C 
ATOM      7  H6  0MQ d   1     -14.290 -18.161 -21.836  0.00  0.00     0.084 H 
ATOM      8  H7  0MQ d   1     -11.662 -17.625 -20.366  0.00  0.00     0.036 H 
ATOM      9  H8  0MQ d   1     -12.426 -16.568 -21.602  0.00  0.00     0.036 H 
ATOM     10  H9  0MQ d   1     -10.561 -18.009 -22.486  0.00  0.00     0.033 H 
ATOM     11  H10 0MQ d   1     -12.136 -18.247 -23.317  0.00  0.00     0.033 H 
ATOM     12  H11 0MQ d   1     -10.805 -20.053 -21.252  0.00  0.00     0.033 H 
ATOM     13  H12 0MQ d   1     -11.165 -20.417 -22.973  0.00  0.00     0.033 H 
ATOM     14  H13 0MQ d   1     -12.724 -21.521 -21.333  0.00  0.00     0.033 H 
ATOM     15  H14 0MQ d   1     -13.547 -20.467 -22.532  0.00  0.00     0.033 H 
ATOM     16  H15 0MQ d   1     -14.473 -20.094 -20.280  0.00  0.00     0.036 H 
ATOM     17  H16 0MQ d   1     -12.832 -19.727 -19.648  0.00  0.00     0.036 H 
ENDROOT
BRANCH   1  18
ATOM     18  N1  0MQ d   1     -14.316 -17.476 -19.871  0.00  0.00    -0.069 N 
ATOM     19  H4  0MQ d   1     -15.065 -18.061 -19.534  0.00  0.00     0.277 HD
ATOM     20  H5  0MQ d   1     -13.633 -17.350 -19.140  0.00  0.00     0.277 HD
BRANCH  18  21
ATOM     21  C2  0MQ d   1     -14.890 -16.174 -20.136  0.00  0.00     0.109 C 
ATOM     22  H2  0MQ d   1     -14.473 -15.766 -21.068  0.00  0.00     0.078 H 
ATOM     23  H3  0MQ d   1     -15.982 -16.261 -20.230  0.00  0.00     0.078 H 
BRANCH  21  24
ATOM     24  C1  0MQ d   1     -14.545 -15.257 -18.973  0.00  0.00     0.185 C 
ATOM     25  H1  0MQ d   1     -13.487 -15.399 -18.708  0.00  0.00     0.086 H 
BRANCH  24  26
ATOM     26  P2  0MQ d   1     -15.583 -15.684 -17.551  0.00  0.00     0.279 P 
ATOM     27  O6  0MQ d   1     -15.107 -14.837 -16.397  0.00  0.00    -0.639 OA
ATOM     28  O4  0MQ d   1     -15.582 -17.184 -17.416  0.00  0.00    -0.639 OA
ATOM     29  O5  0MQ d   1     -17.093 -15.248 -17.890  0.00  0.00    -0.639 OA
ENDBRANCH  24  26
BRANCH  24  30
ATOM     30  P1  0MQ d   1     -14.816 -13.510 -19.403  0.00  0.00     0.279 P 
ATOM     31  O3  0MQ d   1     -15.838 -13.399 -20.511  0.00  0.00    -0.639 OA
ATOM     32  O2  0MQ d   1     -15.440 -12.788 -18.099  0.00  0.00    -0.639 OA
ATOM     33  O1  0MQ d   1     -13.449 -12.926 -19.654  0.00  0.00    -0.639 OA
ENDBRANCH  24  30
ENDBRANCH  21  24
ENDBRANCH  18  21
ENDBRANCH   1  18
TORSDOF 5
