REMARK  5 active torsions:
REMARK  status: ('A' for Active; 'I' for Inactive)
REMARK    1  A    between atoms: CG2_10  and  CD1_3 
REMARK    2  A    between atoms: CA_5  and  C_11 
REMARK    3  A    between atoms: CB_6  and  CB1_7 
REMARK    4  A    between atoms: CB1_7  and  CG1_9 
REMARK    5  A    between atoms: CG_8  and  CG2_10 
ROOT
ATOM      1  N   KAI d   1      -4.382  30.299 -14.072  0.00  0.00    -0.060 N 
ATOM      2  CD  KAI d   1      -4.838  30.528 -15.477  0.00  0.00     0.090 C 
ATOM      3  CA  KAI d   1      -2.954  29.737 -14.127  0.00  0.00     0.189 C 
ATOM      4  CB  KAI d   1      -2.918  29.057 -15.505  0.00  0.00     0.001 C 
ATOM      5  CG  KAI d   1      -3.676  30.087 -16.386  0.00  0.00    -0.004 C 
ATOM      6  H1  KAI d   1      -4.993  29.639 -13.617  0.00  0.00     0.278 HD
ATOM      7  H2  KAI d   1      -4.388  31.169 -13.563  0.00  0.00     0.278 HD
ATOM      8  H3  KAI d   1      -5.063  31.593 -15.636  0.00  0.00     0.076 H 
ATOM      9  H4  KAI d   1      -5.736  29.928 -15.689  0.00  0.00     0.076 H 
ATOM     10  H10 KAI d   1      -2.807  28.991 -13.332  0.00  0.00     0.102 H 
ATOM     11  H11 KAI d   1      -1.884  28.926 -15.856  0.00  0.00     0.045 H 
ATOM     12  H14 KAI d   1      -3.024  30.960 -16.536  0.00  0.00     0.050 H 
ENDROOT
BRANCH   5  13
ATOM     13  CG2 KAI d   1      -4.009  29.585 -17.790  0.00  0.00    -0.087 C 
ATOM     14  CD2 KAI d   1      -5.258  29.444 -18.275  0.00  0.00    -0.119 C 
ATOM     15  H8  KAI d   1      -6.115  29.709 -17.658  0.00  0.00     0.067 H 
ATOM     16  H9  KAI d   1      -5.411  29.065 -19.284  0.00  0.00     0.067 H 
BRANCH  13  17
ATOM     17  CD1 KAI d   1      -2.819  29.215 -18.651  0.00  0.00    -0.055 C 
ATOM     18  H5  KAI d   1      -3.171  28.869 -19.634  0.00  0.00     0.033 H 
ATOM     19  H6  KAI d   1      -2.248  28.412 -18.162  0.00  0.00     0.033 H 
ATOM     20  H7  KAI d   1      -2.173  30.096 -18.782  0.00  0.00     0.033 H 
ENDBRANCH  13  17
ENDBRANCH   5  13
BRANCH   4  21
ATOM     21  CB1 KAI d   1      -3.615  27.682 -15.473  0.00  0.00     0.022 C 
ATOM     22  H12 KAI d   1      -3.863  27.409 -16.509  0.00  0.00     0.049 H 
ATOM     23  H13 KAI d   1      -4.542  27.791 -14.891  0.00  0.00     0.049 H 
BRANCH  21  24
ATOM     24  CG1 KAI d   1      -2.820  26.531 -14.868  0.00  0.00     0.172 C 
ATOM     25  OD1 KAI d   1      -3.535  25.587 -14.405  0.00  0.00    -0.648 OA
ATOM     26  OD2 KAI d   1      -1.555  26.612 -14.865  0.00  0.00    -0.648 OA
ENDBRANCH  21  24
ENDBRANCH   4  21
BRANCH   3  27
ATOM     27  C   KAI d   1      -1.859  30.851 -13.962  0.00  0.00     0.205 C 
ATOM     28  O   KAI d   1      -2.312  31.930 -13.468  0.00  0.00    -0.646 OA
ATOM     29  OXT KAI d   1      -0.678  30.608 -14.320  0.00  0.00    -0.646 OA
ENDBRANCH   3  27
TORSDOF 5
