REMARK  10 active torsions:
REMARK  status: ('A' for Active; 'I' for Inactive)
REMARK    1  A    between atoms: P1_2  and  C9_5 
REMARK    2  A    between atoms: C9_5  and  P2_6 
REMARK    3  A    between atoms: C9_5  and  C8_10 
REMARK    4  A    between atoms: C8_10  and  N1_11 
REMARK    5  A    between atoms: N1_11  and  C7_12 
REMARK    6  A    between atoms: C7_12  and  C6_13 
REMARK    7  A    between atoms: C6_13  and  C5_14 
REMARK    8  A    between atoms: C5_14  and  C4_15 
REMARK    9  A    between atoms: C4_15  and  C3_16 
REMARK   10  A    between atoms: C3_16  and  C2_17 
ROOT
ATOM      1  C7  0MW d   1     -11.556 -19.138 -21.342  0.00  0.00     0.082 C 
ATOM      2  H6  0MW d   1     -10.493 -19.345 -21.535  0.00  0.00     0.075 H 
ATOM      3  H7  0MW d   1     -11.958 -18.502 -22.144  0.00  0.00     0.075 H 
ENDROOT
BRANCH   1   4
ATOM      4  N1  0MW d   1     -11.703 -18.457 -20.046  0.00  0.00    -0.073 N 
ATOM      5  H4  0MW d   1     -12.515 -18.822 -19.574  0.00  0.00     0.277 HD
ATOM      6  H5  0MW d   1     -10.883 -18.633 -19.488  0.00  0.00     0.277 HD
BRANCH   4   7
ATOM      7  C8  0MW d   1     -11.862 -17.001 -20.222  0.00  0.00     0.109 C 
ATOM      8  H2  0MW d   1     -11.333 -16.492 -19.402  0.00  0.00     0.078 H 
ATOM      9  H3  0MW d   1     -11.409 -16.716 -21.183  0.00  0.00     0.078 H 
BRANCH   7  10
ATOM     10  C9  0MW d   1     -13.318 -16.537 -20.218  0.00  0.00     0.185 C 
ATOM     11  H1  0MW d   1     -13.780 -16.909 -21.145  0.00  0.00     0.086 H 
BRANCH  10  12
ATOM     12  P1  0MW d   1     -13.419 -14.725 -20.212  0.00  0.00     0.279 P 
ATOM     13  O1  0MW d   1     -14.631 -14.468 -21.080  0.00  0.00    -0.639 OA
ATOM     14  O2  0MW d   1     -13.593 -14.289 -18.776  0.00  0.00    -0.639 OA
ATOM     15  O3  0MW d   1     -12.135 -14.248 -20.848  0.00  0.00    -0.639 OA
ENDBRANCH  10  12
BRANCH  10  16
ATOM     16  P2  0MW d   1     -14.305 -17.160 -18.817  0.00  0.00     0.279 P 
ATOM     17  O5  0MW d   1     -13.954 -16.340 -17.619  0.00  0.00    -0.639 OA
ATOM     18  O4  0MW d   1     -15.696 -16.905 -19.332  0.00  0.00    -0.639 OA
ATOM     19  O6  0MW d   1     -13.943 -18.609 -18.622  0.00  0.00    -0.639 OA
ENDBRANCH  10  16
ENDBRANCH   7  10
ENDBRANCH   4   7
ENDBRANCH   1   4
BRANCH   1  20
ATOM     20  C6  0MW d   1     -12.334 -20.448 -21.284  0.00  0.00    -0.043 C 
ATOM     21  H8  0MW d   1     -13.355 -20.270 -21.654  0.00  0.00     0.035 H 
ATOM     22  H9  0MW d   1     -12.377 -20.788 -20.239  0.00  0.00     0.035 H 
BRANCH  20  23
ATOM     23  C5  0MW d   1     -11.688 -21.540 -22.130  0.00  0.00    -0.064 C 
ATOM     24  H10 0MW d   1     -11.759 -22.506 -21.609  0.00  0.00     0.033 H 
ATOM     25  H11 0MW d   1     -10.630 -21.296 -22.309  0.00  0.00     0.033 H 
BRANCH  23  26
ATOM     26  C4  0MW d   1     -12.430 -21.614 -23.454  0.00  0.00    -0.065 C 
ATOM     27  H12 0MW d   1     -11.971 -20.901 -24.155  0.00  0.00     0.033 H 
ATOM     28  H13 0MW d   1     -13.481 -21.337 -23.284  0.00  0.00     0.033 H 
BRANCH  26  29
ATOM     29  C3  0MW d   1     -12.387 -23.003 -24.076  0.00  0.00    -0.069 C 
ATOM     30  H14 0MW d   1     -12.747 -23.743 -23.346  0.00  0.00     0.032 H 
ATOM     31  H15 0MW d   1     -11.353 -23.244 -24.364  0.00  0.00     0.032 H 
BRANCH  29  32
ATOM     32  C2  0MW d   1     -13.272 -23.031 -25.302  0.00  0.00    -0.077 C 
ATOM     33  H16 0MW d   1     -13.242 -24.034 -25.753  0.00  0.00     0.027 H 
ATOM     34  H17 0MW d   1     -12.912 -22.290 -26.031  0.00  0.00     0.027 H 
ATOM     35  H18 0MW d   1     -14.306 -22.789 -25.014  0.00  0.00     0.027 H 
ENDBRANCH  29  32
ENDBRANCH  26  29
ENDBRANCH  23  26
ENDBRANCH  20  23
ENDBRANCH   1  20
TORSDOF 10
