REMARK  11 active torsions:
REMARK  status: ('A' for Active; 'I' for Inactive)
REMARK    1  A    between atoms: C08_8  and  C11_11 
REMARK    2  A    between atoms: C09_9  and  C13_13 
REMARK    3  A    between atoms: C10_10  and  C12_12 
REMARK    4  A    between atoms: C13_13  and  O14_14 
REMARK    5  A    between atoms: C13_13  and  C26_26 
REMARK    6  A    between atoms: O14_14  and  C22_22 
REMARK    7  A    between atoms: C17_17  and  C20_20 
REMARK    8  A    between atoms: C18_18  and  C21_21 
REMARK    9  A    between atoms: C22_22  and  C23_23 
REMARK   10  A    between atoms: C22_22  and  C24_24 
REMARK   11  A    between atoms: C22_22  and  C25_25 
ROOT
ATOM      1  C01 TQ2 d   1      24.316  17.777  -5.766  0.00  0.00    -0.054 A 
ATOM      2  C02 TQ2 d   1      24.849  16.540  -5.374  0.00  0.00     0.068 A 
ATOM      3  C03 TQ2 d   1      26.225  16.428  -5.108  0.00  0.00     0.004 A 
ATOM      4  C04 TQ2 d   1      27.024  17.595  -5.259  0.00  0.00    -0.070 A 
ATOM      5  C05 TQ2 d   1      26.483  18.821  -5.657  0.00  0.00    -0.082 A 
ATOM      6  C06 TQ2 d   1      25.120  18.907  -5.914  0.00  0.00    -0.081 A 
ATOM      7  N07 TQ2 d   1      24.012  15.504  -5.255  0.00  0.00    -0.253 NA
ATOM      8  C08 TQ2 d   1      24.468  14.285  -4.877  0.00  0.00     0.041 A 
ATOM      9  C09 TQ2 d   1      25.822  14.039  -4.580  0.00  0.00     0.017 A 
ATOM     10  C10 TQ2 d   1      26.716  15.140  -4.700  0.00  0.00    -0.002 A 
ATOM     11  H1  TQ2 d   1      23.252  17.857  -5.959  0.00  0.00     0.087 H 
ATOM     12  H2  TQ2 d   1      28.087  17.532  -5.059  0.00  0.00     0.084 H 
ATOM     13  H3  TQ2 d   1      27.118  19.693  -5.764  0.00  0.00     0.083 H 
ATOM     14  H4  TQ2 d   1      24.684  19.848  -6.228  0.00  0.00     0.083 H 
ENDROOT
BRANCH   9  15
ATOM     15  C13 TQ2 d   1      26.346  12.660  -4.173  0.00  0.00     0.151 C 
ATOM     16  H8  TQ2 d   1      27.446  12.679  -4.196  0.00  0.00     0.108 H 
BRANCH  15  17
ATOM     17  O14 TQ2 d   1      25.853  11.687  -5.099  0.00  0.00    -0.360 OA
BRANCH  17  18
ATOM     18  C22 TQ2 d   1      26.520  11.379  -6.333  0.00  0.00     0.051 C 
BRANCH  18  19
ATOM     19  C23 TQ2 d   1      26.162  12.508  -7.308  0.00  0.00    -0.048 C 
ATOM     20  H18 TQ2 d   1      26.649  12.324  -8.277  0.00  0.00     0.031 H 
ATOM     21  H19 TQ2 d   1      26.509  13.469  -6.900  0.00  0.00     0.031 H 
ATOM     22  H20 TQ2 d   1      25.071  12.541  -7.446  0.00  0.00     0.031 H 
ENDBRANCH  18  19
BRANCH  18  23
ATOM     23  C24 TQ2 d   1      28.052  11.320  -6.160  0.00  0.00    -0.048 C 
ATOM     24  H21 TQ2 d   1      28.521  11.082  -7.126  0.00  0.00     0.031 H 
ATOM     25  H22 TQ2 d   1      28.308  10.541  -5.426  0.00  0.00     0.031 H 
ATOM     26  H23 TQ2 d   1      28.419  12.294  -5.804  0.00  0.00     0.031 H 
ENDBRANCH  18  23
BRANCH  18  27
ATOM     27  C25 TQ2 d   1      25.984  10.068  -6.921  0.00  0.00    -0.048 C 
ATOM     28  H24 TQ2 d   1      26.506   9.849  -7.864  0.00  0.00     0.031 H 
ATOM     29  H25 TQ2 d   1      24.905  10.166  -7.113  0.00  0.00     0.031 H 
ATOM     30  H26 TQ2 d   1      26.157   9.249  -6.208  0.00  0.00     0.031 H 
ENDBRANCH  18  27
ENDBRANCH  17  18
ENDBRANCH  15  17
BRANCH  15  31
ATOM     31  C26 TQ2 d   1      25.885  12.225  -2.794  0.00  0.00     0.208 C 
ATOM     32  O27 TQ2 d   1      25.697  11.067  -2.453  0.00  0.00    -0.646 OA
ATOM     33  O28 TQ2 d   1      25.693  13.279  -1.972  0.00  0.00    -0.646 OA
ENDBRANCH  15  31
ENDBRANCH   9  15
BRANCH   8  34
ATOM     34  C11 TQ2 d   1      23.372  13.258  -4.809  0.00  0.00    -0.035 C 
ATOM     35  H5  TQ2 d   1      23.794  12.291  -4.499  0.00  0.00     0.035 H 
ATOM     36  H6  TQ2 d   1      22.905  13.153  -5.800  0.00  0.00     0.035 H 
ATOM     37  H7  TQ2 d   1      22.614  13.578  -4.079  0.00  0.00     0.035 H 
ENDBRANCH   8  34
BRANCH  10  38
ATOM     38  C12 TQ2 d   1      28.154  14.939  -4.401  0.00  0.00    -0.024 A 
ATOM     39  C15 TQ2 d   1      29.124  14.943  -5.409  0.00  0.00    -0.072 A 
ATOM     40  C16 TQ2 d   1      30.472  14.729  -5.096  0.00  0.00    -0.076 A 
ATOM     41  H9  TQ2 d   1      28.830  15.113  -6.439  0.00  0.00     0.084 H 
ATOM     42  C17 TQ2 d   1      30.878  14.520  -3.774  0.00  0.00    -0.056 A 
ATOM     43  H10 TQ2 d   1      31.211  14.725  -5.889  0.00  0.00     0.084 H 
ATOM     44  C18 TQ2 d   1      29.918  14.510  -2.751  0.00  0.00    -0.055 A 
ATOM     45  C19 TQ2 d   1      28.567  14.719  -3.071  0.00  0.00    -0.066 A 
ATOM     46  H11 TQ2 d   1      27.826  14.711  -2.279  0.00  0.00     0.085 H 
BRANCH  42  47
ATOM     47  C20 TQ2 d   1      32.338  14.312  -3.472  0.00  0.00    -0.051 C 
ATOM     48  H12 TQ2 d   1      32.916  14.356  -4.407  0.00  0.00     0.033 H 
ATOM     49  H13 TQ2 d   1      32.478  13.328  -3.001  0.00  0.00     0.033 H 
ATOM     50  H14 TQ2 d   1      32.687  15.100  -2.788  0.00  0.00     0.033 H 
ENDBRANCH  42  47
BRANCH  44  51
ATOM     51  C21 TQ2 d   1      30.312  14.291  -1.315  0.00  0.00    -0.051 C 
ATOM     52  H15 TQ2 d   1      31.401  14.146  -1.252  0.00  0.00     0.033 H 
ATOM     53  H16 TQ2 d   1      29.800  13.399  -0.926  0.00  0.00     0.033 H 
ATOM     54  H17 TQ2 d   1      30.024  15.169  -0.718  0.00  0.00     0.033 H 
ENDBRANCH  44  51
ENDBRANCH  10  38
TORSDOF 11
