REMARK  10 active torsions:
REMARK  status: ('A' for Active; 'I' for Inactive)
REMARK    1  A    between atoms: C08_8  and  C11_11 
REMARK    2  A    between atoms: C09_9  and  C13_13 
REMARK    3  A    between atoms: C10_10  and  C12_12 
REMARK    4  A    between atoms: C13_13  and  O14_14 
REMARK    5  A    between atoms: C13_13  and  C30_30 
REMARK    6  A    between atoms: O14_14  and  C25_25 
REMARK    7  A    between atoms: C19_19  and  C24_24 
REMARK    8  A    between atoms: C25_25  and  C26_26 
REMARK    9  A    between atoms: C25_25  and  C27_27 
REMARK   10  A    between atoms: C25_25  and  C28_28 
ROOT
ATOM      1  C01 TQX d   1      -8.525  50.108 -16.617  0.00  0.00    -0.054 A 
ATOM      2  C02 TQX d   1      -9.321  49.014 -16.239  0.00  0.00     0.068 A 
ATOM      3  C03 TQX d   1      -8.728  47.744 -16.061  0.00  0.00     0.004 A 
ATOM      4  C04 TQX d   1      -7.330  47.619 -16.284  0.00  0.00    -0.070 A 
ATOM      5  C05 TQX d   1      -6.544  48.720 -16.659  0.00  0.00    -0.082 A 
ATOM      6  C06 TQX d   1      -7.149  49.969 -16.824  0.00  0.00    -0.081 A 
ATOM      7  N07 TQX d   1     -10.636  49.221 -16.057  0.00  0.00    -0.253 NA
ATOM      8  C08 TQX d   1     -11.450  48.200 -15.688  0.00  0.00     0.041 A 
ATOM      9  C09 TQX d   1     -10.970  46.888 -15.494  0.00  0.00     0.017 A 
ATOM     10  C10 TQX d   1      -9.583  46.666 -15.675  0.00  0.00    -0.001 A 
ATOM     11  H1  TQX d   1      -8.987  51.080 -16.751  0.00  0.00     0.087 H 
ATOM     12  H2  TQX d   1      -6.859  46.650 -16.162  0.00  0.00     0.084 H 
ATOM     13  H3  TQX d   1      -5.478  48.603 -16.819  0.00  0.00     0.083 H 
ATOM     14  H4  TQX d   1      -6.553  50.828 -17.112  0.00  0.00     0.083 H 
ENDROOT
BRANCH  10  15
ATOM     15  C12 TQX d   1      -9.053  45.289 -15.471  0.00  0.00    -0.015 A 
ATOM     16  C15 TQX d   1      -9.026  44.396 -16.561  0.00  0.00    -0.032 A 
ATOM     17  C16 TQX d   1      -8.548  43.106 -16.396  0.00  0.00     0.151 A 
ATOM     18  H9  TQX d   1      -9.381  44.720 -17.533  0.00  0.00     0.089 H 
ATOM     19  C17 TQX d   1      -8.101  42.655 -15.159  0.00  0.00     0.114 A 
ATOM     20  F29 TQX d   1      -8.532  42.283 -17.460  0.00  0.00    -0.203 F 
ATOM     21  C18 TQX d   1      -8.117  43.509 -14.052  0.00  0.00    -0.015 A 
ATOM     22  O20 TQX d   1      -7.658  41.355 -15.136  0.00  0.00    -0.347 OA
ATOM     23  C19 TQX d   1      -8.599  44.840 -14.200  0.00  0.00    -0.042 A 
ATOM     24  C23 TQX d   1      -7.615  43.004 -12.721  0.00  0.00    -0.036 C 
ATOM     25  C22 TQX d   1      -7.562  41.481 -12.616  0.00  0.00    -0.041 C 
ATOM     26  H14 TQX d   1      -8.283  43.382 -11.933  0.00  0.00     0.040 H 
ATOM     27  H15 TQX d   1      -6.600  43.398 -12.562  0.00  0.00     0.040 H 
ATOM     28  C21 TQX d   1      -7.187  40.778 -13.905  0.00  0.00     0.026 C 
ATOM     29  H12 TQX d   1      -6.819  41.215 -11.850  0.00  0.00     0.036 H 
ATOM     30  H13 TQX d   1      -8.554  41.123 -12.305  0.00  0.00     0.036 H 
ATOM     31  H10 TQX d   1      -6.089  40.745 -13.955  0.00  0.00     0.075 H 
ATOM     32  H11 TQX d   1      -7.582  39.753 -13.849  0.00  0.00     0.075 H 
BRANCH  23  33
ATOM     33  C24 TQX d   1      -8.623  45.777 -13.010  0.00  0.00    -0.050 C 
ATOM     34  H16 TQX d   1      -9.025  46.753 -13.320  0.00  0.00     0.033 H 
ATOM     35  H17 TQX d   1      -7.601  45.907 -12.625  0.00  0.00     0.033 H 
ATOM     36  H18 TQX d   1      -9.260  45.351 -12.221  0.00  0.00     0.033 H 
ENDBRANCH  23  33
ENDBRANCH  10  15
BRANCH   9  37
ATOM     37  C13 TQX d   1     -11.859  45.722 -15.073  0.00  0.00     0.151 C 
ATOM     38  H8  TQX d   1     -11.288  44.784 -15.143  0.00  0.00     0.108 H 
BRANCH  37  39
ATOM     39  O14 TQX d   1     -13.052  45.611 -15.847  0.00  0.00    -0.360 OA
BRANCH  39  40
ATOM     40  C25 TQX d   1     -13.076  44.914 -17.101  0.00  0.00     0.051 C 
BRANCH  40  41
ATOM     41  C26 TQX d   1     -14.578  44.794 -17.442  0.00  0.00    -0.048 C 
ATOM     42  H19 TQX d   1     -14.695  44.266 -18.400  0.00  0.00     0.031 H 
ATOM     43  H20 TQX d   1     -15.018  45.799 -17.521  0.00  0.00     0.031 H 
ATOM     44  H21 TQX d   1     -15.091  44.231 -16.648  0.00  0.00     0.031 H 
ENDBRANCH  40  41
BRANCH  40  45
ATOM     45  C27 TQX d   1     -12.376  45.711 -18.199  0.00  0.00    -0.048 C 
ATOM     46  H22 TQX d   1     -12.414  45.147 -19.143  0.00  0.00     0.031 H 
ATOM     47  H23 TQX d   1     -11.327  45.882 -17.916  0.00  0.00     0.031 H 
ATOM     48  H24 TQX d   1     -12.883  46.679 -18.329  0.00  0.00     0.031 H 
ENDBRANCH  40  45
BRANCH  40  49
ATOM     49  C28 TQX d   1     -12.495  43.490 -17.000  0.00  0.00    -0.048 C 
ATOM     50  H25 TQX d   1     -12.539  43.005 -17.986  0.00  0.00     0.031 H 
ATOM     51  H26 TQX d   1     -13.083  42.905 -16.277  0.00  0.00     0.031 H 
ATOM     52  H27 TQX d   1     -11.449  43.544 -16.664  0.00  0.00     0.031 H 
ENDBRANCH  40  49
ENDBRANCH  39  40
ENDBRANCH  37  39
BRANCH  37  53
ATOM     53  C30 TQX d   1     -12.292  45.984 -13.632  0.00  0.00     0.208 C 
ATOM     54  O31 TQX d   1     -11.680  46.658 -12.807  0.00  0.00    -0.646 OA
ATOM     55  O32 TQX d   1     -13.476  45.394 -13.338  0.00  0.00    -0.646 OA
ENDBRANCH  37  53
ENDBRANCH   9  37
BRANCH   8  56
ATOM     56  C11 TQX d   1     -12.894  48.611 -15.522  0.00  0.00    -0.035 C 
ATOM     57  H5  TQX d   1     -13.492  47.737 -15.224  0.00  0.00     0.035 H 
ATOM     58  H6  TQX d   1     -13.274  49.008 -16.475  0.00  0.00     0.035 H 
ATOM     59  H7  TQX d   1     -12.967  49.388 -14.746  0.00  0.00     0.035 H 
ENDBRANCH   8  56
TORSDOF 10
