REMARK  6 active torsions:
REMARK  status: ('A' for Active; 'I' for Inactive)
REMARK    1  A    between atoms: C1_1  and  C8_18 
REMARK    2  A    between atoms: N4_13  and  S1_4 
REMARK    3  A    between atoms: S1_4  and  C14_24 
REMARK    4  A    between atoms: N3_10  and  C7_17 
REMARK       I    between atoms: C20_30  and  N3_10 
REMARK    5  A    between atoms: C11_21  and  N4_13 
REMARK    6  A    between atoms: C20_30  and  C21_31 
ROOT
ATOM      1  C8  0MX d   1      32.667 -12.391  27.007  0.00  0.00    -0.026 A 
ATOM      2  C9  0MX d   1      32.152 -11.585  25.974  0.00  0.00    -0.070 A 
ATOM      3  C10 0MX d   1      32.790 -10.414  25.560  0.00  0.00    -0.056 A 
ATOM      4  C11 0MX d   1      33.994 -10.037  26.159  0.00  0.00     0.042 A 
ATOM      5  C12 0MX d   1      34.536 -10.855  27.176  0.00  0.00    -0.056 A 
ATOM      6  C13 0MX d   1      33.892 -12.025  27.592  0.00  0.00    -0.070 A 
ATOM      7  H7  0MX d   1      31.232 -11.883  25.485  0.00  0.00     0.084 H 
ATOM      8  H8  0MX d   1      32.354  -9.802  24.779  0.00  0.00     0.087 H 
ATOM      9  H9  0MX d   1      35.471 -10.569  27.644  0.00  0.00     0.087 H 
ATOM     10  H10 0MX d   1      34.335 -12.646  28.362  0.00  0.00     0.084 H 
ENDROOT
BRANCH   1  11
ATOM     11  C1  0MX d   1      31.950 -13.671  27.334  0.00  0.00    -0.025 A 
ATOM     12  C2  0MX d   1      30.580 -13.863  27.053  0.00  0.00    -0.070 A 
ATOM     13  C3  0MX d   1      29.965 -15.105  27.271  0.00  0.00    -0.052 A 
ATOM     14  H1  0MX d   1      29.994 -13.038  26.663  0.00  0.00     0.084 H 
ATOM     15  C6  0MX d   1      30.737 -16.184  27.736  0.00  0.00     0.091 A 
ATOM     16  H3  0MX d   1      28.905 -15.231  27.083  0.00  0.00     0.087 H 
ATOM     17  N1  0MX d   1      30.402 -17.452  28.031  0.00  0.00    -0.172 NA
ATOM     18  C5  0MX d   1      32.113 -16.030  27.968  0.00  0.00     0.041 A 
ATOM     19  N2  0MX d   1      31.544 -18.148  28.448  0.00  0.00    -0.261 N 
ATOM     20  C7  0MX d   1      32.567 -17.290  28.403  0.00  0.00     0.137 A 
ATOM     21  H2  0MX d   1      31.587 -19.136  28.735  0.00  0.00     0.191 HD
ATOM     22  C4  0MX d   1      32.715 -14.781  27.746  0.00  0.00    -0.056 A 
ATOM     23  H5  0MX d   1      33.783 -14.669  27.893  0.00  0.00     0.086 H 
BRANCH  20  24
ATOM     24  N3  0MX d   1      33.803 -17.759  28.816  0.00  0.00    -0.305 N 
ATOM     25  C20 0MX d   1      34.998 -17.133  28.906  0.00  0.00     0.281 C 
ATOM     26  O3  0MX d   1      35.135 -15.961  28.648  0.00  0.00    -0.265 OA
ATOM     27  H4  0MX d   1      33.813 -18.720  29.094  0.00  0.00     0.170 HD
BRANCH  25  28
ATOM     28  C21 0MX d   1      36.303 -17.828  29.190  0.00  0.00     0.142 A 
ATOM     29  O4  0MX d   1      36.320 -19.094  29.109  0.00  0.00    -0.317 OA
ATOM     30  C22 0MX d   1      37.715 -19.529  29.334  0.00  0.00     0.020 A 
ATOM     31  C23 0MX d   1      38.444 -18.363  29.477  0.00  0.00    -0.059 A 
ATOM     32  H15 0MX d   1      38.089 -20.551  29.378  0.00  0.00     0.123 H 
ATOM     33  C24 0MX d   1      37.579 -17.297  29.358  0.00  0.00    -0.043 A 
ATOM     34  H16 0MX d   1      39.517 -18.298  29.653  0.00  0.00     0.086 H 
ATOM     35  H17 0MX d   1      37.843 -16.241  29.389  0.00  0.00     0.088 H 
ENDBRANCH  25  28
ENDBRANCH  20  24
ENDBRANCH   1  11
BRANCH   4  36
ATOM     36  N4  0MX d   1      34.614  -8.896  25.737  0.00  0.00    -0.281 N 
ATOM     37  H6  0MX d   1      34.943  -8.866  24.793  0.00  0.00     0.179 HD
BRANCH  36  38
ATOM     38  S1  0MX d   1      34.851  -7.593  26.658  0.00  0.00     0.263 S 
ATOM     39  O1  0MX d   1      35.498  -7.994  27.892  0.00  0.00    -0.200 OA
ATOM     40  O2  0MX d   1      35.677  -6.613  26.005  0.00  0.00    -0.200 OA
BRANCH  38  41
ATOM     41  C14 0MX d   1      33.381  -6.977  26.938  0.00  0.00     0.081 A 
ATOM     42  C15 0MX d   1      32.811  -6.073  26.030  0.00  0.00    -0.060 A 
ATOM     43  C16 0MX d   1      31.521  -5.573  26.246  0.00  0.00    -0.080 A 
ATOM     44  H11 0MX d   1      33.372  -5.760  25.157  0.00  0.00     0.085 H 
ATOM     45  C17 0MX d   1      30.793  -5.964  27.366  0.00  0.00    -0.062 A 
ATOM     46  H12 0MX d   1      31.087  -4.878  25.537  0.00  0.00     0.083 H 
ATOM     47  C18 0MX d   1      31.347  -6.849  28.295  0.00  0.00     0.035 A 
ATOM     48  H13 0MX d   1      29.791  -5.580  27.518  0.00  0.00     0.086 H 
ATOM     49 CL1  0MX d   1      30.530  -7.296  29.499  0.00  0.00    -0.084 Cl
ATOM     50  C19 0MX d   1      32.626  -7.378  28.058  0.00  0.00    -0.039 A 
ATOM     51  H14 0MX d   1      33.039  -8.106  28.747  0.00  0.00     0.088 H 
ENDBRANCH  38  41
ENDBRANCH  36  38
ENDBRANCH   4  36
TORSDOF 6
