REMARK  5 active torsions:
REMARK  status: ('A' for Active; 'I' for Inactive)
REMARK    1  A    between atoms: S1_2  and  C14_4 
REMARK    2  A    between atoms: S1_2  and  N4_11 
REMARK    3  A    between atoms: N4_11  and  C11_12 
REMARK    4  A    between atoms: C8_17  and  C1_18 
REMARK    5  A    between atoms: C5_21  and  N3_22 
ROOT
ATOM      1  C11 0MY d   1      33.826  -9.535  25.774  0.00  0.00     0.042 A 
ATOM      2  C10 0MY d   1      32.687  -9.994  25.094  0.00  0.00    -0.056 A 
ATOM      3  C9  0MY d   1      32.044 -11.169  25.519  0.00  0.00    -0.070 A 
ATOM      4  C12 0MY d   1      34.286 -10.296  26.871  0.00  0.00    -0.056 A 
ATOM      5  C13 0MY d   1      33.641 -11.469  27.307  0.00  0.00    -0.070 A 
ATOM      6  C8  0MY d   1      32.482 -11.901  26.652  0.00  0.00    -0.026 A 
ATOM      7  H   0MY d   1      32.302  -9.440  24.238  0.00  0.00     0.087 H 
ATOM      8  H   0MY d   1      31.181 -11.530  24.960  0.00  0.00     0.084 H 
ATOM      9  H   0MY d   1      35.177  -9.961  27.402  0.00  0.00     0.087 H 
ATOM     10  H   0MY d   1      34.041 -12.036  28.148  0.00  0.00     0.084 H 
ENDROOT
BRANCH   1  11
ATOM     11  N4  0MY d   1      34.483  -8.389  25.368  0.00  0.00    -0.281 N 
ATOM     12  H   0MY d   1      34.926  -8.411  24.449  0.00  0.00     0.179 HD
BRANCH  11  13
ATOM     13  S1  0MY d   1      34.617  -7.002  26.222  0.00  0.00     0.263 S 
ATOM     14  O2  0MY d   1      35.319  -5.971  25.464  0.00  0.00    -0.200 OA
ATOM     15  O1  0MY d   1      35.348  -7.275  27.441  0.00  0.00    -0.200 OA
BRANCH  13  16
ATOM     16  C14 0MY d   1      33.105  -6.529  26.581  0.00  0.00     0.081 A 
ATOM     17  C17 0MY d   1      32.481  -6.976  27.763  0.00  0.00    -0.039 A 
ATOM     18  C18 0MY d   1      31.156  -6.621  28.046  0.00  0.00     0.035 A 
ATOM     19  H   0MY d   1      33.034  -7.603  28.462  0.00  0.00     0.088 H 
ATOM     20 CL1  0MY d   1      30.526  -7.043  29.330  0.00  0.00    -0.084 Cl
ATOM     21  C19 0MY d   1      30.449  -5.819  27.144  0.00  0.00    -0.062 A 
ATOM     22  C16 0MY d   1      31.038  -5.421  25.930  0.00  0.00    -0.080 A 
ATOM     23  H   0MY d   1      29.434  -5.500  27.383  0.00  0.00     0.086 H 
ATOM     24  C15 0MY d   1      32.355  -5.782  25.653  0.00  0.00    -0.060 A 
ATOM     25  H   0MY d   1      30.468  -4.834  25.210  0.00  0.00     0.083 H 
ATOM     26  H   0MY d   1      32.809  -5.483  24.708  0.00  0.00     0.085 H 
ENDBRANCH  13  16
ENDBRANCH  11  13
ENDBRANCH   1  11
BRANCH   6  27
ATOM     27  C1  0MY d   1      31.762 -13.178  26.995  0.00  0.00    -0.025 A 
ATOM     28  C4  0MY d   1      32.552 -14.296  27.333  0.00  0.00    -0.056 A 
ATOM     29  C6  0MY d   1      31.945 -15.537  27.570  0.00  0.00     0.040 A 
ATOM     30  H   0MY d   1      33.635 -14.195  27.410  0.00  0.00     0.086 H 
ATOM     31  C5  0MY d   1      32.467 -16.781  27.897  0.00  0.00     0.128 A 
ATOM     32  C7  0MY d   1      30.570 -15.715  27.452  0.00  0.00     0.091 A 
ATOM     33  N2  0MY d   1      31.517 -17.717  28.011  0.00  0.00    -0.262 N 
ATOM     34  N1  0MY d   1      30.315 -17.030  27.723  0.00  0.00    -0.172 NA
ATOM     35  H   0MY d   1      31.634 -18.701  28.251  0.00  0.00     0.191 HD
ATOM     36  C3  0MY d   1      29.766 -14.614  27.101  0.00  0.00    -0.052 A 
ATOM     37  C2  0MY d   1      30.364 -13.361  26.857  0.00  0.00    -0.070 A 
ATOM     38  H   0MY d   1      28.685 -14.730  27.018  0.00  0.00     0.087 H 
ATOM     39  H   0MY d   1      29.740 -12.519  26.557  0.00  0.00     0.084 H 
BRANCH  31  40
ATOM     40  N3  0MY d   1      33.802 -17.029  28.098  0.00  0.00    -0.384 N 
ATOM     41  H   0MY d   1      34.480 -16.273  28.009  0.00  0.00     0.157 HD
ATOM     42  H   0MY d   1      34.116 -17.970  28.336  0.00  0.00     0.157 HD
ENDBRANCH  31  40
ENDBRANCH   6  27
TORSDOF 5
