REMARK  5 active torsions:
REMARK  status: ('A' for Active; 'I' for Inactive)
REMARK    1  A    between atoms: CAB_2  and  OAX_24 
REMARK    2  A    between atoms: CAM_13  and  CAC_3 
REMARK    3  A    between atoms: CAM_13  and  CAF_6 
REMARK    4  A    between atoms: NAT_20  and  CAM_13 
REMARK    5  A    between atoms: CAO_15  and  NAT_20 
ROOT
ATOM      1  CAM 734 d   1       7.806 -17.168  -1.504  0.00  0.00     0.086 C 
ATOM      2  H   734 d   1       8.257 -16.696  -0.631  0.00  0.00     0.091 H 
ENDROOT
BRANCH   1   3
ATOM      3  CAC 734 d   1       8.143 -18.652  -1.475  0.00  0.00     0.008 A 
ATOM      4  CAB 734 d   1       9.371 -19.073  -0.894  0.00  0.00     0.104 A 
ATOM      5  CAL 734 d   1       9.713 -20.445  -0.858  0.00  0.00     0.102 A 
ATOM      6  CAG 734 d   1       8.824 -21.430  -1.407  0.00  0.00     0.017 A 
ATOM      7  NAV 734 d   1      10.907 -20.837  -0.295  0.00  0.00    -0.257 NA
ATOM      8  CAE 734 d   1       7.585 -21.019  -1.994  0.00  0.00     0.047 A 
ATOM      9  CAH 734 d   1       9.209 -22.793  -1.349  0.00  0.00    -0.068 A 
ATOM     10  CAD 734 d   1       7.254 -19.636  -2.023  0.00  0.00    -0.050 A 
ATOM     11 CLAY 734 d   1       6.427 -22.216  -2.703  0.00  0.00    -0.083 Cl
ATOM     12  H   734 d   1       6.311 -19.319  -2.468  0.00  0.00     0.087 H 
ATOM     13  CAI 734 d   1      10.442 -23.149  -0.763  0.00  0.00    -0.065 A 
ATOM     14  H   734 d   1       8.554 -23.564  -1.756  0.00  0.00     0.085 H 
ATOM     15  CAJ 734 d   1      11.278 -22.142  -0.239  0.00  0.00     0.003 A 
ATOM     16  H   734 d   1      10.746 -24.195  -0.716  0.00  0.00     0.085 H 
ATOM     17  H   734 d   1      12.231 -22.413   0.215  0.00  0.00     0.114 H 
BRANCH   4  18
ATOM     18  OAX 734 d   1      10.234 -18.159  -0.369  0.00  0.00    -0.358 OA
ATOM     19  H   734 d   1       9.865 -17.278  -0.468  0.00  0.00     0.217 HD
ENDBRANCH   4  18
ENDBRANCH   1   3
BRANCH   1  20
ATOM     20  CAF 734 d   1       6.309 -16.909  -1.394  0.00  0.00     0.080 A 
ATOM     21  CAQ 734 d   1       5.642 -16.368  -0.531  0.00  0.00    -0.050 A 
ATOM     22  CAR 734 d   1       4.537 -16.284  -0.657  0.00  0.00    -0.059 A 
ATOM     23  H   734 d   1       6.123 -15.967   0.361  0.00  0.00     0.087 H 
ATOM     24  CAS 734 d   1       3.920 -16.705  -1.628  0.00  0.00     0.019 A 
ATOM     25  H   734 d   1       3.969 -15.796   0.135  0.00  0.00     0.086 H 
ATOM     26  OAW 734 d   1       5.161 -17.232  -2.318  0.00  0.00    -0.325 OA
ATOM     27  H   734 d   1       2.864 -16.702  -1.897  0.00  0.00     0.123 H 
ENDBRANCH   1  20
BRANCH   1  28
ATOM     28  NAT 734 d   1       8.362 -16.575  -2.727  0.00  0.00    -0.360 N 
ATOM     29  H   734 d   1       7.912 -16.773  -3.621  0.00  0.00     0.162 HD
BRANCH  28  30
ATOM     30  CAO 734 d   1       9.470 -15.761  -2.706  0.00  0.00     0.123 A 
ATOM     31  CAP 734 d   1       9.959 -15.217  -3.915  0.00  0.00    -0.039 A 
ATOM     32  CAA 734 d   1      11.103 -14.378  -3.887  0.00  0.00    -0.078 A 
ATOM     33  H   734 d   1       9.463 -15.440  -4.859  0.00  0.00     0.089 H 
ATOM     34  CAK 734 d   1      11.739 -14.096  -2.658  0.00  0.00    -0.066 A 
ATOM     35  H   734 d   1      11.490 -13.952  -4.812  0.00  0.00     0.083 H 
ATOM     36  CAN 734 d   1      11.219 -14.659  -1.472  0.00  0.00     0.004 A 
ATOM     37  H   734 d   1      12.619 -13.453  -2.625  0.00  0.00     0.085 H 
ATOM     38  NAU 734 d   1      10.114 -15.466  -1.518  0.00  0.00    -0.244 NA
ATOM     39  H   734 d   1      11.699 -14.450  -0.516  0.00  0.00     0.114 H 
ENDBRANCH  28  30
ENDBRANCH   1  28
TORSDOF 5
