REMARK  8 active torsions:
REMARK  status: ('A' for Active; 'I' for Inactive)
REMARK    1  A    between atoms: C27_2  and  C25_5 
REMARK    2  A    between atoms: C21_10  and  N18_11 
REMARK       I    between atoms: N18_11  and  C17_12 
REMARK    3  A    between atoms: C17_12  and  C16_14 
REMARK    4  A    between atoms: C16_14  and  C13_15 
REMARK    5  A    between atoms: C11_19  and  N10_21 
REMARK    6  A    between atoms: N10_21  and  N9_22 
REMARK    7  A    between atoms: C8_23  and  C6_24 
REMARK    8  A    between atoms: C1_29  and  O1_30 
ROOT
ATOM      1  C13 MOL d   1      47.316 -19.310  14.264  0.00  0.00     0.071 C 
ATOM      2  C14 MOL d   1      47.013 -18.349  15.379  0.00  0.00     0.172 C 
ATOM      3  O20 MOL d   1      45.781 -18.040  15.746  0.00  0.00    -0.176 OA
ATOM      4  N15 MOL d   1      48.020 -17.840  15.959  0.00  0.00    -0.315 N 
ATOM      5  C11 MOL d   1      49.181 -18.083  15.364  0.00  0.00     0.190 C 
ATOM      6  S12 MOL d   1      49.046 -19.088  14.053  0.00  0.00    -0.076 SA
ATOM      7  H8  MOL d   1      46.762 -19.064  13.346  0.00  0.00     0.071 H 
ATOM      8  H9  MOL d   1      47.945 -17.299  16.797  0.00  0.00     0.170 HD
ENDROOT
BRANCH   1   9
ATOM      9  C16 MOL d   1      46.986 -20.729  14.710  0.00  0.00     0.029 C 
ATOM     10  H6  MOL d   1      47.904 -21.222  15.062  0.00  0.00     0.049 H 
ATOM     11  H7  MOL d   1      46.253 -20.691  15.529  0.00  0.00     0.049 H 
BRANCH   9  12
ATOM     12  C17 MOL d   1      46.409 -21.515  13.561  0.00  0.00     0.223 C 
ATOM     13  N18 MOL d   1      45.599 -20.841  12.751  0.00  0.00    -0.327 N 
ATOM     14  H5  MOL d   1      45.416 -19.873  12.924  0.00  0.00     0.169 HD
ATOM     15  O19 MOL d   1      46.687 -22.694  13.409  0.00  0.00    -0.273 OA
BRANCH  13  16
ATOM     16  C21 MOL d   1      45.002 -21.475  11.660  0.00  0.00     0.035 A 
ATOM     17  C26 MOL d   1      43.872 -22.257  11.856  0.00  0.00    -0.043 A 
ATOM     18  C25 MOL d   1      43.271 -22.886  10.773  0.00  0.00     0.050 A 
ATOM     19  H1  MOL d   1      43.460 -22.377  12.851  0.00  0.00     0.088 H 
ATOM     20  C24 MOL d   1      43.794 -22.721   9.495  0.00  0.00    -0.068 A 
ATOM     21  C23 MOL d   1      44.923 -21.932   9.302  0.00  0.00    -0.080 A 
ATOM     22  H2  MOL d   1      43.322 -23.207   8.649  0.00  0.00     0.084 H 
ATOM     23  C22 MOL d   1      45.523 -21.302  10.384  0.00  0.00    -0.057 A 
ATOM     24  H3  MOL d   1      45.334 -21.809   8.307  0.00  0.00     0.083 H 
ATOM     25  H4  MOL d   1      46.396 -20.677  10.233  0.00  0.00     0.086 H 
BRANCH  18  26
ATOM     26  C27 MOL d   1      42.053 -23.734  10.984  0.00  0.00     0.417 C 
ATOM     27  F28 MOL d   1      41.945 -24.044  12.263  0.00  0.00    -0.166 F 
ATOM     28  F30 MOL d   1      40.984 -23.055  10.610  0.00  0.00    -0.166 F 
ATOM     29  F29 MOL d   1      42.150 -24.836  10.265  0.00  0.00    -0.166 F 
ENDBRANCH  18  26
ENDBRANCH  13  16
ENDBRANCH   9  12
ENDBRANCH   1   9
BRANCH   5  30
ATOM     30  N10 MOL d   1      50.273 -17.612  15.756  0.00  0.00    -0.125 NA
BRANCH  30  31
ATOM     31  N9  MOL d   1      51.394 -17.973  14.996  0.00  0.00    -0.159 NA
ATOM     32  C8  MOL d   1      52.564 -17.856  15.429  0.00  0.00     0.036 C 
ATOM     33  H10 MOL d   1      52.761 -17.469  16.428  0.00  0.00     0.118 H 
BRANCH  32  34
ATOM     34  C6  MOL d   1      53.667 -18.262  14.534  0.00  0.00     0.016 A 
ATOM     35  C5  MOL d   1      53.317 -18.734  13.279  0.00  0.00    -0.069 A 
ATOM     36  C4  MOL d   1      54.297 -19.134  12.387  0.00  0.00    -0.082 A 
ATOM     37  H11 MOL d   1      52.272 -18.790  12.995  0.00  0.00     0.085 H 
ATOM     38  C3  MOL d   1      55.628 -19.060  12.751  0.00  0.00    -0.080 A 
ATOM     39  H12 MOL d   1      54.021 -19.504  11.406  0.00  0.00     0.083 H 
ATOM     40  C2  MOL d   1      55.978 -18.588  14.003  0.00  0.00    -0.050 A 
ATOM     41  H13 MOL d   1      56.398 -19.372  12.055  0.00  0.00     0.083 H 
ATOM     42  C1  MOL d   1      55.001 -18.184  14.902  0.00  0.00     0.077 A 
ATOM     43  H14 MOL d   1      57.023 -18.533  14.284  0.00  0.00     0.087 H 
BRANCH  42  44
ATOM     44  O1  MOL d   1      55.391 -17.725  16.128  0.00  0.00    -0.360 OA
ATOM     45  H15 MOL d   1      54.623 -17.486  16.634  0.00  0.00     0.217 HD
ENDBRANCH  42  44
ENDBRANCH  32  34
ENDBRANCH  30  31
ENDBRANCH   5  30
TORSDOF 8
