REMARK WARNING: 32 MAX_TORS EXCEEDED!!!
REMARK  43 active torsions:
REMARK  status: ('A' for Active; 'I' for Inactive)
REMARK    1  A    between atoms: N_1  and  CA_2 
REMARK    2  A    between atoms: CA_2  and  C_3 
REMARK    3  A    between atoms: CA_2  and  CB_5 
REMARK       I    between atoms: C_3  and  N_6 
REMARK    4  A    between atoms: N_6  and  CA_7 
REMARK    5  A    between atoms: CA_7  and  C_8 
REMARK    6  A    between atoms: CA_7  and  CB_10 
REMARK       I    between atoms: C_8  and  N_14 
REMARK    7  A    between atoms: CB_10  and  CG_11 
REMARK       I    between atoms: CG_11  and  ND2_13 
REMARK    8  A    between atoms: N_14  and  CA_15 
REMARK    9  A    between atoms: CA_15  and  C_16 
REMARK   10  A    between atoms: CA_15  and  CB_18 
REMARK       I    between atoms: C_16  and  N_20 
REMARK   11  A    between atoms: CB_18  and  OG_19 
REMARK   12  A    between atoms: N_20  and  CA_21 
REMARK   13  A    between atoms: CA_21  and  C_22 
REMARK   14  A    between atoms: CA_21  and  CB_24 
REMARK       I    between atoms: C_22  and  N_31 
REMARK   15  A    between atoms: CB_24  and  CG_25 
REMARK   16  A    between atoms: CG_25  and  CD_26 
REMARK   17  A    between atoms: CD_26  and  NE_27 
REMARK       I    between atoms: NE_27  and  CZ_28 
REMARK       I    between atoms: CZ_28  and  NH1_29 
REMARK   18  A    between atoms: N_31  and  CA_32 
REMARK   19  A    between atoms: CA_32  and  C_33 
REMARK   20  A    between atoms: CA_32  and  CB_35 
REMARK       I    between atoms: C_33  and  N_45 
REMARK   21  A    between atoms: CB_35  and  CG_36 
REMARK   22  A    between atoms: CA_46  and  C_47 
REMARK       I    between atoms: C_47  and  N_52 
REMARK   23  A    between atoms: N_52  and  CA_53 
REMARK   24  A    between atoms: CA_53  and  C_54 
REMARK   25  A    between atoms: CA_53  and  CB_56 
REMARK       I    between atoms: C_54  and  N_59 
REMARK   26  A    between atoms: CB_56  and  OG1_57 
REMARK   27  A    between atoms: CB_56  and  CG2_58 
REMARK   28  A    between atoms: N_59  and  CA_60 
REMARK   29  A    between atoms: CA_60  and  C_61 
REMARK   30  A    between atoms: CA_60  and  CB_63 
REMARK       I    between atoms: C_61  and  N_65 
REMARK   31  A    between atoms: CB_63  and  OG_64 
REMARK   32  A    between atoms: N_65  and  CA_66 
REMARK   33  A    between atoms: CA_66  and  C_67 
REMARK   34  A    between atoms: CA_66  and  CB_69 
REMARK       I    between atoms: C_67  and  N_73 
REMARK   35  A    between atoms: CB_69  and  CG1_70 
REMARK   36  A    between atoms: CB_69  and  CG2_71 
REMARK   37  A    between atoms: CG1_70  and  CD1_72 
REMARK   38  A    between atoms: N_73  and  CA_74 
REMARK   39  A    between atoms: CA_74  and  C_75 
REMARK   40  A    between atoms: CA_74  and  CB_77 
REMARK   41  A    between atoms: CB_77  and  CG1_78 
REMARK   42  A    between atoms: CB_77  and  CG2_79 
REMARK   43  A    between atoms: CG1_78  and  CD1_80 
ROOT
ATOM      1  CA  TRP d   1      18.376  27.183  15.804  0.00  0.00     0.093 C 
ATOM      2  H33 TRP d   1      18.083  28.236  15.925  0.00  0.00     0.088 H 
ENDROOT
BRANCH   1   3
ATOM      3  N   TRP d   1      19.820  27.113  15.579  0.00  0.00    -0.346 N 
ATOM      4  C   ARG d   1      20.647  28.018  16.106  0.00  0.00     0.241 C 
ATOM      5  O   ARG d   1      20.247  29.039  16.676  0.00  0.00    -0.271 OA
ATOM      6  H32 TRP d   1      20.194  26.373  15.020  0.00  0.00     0.163 HD
BRANCH   4   7
ATOM      7  CA  ARG d   1      22.147  27.743  15.975  0.00  0.00     0.089 C 
ATOM      8  H20 ARG d   1      22.638  28.186  16.854  0.00  0.00     0.087 H 
BRANCH   7   9
ATOM      9  N   ARG d   1      22.463  26.317  15.974  0.00  0.00    -0.346 N 
ATOM     10  C   SER d   1      22.551  25.627  17.107  0.00  0.00     0.243 C 
ATOM     11  O   SER d   1      22.316  26.124  18.207  0.00  0.00    -0.271 OA
ATOM     12  H19 ARG d   1      22.616  25.850  15.103  0.00  0.00     0.163 HD
BRANCH  10  13
ATOM     13  CA  SER d   1      22.951  24.156  16.986  0.00  0.00     0.109 C 
ATOM     14  H15 SER d   1      22.081  23.598  16.608  0.00  0.00     0.090 H 
BRANCH  13  15
ATOM     15  N   SER d   1      24.052  23.960  16.049  0.00  0.00    -0.344 N 
ATOM     16  C   ASN d   1      23.962  23.092  15.047  0.00  0.00     0.241 C 
ATOM     17  O   ASN d   1      22.946  22.432  14.824  0.00  0.00    -0.271 OA
ATOM     18  H14 SER d   1      24.892  24.490  16.163  0.00  0.00     0.163 HD
BRANCH  16  19
ATOM     19  CA  ASN d   1      25.199  22.941  14.165  0.00  0.00     0.097 C 
ATOM     20  H9  ASN d   1      26.075  23.252  14.753  0.00  0.00     0.088 H 
BRANCH  19  21
ATOM     21  N   ASN d   1      25.402  21.556  13.752  0.00  0.00    -0.346 N 
ATOM     22  C   ALA d   1      25.722  20.603  14.623  0.00  0.00     0.248 C 
ATOM     23  O   ALA d   1      25.888  20.820  15.827  0.00  0.00    -0.271 OA
ATOM     24  H8  ASN d   1      25.297  21.317  12.787  0.00  0.00     0.163 HD
BRANCH  22  25
ATOM     25  CA  ALA d   1      25.881  19.195  14.051  0.00  0.00     0.172 C 
ATOM     26  H4  ALA d   1      26.637  19.235  13.253  0.00  0.00     0.098 H 
BRANCH  25  27
ATOM     27  N   ALA d   1      26.342  18.250  15.064  0.00  0.00    -0.067 N 
ATOM     28  H1  ALA d   1      26.435  17.335  14.652  0.00  0.00     0.275 HD
ATOM     29  H2  ALA d   1      25.674  18.213  15.818  0.00  0.00     0.275 HD
ATOM     30  H3  ALA d   1      27.235  18.550  15.422  0.00  0.00     0.275 HD
ENDBRANCH  25  27
BRANCH  25  31
ATOM     31  CB  ALA d   1      24.568  18.717  13.444  0.00  0.00    -0.042 C 
ATOM     32  H5  ALA d   1      24.232  19.437  12.683  0.00  0.00     0.030 H 
ATOM     33  H6  ALA d   1      23.807  18.636  14.234  0.00  0.00     0.030 H 
ATOM     34  H7  ALA d   1      24.717  17.733  12.976  0.00  0.00     0.030 H 
ENDBRANCH  25  31
ENDBRANCH  22  25
ENDBRANCH  19  21
BRANCH  19  35
ATOM     35  CB  ASN d   1      25.095  23.856  12.940  0.00  0.00     0.036 C 
ATOM     36  H10 ASN d   1      24.188  23.589  12.377  0.00  0.00     0.051 H 
ATOM     37  H11 ASN d   1      25.980  23.698  12.306  0.00  0.00     0.051 H 
BRANCH  35  38
ATOM     38  CG  ASN d   1      25.021  25.327  13.313  0.00  0.00     0.217 C 
ATOM     39  OD1 ASN d   1      23.937  25.873  13.520  0.00  0.00    -0.274 OA
ATOM     40  ND2 ASN d   1      26.178  25.977  13.394  0.00  0.00    -0.370 N 
ATOM     41  H12 ASN d   1      26.191  26.947  13.636  0.00  0.00     0.159 HD
ATOM     42  H13 ASN d   1      27.036  25.496  13.213  0.00  0.00     0.159 HD
ENDBRANCH  35  38
ENDBRANCH  19  35
ENDBRANCH  16  19
ENDBRANCH  13  15
BRANCH  13  43
ATOM     43  CB  SER d   1      23.322  23.597  18.363  0.00  0.00     0.044 C 
ATOM     44  H16 SER d   1      23.538  22.523  18.268  0.00  0.00     0.077 H 
ATOM     45  H17 SER d   1      22.474  23.741  19.049  0.00  0.00     0.077 H 
BRANCH  43  46
ATOM     46  OG  SER d   1      24.463  24.253  18.893  0.00  0.00    -0.398 OA
ATOM     47  H18 SER d   1      24.281  25.181  18.981  0.00  0.00     0.209 HD
ENDBRANCH  43  46
ENDBRANCH  13  43
ENDBRANCH  10  13
ENDBRANCH   7   9
BRANCH   7  48
ATOM     48  CB  ARG d   1      22.719  28.424  14.730  0.00  0.00    -0.036 C 
ATOM     49  H21 ARG d   1      22.148  28.080  13.855  0.00  0.00     0.036 H 
ATOM     50  H22 ARG d   1      23.771  28.121  14.623  0.00  0.00     0.036 H 
BRANCH  48  51
ATOM     51  CG  ARG d   1      22.662  29.940  14.770  0.00  0.00    -0.048 C 
ATOM     52  H23 ARG d   1      23.666  30.346  14.580  0.00  0.00     0.035 H 
ATOM     53  H24 ARG d   1      22.317  30.264  15.763  0.00  0.00     0.035 H 
BRANCH  51  54
ATOM     54  CD  ARG d   1      21.709  30.455  13.719  0.00  0.00     0.009 C 
ATOM     55  H25 ARG d   1      21.683  31.554  13.767  0.00  0.00     0.064 H 
ATOM     56  H26 ARG d   1      20.704  30.055  13.920  0.00  0.00     0.064 H 
BRANCH  54  57
ATOM     57  NE  ARG d   1      22.123  30.048  12.381  0.00  0.00    -0.227 N 
ATOM     58  CZ  ARG d   1      22.697  30.859  11.502  0.00  0.00     0.665 C 
ATOM     59  NH1 ARG d   1      23.043  30.404  10.305  0.00  0.00    -0.235 N 
ATOM     60  NH2 ARG d   1      22.916  32.128  11.817  0.00  0.00    -0.235 N 
ATOM     61  H28 ARG d   1      23.489  31.035   9.623  0.00  0.00     0.174 HD
ATOM     62  H29 ARG d   1      22.866  29.420  10.057  0.00  0.00     0.174 HD
ATOM     63  H30 ARG d   1      22.648  32.482  12.746  0.00  0.00     0.174 HD
ATOM     64  H31 ARG d   1      23.355  32.760  11.132  0.00  0.00     0.174 HD
ATOM     65  H27 ARG d   1      21.960  29.070  12.101  0.00  0.00     0.177 HD
ENDBRANCH  54  57
ENDBRANCH  51  54
ENDBRANCH  48  51
ENDBRANCH   7  48
ENDBRANCH   4   7
ENDBRANCH   1   3
BRANCH   1  66
ATOM     66  C   TRP d   1      18.036  26.400  17.062  0.00  0.00     0.243 C 
ATOM     67  O   TRP d   1      18.730  25.445  17.408  0.00  0.00    -0.271 OA
ATOM     68  N   PRO d   1      16.963  26.798  17.749  0.00  0.00    -0.337 N 
ATOM     69  CA  PRO d   1      16.493  26.036  18.907  0.00  0.00     0.091 C 
ATOM     70  CD  PRO d   1      16.166  28.018  17.538  0.00  0.00    -0.001 C 
ATOM     71  CB  PRO d   1      15.518  27.002  19.579  0.00  0.00    -0.036 C 
ATOM     72  H42 PRO d   1      17.328  25.777  19.575  0.00  0.00     0.087 H 
ATOM     73  CG  PRO d   1      14.992  27.820  18.462  0.00  0.00    -0.048 C 
ATOM     74  H43 PRO d   1      16.038  27.634  20.314  0.00  0.00     0.036 H 
ATOM     75  H44 PRO d   1      14.705  26.453  20.077  0.00  0.00     0.036 H 
ATOM     76  H45 PRO d   1      14.623  28.788  18.832  0.00  0.00     0.035 H 
ATOM     77  H46 PRO d   1      14.178  27.291  17.945  0.00  0.00     0.035 H 
ATOM     78  H47 PRO d   1      15.836  28.099  16.492  0.00  0.00     0.064 H 
ATOM     79  H48 PRO d   1      16.738  28.916  17.813  0.00  0.00     0.064 H 
BRANCH  69  80
ATOM     80  C   PRO d   1      15.756  24.765  18.488  0.00  0.00     0.241 C 
ATOM     81  O   PRO d   1      15.191  24.689  17.390  0.00  0.00    -0.271 OA
ATOM     82  N   THR d   1      15.784  23.776  19.366  0.00  0.00    -0.344 N 
ATOM     83  H49 THR d   1      16.360  23.862  20.179  0.00  0.00     0.163 HD
BRANCH  82  84
ATOM     84  CA  THR d   1      14.998  22.567  19.179  0.00  0.00     0.113 C 
ATOM     85  H50 THR d   1      14.347  22.676  18.299  0.00  0.00     0.091 H 
BRANCH  84  86
ATOM     86  C   THR d   1      14.167  22.377  20.427  0.00  0.00     0.243 C 
ATOM     87  O   THR d   1      14.683  22.527  21.541  0.00  0.00    -0.271 OA
ATOM     88  N   SER d   1      12.881  22.070  20.255  0.00  0.00    -0.344 N 
ATOM     89  H56 SER d   1      12.500  22.045  19.331  0.00  0.00     0.163 HD
BRANCH  88  90
ATOM     90  CA  SER d   1      12.022  21.770  21.396  0.00  0.00     0.109 C 
ATOM     91  H57 SER d   1      12.626  21.784  22.316  0.00  0.00     0.090 H 
BRANCH  90  92
ATOM     92  C   SER d   1      11.414  20.394  21.210  0.00  0.00     0.243 C 
ATOM     93  O   SER d   1      10.973  20.049  20.109  0.00  0.00    -0.271 OA
ATOM     94  N   ILE d   1      11.410  19.610  22.283  0.00  0.00    -0.346 N 
ATOM     95  H61 ILE d   1      11.889  19.927  23.102  0.00  0.00     0.163 HD
BRANCH  94  96
ATOM     96  CA  ILE d   1      10.746  18.314  22.332  0.00  0.00     0.092 C 
ATOM     97  H62 ILE d   1      10.751  17.844  21.337  0.00  0.00     0.088 H 
BRANCH  96  98
ATOM     98  C   ILE d   1       9.324  18.550  22.808  0.00  0.00     0.241 C 
ATOM     99  O   ILE d   1       9.119  19.170  23.866  0.00  0.00    -0.271 OA
ATOM    100  N   ILE d   1       8.343  18.078  22.039  0.00  0.00    -0.344 N 
ATOM    101  H72 ILE d   1       8.574  17.507  21.251  0.00  0.00     0.163 HD
BRANCH 100 102
ATOM    102  CA  ILE d   1       6.942  18.373  22.316  0.00  0.00     0.099 C 
ATOM    103  H73 ILE d   1       6.864  18.651  23.377  0.00  0.00     0.090 H 
BRANCH 102 104
ATOM    104  C   ILE d   1       6.041  17.171  22.069  0.00  0.00     0.197 C 
ATOM    105  O   ILE d   1       6.475  16.134  21.544  0.00  0.00    -0.646 OA
ATOM    106  OXT ILE d   1       4.854  17.252  22.387  0.00  0.00    -0.646 OA
ENDBRANCH 102 104
BRANCH 102 107
ATOM    107  CB  ILE d   1       6.423  19.558  21.460  0.00  0.00    -0.029 C 
ATOM    108  H74 ILE d   1       5.383  19.756  21.758  0.00  0.00     0.043 H 
BRANCH 107 109
ATOM    109  CG1 ILE d   1       6.431  19.222  19.966  0.00  0.00    -0.063 C 
ATOM    110  H75 ILE d   1       5.889  18.276  19.820  0.00  0.00     0.033 H 
ATOM    111  H76 ILE d   1       7.476  19.100  19.643  0.00  0.00     0.033 H 
BRANCH 109 112
ATOM    112  CD1 ILE d   1       5.775  20.296  19.086  0.00  0.00    -0.076 C 
ATOM    113  H80 ILE d   1       5.820  19.984  18.032  0.00  0.00     0.027 H 
ATOM    114  H81 ILE d   1       6.311  21.249  19.209  0.00  0.00     0.027 H 
ATOM    115  H82 ILE d   1       4.725  20.425  19.386  0.00  0.00     0.027 H 
ENDBRANCH 109 112
ENDBRANCH 107 109
BRANCH 107 116
ATOM    116  CG2 ILE d   1       7.235  20.823  21.712  0.00  0.00    -0.070 C 
ATOM    117  H77 ILE d   1       7.224  21.058  22.787  0.00  0.00     0.028 H 
ATOM    118  H78 ILE d   1       6.795  21.660  21.150  0.00  0.00     0.028 H 
ATOM    119  H79 ILE d   1       8.272  20.665  21.381  0.00  0.00     0.028 H 
ENDBRANCH 107 116
ENDBRANCH 102 107
ENDBRANCH 100 102
ENDBRANCH  96  98
BRANCH  96 120
ATOM    120  CB  ILE d   1      11.447  17.399  23.358  0.00  0.00    -0.030 C 
ATOM    121  H63 ILE d   1      11.371  17.875  24.347  0.00  0.00     0.043 H 
BRANCH 120 122
ATOM    122  CG1 ILE d   1      12.932  17.231  23.026  0.00  0.00    -0.063 C 
ATOM    123  H64 ILE d   1      13.346  18.217  22.767  0.00  0.00     0.033 H 
ATOM    124  H65 ILE d   1      13.023  16.556  22.162  0.00  0.00     0.033 H 
BRANCH 122 125
ATOM    125  CD1 ILE d   1      13.745  16.652  24.181  0.00  0.00    -0.076 C 
ATOM    126  H69 ILE d   1      14.798  16.558  23.877  0.00  0.00     0.027 H 
ATOM    127  H70 ILE d   1      13.350  15.660  24.447  0.00  0.00     0.027 H 
ATOM    128  H71 ILE d   1      13.673  17.321  25.052  0.00  0.00     0.027 H 
ENDBRANCH 122 125
ENDBRANCH 120 122
BRANCH 120 129
ATOM    129  CG2 ILE d   1      10.758  16.055  23.430  0.00  0.00    -0.071 C 
ATOM    130  H66 ILE d   1       9.694  16.201  23.669  0.00  0.00     0.028 H 
ATOM    131  H67 ILE d   1      11.229  15.443  24.213  0.00  0.00     0.028 H 
ATOM    132  H68 ILE d   1      10.849  15.544  22.460  0.00  0.00     0.028 H 
ENDBRANCH 120 129
ENDBRANCH  96 120
ENDBRANCH  94  96
ENDBRANCH  90  92
BRANCH  90 133
ATOM    133  CB  SER d   1      10.901  22.798  21.518  0.00  0.00     0.044 C 
ATOM    134  H58 SER d   1      10.229  22.497  22.335  0.00  0.00     0.077 H 
ATOM    135  H59 SER d   1      10.339  22.827  20.573  0.00  0.00     0.077 H 
BRANCH 133 136
ATOM    136  OG  SER d   1      11.405  24.094  21.792  0.00  0.00    -0.398 OA
ATOM    137  H60 SER d   1      11.983  24.363  21.088  0.00  0.00     0.209 HD
ENDBRANCH 133 136
ENDBRANCH  90 133
ENDBRANCH  88  90
ENDBRANCH  84  86
BRANCH  84 138
ATOM    138  CB  THR d   1      15.902  21.355  18.998  0.00  0.00     0.060 C 
ATOM    139  H51 THR d   1      16.605  21.294  19.842  0.00  0.00     0.086 H 
BRANCH 138 140
ATOM    140  OG1 THR d   1      16.627  21.505  17.777  0.00  0.00    -0.393 OA
ATOM    141  H52 THR d   1      17.151  22.297  17.816  0.00  0.00     0.210 HD
ENDBRANCH 138 140
BRANCH 138 142
ATOM    142  CG2 THR d   1      15.079  20.077  18.936  0.00  0.00    -0.050 C 
ATOM    143  H53 THR d   1      15.750  19.215  18.805  0.00  0.00     0.031 H 
ATOM    144  H54 THR d   1      14.382  20.131  18.087  0.00  0.00     0.031 H 
ATOM    145  H55 THR d   1      14.511  19.961  19.871  0.00  0.00     0.031 H 
ENDBRANCH 138 142
ENDBRANCH  84 138
ENDBRANCH  82  84
ENDBRANCH  69  80
ENDBRANCH   1  66
BRANCH   1 146
ATOM    146  CB  TRP d   1      17.580  26.566  14.654  0.00  0.00    -0.012 C 
ATOM    147  H34 TRP d   1      16.512  26.680  14.889  0.00  0.00     0.044 H 
ATOM    148  H35 TRP d   1      17.833  25.497  14.609  0.00  0.00     0.044 H 
BRANCH 146 149
ATOM    149  CG  TRP d   1      17.809  27.142  13.298  0.00  0.00    -0.028 A 
ATOM    150  CD1 TRP d   1      18.351  28.360  12.988  0.00  0.00    -0.015 A 
ATOM    151  NE1 TRP d   1      18.404  28.516  11.621  0.00  0.00    -0.365 N 
ATOM    152  H36 TRP d   1      18.690  29.097  13.715  0.00  0.00     0.112 H 
ATOM    153  CE2 TRP d   1      17.901  27.389  11.025  0.00  0.00     0.042 A 
ATOM    154  H37 TRP d   1      18.763  29.345  11.127  0.00  0.00     0.165 HD
ATOM    155  CD2 TRP d   1      17.514  26.505  12.052  0.00  0.00    -0.002 A 
ATOM    156  CZ2 TRP d   1      17.748  27.076   9.675  0.00  0.00    -0.056 A 
ATOM    157  CE3 TRP d   1      16.964  25.266  11.705  0.00  0.00    -0.070 A 
ATOM    158  CZ3 TRP d   1      16.815  24.954  10.364  0.00  0.00    -0.082 A 
ATOM    159  H38 TRP d   1      16.660  24.563  12.472  0.00  0.00     0.084 H 
ATOM    160  CH2 TRP d   1      17.205  25.857   9.367  0.00  0.00    -0.081 A 
ATOM    161  H40 TRP d   1      16.390  23.997  10.082  0.00  0.00     0.083 H 
ATOM    162  H41 TRP d   1      17.074  25.584   8.326  0.00  0.00     0.083 H 
ATOM    163  H39 TRP d   1      18.047  27.771   8.899  0.00  0.00     0.086 H 
ENDBRANCH 146 149
ENDBRANCH   1 146
TORSDOF 43
