REMARK  32 active torsions:
REMARK  status: ('A' for Active; 'I' for Inactive)
REMARK    1  A    between atoms: N_1  and  CA_2 
REMARK    2  A    between atoms: CA_2  and  C_3 
REMARK    3  A    between atoms: CA_2  and  CB_5 
REMARK       I    between atoms: C_3  and  N_12 
REMARK    4  A    between atoms: CB_5  and  CG_6 
REMARK    5  A    between atoms: CG_6  and  CD_7 
REMARK    6  A    between atoms: CD_7  and  NE_8 
REMARK       I    between atoms: NE_8  and  CZ_9 
REMARK       I    between atoms: CZ_9  and  NH1_10 
REMARK    7  A    between atoms: N_12  and  CA_13 
REMARK    8  A    between atoms: CA_13  and  C_14 
REMARK    9  A    between atoms: CA_13  and  CB_16 
REMARK       I    between atoms: C_14  and  N_26 
REMARK   10  A    between atoms: CB_16  and  CG_17 
REMARK   11  A    between atoms: CA_27  and  C_28 
REMARK       I    between atoms: C_28  and  N_33 
REMARK   12  A    between atoms: N_33  and  CA_34 
REMARK   13  A    between atoms: CA_34  and  C_35 
REMARK   14  A    between atoms: CA_34  and  CB_37 
REMARK       I    between atoms: C_35  and  N_40 
REMARK   15  A    between atoms: CB_37  and  OG1_38 
REMARK   16  A    between atoms: CB_37  and  CG2_39 
REMARK   17  A    between atoms: N_40  and  CA_41 
REMARK   18  A    between atoms: CA_41  and  C_42 
REMARK   19  A    between atoms: CA_41  and  CB_44 
REMARK       I    between atoms: C_42  and  N_46 
REMARK   20  A    between atoms: CB_44  and  OG_45 
REMARK   21  A    between atoms: N_46  and  CA_47 
REMARK   22  A    between atoms: CA_47  and  C_48 
REMARK   23  A    between atoms: CA_47  and  CB_50 
REMARK       I    between atoms: C_48  and  N_54 
REMARK   24  A    between atoms: CB_50  and  CG1_51 
REMARK   25  A    between atoms: CB_50  and  CG2_52 
REMARK   26  A    between atoms: CG1_51  and  CD1_53 
REMARK   27  A    between atoms: N_54  and  CA_55 
REMARK   28  A    between atoms: CA_55  and  C_56 
REMARK   29  A    between atoms: CA_55  and  CB_58 
REMARK   30  A    between atoms: CB_58  and  CG_59 
REMARK   31  A    between atoms: CG_59  and  CD1_60 
REMARK   32  A    between atoms: CG_59  and  CD2_61 
ROOT
ATOM      1  C   PRO d   1      33.936  23.075  30.301  0.00  0.00     0.241 C 
ATOM      2  O   PRO d   1      33.346  23.123  31.391  0.00  0.00    -0.271 OA
ATOM      3  N   THR d   1      33.935  24.068  29.423  0.00  0.00    -0.344 N 
ATOM      4  H33 THR d   1      34.528  24.002  28.620  0.00  0.00     0.163 HD
ENDROOT
BRANCH   1   5
ATOM      5  CA  PRO d   1      34.730  21.836  29.882  0.00  0.00     0.091 C 
ATOM      6  N   PRO d   1      35.158  21.065  31.046  0.00  0.00    -0.337 N 
ATOM      7  C   TRP d   1      36.208  21.427  31.781  0.00  0.00     0.243 C 
ATOM      8  CD  PRO d   1      34.325  19.864  31.237  0.00  0.00    -0.001 C 
ATOM      9  O   TRP d   1      36.955  22.348  31.459  0.00  0.00    -0.271 OA
ATOM     10  CG  PRO d   1      33.192  20.075  30.258  0.00  0.00    -0.048 C 
ATOM     11  H31 PRO d   1      33.949  19.804  32.269  0.00  0.00     0.064 H 
ATOM     12  H32 PRO d   1      34.889  18.950  30.998  0.00  0.00     0.064 H 
ATOM     13  CB  PRO d   1      33.802  20.861  29.155  0.00  0.00    -0.036 C 
ATOM     14  H29 PRO d   1      32.813  19.111  29.887  0.00  0.00     0.035 H 
ATOM     15  H30 PRO d   1      32.370  20.635  30.728  0.00  0.00     0.035 H 
ATOM     16  H27 PRO d   1      34.371  20.209  28.476  0.00  0.00     0.036 H 
ATOM     17  H28 PRO d   1      33.032  21.402  28.585  0.00  0.00     0.036 H 
ATOM     18  H26 PRO d   1      35.586  22.129  29.257  0.00  0.00     0.087 H 
BRANCH   7  19
ATOM     19  CA  TRP d   1      36.447  20.632  33.060  0.00  0.00     0.093 C 
ATOM     20  H17 TRP d   1      36.175  19.581  32.884  0.00  0.00     0.088 H 
BRANCH  19  21
ATOM     21  N   TRP d   1      37.852  20.688  33.445  0.00  0.00    -0.346 N 
ATOM     22  C   ARG d   1      38.730  19.768  33.052  0.00  0.00     0.249 C 
ATOM     23  O   ARG d   1      38.437  18.823  32.311  0.00  0.00    -0.271 OA
ATOM     24  H16 TRP d   1      38.166  21.442  34.023  0.00  0.00     0.163 HD
BRANCH  22  25
ATOM     25  CA  ARG d   1      40.154  19.951  33.568  0.00  0.00     0.176 C 
ATOM     26  H4  ARG d   1      40.131  20.712  34.362  0.00  0.00     0.099 H 
BRANCH  25  27
ATOM     27  N   ARG d   1      40.691  18.721  34.144  0.00  0.00    -0.067 N 
ATOM     28  H1  ARG d   1      41.630  18.885  34.471  0.00  0.00     0.275 HD
ATOM     29  H2  ARG d   1      40.702  17.998  33.442  0.00  0.00     0.275 HD
ATOM     30  H3  ARG d   1      40.112  18.431  34.916  0.00  0.00     0.275 HD
ENDBRANCH  25  27
BRANCH  25  31
ATOM     31  CB  ARG d   1      41.058  20.461  32.443  0.00  0.00    -0.029 C 
ATOM     32  H5  ARG d   1      41.238  19.633  31.742  0.00  0.00     0.036 H 
ATOM     33  H6  ARG d   1      42.013  20.781  32.886  0.00  0.00     0.036 H 
BRANCH  31  34
ATOM     34  CG  ARG d   1      40.478  21.631  31.661  0.00  0.00    -0.047 C 
ATOM     35  H7  ARG d   1      39.572  21.990  32.171  0.00  0.00     0.035 H 
ATOM     36  H8  ARG d   1      40.218  21.292  30.648  0.00  0.00     0.035 H 
BRANCH  34  37
ATOM     37  CD  ARG d   1      41.476  22.771  31.561  0.00  0.00     0.009 C 
ATOM     38  H9  ARG d   1      41.066  23.548  30.900  0.00  0.00     0.064 H 
ATOM     39  H10 ARG d   1      42.416  22.387  31.137  0.00  0.00     0.064 H 
BRANCH  37  40
ATOM     40  NE  ARG d   1      41.751  23.358  32.869  0.00  0.00    -0.227 N 
ATOM     41  CZ  ARG d   1      42.772  24.169  33.126  0.00  0.00     0.665 C 
ATOM     42  NH1 ARG d   1      42.942  24.657  34.347  0.00  0.00    -0.235 N 
ATOM     43  NH2 ARG d   1      43.627  24.488  32.163  0.00  0.00    -0.235 N 
ATOM     44  H12 ARG d   1      43.734  25.285  34.545  0.00  0.00     0.174 HD
ATOM     45  H13 ARG d   1      42.282  24.408  35.098  0.00  0.00     0.174 HD
ATOM     46  H14 ARG d   1      43.498  24.110  31.213  0.00  0.00     0.174 HD
ATOM     47  H15 ARG d   1      44.420  25.113  32.365  0.00  0.00     0.174 HD
ATOM     48  H11 ARG d   1      41.112  23.129  33.643  0.00  0.00     0.177 HD
ENDBRANCH  37  40
ENDBRANCH  34  37
ENDBRANCH  31  34
ENDBRANCH  25  31
ENDBRANCH  22  25
ENDBRANCH  19  21
BRANCH  19  49
ATOM     49  CB  TRP d   1      35.547  21.199  34.163  0.00  0.00    -0.012 C 
ATOM     50  H18 TRP d   1      34.501  21.003  33.885  0.00  0.00     0.044 H 
ATOM     51  H19 TRP d   1      35.715  22.285  34.217  0.00  0.00     0.044 H 
BRANCH  49  52
ATOM     52  CG  TRP d   1      35.783  20.623  35.528  0.00  0.00    -0.028 A 
ATOM     53  CD1 TRP d   1      36.334  19.407  35.830  0.00  0.00    -0.015 A 
ATOM     54  NE1 TRP d   1      36.385  19.241  37.195  0.00  0.00    -0.365 N 
ATOM     55  H20 TRP d   1      36.681  18.679  35.098  0.00  0.00     0.112 H 
ATOM     56  CE2 TRP d   1      35.869  20.355  37.800  0.00  0.00     0.042 A 
ATOM     57  H21 TRP d   1      36.752  18.412  37.683  0.00  0.00     0.165 HD
ATOM     58  CD2 TRP d   1      35.475  21.247  36.779  0.00  0.00    -0.002 A 
ATOM     59  CZ2 TRP d   1      35.708  20.654  39.153  0.00  0.00    -0.056 A 
ATOM     60  CE3 TRP d   1      34.911  22.474  37.138  0.00  0.00    -0.070 A 
ATOM     61  CZ3 TRP d   1      34.755  22.770  38.478  0.00  0.00    -0.082 A 
ATOM     62  H22 TRP d   1      34.601  23.182  36.378  0.00  0.00     0.084 H 
ATOM     63  CH2 TRP d   1      35.152  21.863  39.470  0.00  0.00    -0.081 A 
ATOM     64  H24 TRP d   1      34.319  23.719  38.767  0.00  0.00     0.083 H 
ATOM     65  H25 TRP d   1      35.015  22.126  40.513  0.00  0.00     0.083 H 
ATOM     66  H23 TRP d   1      36.012  19.955  39.924  0.00  0.00     0.086 H 
ENDBRANCH  49  52
ENDBRANCH  19  49
ENDBRANCH   7  19
ENDBRANCH   1   5
BRANCH   3  67
ATOM     67  CA  THR d   1      33.106  25.245  29.584  0.00  0.00     0.113 C 
ATOM     68  H34 THR d   1      32.447  25.118  30.456  0.00  0.00     0.091 H 
BRANCH  67  69
ATOM     69  C   THR d   1      32.278  25.420  28.326  0.00  0.00     0.243 C 
ATOM     70  O   THR d   1      32.788  25.247  27.221  0.00  0.00    -0.271 OA
ATOM     71  N   SER d   1      31.001  25.762  28.490  0.00  0.00    -0.344 N 
ATOM     72  H40 SER d   1      30.621  25.797  29.414  0.00  0.00     0.163 HD
BRANCH  71  73
ATOM     73  CA  SER d   1      30.143  26.087  27.357  0.00  0.00     0.109 C 
ATOM     74  H41 SER d   1      30.749  26.085  26.439  0.00  0.00     0.090 H 
BRANCH  73  75
ATOM     75  C   SER d   1      29.533  27.469  27.557  0.00  0.00     0.243 C 
ATOM     76  O   SER d   1      29.111  27.816  28.663  0.00  0.00    -0.271 OA
ATOM     77  N   ILE d   1      29.500  28.259  26.492  0.00  0.00    -0.346 N 
ATOM     78  H45 ILE d   1      29.963  27.960  25.658  0.00  0.00     0.163 HD
BRANCH  77  79
ATOM     79  CA  ILE d   1      28.816  29.545  26.489  0.00  0.00     0.092 C 
ATOM     80  H46 ILE d   1      28.800  29.952  27.511  0.00  0.00     0.088 H 
BRANCH  79  81
ATOM     81  C   ILE d   1      27.381  29.309  26.016  0.00  0.00     0.241 C 
ATOM     82  O   ILE d   1      27.166  28.619  25.016  0.00  0.00    -0.271 OA
ATOM     83  N   LEU d   1      26.410  29.895  26.713  0.00  0.00    -0.345 N 
ATOM     84  H56 LEU d   1      26.664  30.582  27.394  0.00  0.00     0.163 HD
BRANCH  83  85
ATOM     85  CA  LEU d   1      24.988  29.586  26.535  0.00  0.00     0.096 C 
ATOM     86  H57 LEU d   1      24.848  29.075  25.571  0.00  0.00     0.089 H 
BRANCH  85  87
ATOM     87  C   LEU d   1      24.147  30.826  26.602  0.00  0.00     0.196 C 
ATOM     88  O   LEU d   1      24.581  31.847  27.132  0.00  0.00    -0.646 OA
ATOM     89  OXT LEU d   1      22.992  30.776  26.189  0.00  0.00    -0.646 OA
ENDBRANCH  85  87
BRANCH  85  90
ATOM     90  CB  LEU d   1      24.461  28.718  27.689  0.00  0.00    -0.034 C 
ATOM     91  H58 LEU d   1      23.409  28.502  27.451  0.00  0.00     0.037 H 
ATOM     92  H59 LEU d   1      24.512  29.347  28.590  0.00  0.00     0.037 H 
BRANCH  90  93
ATOM     93  CG  LEU d   1      25.085  27.392  28.068  0.00  0.00    -0.059 C 
ATOM     94  H60 LEU d   1      26.138  27.549  28.344  0.00  0.00     0.038 H 
BRANCH  93  95
ATOM     95  CD1 LEU d   1      24.340  26.801  29.266  0.00  0.00    -0.073 C 
ATOM     96  H61 LEU d   1      24.794  25.837  29.541  0.00  0.00     0.028 H 
ATOM     97  H62 LEU d   1      23.284  26.646  29.001  0.00  0.00     0.028 H 
ATOM     98  H63 LEU d   1      24.407  27.494  30.118  0.00  0.00     0.028 H 
ENDBRANCH  93  95
BRANCH  93  99
ATOM     99  CD2 LEU d   1      25.017  26.457  26.866  0.00  0.00    -0.073 C 
ATOM    100  H64 LEU d   1      25.560  26.906  26.021  0.00  0.00     0.028 H 
ATOM    101  H65 LEU d   1      23.966  26.298  26.584  0.00  0.00     0.028 H 
ATOM    102  H66 LEU d   1      25.477  25.492  27.126  0.00  0.00     0.028 H 
ENDBRANCH  93  99
ENDBRANCH  90  93
ENDBRANCH  85  90
ENDBRANCH  83  85
ENDBRANCH  79  81
BRANCH  79 103
ATOM    103  CB  ILE d   1      29.545  30.553  25.564  0.00  0.00    -0.030 C 
ATOM    104  H47 ILE d   1      29.571  30.132  24.548  0.00  0.00     0.043 H 
BRANCH 103 105
ATOM    105  CG1 ILE d   1      30.986  30.768  26.032  0.00  0.00    -0.063 C 
ATOM    106  H48 ILE d   1      31.425  29.788  26.271  0.00  0.00     0.033 H 
ATOM    107  H49 ILE d   1      30.970  31.394  26.937  0.00  0.00     0.033 H 
BRANCH 105 108
ATOM    108  CD1 ILE d   1      31.861  31.448  24.990  0.00  0.00    -0.076 C 
ATOM    109  H53 ILE d   1      32.878  31.571  25.390  0.00  0.00     0.027 H 
ATOM    110  H54 ILE d   1      31.441  32.435  24.746  0.00  0.00     0.027 H 
ATOM    111  H55 ILE d   1      31.896  30.830  24.081  0.00  0.00     0.027 H 
ENDBRANCH 105 108
ENDBRANCH 103 105
BRANCH 103 112
ATOM    112  CG2 ILE d   1      28.801  31.875  25.512  0.00  0.00    -0.071 C 
ATOM    113  H50 ILE d   1      27.769  31.702  25.174  0.00  0.00     0.028 H 
ATOM    114  H51 ILE d   1      29.308  32.553  24.810  0.00  0.00     0.028 H 
ATOM    115  H52 ILE d   1      28.788  32.328  26.514  0.00  0.00     0.028 H 
ENDBRANCH 103 112
ENDBRANCH  79 103
ENDBRANCH  77  79
ENDBRANCH  73  75
BRANCH  73 116
ATOM    116  CB  SER d   1      29.008  25.066  27.210  0.00  0.00     0.044 C 
ATOM    117  H42 SER d   1      28.338  25.391  26.400  0.00  0.00     0.077 H 
ATOM    118  H43 SER d   1      28.446  25.019  28.154  0.00  0.00     0.077 H 
BRANCH 116 119
ATOM    119  OG  SER d   1      29.505  23.771  26.905  0.00  0.00    -0.398 OA
ATOM    120  H44 SER d   1      30.081  23.482  27.603  0.00  0.00     0.209 HD
ENDBRANCH 116 119
ENDBRANCH  73 116
ENDBRANCH  71  73
ENDBRANCH  67  69
BRANCH  67 121
ATOM    121  CB  THR d   1      33.971  26.486  29.772  0.00  0.00     0.060 C 
ATOM    122  H35 THR d   1      34.678  26.564  28.933  0.00  0.00     0.086 H 
BRANCH 121 123
ATOM    123  OG1 THR d   1      34.699  26.364  30.996  0.00  0.00    -0.393 OA
ATOM    124  H36 THR d   1      35.250  25.591  30.960  0.00  0.00     0.210 HD
ENDBRANCH 121 123
BRANCH 121 125
ATOM    125  CG2 THR d   1      33.104  27.745  29.812  0.00  0.00    -0.050 C 
ATOM    126  H37 THR d   1      33.746  28.628  29.948  0.00  0.00     0.031 H 
ATOM    127  H38 THR d   1      32.394  27.675  30.649  0.00  0.00     0.031 H 
ATOM    128  H39 THR d   1      32.548  27.838  28.867  0.00  0.00     0.031 H 
ENDBRANCH 121 125
ENDBRANCH  67 121
ENDBRANCH   3  67
TORSDOF 32
