REMARK WARNING: 32 MAX_TORS EXCEEDED!!!
REMARK  36 active torsions:
REMARK  status: ('A' for Active; 'I' for Inactive)
REMARK    1  A    between atoms: N_1  and  CA_2 
REMARK    2  A    between atoms: CA_2  and  C_3 
REMARK    3  A    between atoms: CA_2  and  CB_5 
REMARK       I    between atoms: C_3  and  N_7 
REMARK    4  A    between atoms: CB_5  and  OG_6 
REMARK    5  A    between atoms: N_7  and  CA_8 
REMARK    6  A    between atoms: CA_8  and  C_9 
REMARK    7  A    between atoms: CA_8  and  CB_11 
REMARK       I    between atoms: C_9  and  N_18 
REMARK    8  A    between atoms: CB_11  and  CG_12 
REMARK    9  A    between atoms: CG_12  and  CD_13 
REMARK   10  A    between atoms: CD_13  and  NE_14 
REMARK       I    between atoms: NE_14  and  CZ_15 
REMARK       I    between atoms: CZ_15  and  NH1_16 
REMARK   11  A    between atoms: N_18  and  CA_19 
REMARK   12  A    between atoms: CA_19  and  C_20 
REMARK   13  A    between atoms: CA_19  and  CB_22 
REMARK       I    between atoms: C_20  and  N_32 
REMARK   14  A    between atoms: CB_22  and  CG_23 
REMARK   15  A    between atoms: CA_33  and  C_34 
REMARK       I    between atoms: C_34  and  N_39 
REMARK   16  A    between atoms: N_39  and  CA_40 
REMARK   17  A    between atoms: CA_40  and  C_41 
REMARK   18  A    between atoms: CA_40  and  CB_43 
REMARK       I    between atoms: C_41  and  N_46 
REMARK   19  A    between atoms: CB_43  and  OG1_44 
REMARK   20  A    between atoms: CB_43  and  CG2_45 
REMARK   21  A    between atoms: N_46  and  CA_47 
REMARK   22  A    between atoms: CA_47  and  C_48 
REMARK   23  A    between atoms: CA_47  and  CB_50 
REMARK       I    between atoms: C_48  and  N_52 
REMARK   24  A    between atoms: CB_50  and  OG_51 
REMARK   25  A    between atoms: N_52  and  CA_53 
REMARK   26  A    between atoms: CA_53  and  C_54 
REMARK   27  A    between atoms: CA_53  and  CB_56 
REMARK       I    between atoms: C_54  and  N_60 
REMARK   28  A    between atoms: CB_56  and  CG1_57 
REMARK   29  A    between atoms: CB_56  and  CG2_58 
REMARK   30  A    between atoms: CG1_57  and  CD1_59 
REMARK   31  A    between atoms: N_60  and  CA_61 
REMARK   32  A    between atoms: CA_61  and  C_62 
REMARK   33  A    between atoms: CA_61  and  CB_64 
REMARK   34  A    between atoms: CB_64  and  CG_65 
REMARK   35  A    between atoms: CG_65  and  CD1_66 
REMARK   36  A    between atoms: CG_65  and  CD2_67 
ROOT
ATOM      1  C   TRP d   1      -1.736  20.520  42.829  0.00  0.00     0.243 C 
ATOM      2  O   TRP d   1      -2.016  19.553  42.126  0.00  0.00    -0.271 OA
ATOM      3  N   PRO d   1      -2.023  21.774  42.485  0.00  0.00    -0.337 N 
ATOM      4  CA  PRO d   1      -2.778  22.053  41.262  0.00  0.00     0.091 C 
ATOM      5  CB  PRO d   1      -3.004  23.564  41.338  0.00  0.00    -0.036 C 
ATOM      6  CG  PRO d   1      -1.846  24.068  42.119  0.00  0.00    -0.048 C 
ATOM      7  CD  PRO d   1      -1.571  23.007  43.150  0.00  0.00    -0.001 C 
ATOM      8  H31 PRO d   1      -3.732  21.505  41.257  0.00  0.00     0.087 H 
ATOM      9  H32 PRO d   1      -3.950  23.791  41.852  0.00  0.00     0.036 H 
ATOM     10  H33 PRO d   1      -3.018  24.007  40.331  0.00  0.00     0.036 H 
ATOM     11  H34 PRO d   1      -2.095  25.023  42.605  0.00  0.00     0.035 H 
ATOM     12  H35 PRO d   1      -0.972  24.207  41.466  0.00  0.00     0.035 H 
ATOM     13  H36 PRO d   1      -0.498  22.957  43.389  0.00  0.00     0.064 H 
ATOM     14  H37 PRO d   1      -2.144  23.192  44.071  0.00  0.00     0.064 H 
ENDROOT
BRANCH   4  15
ATOM     15  C   PRO d   1      -1.987  21.708  40.003  0.00  0.00     0.241 C 
ATOM     16  O   PRO d   1      -0.753  21.800  39.970  0.00  0.00    -0.271 OA
ATOM     17  N   THR d   1      -2.712  21.304  38.970  0.00  0.00    -0.344 N 
ATOM     18  H38 THR d   1      -3.676  21.076  39.106  0.00  0.00     0.163 HD
BRANCH  17  19
ATOM     19  CA  THR d   1      -2.130  21.187  37.642  0.00  0.00     0.113 C 
ATOM     20  H39 THR d   1      -1.096  21.559  37.696  0.00  0.00     0.091 H 
BRANCH  19  21
ATOM     21  C   THR d   1      -2.896  22.075  36.679  0.00  0.00     0.243 C 
ATOM     22  O   THR d   1      -4.066  22.412  36.914  0.00  0.00    -0.271 OA
ATOM     23  N   SER d   1      -2.233  22.475  35.602  0.00  0.00    -0.344 N 
ATOM     24  H45 SER d   1      -1.291  22.168  35.467  0.00  0.00     0.163 HD
BRANCH  23  25
ATOM     25  CA  SER d   1      -2.843  23.349  34.614  0.00  0.00     0.109 C 
ATOM     26  H46 SER d   1      -3.905  23.478  34.871  0.00  0.00     0.090 H 
BRANCH  25  27
ATOM     27  C   SER d   1      -2.746  22.743  33.233  0.00  0.00     0.243 C 
ATOM     28  O   SER d   1      -1.689  22.241  32.832  0.00  0.00    -0.271 OA
ATOM     29  N   ILE d   1      -3.850  22.825  32.493  0.00  0.00    -0.346 N 
ATOM     30  H50 ILE d   1      -4.671  23.226  32.900  0.00  0.00     0.163 HD
BRANCH  29  31
ATOM     31  CA  ILE d   1      -3.912  22.353  31.111  0.00  0.00     0.092 C 
ATOM     32  H51 ILE d   1      -3.257  21.476  31.004  0.00  0.00     0.088 H 
BRANCH  31  33
ATOM     33  C   ILE d   1      -3.451  23.442  30.157  0.00  0.00     0.241 C 
ATOM     34  O   ILE d   1      -3.922  24.580  30.230  0.00  0.00    -0.271 OA
ATOM     35  N   LEU d   1      -2.516  23.094  29.271  0.00  0.00    -0.345 N 
ATOM     36  H61 LEU d   1      -2.220  22.140  29.235  0.00  0.00     0.163 HD
BRANCH  35  37
ATOM     37  CA  LEU d   1      -1.909  24.053  28.353  0.00  0.00     0.096 C 
ATOM     38  H62 LEU d   1      -2.385  25.035  28.488  0.00  0.00     0.089 H 
BRANCH  37  39
ATOM     39  C   LEU d   1      -2.072  23.594  26.923  0.00  0.00     0.196 C 
ATOM     40  O   LEU d   1      -2.149  22.392  26.637  0.00  0.00    -0.646 OA
ATOM     41  OXT LEU d   1      -2.092  24.442  26.027  0.00  0.00    -0.646 OA
ENDBRANCH  37  39
BRANCH  37  42
ATOM     42  CB  LEU d   1      -0.405  24.161  28.618  0.00  0.00    -0.034 C 
ATOM     43  H63 LEU d   1      -0.047  25.054  28.085  0.00  0.00     0.037 H 
ATOM     44  H64 LEU d   1       0.063  23.264  28.186  0.00  0.00     0.037 H 
BRANCH  42  45
ATOM     45  CG  LEU d   1       0.086  24.273  30.053  0.00  0.00    -0.059 C 
ATOM     46  H65 LEU d   1      -0.301  23.417  30.626  0.00  0.00     0.038 H 
BRANCH  45  47
ATOM     47  CD1 LEU d   1       1.623  24.223  30.066  0.00  0.00    -0.073 C 
ATOM     48  H66 LEU d   1       1.984  24.304  31.102  0.00  0.00     0.028 H 
ATOM     49  H67 LEU d   1       2.022  25.059  29.473  0.00  0.00     0.028 H 
ATOM     50  H68 LEU d   1       1.963  23.271  29.633  0.00  0.00     0.028 H 
ENDBRANCH  45  47
BRANCH  45  51
ATOM     51  CD2 LEU d   1      -0.416  25.550  30.703  0.00  0.00    -0.073 C 
ATOM     52  H69 LEU d   1      -1.516  25.564  30.682  0.00  0.00     0.028 H 
ATOM     53  H70 LEU d   1      -0.028  26.419  30.152  0.00  0.00     0.028 H 
ATOM     54  H71 LEU d   1      -0.068  25.592  31.746  0.00  0.00     0.028 H 
ENDBRANCH  45  51
ENDBRANCH  42  45
ENDBRANCH  37  42
ENDBRANCH  35  37
ENDBRANCH  31  33
BRANCH  31  55
ATOM     55  CB  ILE d   1      -5.360  21.957  30.741  0.00  0.00    -0.030 C 
ATOM     56  H52 ILE d   1      -6.016  22.825  30.904  0.00  0.00     0.043 H 
BRANCH  55  57
ATOM     57  CG1 ILE d   1      -5.839  20.819  31.651  0.00  0.00    -0.063 C 
ATOM     58  H53 ILE d   1      -5.504  21.032  32.677  0.00  0.00     0.033 H 
ATOM     59  H54 ILE d   1      -5.381  19.881  31.303  0.00  0.00     0.033 H 
BRANCH  57  60
ATOM     60  CD1 ILE d   1      -7.370  20.633  31.669  0.00  0.00    -0.076 C 
ATOM     61  H58 ILE d   1      -7.630  19.802  32.341  0.00  0.00     0.027 H 
ATOM     62  H59 ILE d   1      -7.724  20.407  30.652  0.00  0.00     0.027 H 
ATOM     63  H60 ILE d   1      -7.848  21.557  32.026  0.00  0.00     0.027 H 
ENDBRANCH  57  60
ENDBRANCH  55  57
BRANCH  55  64
ATOM     64  CG2 ILE d   1      -5.422  21.587  29.277  0.00  0.00    -0.071 C 
ATOM     65  H55 ILE d   1      -5.069  22.434  28.670  0.00  0.00     0.028 H 
ATOM     66  H56 ILE d   1      -6.460  21.346  29.003  0.00  0.00     0.028 H 
ATOM     67  H57 ILE d   1      -4.782  20.712  29.093  0.00  0.00     0.028 H 
ENDBRANCH  55  64
ENDBRANCH  31  55
ENDBRANCH  29  31
ENDBRANCH  25  27
BRANCH  25  68
ATOM     68  CB  SER d   1      -2.169  24.719  34.609  0.00  0.00     0.044 C 
ATOM     69  H47 SER d   1      -2.611  25.335  33.812  0.00  0.00     0.077 H 
ATOM     70  H48 SER d   1      -1.093  24.590  34.419  0.00  0.00     0.077 H 
BRANCH  68  71
ATOM     71  OG  SER d   1      -2.343  25.372  35.846  0.00  0.00    -0.398 OA
ATOM     72  H49 SER d   1      -1.959  24.846  36.538  0.00  0.00     0.209 HD
ENDBRANCH  68  71
ENDBRANCH  25  68
ENDBRANCH  23  25
ENDBRANCH  19  21
BRANCH  19  73
ATOM     73  CB  THR d   1      -2.065  19.731  37.143  0.00  0.00     0.060 C 
ATOM     74  H40 THR d   1      -1.529  19.715  36.183  0.00  0.00     0.086 H 
BRANCH  73  75
ATOM     75  OG1 THR d   1      -3.385  19.216  36.938  0.00  0.00    -0.393 OA
ATOM     76  H41 THR d   1      -3.865  19.242  37.758  0.00  0.00     0.210 HD
ENDBRANCH  73  75
BRANCH  73  77
ATOM     77  CG2 THR d   1      -1.309  18.854  38.134  0.00  0.00    -0.050 C 
ATOM     78  H42 THR d   1      -1.275  17.821  37.758  0.00  0.00     0.031 H 
ATOM     79  H43 THR d   1      -1.822  18.873  39.107  0.00  0.00     0.031 H 
ATOM     80  H44 THR d   1      -0.284  19.235  38.253  0.00  0.00     0.031 H 
ENDBRANCH  73  77
ENDBRANCH  19  73
ENDBRANCH  17  19
ENDBRANCH   4  15
BRANCH   1  81
ATOM     81  CA  TRP d   1      -1.042  20.328  44.168  0.00  0.00     0.093 C 
ATOM     82  H22 TRP d   1      -0.430  21.214  44.392  0.00  0.00     0.088 H 
BRANCH  81  83
ATOM     83  N   TRP d   1      -2.060  20.173  45.197  0.00  0.00    -0.346 N 
ATOM     84  C   ARG d   1      -1.858  20.575  46.446  0.00  0.00     0.241 C 
ATOM     85  O   ARG d   1      -0.811  21.102  46.815  0.00  0.00    -0.271 OA
ATOM     86  H21 TRP d   1      -2.935  19.753  44.957  0.00  0.00     0.163 HD
BRANCH  84  87
ATOM     87  CA  ARG d   1      -3.011  20.334  47.420  0.00  0.00     0.089 C 
ATOM     88  H9  ARG d   1      -3.508  21.292  47.634  0.00  0.00     0.087 H 
BRANCH  87  89
ATOM     89  N   ARG d   1      -3.973  19.427  46.811  0.00  0.00    -0.346 N 
ATOM     90  C   SER d   1      -5.128  19.848  46.316  0.00  0.00     0.251 C 
ATOM     91  O   SER d   1      -5.497  21.019  46.380  0.00  0.00    -0.271 OA
ATOM     92  H8  ARG d   1      -3.755  18.452  46.764  0.00  0.00     0.163 HD
BRANCH  90  93
ATOM     93  CA  SER d   1      -5.989  18.780  45.650  0.00  0.00     0.195 C 
ATOM     94  H4  SER d   1      -6.899  19.261  45.263  0.00  0.00     0.102 H 
BRANCH  93  95
ATOM     95  N   SER d   1      -5.282  18.163  44.530  0.00  0.00    -0.064 N 
ATOM     96  H1  SER d   1      -5.870  17.462  44.107  0.00  0.00     0.275 HD
ATOM     97  H2  SER d   1      -4.434  17.733  44.864  0.00  0.00     0.275 HD
ATOM     98  H3  SER d   1      -5.055  18.868  43.847  0.00  0.00     0.275 HD
ENDBRANCH  93  95
BRANCH  93  99
ATOM     99  CB  SER d   1      -6.400  17.711  46.668  0.00  0.00     0.051 C 
ATOM    100  H5  SER d   1      -5.494  17.240  47.078  0.00  0.00     0.077 H 
ATOM    101  H6  SER d   1      -7.012  16.951  46.161  0.00  0.00     0.077 H 
BRANCH  99 102
ATOM    102  OG  SER d   1      -7.150  18.272  47.733  0.00  0.00    -0.398 OA
ATOM    103  H7  SER d   1      -7.389  17.587  48.346  0.00  0.00     0.209 HD
ENDBRANCH  99 102
ENDBRANCH  93  99
ENDBRANCH  90  93
ENDBRANCH  87  89
BRANCH  87 104
ATOM    104  CB  ARG d   1      -2.474  19.754  48.729  0.00  0.00    -0.036 C 
ATOM    105  H10 ARG d   1      -2.595  20.514  49.515  0.00  0.00     0.036 H 
ATOM    106  H11 ARG d   1      -1.405  19.534  48.593  0.00  0.00     0.036 H 
BRANCH 104 107
ATOM    107  CG  ARG d   1      -3.169  18.473  49.193  0.00  0.00    -0.048 C 
ATOM    108  H12 ARG d   1      -4.248  18.565  49.000  0.00  0.00     0.035 H 
ATOM    109  H13 ARG d   1      -2.999  18.349  50.273  0.00  0.00     0.035 H 
BRANCH 107 110
ATOM    110  CD  ARG d   1      -2.642  17.235  48.465  0.00  0.00     0.009 C 
ATOM    111  H14 ARG d   1      -2.859  16.348  49.078  0.00  0.00     0.064 H 
ATOM    112  H15 ARG d   1      -1.554  17.337  48.341  0.00  0.00     0.064 H 
BRANCH 110 113
ATOM    113  NE  ARG d   1      -3.246  17.050  47.147  0.00  0.00    -0.227 N 
ATOM    114  CZ  ARG d   1      -2.633  16.477  46.116  0.00  0.00     0.665 C 
ATOM    115  NH1 ARG d   1      -3.263  16.349  44.954  0.00  0.00    -0.235 N 
ATOM    116  NH2 ARG d   1      -1.387  16.038  46.245  0.00  0.00    -0.235 N 
ATOM    117  H17 ARG d   1      -2.787  15.905  44.156  0.00  0.00     0.174 HD
ATOM    118  H18 ARG d   1      -4.228  16.694  44.851  0.00  0.00     0.174 HD
ATOM    119  H19 ARG d   1      -0.897  16.137  47.146  0.00  0.00     0.174 HD
ATOM    120  H20 ARG d   1      -0.910  15.599  45.444  0.00  0.00     0.174 HD
ATOM    121  H16 ARG d   1      -4.210  17.386  47.008  0.00  0.00     0.177 HD
ENDBRANCH 110 113
ENDBRANCH 107 110
ENDBRANCH 104 107
ENDBRANCH  87 104
ENDBRANCH  84  87
ENDBRANCH  81  83
BRANCH  81 122
ATOM    122  CB  TRP d   1      -0.139  19.100  44.121  0.00  0.00    -0.012 C 
ATOM    123  H23 TRP d   1      -0.650  18.318  43.541  0.00  0.00     0.044 H 
ATOM    124  H24 TRP d   1       0.019  18.748  45.151  0.00  0.00     0.044 H 
BRANCH 122 125
ATOM    125  CG  TRP d   1       1.205  19.348  43.496  0.00  0.00    -0.028 A 
ATOM    126  CD1 TRP d   1       2.182  20.163  43.974  0.00  0.00    -0.015 A 
ATOM    127  NE1 TRP d   1       3.287  20.115  43.148  0.00  0.00    -0.365 N 
ATOM    128  H25 TRP d   1       2.104  20.766  44.877  0.00  0.00     0.112 H 
ATOM    129  CE2 TRP d   1       3.030  19.257  42.114  0.00  0.00     0.042 A 
ATOM    130  H26 TRP d   1       4.162  20.640  43.288  0.00  0.00     0.165 HD
ATOM    131  CD2 TRP d   1       1.724  18.754  42.292  0.00  0.00    -0.002 A 
ATOM    132  CZ2 TRP d   1       3.832  18.894  41.024  0.00  0.00    -0.056 A 
ATOM    133  CE3 TRP d   1       1.221  17.838  41.360  0.00  0.00    -0.070 A 
ATOM    134  CZ3 TRP d   1       2.023  17.476  40.279  0.00  0.00    -0.082 A 
ATOM    135  H27 TRP d   1       0.228  17.419  41.477  0.00  0.00     0.084 H 
ATOM    136  CH2 TRP d   1       3.315  17.999  40.128  0.00  0.00    -0.081 A 
ATOM    137  H29 TRP d   1       1.641  16.778  39.542  0.00  0.00     0.083 H 
ATOM    138  H30 TRP d   1       3.918  17.687  39.282  0.00  0.00     0.083 H 
ATOM    139  H28 TRP d   1       4.826  19.307  40.895  0.00  0.00     0.086 H 
ENDBRANCH 122 125
ENDBRANCH  81 122
ENDBRANCH   1  81
TORSDOF 36
