REMARK  3 active torsions:
REMARK  status: ('A' for Active; 'I' for Inactive)
REMARK    1  A    between atoms: CAI_9  and  OAC_3 
REMARK    2  A    between atoms: CAJ_10  and  OAD_4 
REMARK    3  A    between atoms: CAH_8  and  CAK_11 
ROOT
ATOM      1  CAE GTQ d   1      17.017   6.211  13.567  0.00  0.00    -0.048 A 
ATOM      2  CAF GTQ d   1      15.757   5.729  13.908  0.00  0.00    -0.047 A 
ATOM      3  CAG GTQ d   1      18.000   4.246  14.557  0.00  0.00    -0.032 A 
ATOM      4  CAI GTQ d   1      18.106   5.467  13.909  0.00  0.00     0.066 A 
ATOM      5  CAJ GTQ d   1      15.643   4.530  14.516  0.00  0.00     0.082 A 
ATOM      6  CAK GTQ d   1      16.738   3.747  14.882  0.00  0.00     0.076 A 
ATOM      7  H3  GTQ d   1      17.129   7.153  13.043  0.00  0.00     0.087 H 
ATOM      8  H4  GTQ d   1      14.872   6.314  13.686  0.00  0.00     0.087 H 
ATOM      9  H5  GTQ d   1      18.891   3.683  14.809  0.00  0.00     0.089 H 
ENDROOT
BRANCH   6  10
ATOM     10  CAH GTQ d   1      16.551   2.460  15.614  0.00  0.00     0.212 C 
ATOM     11  OAA GTQ d   1      15.350   2.183  15.997  0.00  0.00    -0.644 OA
ATOM     12  OAB GTQ d   1      17.587   1.857  15.973  0.00  0.00    -0.644 OA
ENDBRANCH   6  10
BRANCH   5  13
ATOM     13  OAD GTQ d   1      14.412   4.067  14.844  0.00  0.00    -0.360 OA
ATOM     14  H2  GTQ d   1      14.495   3.218  15.262  0.00  0.00     0.217 HD
ENDBRANCH   5  13
BRANCH   4  15
ATOM     15  OAC GTQ d   1      19.359   5.954  13.685  0.00  0.00    -0.361 OA
ATOM     16  H1  GTQ d   1      19.473   6.765  14.166  0.00  0.00     0.217 HD
ENDBRANCH   4  15
TORSDOF 3
