REMARK  3 active torsions:
REMARK  status: ('A' for Active; 'I' for Inactive)
REMARK    1  A    between atoms: C1A_1  and  C1_4 
REMARK    2  A    between atoms: C2_5  and  O2_10 
REMARK    3  A    between atoms: C6_9  and  O6_11 
ROOT
ATOM      1  C1  GRE d   1      16.588   3.340  15.180  0.00  0.00     0.106 A 
ATOM      2  C2  GRE d   1      15.298   3.871  15.110  0.00  0.00     0.085 A 
ATOM      3  C3  GRE d   1      15.044   5.011  14.374  0.00  0.00    -0.050 A 
ATOM      4  C4  GRE d   1      15.989   5.599  13.557  0.00  0.00    -0.078 A 
ATOM      5  C5  GRE d   1      17.301   5.071  13.601  0.00  0.00    -0.050 A 
ATOM      6  C6  GRE d   1      17.573   3.956  14.401  0.00  0.00     0.085 A 
ATOM      7  H1  GRE d   1      14.061   5.464  14.440  0.00  0.00     0.087 H 
ATOM      8  H2  GRE d   1      15.736   6.430  12.909  0.00  0.00     0.083 H 
ATOM      9  H3  GRE d   1      18.092   5.528  13.018  0.00  0.00     0.087 H 
ENDROOT
BRANCH   1  10
ATOM     10  C1A GRE d   1      16.835   2.256  16.054  0.00  0.00     0.215 C 
ATOM     11  O1A GRE d   1      17.945   1.734  16.040  0.00  0.00    -0.644 OA
ATOM     12  O2A GRE d   1      15.963   1.842  16.864  0.00  0.00    -0.644 OA
ENDBRANCH   1  10
BRANCH   2  13
ATOM     13  O2  GRE d   1      14.364   3.286  15.902  0.00  0.00    -0.360 OA
ATOM     14  H4  GRE d   1      14.739   2.519  16.318  0.00  0.00     0.217 HD
ENDBRANCH   2  13
BRANCH   6  15
ATOM     15  O6  GRE d   1      18.866   3.467  14.462  0.00  0.00    -0.360 OA
ATOM     16  H5  GRE d   1      18.892   2.714  15.041  0.00  0.00     0.217 HD
ENDBRANCH   6  15
TORSDOF 3
