REMARK  2 active torsions:
REMARK  status: ('A' for Active; 'I' for Inactive)
REMARK    1  A    between atoms: C3_3  and  O3_4 
REMARK    2  A    between atoms: C6_7  and  O6_8 
ROOT
ATOM      1  C1  HQE d   1      14.624   4.417  17.599  0.00  0.00    -0.048 A 
ATOM      2  C2  HQE d   1      14.804   3.116  18.184  0.00  0.00    -0.048 A 
ATOM      3  C3  HQE d   1      15.340   2.105  17.395  0.00  0.00     0.065 A 
ATOM      4  C4  HQE d   1      15.669   2.399  16.037  0.00  0.00    -0.048 A 
ATOM      5  C5  HQE d   1      15.518   3.670  15.470  0.00  0.00    -0.048 A 
ATOM      6  C6  HQE d   1      15.007   4.697  16.281  0.00  0.00     0.065 A 
ATOM      7  H1  HQE d   1      14.179   5.205  18.196  0.00  0.00     0.087 H 
ATOM      8  H2  HQE d   1      14.528   2.928  19.215  0.00  0.00     0.087 H 
ATOM      9  H4  HQE d   1      16.054   1.599  15.415  0.00  0.00     0.087 H 
ATOM     10  H5  HQE d   1      15.787   3.856  14.437  0.00  0.00     0.087 H 
ENDROOT
BRANCH   3  11
ATOM     11  O3  HQE d   1      15.490   0.805  17.920  0.00  0.00    -0.361 OA
ATOM     12  H3  HQE d   1      15.868   0.239  17.257  0.00  0.00     0.217 HD
ENDBRANCH   3  11
BRANCH   6  13
ATOM     13  O6  HQE d   1      14.873   6.006  15.768  0.00  0.00    -0.361 OA
ATOM     14  H6  HQE d   1      14.515   6.574  16.441  0.00  0.00     0.217 HD
ENDBRANCH   6  13
TORSDOF 2
