REMARK  7 active torsions:
REMARK  status: ('A' for Active; 'I' for Inactive)
REMARK    1  A    between atoms: B03_1  and  O04_2 
REMARK    2  A    between atoms: B03_1  and  O05_3 
REMARK    3  A    between atoms: B03_1  and  C06_4 
REMARK    4  A    between atoms: C06_4  and  N07_5 
REMARK    5  A    between atoms: N07_5  and  S08_6 
REMARK    6  A    between atoms: S08_6  and  C11_9 
REMARK    7  A    between atoms: C14_12  and  C15_13 
ROOT
ATOM      1  C11 0N4 d   1      22.966   6.758  12.823  0.00  0.00     0.079 A 
ATOM      2  C12 0N4 d   1      23.448   6.329  11.575  0.00  0.00    -0.059 A 
ATOM      3  C13 0N4 d   1      22.616   5.565  10.706  0.00  0.00    -0.068 A 
ATOM      4  C14 0N4 d   1      21.323   5.233  11.102  0.00  0.00     0.012 A 
ATOM      5  C20 0N4 d   1      20.824   5.681  12.343  0.00  0.00    -0.068 A 
ATOM      6  C21 0N4 d   1      21.647   6.447  13.199  0.00  0.00    -0.059 A 
ATOM      7  H   0N4 d   1      24.463   6.582  11.270  0.00  0.00     0.085 H 
ATOM      8  H   0N4 d   1      22.991   5.242   9.735  0.00  0.00     0.085 H 
ATOM      9  H   0N4 d   1      19.805   5.436  12.641  0.00  0.00     0.085 H 
ATOM     10  H   0N4 d   1      21.258   6.798  14.155  0.00  0.00     0.085 H 
ENDROOT
BRANCH   1  11
ATOM     11  S08 0N4 d   1      23.941   7.743  13.900  0.00  0.00     0.258 S 
ATOM     12  O09 0N4 d   1      23.080   8.732  14.450  0.00  0.00    -0.201 OA
ATOM     13  O10 0N4 d   1      24.926   8.409  13.127  0.00  0.00    -0.201 OA
BRANCH  11  14
ATOM     14  N07 0N4 d   1      24.561   6.911  15.132  0.00  0.00    -0.319 N 
ATOM     15  H   0N4 d   1      24.135   7.007  16.054  0.00  0.00     0.171 HD
BRANCH  14  16
ATOM     16  C06 0N4 d   1      25.708   6.027  14.976  0.00  0.00     0.037 C 
ATOM     17  H   0N4 d   1      25.475   5.364  14.143  0.00  0.00     0.058 H 
ATOM     18  H   0N4 d   1      26.577   6.671  14.841  0.00  0.00     0.058 H 
BRANCH  16  19
ATOM     19  B03 0N4 d   1      26.031   5.094  16.212  0.00  0.00     0.510 B 
BRANCH  19  20
ATOM     20  O04 0N4 d   1      26.185   5.904  17.414  0.00  0.00    -0.436 OA
ATOM     21  H   0N4 d   1      26.444   5.341  18.147  0.00  0.00     0.184 HD
ENDBRANCH  19  20
BRANCH  19  22
ATOM     22  O05 0N4 d   1      24.995   4.083  16.454  0.00  0.00    -0.436 OA
ATOM     23  H   0N4 d   1      24.886   3.544  15.667  0.00  0.00     0.184 HD
ENDBRANCH  19  22
ENDBRANCH  16  19
ENDBRANCH  14  16
ENDBRANCH  11  14
ENDBRANCH   1  11
BRANCH   4  24
ATOM     24  C15 0N4 d   1      20.509   4.502  10.258  0.00  0.00     0.168 A 
ATOM     25  N16 0N4 d   1      20.680   4.351   8.892  0.00  0.00    -0.268 N 
ATOM     26  N17 0N4 d   1      19.649   3.620   8.443  0.00  0.00    -0.005 NA
ATOM     27  H   0N4 d   1      21.446   4.725   8.332  0.00  0.00     0.185 HD
ATOM     28  N18 0N4 d   1      18.828   3.316   9.550  0.00  0.00     0.018 NA
ATOM     29  N19 0N4 d   1      19.391   3.869  10.645  0.00  0.00    -0.142 NA
ENDBRANCH   4  24
TORSDOF 7
