REMARK  7 active torsions:
REMARK  status: ('A' for Active; 'I' for Inactive)
REMARK    1  A    between atoms: B03_1  and  O04_2 
REMARK    2  A    between atoms: B03_1  and  O05_3 
REMARK    3  A    between atoms: B03_1  and  C06_4 
REMARK    4  A    between atoms: C06_4  and  N07_5 
REMARK    5  A    between atoms: N07_5  and  S08_6 
REMARK    6  A    between atoms: S08_6  and  C11_9 
REMARK    7  A    between atoms: C14_12  and  C15_13 
ROOT
ATOM      1  C11 0NA d   1      23.449   6.305  12.805  0.00  0.00     0.097 A 
ATOM      2  C12 0NA d   1      23.953   5.991  11.552  0.00  0.00    -0.057 A 
ATOM      3  C13 0NA d   1      23.153   5.229  10.706  0.00  0.00    -0.050 A 
ATOM      4  C14 0NA d   1      21.894   4.821  11.137  0.00  0.00     0.107 A 
ATOM      5  N20 0NA d   1      21.428   5.170  12.351  0.00  0.00    -0.256 NA
ATOM      6  C21 0NA d   1      22.188   5.891  13.174  0.00  0.00     0.025 A 
ATOM      7  H   0NA d   1      24.941   6.329  11.241  0.00  0.00     0.086 H 
ATOM      8  H   0NA d   1      23.510   4.954   9.713  0.00  0.00     0.087 H 
ATOM      9  H   0NA d   1      21.805   6.159  14.159  0.00  0.00     0.117 H 
ENDROOT
BRANCH   1  10
ATOM     10  S08 0NA d   1      24.336   7.272  13.956  0.00  0.00     0.259 S 
ATOM     11  O09 0NA d   1      23.419   8.239  14.517  0.00  0.00    -0.201 OA
ATOM     12  O10 0NA d   1      25.361   7.982  13.263  0.00  0.00    -0.201 OA
BRANCH  10  13
ATOM     13  N07 0NA d   1      24.912   6.357  15.164  0.00  0.00    -0.319 N 
ATOM     14  H   0NA d   1      24.398   6.298  16.043  0.00  0.00     0.171 HD
BRANCH  13  15
ATOM     15  C06 0NA d   1      26.153   5.621  15.005  0.00  0.00     0.037 C 
ATOM     16  H   0NA d   1      26.016   4.954  14.154  0.00  0.00     0.058 H 
ATOM     17  H   0NA d   1      26.945   6.361  14.889  0.00  0.00     0.058 H 
BRANCH  15  18
ATOM     18  B03 0NA d   1      26.554   4.716  16.230  0.00  0.00     0.510 B 
BRANCH  18  19
ATOM     19  O04 0NA d   1      26.760   5.530  17.432  0.00  0.00    -0.436 OA
ATOM     20  H   0NA d   1      25.942   5.980  17.657  0.00  0.00     0.184 HD
ENDBRANCH  18  19
BRANCH  18  21
ATOM     21  O05 0NA d   1      25.506   3.735  16.503  0.00  0.00    -0.436 OA
ATOM     22  H   0NA d   1      25.363   3.196  15.722  0.00  0.00     0.184 HD
ENDBRANCH  18  21
ENDBRANCH  15  18
ENDBRANCH  13  15
ENDBRANCH  10  13
ENDBRANCH   1  10
BRANCH   4  23
ATOM     23  C15 0NA d   1      21.050   4.094  10.319  0.00  0.00     0.216 A 
ATOM     24  N16 0NA d   1      21.133   3.926   8.984  0.00  0.00    -0.134 NA
ATOM     25  N17 0NA d   1      20.062   3.169   8.608  0.00  0.00     0.022 NA
ATOM     26  N18 0NA d   1      19.311   2.908   9.721  0.00  0.00    -0.200 N 
ATOM     27  N19 0NA d   1      19.920   3.524  10.761  0.00  0.00    -0.137 NA
ATOM     28  H   0NA d   1      18.455   2.355   9.760  0.00  0.00     0.208 HD
ENDBRANCH   4  23
TORSDOF 7
