REMARK  7 active torsions:
REMARK  status: ('A' for Active; 'I' for Inactive)
REMARK    1  A    between atoms: B03_1  and  O04_2 
REMARK    2  A    between atoms: B03_1  and  O05_3 
REMARK    3  A    between atoms: B03_1  and  C06_4 
REMARK    4  A    between atoms: C06_4  and  N07_5 
REMARK    5  A    between atoms: N07_5  and  S08_6 
REMARK    6  A    between atoms: S08_6  and  C11_9 
REMARK    7  A    between atoms: C14_12  and  C15_13 
ROOT
ATOM      1  C11 0NB d   1      22.757   6.618  12.953  0.00  0.00     0.081 A 
ATOM      2  C12 0NB d   1      23.305   5.853  11.937  0.00  0.00    -0.059 A 
ATOM      3  C13 0NB d   1      22.499   5.090  11.105  0.00  0.00    -0.066 A 
ATOM      4  C14 0NB d   1      21.112   5.097  11.276  0.00  0.00     0.036 A 
ATOM      5  C20 0NB d   1      20.577   5.882  12.310  0.00  0.00     0.049 A 
ATOM      6 CL2  0NB d   1      18.876   6.012  12.662  0.00  0.00    -0.083 Cl
ATOM      7  C22 0NB d   1      21.394   6.618  13.138  0.00  0.00    -0.038 A 
ATOM      8  H   0NB d   1      24.385   5.850  11.789  0.00  0.00     0.085 H 
ATOM      9  H   0NB d   1      22.948   4.485  10.317  0.00  0.00     0.085 H 
ATOM     10  H   0NB d   1      20.958   7.205  13.946  0.00  0.00     0.088 H 
ENDROOT
BRANCH   1  11
ATOM     11  S08 0NB d   1      23.779   7.584  14.023  0.00  0.00     0.258 S 
ATOM     12  O09 0NB d   1      22.923   8.609  14.596  0.00  0.00    -0.201 OA
ATOM     13  O10 0NB d   1      24.804   8.250  13.247  0.00  0.00    -0.201 OA
BRANCH  11  14
ATOM     14  N07 0NB d   1      24.385   6.651  15.209  0.00  0.00    -0.319 N 
ATOM     15  H   0NB d   1      23.906   6.629  16.109  0.00  0.00     0.171 HD
BRANCH  14  16
ATOM     16  C06 0NB d   1      25.596   5.839  15.032  0.00  0.00     0.037 C 
ATOM     17  H   0NB d   1      25.416   5.181  14.182  0.00  0.00     0.058 H 
ATOM     18  H   0NB d   1      26.427   6.532  14.902  0.00  0.00     0.058 H 
BRANCH  16  19
ATOM     19  B03 0NB d   1      25.954   4.917  16.259  0.00  0.00     0.510 B 
BRANCH  19  20
ATOM     20  O04 0NB d   1      26.139   5.748  17.444  0.00  0.00    -0.436 OA
ATOM     21  H   0NB d   1      26.829   6.394  17.276  0.00  0.00     0.184 HD
ENDBRANCH  19  20
BRANCH  19  22
ATOM     22  O05 0NB d   1      24.900   3.916  16.490  0.00  0.00    -0.436 OA
ATOM     23  H   0NB d   1      24.792   3.379  15.702  0.00  0.00     0.184 HD
ENDBRANCH  19  22
ENDBRANCH  16  19
ENDBRANCH  14  16
ENDBRANCH  11  14
ENDBRANCH   1  11
BRANCH   4  24
ATOM     24  C15 0NB d   1      20.291   4.335  10.425  0.00  0.00     0.199 A 
ATOM     25  N16 0NB d   1      20.417   4.160   9.077  0.00  0.00    -0.136 NA
ATOM     26  N17 0NB d   1      19.402   3.360   8.632  0.00  0.00     0.022 NA
ATOM     27  N18 0NB d   1      18.650   3.012   9.719  0.00  0.00    -0.200 N 
ATOM     28  N19 0NB d   1      19.197   3.636  10.799  0.00  0.00    -0.138 NA
ATOM     29  H   0NB d   1      17.834   2.401   9.721  0.00  0.00     0.208 HD
ENDBRANCH   4  24
TORSDOF 7
