REMARK  7 active torsions:
REMARK  status: ('A' for Active; 'I' for Inactive)
REMARK    1  A    between atoms: B03_1  and  O04_2 
REMARK    2  A    between atoms: B03_1  and  O05_3 
REMARK    3  A    between atoms: B03_1  and  C06_4 
REMARK    4  A    between atoms: C06_4  and  N07_5 
REMARK    5  A    between atoms: N07_5  and  S08_6 
REMARK    6  A    between atoms: S08_6  and  C11_9 
REMARK    7  A    between atoms: C14_12  and  C15_13 
ROOT
ATOM      1  C11 0ND d   1      22.983   6.684  12.939  0.00  0.00     0.101 A 
ATOM      2  C12 0ND d   1      23.401   6.474  11.629  0.00  0.00    -0.058 A 
ATOM      3  C13 0ND d   1      22.625   5.729  10.746  0.00  0.00    -0.068 A 
ATOM      4  C14 0ND d   1      21.408   5.184  11.188  0.00  0.00     0.016 A 
ATOM      5  C20 0ND d   1      21.013   5.388  12.498  0.00  0.00    -0.047 A 
ATOM      6  C21 0ND d   1      21.788   6.114  13.374  0.00  0.00     0.058 A 
ATOM      7 CL2  0ND d   1      21.224   6.313  15.005  0.00  0.00    -0.083 Cl
ATOM      8  H   0ND d   1      24.347   6.897  11.290  0.00  0.00     0.086 H 
ATOM      9  H   0ND d   1      22.959   5.570   9.721  0.00  0.00     0.085 H 
ATOM     10  H   0ND d   1      20.069   4.965  12.843  0.00  0.00     0.087 H 
ENDROOT
BRANCH   1  11
ATOM     11  S08 0ND d   1      23.993   7.677  13.996  0.00  0.00     0.259 S 
ATOM     12  O09 0ND d   1      25.012   8.274  13.196  0.00  0.00    -0.201 OA
ATOM     13  O10 0ND d   1      23.193   8.744  14.562  0.00  0.00    -0.201 OA
BRANCH  11  14
ATOM     14  N07 0ND d   1      24.630   6.781  15.184  0.00  0.00    -0.319 N 
ATOM     15  H   0ND d   1      24.231   6.833  16.121  0.00  0.00     0.171 HD
BRANCH  14  16
ATOM     16  C06 0ND d   1      25.754   5.909  14.939  0.00  0.00     0.037 C 
ATOM     17  H   0ND d   1      25.475   5.233  14.131  0.00  0.00     0.058 H 
ATOM     18  H   0ND d   1      26.612   6.538  14.701  0.00  0.00     0.058 H 
BRANCH  16  19
ATOM     19  B03 0ND d   1      26.144   5.025  16.185  0.00  0.00     0.510 B 
BRANCH  19  20
ATOM     20  O04 0ND d   1      25.109   4.009  16.427  0.00  0.00    -0.436 OA
ATOM     21  H   0ND d   1      24.996   3.474  15.638  0.00  0.00     0.184 HD
ENDBRANCH  19  20
BRANCH  19  22
ATOM     22  O05 0ND d   1      26.326   5.848  17.383  0.00  0.00    -0.436 OA
ATOM     23  H   0ND d   1      27.003   6.508  17.217  0.00  0.00     0.184 HD
ENDBRANCH  19  22
ENDBRANCH  16  19
ENDBRANCH  14  16
ENDBRANCH  11  14
ENDBRANCH   1  11
BRANCH   4  24
ATOM     24  C15 0ND d   1      20.570   4.429  10.366  0.00  0.00     0.198 A 
ATOM     25  N16 0ND d   1      19.463   3.771  10.777  0.00  0.00    -0.139 NA
ATOM     26  N17 0ND d   1      18.884   3.177   9.694  0.00  0.00    -0.200 N 
ATOM     27  N18 0ND d   1      19.632   3.508   8.601  0.00  0.00     0.022 NA
ATOM     28  H   0ND d   1      18.047   2.594   9.700  0.00  0.00     0.208 HD
ATOM     29  N19 0ND d   1      20.659   4.294   9.029  0.00  0.00    -0.136 NA
ENDBRANCH   4  24
TORSDOF 7
