REMARK  6 active torsions:
REMARK  status: ('A' for Active; 'I' for Inactive)
REMARK    1  A    between atoms: B03_1  and  O04_2 
REMARK    2  A    between atoms: B03_1  and  O05_3 
REMARK    3  A    between atoms: B03_1  and  C06_4 
REMARK    4  A    between atoms: C06_4  and  N07_5 
REMARK    5  A    between atoms: N07_5  and  S08_6 
REMARK    6  A    between atoms: S08_6  and  C11_9 
ROOT
ATOM      1  N07 0NG d   1      24.453   6.152  14.885  0.00  0.00    -0.322 N 
ATOM      2  H   0NG d   1      23.916   6.350  15.730  0.00  0.00     0.171 HD
ENDROOT
BRANCH   1   3
ATOM      3  C06 0NG d   1      25.865   5.795  14.993  0.00  0.00     0.037 C 
ATOM      4  H   0NG d   1      26.106   5.169  14.134  0.00  0.00     0.058 H 
ATOM      5  H   0NG d   1      26.431   6.726  15.038  0.00  0.00     0.058 H 
BRANCH   3   6
ATOM      6  B03 0NG d   1      26.221   4.972  16.282  0.00  0.00     0.510 B 
BRANCH   6   7
ATOM      7  O04 0NG d   1      25.164   3.983  16.572  0.00  0.00    -0.436 OA
ATOM      8  H   0NG d   1      25.045   3.411  15.810  0.00  0.00     0.184 HD
ENDBRANCH   6   7
BRANCH   6   9
ATOM      9  O05 0NG d   1      26.386   5.828  17.448  0.00  0.00    -0.436 OA
ATOM     10  H   0NG d   1      26.637   5.292  18.204  0.00  0.00     0.184 HD
ENDBRANCH   6   9
ENDBRANCH   3   6
ENDBRANCH   1   3
BRANCH   1  11
ATOM     11  S08 0NG d   1      23.734   6.236  13.446  0.00  0.00     0.238 S 
ATOM     12  O09 0NG d   1      22.446   6.844  13.552  0.00  0.00    -0.205 OA
ATOM     13  O10 0NG d   1      24.447   7.160  12.608  0.00  0.00    -0.205 OA
BRANCH  11  14
ATOM     14  C11 0NG d   1      23.639   4.649  12.663  0.00  0.00     0.112 C 
ATOM     15 CL1  0NG d   1      22.477   4.438  11.396  0.00  0.00    -0.113 Cl
ATOM     16  H   0NG d   1      23.340   3.955  13.449  0.00  0.00     0.083 H 
ATOM     17  H   0NG d   1      24.611   4.499  12.193  0.00  0.00     0.083 H 
ENDBRANCH  11  14
ENDBRANCH   1  11
TORSDOF 6
