REMARK  2 active torsions:
REMARK  status: ('A' for Active; 'I' for Inactive)
REMARK    1  A    between atoms: C1_1  and  O1_7 
REMARK    2  A    between atoms: C3_3  and  O3_8 
ROOT
ATOM      1  C1  RCO d   1      15.151   3.893  16.028  0.00  0.00     0.068 A 
ATOM      2  C2  RCO d   1      15.498   2.552  16.297  0.00  0.00    -0.019 A 
ATOM      3  C3  RCO d   1      15.307   2.083  17.605  0.00  0.00     0.068 A 
ATOM      4  C4  RCO d   1      14.827   2.931  18.649  0.00  0.00    -0.051 A 
ATOM      5  C5  RCO d   1      14.507   4.306  18.345  0.00  0.00    -0.078 A 
ATOM      6  C6  RCO d   1      14.684   4.702  17.033  0.00  0.00    -0.051 A 
ATOM      7  H1  RCO d   1      15.897   1.908  15.522  0.00  0.00     0.092 H 
ATOM      8  H2  RCO d   1      14.705   2.548  19.656  0.00  0.00     0.087 H 
ATOM      9  H3  RCO d   1      14.147   4.990  19.105  0.00  0.00     0.083 H 
ATOM     10  H4  RCO d   1      14.436   5.726  16.779  0.00  0.00     0.087 H 
ENDROOT
BRANCH   1  11
ATOM     11  O1  RCO d   1      15.366   4.410  14.757  0.00  0.00    -0.361 OA
ATOM     12  H5  RCO d   1      15.687   3.722  14.186  0.00  0.00     0.217 HD
ENDBRANCH   1  11
BRANCH   3  13
ATOM     13  O3  RCO d   1      15.654   0.791  17.915  0.00  0.00    -0.361 OA
ATOM     14  H6  RCO d   1      15.953   0.348  17.130  0.00  0.00     0.217 HD
ENDBRANCH   3  13
TORSDOF 2
