REMARK  2 active torsions:
REMARK  status: ('A' for Active; 'I' for Inactive)
REMARK    1  A    between atoms: CE1_8  and  SD_1 
REMARK    2  A    between atoms: CZ_3  and  CG_2 
ROOT
ATOM      1  CZ  JKE d   1      17.448   3.477  14.592  0.00  0.00     0.057 A 
ATOM      2  CD1 JKE d   1      17.433   5.491  13.322  0.00  0.00    -0.066 A 
ATOM      3  CD2 JKE d   1      19.493   4.605  13.961  0.00  0.00    -0.082 A 
ATOM      4  CE1 JKE d   1      16.752   4.478  13.984  0.00  0.00     0.014 A 
ATOM      5  CE2 JKE d   1      18.847   3.541  14.611  0.00  0.00    -0.065 A 
ATOM      6  CG1 JKE d   1      18.781   5.591  13.315  0.00  0.00    -0.082 A 
ATOM      7  H2  JKE d   1      16.857   6.236  12.786  0.00  0.00     0.085 H 
ATOM      8  H3  JKE d   1      20.576   4.651  13.968  0.00  0.00     0.083 H 
ATOM      9  H4  JKE d   1      19.424   2.778  15.121  0.00  0.00     0.085 H 
ATOM     10  H5  JKE d   1      19.282   6.415  12.820  0.00  0.00     0.083 H 
ENDROOT
BRANCH   1  11
ATOM     11  CG  JKE d   1      16.726   2.370  15.274  0.00  0.00     0.210 C 
ATOM     12  OD1 JKE d   1      15.471   2.155  15.157  0.00  0.00    -0.644 OA
ATOM     13  OD2 JKE d   1      17.400   1.778  16.098  0.00  0.00    -0.644 OA
ENDBRANCH   1  11
BRANCH   4  14
ATOM     14  SD  JKE d   1      15.027   4.404  14.004  0.00  0.00    -0.142 SA
ATOM     15  H1  JKE d   1      14.652   5.205  13.520  0.00  0.00     0.107 HD
ENDBRANCH   4  14
TORSDOF 2
