REMARK  12 active torsions:
REMARK  status: ('A' for Active; 'I' for Inactive)
REMARK    1  A    between atoms: C2_2  and  N22_22 
REMARK    2  A    between atoms: N7_7  and  C11_11 
REMARK    3  A    between atoms: C9_9  and  C13_13 
REMARK    4  A    between atoms: C15_15  and  N21_21 
REMARK    5  A    between atoms: N21_21  and  S23_23 
REMARK    6  A    between atoms: N22_22  and  C29_29 
REMARK    7  A    between atoms: S23_23  and  C24_24 
REMARK    8  A    between atoms: C24_24  and  C27_27 
REMARK    9  A    between atoms: C27_27  and  C28_28 
REMARK   10  A    between atoms: C29_29  and  C30_30 
REMARK   11  A    between atoms: C30_30  and  C31_31 
REMARK   12  A    between atoms: C31_31  and  O32_32 
ROOT
ATOM      1  N1  T1Q d   1      19.261 -25.177  -1.608  0.00  0.00    -0.074 NA
ATOM      2  C2  T1Q d   1      18.665 -23.974  -1.647  0.00  0.00     0.724 A 
ATOM      3  N3  T1Q d   1      17.362 -23.735  -1.897  0.00  0.00    -0.044 NA
ATOM      4  C4  T1Q d   1      16.570 -24.803  -2.124  0.00  0.00     0.163 A 
ATOM      5  C5  T1Q d   1      17.117 -26.088  -2.101  0.00  0.00     0.030 A 
ATOM      6  C6  T1Q d   1      18.489 -26.252  -1.832  0.00  0.00     0.035 A 
ATOM      7  N7  T1Q d   1      15.167 -24.677  -2.403  0.00  0.00    -0.301 N 
ATOM      8  C8  T1Q d   1      14.329 -25.742  -2.645  0.00  0.00     0.260 A 
ATOM      9  C9  T1Q d   1      14.885 -27.045  -2.619  0.00  0.00     0.050 A 
ATOM     10  C10 T1Q d   1      16.257 -27.233  -2.351  0.00  0.00    -0.052 A 
ATOM     11  O12 T1Q d   1      13.132 -25.566  -2.879  0.00  0.00    -0.267 OA
ATOM     12  H   T1Q d   1      18.924 -27.251  -1.806  0.00  0.00     0.117 H 
ATOM     13  H   T1Q d   1      16.674 -28.240  -2.331  0.00  0.00     0.086 H 
ENDROOT
BRANCH   9  14
ATOM     14  C13 T1Q d   1      14.037 -28.212  -2.872  0.00  0.00     0.059 A 
ATOM     15  C14 T1Q d   1      13.636 -28.517  -4.181  0.00  0.00     0.157 A 
ATOM     16  C15 T1Q d   1      12.830 -29.641  -4.434  0.00  0.00     0.082 A 
ATOM     17  F20 T1Q d   1      14.029 -27.728  -5.206  0.00  0.00    -0.203 F 
ATOM     18  C16 T1Q d   1      12.421 -30.463  -3.367  0.00  0.00    -0.051 A 
ATOM     19  C17 T1Q d   1      12.817 -30.158  -2.053  0.00  0.00    -0.042 A 
ATOM     20  H   T1Q d   1      11.797 -31.336  -3.559  0.00  0.00     0.087 H 
ATOM     21  C18 T1Q d   1      13.626 -29.033  -1.808  0.00  0.00     0.130 A 
ATOM     22  H   T1Q d   1      12.498 -30.792  -1.226  0.00  0.00     0.088 H 
ATOM     23  F19 T1Q d   1      14.010 -28.740  -0.544  0.00  0.00    -0.205 F 
BRANCH  16  24
ATOM     24  N21 T1Q d   1      12.453 -29.934  -5.698  0.00  0.00    -0.281 N 
ATOM     25  H   T1Q d   1      12.775 -29.299  -6.428  0.00  0.00     0.178 HD
BRANCH  24  26
ATOM     26  S23 T1Q d   1      11.547 -31.183  -6.177  0.00  0.00     0.231 S 
ATOM     27  O25 T1Q d   1      10.440 -31.463  -5.251  0.00  0.00    -0.206 OA
ATOM     28  O26 T1Q d   1      11.222 -31.127  -7.609  0.00  0.00    -0.206 OA
BRANCH  26  29
ATOM     29  C24 T1Q d   1      12.735 -32.577  -5.985  0.00  0.00     0.046 C 
ATOM     30  H   T1Q d   1      12.164 -33.484  -5.788  0.00  0.00     0.058 H 
ATOM     31  H   T1Q d   1      13.415 -32.333  -5.169  0.00  0.00     0.058 H 
BRANCH  29  32
ATOM     32  C27 T1Q d   1      13.569 -32.804  -7.249  0.00  0.00    -0.055 C 
ATOM     33  H   T1Q d   1      14.117 -31.884  -7.455  0.00  0.00     0.033 H 
ATOM     34  H   T1Q d   1      12.886 -33.082  -8.052  0.00  0.00     0.033 H 
BRANCH  32  35
ATOM     35  C28 T1Q d   1      14.593 -33.933  -7.096  0.00  0.00    -0.076 C 
ATOM     36  H   T1Q d   1      15.280 -33.692  -6.285  0.00  0.00     0.027 H 
ATOM     37  H   T1Q d   1      14.074 -34.864  -6.870  0.00  0.00     0.027 H 
ATOM     38  H   T1Q d   1      15.152 -34.044  -8.025  0.00  0.00     0.027 H 
ENDBRANCH  32  35
ENDBRANCH  29  32
ENDBRANCH  26  29
ENDBRANCH  24  26
ENDBRANCH  16  24
ENDBRANCH   9  14
BRANCH   7  39
ATOM     39  C11 T1Q d   1      14.609 -23.315  -2.425  0.00  0.00    -0.009 C 
ATOM     40  H   T1Q d   1      14.184 -23.114  -3.408  0.00  0.00     0.057 H 
ATOM     41  H   T1Q d   1      13.830 -23.231  -1.667  0.00  0.00     0.057 H 
ATOM     42  H   T1Q d   1      15.401 -22.596  -2.216  0.00  0.00     0.057 H 
ENDBRANCH   7  39
BRANCH   2  43
ATOM     43  N22 T1Q d   1      19.461 -22.887  -1.419  0.00  0.00    -0.222 N 
ATOM     44  H   T1Q d   1      20.447 -23.075  -1.235  0.00  0.00     0.177 HD
BRANCH  43  45
ATOM     45  C29 T1Q d   1      19.053 -21.489  -1.411  0.00  0.00     0.011 C 
ATOM     46  H   T1Q d   1      19.951 -20.871  -1.408  0.00  0.00     0.065 H 
ATOM     47  H   T1Q d   1      18.439 -21.317  -0.527  0.00  0.00     0.065 H 
BRANCH  45  48
ATOM     48  C30 T1Q d   1      18.221 -21.126  -2.655  0.00  0.00    -0.030 C 
ATOM     49  H   T1Q d   1      17.259 -21.632  -2.569  0.00  0.00     0.038 H 
ATOM     50  H   T1Q d   1      18.789 -21.432  -3.534  0.00  0.00     0.038 H 
BRANCH  48  51
ATOM     51  C31 T1Q d   1      17.945 -19.616  -2.779  0.00  0.00     0.018 C 
ATOM     52  H   T1Q d   1      18.795 -19.137  -3.265  0.00  0.00     0.074 H 
ATOM     53  H   T1Q d   1      17.796 -19.198  -1.784  0.00  0.00     0.074 H 
BRANCH  51  54
ATOM     54  O32 T1Q d   1      16.784 -19.394  -3.553  0.00  0.00    -0.401 OA
ATOM     55  H   T1Q d   1      16.623 -18.450  -3.623  0.00  0.00     0.209 HD
ENDBRANCH  51  54
ENDBRANCH  48  51
ENDBRANCH  45  48
ENDBRANCH  43  45
ENDBRANCH   2  43
TORSDOF 12
