REMARK  3 active torsions:
REMARK  status: ('A' for Active; 'I' for Inactive)
REMARK    1  A    between atoms: C10_7  and  C8_8 
REMARK    2  A    between atoms: C6_15  and  O17_17 
REMARK    3  A    between atoms: O17_17  and  C18_18 
ROOT
ATOM      1  C8  0NJ d   1      13.007  37.859   8.473  0.00  0.00     0.112 A 
ATOM      2  S7  0NJ d   1      13.299  38.355  10.092  0.00  0.00    -0.067 SA
ATOM      3  C2  0NJ d   1      13.533  40.044   9.719  0.00  0.00     0.038 A 
ATOM      4  N9  0NJ d   1      13.146  38.939   7.685  0.00  0.00    -0.239 NA
ATOM      5  C3  0NJ d   1      13.401  40.156   8.332  0.00  0.00     0.075 A 
ATOM      6  C4  0NJ d   1      13.537  41.406   7.668  0.00  0.00    -0.051 A 
ATOM      7  C5  0NJ d   1      13.818  42.562   8.397  0.00  0.00    -0.049 A 
ATOM      8  C6  0NJ d   1      13.964  42.472   9.794  0.00  0.00     0.069 A 
ATOM      9  C1  0NJ d   1      13.826  41.219  10.441  0.00  0.00    -0.032 A 
ATOM     10  H5  0NJ d   1      13.422  41.461   6.591  0.00  0.00     0.087 H 
ATOM     11  H6  0NJ d   1      13.922  43.517   7.894  0.00  0.00     0.087 H 
ATOM     12  H7  0NJ d   1      13.949  41.163  11.517  0.00  0.00     0.090 H 
ENDROOT
BRANCH   1  13
ATOM     13  C10 0NJ d   1      12.767  36.499   7.915  0.00  0.00     0.038 A 
ATOM     14  C11 0NJ d   1      12.937  35.373   8.713  0.00  0.00     0.129 A 
ATOM     15  F16 0NJ d   1      13.255  35.532   9.997  0.00  0.00    -0.205 F 
ATOM     16  C12 0NJ d   1      12.761  34.100   8.173  0.00  0.00    -0.045 A 
ATOM     17  C13 0NJ d   1      12.451  33.952   6.829  0.00  0.00    -0.080 A 
ATOM     18  H1  0NJ d   1      12.867  33.225   8.804  0.00  0.00     0.088 H 
ATOM     19  C14 0NJ d   1      12.296  35.084   6.044  0.00  0.00    -0.082 A 
ATOM     20  H2  0NJ d   1      12.332  32.964   6.398  0.00  0.00     0.083 H 
ATOM     21  C15 0NJ d   1      12.455  36.352   6.580  0.00  0.00    -0.067 A 
ATOM     22  H3  0NJ d   1      12.047  34.976   4.995  0.00  0.00     0.083 H 
ATOM     23  H4  0NJ d   1      12.334  37.227   5.951  0.00  0.00     0.085 H 
ENDBRANCH   1  13
BRANCH   8  24
ATOM     24  O17 0NJ d   1      14.231  43.620  10.514  0.00  0.00    -0.356 OA
BRANCH  24  25
ATOM     25  C18 0NJ d   1      14.816  43.554  11.760  0.00  0.00     0.010 C 
ATOM     26  H8  0NJ d   1      14.942  44.571  12.160  0.00  0.00     0.066 H 
ATOM     27  H9  0NJ d   1      15.799  43.068  11.678  0.00  0.00     0.066 H 
ATOM     28  H10 0NJ d   1      14.174  42.971  12.436  0.00  0.00     0.066 H 
ENDBRANCH  24  25
ENDBRANCH   8  24
TORSDOF 3
