REMARK  0 active torsions:
REMARK  status: ('A' for Active; 'I' for Inactive)
ROOT
ATOM      1  O1  0N7 d   1     -14.324 -19.174 -24.522  0.00  0.00    -0.265 OA
ATOM      2  C1  0N7 d   1     -13.370 -18.358 -24.519  0.00  0.00     0.287 A 
ATOM      3  N1  0N7 d   1     -12.739 -18.039 -23.304  0.00  0.00    -0.115 N 
ATOM      4  O2  0N7 d   1     -13.141 -18.576 -22.264  0.00  0.00    -0.074 OA
ATOM      5  C2  0N7 d   1     -11.655 -17.124 -23.264  0.00  0.00     0.257 A 
ATOM      6  O3  0N7 d   1     -11.116 -16.865 -22.169  0.00  0.00    -0.270 OA
ATOM      7  C3  0N7 d   1     -11.108 -16.434 -24.495  0.00  0.00     0.037 A 
ATOM      8  C4  0N7 d   1     -11.797 -16.794 -25.732  0.00  0.00    -0.034 A 
ATOM      9  C5  0N7 d   1     -12.871 -17.704 -25.773  0.00  0.00     0.041 A 
ATOM     10  C6  0N7 d   1     -13.477 -17.994 -26.999  0.00  0.00    -0.067 A 
ATOM     11  C7  0N7 d   1     -13.026 -17.387 -28.179  0.00  0.00    -0.082 A 
ATOM     12  C8  0N7 d   1     -11.956 -16.484 -28.136  0.00  0.00    -0.082 A 
ATOM     13  C9  0N7 d   1     -11.346 -16.192 -26.912  0.00  0.00    -0.075 A 
ATOM     14  H1  0N7 d   1     -10.046 -16.703 -24.599  0.00  0.00     0.054 H 
ATOM     15  H2  0N7 d   1     -11.199 -15.347 -24.352  0.00  0.00     0.054 H 
ATOM     16  H3  0N7 d   1     -14.303 -18.695 -27.037  0.00  0.00     0.085 H 
ATOM     17  H4  0N7 d   1     -13.505 -17.616 -29.124  0.00  0.00     0.083 H 
ATOM     18  H5  0N7 d   1     -11.603 -16.014 -29.047  0.00  0.00     0.083 H 
ATOM     19  H6  0N7 d   1     -10.517 -15.494 -26.877  0.00  0.00     0.084 H 
ENDROOT
TORSDOF 0
