REMARK  4 active torsions:
REMARK  status: ('A' for Active; 'I' for Inactive)
REMARK    1  A    between atoms: O8_1  and  C9_2 
REMARK    2  A    between atoms: C9_2  and  C10_3 
REMARK    3  A    between atoms: C8_6  and  C7_7 
REMARK    4  A    between atoms: C7_7  and  C1_8 
ROOT
ATOM      1  C1  XI7 d   1      -9.912 -15.696 -24.116  0.00  0.00     0.014 A 
ATOM      2  C6  XI7 d   1      -8.981 -15.047 -23.295  0.00  0.00    -0.069 A 
ATOM      3  C5  XI7 d   1      -8.010 -14.224 -23.869  0.00  0.00    -0.082 A 
ATOM      4  C4  XI7 d   1      -7.976 -14.049 -25.256  0.00  0.00    -0.083 A 
ATOM      5  C3  XI7 d   1      -8.907 -14.696 -26.079  0.00  0.00    -0.082 A 
ATOM      6  C2  XI7 d   1      -9.872 -15.518 -25.508  0.00  0.00    -0.069 A 
ATOM      7  H   XI7 d   1      -9.014 -15.184 -22.214  0.00  0.00     0.085 H 
ATOM      8  H   XI7 d   1      -7.280 -13.719 -23.237  0.00  0.00     0.083 H 
ATOM      9  H   XI7 d   1      -7.218 -13.404 -25.701  0.00  0.00     0.083 H 
ATOM     10  H   XI7 d   1      -8.875 -14.556 -27.160  0.00  0.00     0.083 H 
ATOM     11  H   XI7 d   1     -10.599 -16.025 -26.142  0.00  0.00     0.085 H 
ENDROOT
BRANCH   1  12
ATOM     12  C7  XI7 d   1     -10.960 -16.586 -23.509  0.00  0.00     0.185 C 
ATOM     13  O14 XI7 d   1     -11.006 -16.760 -22.305  0.00  0.00    -0.287 OA
BRANCH  12  14
ATOM     14  C8  XI7 d   1     -11.924 -17.248 -24.398  0.00  0.00     0.005 C 
ATOM     15  C9  XI7 d   1     -12.891 -18.056 -23.955  0.00  0.00     0.146 C 
ATOM     16  H   XI7 d   1     -11.847 -17.071 -25.471  0.00  0.00     0.094 H 
BRANCH  15  17
ATOM     17  O8  XI7 d   1     -13.055 -18.325 -22.665  0.00  0.00    -0.355 OA
ATOM     18  H   XI7 d   1     -12.389 -17.858 -22.155  0.00  0.00     0.218 HD
ENDBRANCH  15  17
BRANCH  15  19
ATOM     19  C10 XI7 d   1     -13.790 -18.656 -24.924  0.00  0.00     0.233 C 
ATOM     20  O11 XI7 d   1     -14.686 -19.409 -24.495  0.00  0.00    -0.642 OA
ATOM     21  O10 XI7 d   1     -13.639 -18.401 -26.140  0.00  0.00    -0.642 OA
ENDBRANCH  15  19
ENDBRANCH  12  14
ENDBRANCH   1  12
TORSDOF 4
