REMARK  8 active torsions:
REMARK  status: ('A' for Active; 'I' for Inactive)
REMARK    1  A    between atoms: C16_7  and  C15_8 
REMARK    2  A    between atoms: C15_8  and  C11_9 
REMARK    3  A    between atoms: C11_9  and  C14_12 
REMARK    4  A    between atoms: C14_12  and  C22_14 
REMARK    5  A    between atoms: C22_14  and  C23_15 
REMARK    6  A    between atoms: C23_15  and  C24_17 
REMARK    7  A    between atoms: N8_22  and  C7_23 
REMARK    8  A    between atoms: C7_23  and  C2_24 
ROOT
ATOM      1  C11 0N8 d   1     -51.586 -15.376  24.471  0.00  0.00     0.027 C 
ATOM      2  C10 0N8 d   1     -51.914 -15.640  25.931  0.00  0.00    -0.037 C 
ATOM      3  C9  0N8 d   1     -53.325 -15.162  26.227  0.00  0.00    -0.008 C 
ATOM      4  C12 0N8 d   1     -52.413 -16.272  23.562  0.00  0.00    -0.037 C 
ATOM      5  C13 0N8 d   1     -53.762 -16.572  24.187  0.00  0.00    -0.008 C 
ATOM      6  N8  0N8 d   1     -54.060 -15.405  24.996  0.00  0.00    -0.408 N 
ATOM      7  H   0N8 d   1     -51.208 -15.104  26.565  0.00  0.00     0.037 H 
ATOM      8  H   0N8 d   1     -51.843 -16.709  26.132  0.00  0.00     0.037 H 
ATOM      9  H   0N8 d   1     -53.347 -14.111  26.515  0.00  0.00     0.063 H 
ATOM     10  H   0N8 d   1     -53.764 -15.688  27.075  0.00  0.00     0.063 H 
ATOM     11  H   0N8 d   1     -51.879 -17.210  23.411  0.00  0.00     0.037 H 
ATOM     12  H   0N8 d   1     -52.571 -15.761  22.612  0.00  0.00     0.037 H 
ATOM     13  H   0N8 d   1     -53.741 -17.485  24.782  0.00  0.00     0.063 H 
ATOM     14  H   0N8 d   1     -54.529 -16.751  23.433  0.00  0.00     0.063 H 
ENDROOT
BRANCH   1  15
ATOM     15  C15 0N8 d   1     -51.859 -13.921  24.111  0.00  0.00    -0.027 C 
ATOM     16  H   0N8 d   1     -51.437 -13.738  23.123  0.00  0.00     0.041 H 
ATOM     17  H   0N8 d   1     -52.937 -13.766  24.148  0.00  0.00     0.041 H 
BRANCH  15  18
ATOM     18  C16 0N8 d   1     -51.219 -12.945  25.073  0.00  0.00    -0.057 A 
ATOM     19  C17 0N8 d   1     -49.841 -12.763  25.089  0.00  0.00    -0.075 A 
ATOM     20  C18 0N8 d   1     -49.265 -11.853  25.970  0.00  0.00    -0.061 A 
ATOM     21  H   0N8 d   1     -49.210 -13.335  24.409  0.00  0.00     0.084 H 
ATOM     22  C19 0N8 d   1     -50.066 -11.118  26.835  0.00  0.00     0.034 A 
ATOM     23  H   0N8 d   1     -48.184 -11.717  25.982  0.00  0.00     0.086 H 
ATOM     24 CL2  0N8 d   1     -49.335  -9.939  27.978  0.00  0.00    -0.084 Cl
ATOM     25  C20 0N8 d   1     -51.443 -11.297  26.814  0.00  0.00    -0.061 A 
ATOM     26  C21 0N8 d   1     -52.018 -12.206  25.933  0.00  0.00    -0.075 A 
ATOM     27  H   0N8 d   1     -52.075 -10.723  27.491  0.00  0.00     0.086 H 
ATOM     28  H   0N8 d   1     -53.100 -12.338  25.918  0.00  0.00     0.084 H 
ENDBRANCH  15  18
ENDBRANCH   1  15
BRANCH   1  29
ATOM     29  C14 0N8 d   1     -50.149 -15.717  24.204  0.00  0.00     0.139 C 
ATOM     30  O27 0N8 d   1     -49.796 -15.775  23.037  0.00  0.00    -0.297 OA
BRANCH  29  31
ATOM     31  C22 0N8 d   1     -49.202 -15.996  25.358  0.00  0.00     0.036 C 
ATOM     32  H   0N8 d   1     -49.773 -16.420  26.184  0.00  0.00     0.050 H 
ATOM     33  H   0N8 d   1     -48.724 -15.061  25.652  0.00  0.00     0.050 H 
BRANCH  31  34
ATOM     34  C23 0N8 d   1     -48.251 -16.871  24.999  0.00  0.00     0.234 C 
ATOM     35  O28 0N8 d   1     -48.034 -17.094  23.717  0.00  0.00    -0.212 OA
BRANCH  34  36
ATOM     36  C24 0N8 d   1     -47.435 -17.582  25.983  0.00  0.00     0.217 C 
ATOM     37  O26 0N8 d   1     -47.626 -17.376  27.197  0.00  0.00    -0.646 OA
ATOM     38  O25 0N8 d   1     -46.558 -18.381  25.582  0.00  0.00    -0.646 OA
ENDBRANCH  34  36
ENDBRANCH  31  34
ENDBRANCH  29  31
ENDBRANCH   1  29
BRANCH   6  39
ATOM     39  C7  0N8 d   1     -55.109 -14.496  24.579  0.00  0.00     0.014 C 
ATOM     40  H   0N8 d   1     -54.739 -13.788  23.837  0.00  0.00     0.070 H 
ATOM     41  H   0N8 d   1     -55.469 -13.904  25.421  0.00  0.00     0.070 H 
BRANCH  39  42
ATOM     42  C2  0N8 d   1     -56.212 -15.347  24.008  0.00  0.00    -0.041 A 
ATOM     43  C3  0N8 d   1     -57.497 -15.271  24.530  0.00  0.00    -0.075 A 
ATOM     44  C4  0N8 d   1     -58.509 -16.061  23.999  0.00  0.00    -0.082 A 
ATOM     45  H   0N8 d   1     -57.711 -14.592  25.355  0.00  0.00     0.084 H 
ATOM     46  C5  0N8 d   1     -58.224 -16.925  22.952  0.00  0.00    -0.083 A 
ATOM     47  H   0N8 d   1     -59.520 -16.002  24.402  0.00  0.00     0.083 H 
ATOM     48  C6  0N8 d   1     -56.935 -16.998  22.436  0.00  0.00    -0.082 A 
ATOM     49  H   0N8 d   1     -59.013 -17.549  22.532  0.00  0.00     0.083 H 
ATOM     50  C1  0N8 d   1     -55.924 -16.211  22.965  0.00  0.00    -0.075 A 
ATOM     51  H   0N8 d   1     -56.718 -17.677  21.612  0.00  0.00     0.083 H 
ATOM     52  H   0N8 d   1     -54.912 -16.272  22.564  0.00  0.00     0.084 H 
ENDBRANCH  39  42
ENDBRANCH   6  39
TORSDOF 8
