REMARK  4 active torsions:
REMARK  status: ('A' for Active; 'I' for Inactive)
REMARK    1  A    between atoms: C14_2  and  C3_4 
REMARK    2  A    between atoms: C2_5  and  O13_6 
REMARK    3  A    between atoms: C5_8  and  C7_12 
REMARK    4  A    between atoms: N9_15  and  C17_16 
ROOT
ATOM      1  C3  0N9 d   1     -12.234 -16.434 -25.063  0.00  0.00     0.150 A 
ATOM      2  C2  0N9 d   1     -13.361 -17.271 -24.587  0.00  0.00     0.170 A 
ATOM      3  N4  0N9 d   1     -12.082 -16.263 -26.397  0.00  0.00    -0.331 N 
ATOM      4  C5  0N9 d   1     -12.935 -16.826 -27.293  0.00  0.00     0.162 A 
ATOM      5  N6  0N9 d   1     -13.972 -17.596 -26.913  0.00  0.00    -0.188 NA
ATOM      6  C1  0N9 d   1     -14.243 -17.852 -25.624  0.00  0.00     0.304 A 
ATOM      7  O12 0N9 d   1     -15.221 -18.563 -25.300  0.00  0.00    -0.263 OA
ATOM      8  H   0N9 d   1     -11.306 -15.696 -26.739  0.00  0.00     0.168 HD
ENDROOT
BRANCH   4   9
ATOM      9  C7  0N9 d   1     -12.701 -16.610 -28.749  0.00  0.00     0.119 A 
ATOM     10  N11 0N9 d   1     -13.297 -15.715 -29.561  0.00  0.00    -0.239 NA
ATOM     11  C10 0N9 d   1     -12.778 -15.883 -30.799  0.00  0.00     0.066 A 
ATOM     12  N9  0N9 d   1     -11.870 -16.870 -30.768  0.00  0.00    -0.353 N 
ATOM     13  H   0N9 d   1     -13.054 -15.307 -31.682  0.00  0.00     0.143 H 
ATOM     14  C8  0N9 d   1     -11.804 -17.335 -29.518  0.00  0.00     0.011 A 
ATOM     15  H   0N9 d   1     -11.160 -18.141 -29.165  0.00  0.00     0.115 H 
BRANCH  12  16
ATOM     16  C17 0N9 d   1     -11.070 -17.370 -31.916  0.00  0.00    -0.014 C 
ATOM     17  H   0N9 d   1     -11.741 -17.742 -32.690  0.00  0.00     0.057 H 
ATOM     18  H   0N9 d   1     -10.465 -16.557 -32.318  0.00  0.00     0.057 H 
ATOM     19  H   0N9 d   1     -10.419 -18.177 -31.579  0.00  0.00     0.057 H 
ENDBRANCH  12  16
ENDBRANCH   4   9
BRANCH   1  20
ATOM     20  C14 0N9 d   1     -11.289 -15.793 -24.089  0.00  0.00     0.230 C 
ATOM     21  O16 0N9 d   1     -11.272 -16.204 -22.906  0.00  0.00    -0.643 OA
ATOM     22  O15 0N9 d   1     -10.554 -14.857 -24.486  0.00  0.00    -0.643 OA
ENDBRANCH   1  20
BRANCH   2  23
ATOM     23  O13 0N9 d   1     -13.575 -17.493 -23.262  0.00  0.00    -0.354 OA
ATOM     24  H   0N9 d   1     -12.806 -17.926 -22.883  0.00  0.00     0.218 HD
ENDBRANCH   2  23
TORSDOF 4
