REMARK  5 active torsions:
REMARK  status: ('A' for Active; 'I' for Inactive)
REMARK    1  A    between atoms: C12_2  and  C13_3 
REMARK       I    between atoms: C12_2  and  N3_4 
REMARK    2  A    between atoms: N3_4  and  C3_5 
REMARK    3  A    between atoms: C5_9  and  C7_11 
REMARK    4  A    between atoms: C9_15  and  O2_16 
REMARK    5  A    between atoms: C8_17  and  C11_19 
ROOT
ATOM      1  C3  581 d   1     -12.985 -18.106 -30.113  0.00  0.00     0.035 A 
ATOM      2  C2  581 d   1     -11.794 -17.467 -30.491  0.00  0.00    -0.057 A 
ATOM      3  C1  581 d   1     -10.888 -17.020 -29.528  0.00  0.00    -0.080 A 
ATOM      4  C4  581 d   1     -13.270 -18.298 -28.760  0.00  0.00    -0.044 A 
ATOM      5  C5  581 d   1     -12.389 -17.826 -27.781  0.00  0.00     0.012 A 
ATOM      6  C6  581 d   1     -11.186 -17.214 -28.173  0.00  0.00    -0.069 A 
ATOM      7  H   581 d   1     -11.574 -17.318 -31.548  0.00  0.00     0.086 H 
ATOM      8  H   581 d   1      -9.962 -16.527 -29.826  0.00  0.00     0.083 H 
ATOM      9  H   581 d   1     -14.182 -18.817 -28.465  0.00  0.00     0.088 H 
ATOM     10  H   581 d   1     -10.476 -16.886 -27.413  0.00  0.00     0.085 H 
ENDROOT
BRANCH   5  11
ATOM     11  C7  581 d   1     -12.651 -18.074 -26.332  0.00  0.00     0.142 A 
ATOM     12  N2  581 d   1     -13.611 -18.950 -25.999  0.00  0.00    -0.189 NA
ATOM     13  C10 581 d   1     -13.873 -19.281 -24.739  0.00  0.00     0.304 A 
ATOM     14  O1  581 d   1     -14.786 -20.081 -24.467  0.00  0.00    -0.263 OA
ATOM     15  C9  581 d   1     -13.074 -18.671 -23.657  0.00  0.00     0.170 A 
ATOM     16  C8  581 d   1     -12.011 -17.728 -24.064  0.00  0.00     0.150 A 
ATOM     17  N1  581 d   1     -11.867 -17.486 -25.390  0.00  0.00    -0.332 N 
ATOM     18  H   581 d   1     -11.141 -16.837 -25.693  0.00  0.00     0.168 HD
BRANCH  15  19
ATOM     19  O2  581 d   1     -13.337 -19.002 -22.385  0.00  0.00    -0.354 OA
ATOM     20  H   581 d   1     -13.215 -19.947 -22.270  0.00  0.00     0.218 HD
ENDBRANCH  15  19
BRANCH  16  21
ATOM     21  C11 581 d   1     -11.112 -16.995 -23.116  0.00  0.00     0.230 C 
ATOM     22  O3  581 d   1     -11.089 -17.222 -21.879  0.00  0.00    -0.643 OA
ATOM     23  O4  581 d   1     -10.404 -16.111 -23.646  0.00  0.00    -0.643 OA
ENDBRANCH  16  21
ENDBRANCH   5  11
BRANCH   1  24
ATOM     24  N3  581 d   1     -13.866 -18.536 -31.052  0.00  0.00    -0.327 N 
ATOM     25  C12 581 d   1     -13.753 -19.693 -31.737  0.00  0.00     0.218 C 
ATOM     26  O5  581 d   1     -14.590 -19.996 -32.586  0.00  0.00    -0.274 OA
ATOM     27  H   581 d   1     -14.671 -17.942 -31.254  0.00  0.00     0.169 HD
BRANCH  25  28
ATOM     28  C13 581 d   1     -12.586 -20.611 -31.447  0.00  0.00    -0.003 C 
ATOM     29  H   581 d   1     -12.961 -21.577 -31.108  0.00  0.00     0.040 H 
ATOM     30  H   581 d   1     -11.997 -20.746 -32.354  0.00  0.00     0.040 H 
ATOM     31  H   581 d   1     -11.962 -20.169 -30.670  0.00  0.00     0.040 H 
ENDBRANCH  25  28
ENDBRANCH   1  24
TORSDOF 5
