REMARK  8 active torsions:
REMARK  status: ('A' for Active; 'I' for Inactive)
REMARK    1  A    between atoms: O14_15  and  C1_1 
REMARK    2  A    between atoms: N4_16  and  C7_6 
REMARK    3  A    between atoms: N4_16  and  C8_7 
REMARK    4  A    between atoms: C13_8  and  C15_9 
REMARK    5  A    between atoms: O12_14  and  C13_8 
REMARK    6  A    between atoms: C15_9  and  C16_10 
REMARK    7  A    between atoms: P9_12  and  O12_14 
REMARK    8  A    between atoms: P9_12  and  O14_15 
ROOT
ATOM      1  C1  0O8 d   1       3.974   6.732   2.672  0.00  0.00     0.054 C 
ATOM      2  C2  0O8 d   1       3.551   5.589   3.566  0.00  0.00    -0.017 C 
ATOM      3  C3  0O8 d   1       2.175   5.743   4.200  0.00  0.00     0.087 C 
ATOM      4  C5  0O8 d   1       1.521   6.438   1.876  0.00  0.00     0.087 C 
ATOM      5  C6  0O8 d   1       2.853   7.176   1.724  0.00  0.00    -0.017 C 
ATOM      6  N4  0O8 d   1       1.097   6.269   3.307  0.00  0.00    -0.074 N 
ATOM      7  H   0O8 d   1       4.241   7.613   3.255  0.00  0.00     0.084 H 
ATOM      8  H   0O8 d   1       4.271   5.546   4.383  0.00  0.00     0.039 H 
ATOM      9  H   0O8 d   1       3.511   4.698   2.940  0.00  0.00     0.039 H 
ATOM     10  H   0O8 d   1       2.288   6.470   5.004  0.00  0.00     0.076 H 
ATOM     11  H   0O8 d   1       1.863   4.743   4.500  0.00  0.00     0.076 H 
ATOM     12  H   0O8 d   1       1.645   5.443   1.449  0.00  0.00     0.076 H 
ATOM     13  H   0O8 d   1       0.756   7.030   1.373  0.00  0.00     0.076 H 
ATOM     14  H   0O8 d   1       3.205   6.970   0.713  0.00  0.00     0.039 H 
ATOM     15  H   0O8 d   1       2.653   8.223   1.953  0.00  0.00     0.039 H 
ENDROOT
BRANCH   1  16
ATOM     16  O14 0O8 d   1       5.036   6.193   1.917  0.00  0.00    -0.284 OA
BRANCH  16  17
ATOM     17  P9  0O8 d   1       4.798   5.154   0.656  0.00  0.00     0.408 P 
ATOM     18  O11 0O8 d   1       4.972   3.701   1.149  0.00  0.00    -0.624 OA
ATOM     19  O10 0O8 d   1       3.463   5.596   0.044  0.00  0.00    -0.624 OA
BRANCH  17  20
ATOM     20  O12 0O8 d   1       5.786   5.436  -0.628  0.00  0.00    -0.290 OA
BRANCH  20  21
ATOM     21  C13 0O8 d   1       5.984   4.326  -1.517  0.00  0.00     0.031 C 
ATOM     22  H   0O8 d   1       6.336   3.511  -0.885  0.00  0.00     0.075 H 
ATOM     23  H   0O8 d   1       5.034   4.202  -2.038  0.00  0.00     0.075 H 
BRANCH  21  24
ATOM     24  C15 0O8 d   1       7.037   4.462  -2.624  0.00  0.00    -0.048 C 
ATOM     25  H   0O8 d   1       7.965   4.889  -2.243  0.00  0.00     0.035 H 
ATOM     26  H   0O8 d   1       6.706   5.141  -3.410  0.00  0.00     0.035 H 
BRANCH  24  27
ATOM     27  C16 0O8 d   1       7.249   3.053  -3.157  0.00  0.00    -0.075 C 
ATOM     28  H   0O8 d   1       7.599   2.409  -2.350  0.00  0.00     0.027 H 
ATOM     29  H   0O8 d   1       6.307   2.668  -3.547  0.00  0.00     0.027 H 
ATOM     30  H   0O8 d   1       7.992   3.075  -3.954  0.00  0.00     0.027 H 
ENDBRANCH  24  27
ENDBRANCH  21  24
ENDBRANCH  20  21
ENDBRANCH  17  20
ENDBRANCH  16  17
ENDBRANCH   1  16
BRANCH   6  31
ATOM     31  C7  0O8 d   1       0.625   7.574   3.899  0.00  0.00     0.068 C 
ATOM     32  H   0O8 d   1      -0.210   7.957   3.312  0.00  0.00     0.068 H 
ATOM     33  H   0O8 d   1       0.303   7.410   4.927  0.00  0.00     0.068 H 
ATOM     34  H   0O8 d   1       1.442   8.295   3.884  0.00  0.00     0.068 H 
ENDBRANCH   6  31
BRANCH   6  35
ATOM     35  C8  0O8 d   1       0.011   5.255   3.308  0.00  0.00     0.068 C 
ATOM     36  H   0O8 d   1      -0.316   5.075   4.332  0.00  0.00     0.068 H 
ATOM     37  H   0O8 d   1      -0.828   5.622   2.717  0.00  0.00     0.068 H 
ATOM     38  H   0O8 d   1       0.383   4.326   2.875  0.00  0.00     0.068 H 
ENDBRANCH   6  35
TORSDOF 8
