REMARK  31 active torsions:
REMARK  status: ('A' for Active; 'I' for Inactive)
REMARK    1  A    between atoms: N_1  and  CA_2 
REMARK    2  A    between atoms: CA_2  and  C_3 
REMARK    3  A    between atoms: CA_2  and  CB_5 
REMARK       I    between atoms: C_3  and  N_12 
REMARK    4  A    between atoms: CB_5  and  CG_6 
REMARK    5  A    between atoms: CG_6  and  CD_7 
REMARK    6  A    between atoms: CD_7  and  NE_8 
REMARK       I    between atoms: NE_8  and  CZ_9 
REMARK       I    between atoms: CZ_9  and  NH1_10 
REMARK       I    between atoms: CZ_9  and  NH2_11 
REMARK    7  A    between atoms: CA_13  and  C_14 
REMARK       I    between atoms: C_14  and  N_19 
REMARK    8  A    between atoms: N_19  and  CA_20 
REMARK    9  A    between atoms: CA_20  and  C_21 
REMARK   10  A    between atoms: CA_20  and  CB_23 
REMARK       I    between atoms: C_21  and  N_26 
REMARK   11  A    between atoms: CB_23  and  CG1_24 
REMARK   12  A    between atoms: CB_23  and  CG2_25 
REMARK   13  A    between atoms: N_26  and  CA_27 
REMARK   14  A    between atoms: CA_27  and  C_28 
REMARK   15  A    between atoms: CA_27  and  CB_30 
REMARK       I    between atoms: C_28  and  N_38 
REMARK   16  A    between atoms: CB_30  and  CG_31 
REMARK   17  A    between atoms: CZ_36  and  OH_37 
REMARK   18  A    between atoms: N_38  and  CA_39 
REMARK   19  A    between atoms: CA_39  and  C_40 
REMARK   20  A    between atoms: CA_39  and  CB_42 
REMARK       I    between atoms: C_40  and  N_46 
REMARK   21  A    between atoms: CB_42  and  CG1_43 
REMARK   22  A    between atoms: CB_42  and  CG2_44 
REMARK   23  A    between atoms: CG1_43  and  CD1_45 
REMARK   24  A    between atoms: CA_47  and  C_48 
REMARK       I    between atoms: C_48  and  N_53 
REMARK   25  A    between atoms: N_53  and  CA_54 
REMARK   26  A    between atoms: CA_54  and  C_55 
REMARK   27  A    between atoms: CA_54  and  CB_57 
REMARK       I    between atoms: C_55  and  N_64 
REMARK   28  A    between atoms: CB_57  and  CG_58 
REMARK   29  A    between atoms: CG_58  and  CD_59 
REMARK   30  A    between atoms: CD_59  and  NE_60 
REMARK       I    between atoms: NE_60  and  CZ_61 
REMARK       I    between atoms: CZ_61  and  NH1_62 
REMARK   31  A    between atoms: CA_65  and  C_66 
REMARK       I    between atoms: C_66  and  N_71 
ROOT
ATOM      1  C   TYR d   1      25.971  13.555  10.783  0.00  0.00     0.241 C 
ATOM      2  O   TYR d   1      25.128  12.931  10.092  0.00  0.00    -0.271 OA
ATOM      3  N   ILE d   1      26.279  14.793  10.515  0.00  0.00    -0.346 N 
ATOM      4  H41 ILE d   1      26.986  15.268  11.040  0.00  0.00     0.163 HD
ENDROOT
BRANCH   1   5
ATOM      5  CA  TYR d   1      26.707  12.925  11.938  0.00  0.00     0.093 C 
ATOM      6  H33 TYR d   1      26.982  13.700  12.668  0.00  0.00     0.088 H 
BRANCH   5   7
ATOM      7  N   TYR d   1      25.910  11.909  12.589  0.00  0.00    -0.346 N 
ATOM      8  C   VAL d   1      25.819  11.848  13.896  0.00  0.00     0.241 C 
ATOM      9  O   VAL d   1      26.299  12.711  14.594  0.00  0.00    -0.271 OA
ATOM     10  H32 TYR d   1      25.419  11.240  12.032  0.00  0.00     0.163 HD
BRANCH   8  11
ATOM     11  CA  VAL d   1      25.100  10.640  14.493  0.00  0.00     0.092 C 
ATOM     12  H24 VAL d   1      25.412   9.759  13.913  0.00  0.00     0.088 H 
BRANCH  11  13
ATOM     13  N   VAL d   1      25.557  10.425  15.878  0.00  0.00    -0.346 N 
ATOM     14  C   PRO d   1      26.100   9.252  16.245  0.00  0.00     0.241 C 
ATOM     15  O   PRO d   1      26.330   8.336  15.460  0.00  0.00    -0.271 OA
ATOM     16  H23 VAL d   1      25.462  11.159  16.551  0.00  0.00     0.163 HD
BRANCH  14  17
ATOM     17  CA  PRO d   1      26.432   9.045  17.725  0.00  0.00     0.091 C 
ATOM     18  N   PRO d   1      26.386   7.604  18.075  0.00  0.00    -0.337 N 
ATOM     19  C   ARG d   1      25.209   6.925  17.968  0.00  0.00     0.251 C 
ATOM     20  CD  PRO d   1      27.731   7.095  18.426  0.00  0.00    -0.001 C 
ATOM     21  O   ARG d   1      24.202   7.465  17.530  0.00  0.00    -0.271 OA
ATOM     22  CG  PRO d   1      28.659   8.153  17.892  0.00  0.00    -0.048 C 
ATOM     23  H21 PRO d   1      27.922   6.125  17.944  0.00  0.00     0.064 H 
ATOM     24  H22 PRO d   1      27.840   6.991  19.516  0.00  0.00     0.064 H 
ATOM     25  CB  PRO d   1      27.891   9.432  18.001  0.00  0.00    -0.036 C 
ATOM     26  H19 PRO d   1      29.578   8.201  18.495  0.00  0.00     0.035 H 
ATOM     27  H20 PRO d   1      28.919   7.946  16.843  0.00  0.00     0.035 H 
ATOM     28  H17 PRO d   1      27.993   9.859  19.009  0.00  0.00     0.036 H 
ATOM     29  H18 PRO d   1      28.245  10.160  17.256  0.00  0.00     0.036 H 
ATOM     30  H16 PRO d   1      25.739   9.629  18.349  0.00  0.00     0.087 H 
BRANCH  19  31
ATOM     31  CA  ARG d   1      25.156   5.408  18.427  0.00  0.00     0.176 C 
ATOM     32  H4  ARG d   1      26.183   5.022  18.355  0.00  0.00     0.099 H 
BRANCH  31  33
ATOM     33  N   ARG d   1      24.692   5.168  19.821  0.00  0.00    -0.067 N 
ATOM     34  H1  ARG d   1      24.695   4.178  20.011  0.00  0.00     0.275 HD
ATOM     35  H2  ARG d   1      23.757   5.528  19.930  0.00  0.00     0.275 HD
ATOM     36  H3  ARG d   1      25.310   5.636  20.466  0.00  0.00     0.275 HD
ENDBRANCH  31  33
BRANCH  31  37
ATOM     37  CB  ARG d   1      24.274   4.589  17.496  0.00  0.00    -0.029 C 
ATOM     38  H5  ARG d   1      23.264   5.023  17.503  0.00  0.00     0.036 H 
ATOM     39  H6  ARG d   1      24.232   3.557  17.875  0.00  0.00     0.036 H 
BRANCH  37  40
ATOM     40  CG  ARG d   1      24.766   4.553  16.072  0.00  0.00    -0.047 C 
ATOM     41  H7  ARG d   1      25.864   4.495  16.065  0.00  0.00     0.035 H 
ATOM     42  H8  ARG d   1      24.444   5.466  15.550  0.00  0.00     0.035 H 
BRANCH  40  43
ATOM     43  CD  ARG d   1      24.192   3.339  15.368  0.00  0.00     0.009 C 
ATOM     44  H9  ARG d   1      23.422   3.655  14.649  0.00  0.00     0.064 H 
ATOM     45  H10 ARG d   1      23.746   2.656  16.106  0.00  0.00     0.064 H 
BRANCH  43  46
ATOM     46  NE  ARG d   1      25.279   2.664  14.664  0.00  0.00    -0.227 N 
ATOM     47  CZ  ARG d   1      25.248   1.412  14.202  0.00  0.00     0.665 C 
ATOM     48  NH1 ARG d   1      26.327   0.906  13.578  0.00  0.00    -0.235 N 
ATOM     49  NH2 ARG d   1      24.158   0.672  14.378  0.00  0.00    -0.235 N 
ATOM     50  H12 ARG d   1      26.309  -0.059  13.219  0.00  0.00     0.174 HD
ATOM     51  H13 ARG d   1      27.171   1.484  13.459  0.00  0.00     0.174 HD
ATOM     52  H14 ARG d   1      23.337   1.070  14.857  0.00  0.00     0.174 HD
ATOM     53  H15 ARG d   1      24.134  -0.299  14.035  0.00  0.00     0.174 HD
ATOM     54  H11 ARG d   1      26.145   3.201  14.511  0.00  0.00     0.177 HD
ENDBRANCH  43  46
ENDBRANCH  40  43
ENDBRANCH  37  40
ENDBRANCH  31  37
ENDBRANCH  19  31
ENDBRANCH  14  17
ENDBRANCH  11  13
BRANCH  11  55
ATOM     55  CB  VAL d   1      23.536  10.733  14.348  0.00  0.00    -0.033 C 
ATOM     56  H25 VAL d   1      23.241  11.780  14.514  0.00  0.00     0.042 H 
BRANCH  55  57
ATOM     57  CG1 VAL d   1      23.120  10.316  12.935  0.00  0.00    -0.071 C 
ATOM     58  H26 VAL d   1      22.026  10.383  12.840  0.00  0.00     0.028 H 
ATOM     59  H27 VAL d   1      23.441   9.281  12.749  0.00  0.00     0.028 H 
ATOM     60  H28 VAL d   1      23.593  10.985  12.201  0.00  0.00     0.028 H 
ENDBRANCH  55  57
BRANCH  55  61
ATOM     61  CG2 VAL d   1      22.782   9.857  15.351  0.00  0.00    -0.071 C 
ATOM     62  H29 VAL d   1      23.068  10.142  16.374  0.00  0.00     0.028 H 
ATOM     63  H30 VAL d   1      23.037   8.801  15.180  0.00  0.00     0.028 H 
ATOM     64  H31 VAL d   1      21.699   9.999  15.220  0.00  0.00     0.028 H 
ENDBRANCH  55  61
ENDBRANCH  11  55
ENDBRANCH   8  11
ENDBRANCH   5   7
BRANCH   5  65
ATOM     65  CB  TYR d   1      27.971  12.253  11.368  0.00  0.00    -0.014 C 
ATOM     66  H34 TYR d   1      28.730  13.032  11.206  0.00  0.00     0.043 H 
ATOM     67  H35 TYR d   1      27.709  11.790  10.405  0.00  0.00     0.043 H 
BRANCH  65  68
ATOM     68  CG  TYR d   1      28.569  11.192  12.252  0.00  0.00    -0.056 A 
ATOM     69  CD1 TYR d   1      29.477  11.542  13.272  0.00  0.00    -0.074 A 
ATOM     70  CE1 TYR d   1      30.029  10.556  14.107  0.00  0.00    -0.051 A 
ATOM     71  H36 TYR d   1      29.752  12.581  13.413  0.00  0.00     0.084 H 
ATOM     72  CZ  TYR d   1      29.668   9.204  13.926  0.00  0.00     0.065 A 
ATOM     73  H38 TYR d   1      30.729  10.833  14.887  0.00  0.00     0.087 H 
ATOM     74  CE2 TYR d   1      28.770   8.825  12.919  0.00  0.00    -0.051 A 
ATOM     75  CD2 TYR d   1      28.225   9.815  12.088  0.00  0.00    -0.074 A 
ATOM     76  H39 TYR d   1      28.501   7.784  12.784  0.00  0.00     0.087 H 
ATOM     77  H37 TYR d   1      27.530   9.530  11.307  0.00  0.00     0.084 H 
BRANCH  72  78
ATOM     78  OH  TYR d   1      30.207   8.261  14.765  0.00  0.00    -0.361 OA
ATOM     79  H40 TYR d   1      30.790   8.685  15.383  0.00  0.00     0.217 HD
ENDBRANCH  72  78
ENDBRANCH  65  68
ENDBRANCH   5  65
ENDBRANCH   1   5
BRANCH   3  80
ATOM     80  CA  ILE d   1      25.573  15.472   9.435  0.00  0.00     0.092 C 
ATOM     81  H42 ILE d   1      24.570  15.045   9.291  0.00  0.00     0.088 H 
BRANCH  80  82
ATOM     82  C   ILE d   1      26.435  15.337   8.181  0.00  0.00     0.243 C 
ATOM     83  O   ILE d   1      27.642  15.265   8.337  0.00  0.00    -0.271 OA
ATOM     84  N   PRO d   1      25.851  15.284   6.965  0.00  0.00    -0.337 N 
ATOM     85  CA  PRO d   1      26.844  15.010   5.918  0.00  0.00     0.091 C 
ATOM     86  CD  PRO d   1      24.476  15.384   6.413  0.00  0.00    -0.001 C 
ATOM     87  CB  PRO d   1      26.005  14.507   4.729  0.00  0.00    -0.036 C 
ATOM     88  H52 PRO d   1      27.549  14.233   6.249  0.00  0.00     0.087 H 
ATOM     89  CG  PRO d   1      24.563  14.648   5.109  0.00  0.00    -0.048 C 
ATOM     90  H53 PRO d   1      26.238  13.452   4.523  0.00  0.00     0.036 H 
ATOM     91  H54 PRO d   1      26.219  15.111   3.835  0.00  0.00     0.036 H 
ATOM     92  H55 PRO d   1      24.110  13.651   5.216  0.00  0.00     0.035 H 
ATOM     93  H56 PRO d   1      24.029  15.212   4.330  0.00  0.00     0.035 H 
ATOM     94  H57 PRO d   1      24.193  16.435   6.252  0.00  0.00     0.064 H 
ATOM     95  H58 PRO d   1      23.748  14.907   7.085  0.00  0.00     0.064 H 
BRANCH  85  96
ATOM     96  C   PRO d   1      27.619  16.259   5.551  0.00  0.00     0.241 C 
ATOM     97  O   PRO d   1      27.182  17.385   5.858  0.00  0.00    -0.271 OA
ATOM     98  N   ARG d   1      28.765  16.071   4.902  0.00  0.00    -0.346 N 
ATOM     99  H59 ARG d   1      29.145  15.152   4.799  0.00  0.00     0.163 HD
BRANCH  98 100
ATOM    100  CA  ARG d   1      29.459  17.228   4.343  0.00  0.00     0.089 C 
ATOM    101  H60 ARG d   1      29.640  17.946   5.156  0.00  0.00     0.087 H 
BRANCH 100 102
ATOM    102  C   ARG d   1      28.540  17.897   3.310  0.00  0.00     0.243 C 
ATOM    103  O   ARG d   1      27.874  17.227   2.507  0.00  0.00    -0.271 OA
ATOM    104  N   PRO d   1      28.480  19.230   3.345  0.00  0.00    -0.337 N 
ATOM    105  CA  PRO d   1      27.784  19.860   2.247  0.00  0.00     0.091 C 
ATOM    106  CD  PRO d   1      29.222  20.198   4.177  0.00  0.00    -0.001 C 
ATOM    107  CB  PRO d   1      27.828  21.340   2.637  0.00  0.00    -0.036 C 
ATOM    108  H72 PRO d   1      26.744  19.508   2.178  0.00  0.00     0.087 H 
ATOM    109  CG  PRO d   1      29.103  21.487   3.421  0.00  0.00    -0.048 C 
ATOM    110  H73 PRO d   1      26.958  21.605   3.256  0.00  0.00     0.036 H 
ATOM    111  H74 PRO d   1      27.847  21.977   1.741  0.00  0.00     0.036 H 
ATOM    112  H75 PRO d   1      29.039  22.340   4.112  0.00  0.00     0.035 H 
ATOM    113  H76 PRO d   1      29.962  21.624   2.747  0.00  0.00     0.035 H 
ATOM    114  H77 PRO d   1      30.276  19.900   4.279  0.00  0.00     0.064 H 
ATOM    115  H78 PRO d   1      28.768  20.286   5.175  0.00  0.00     0.064 H 
BRANCH 105 116
ATOM    116  C   PRO d   1      28.519  19.553   0.903  0.00  0.00     0.238 C 
ATOM    117  O   PRO d   1      29.742  19.796   0.768  0.00  0.00    -0.271 OA
ATOM    118  N   PRO d   1      27.789  18.966  -0.062  0.00  0.00    -0.368 N 
ATOM    119  H79 PRO d   1      28.209  18.747  -0.943  0.00  0.00     0.159 HD
ATOM    120  H80 PRO d   1      26.827  18.749   0.101  0.00  0.00     0.159 HD
ENDBRANCH 105 116
ENDBRANCH 100 102
BRANCH 100 121
ATOM    121  CB  ARG d   1      30.825  16.850   3.750  0.00  0.00    -0.036 C 
ATOM    122  H61 ARG d   1      30.663  16.013   3.055  0.00  0.00     0.036 H 
ATOM    123  H62 ARG d   1      31.465  16.519   4.581  0.00  0.00     0.036 H 
BRANCH 121 124
ATOM    124  CG  ARG d   1      31.588  17.940   2.987  0.00  0.00    -0.048 C 
ATOM    125  H63 ARG d   1      32.251  18.475   3.683  0.00  0.00     0.035 H 
ATOM    126  H64 ARG d   1      30.869  18.648   2.549  0.00  0.00     0.035 H 
BRANCH 124 127
ATOM    127  CD  ARG d   1      32.431  17.312   1.865  0.00  0.00     0.009 C 
ATOM    128  H65 ARG d   1      32.771  16.322   2.203  0.00  0.00     0.064 H 
ATOM    129  H66 ARG d   1      33.303  17.958   1.687  0.00  0.00     0.064 H 
BRANCH 127 130
ATOM    130  NE  ARG d   1      31.713  17.143   0.589  0.00  0.00    -0.227 N 
ATOM    131  CZ  ARG d   1      30.704  16.296   0.347  0.00  0.00     0.665 C 
ATOM    132  NH1 ARG d   1      30.153  16.269  -0.856  0.00  0.00    -0.235 N 
ATOM    133  NH2 ARG d   1      30.225  15.490   1.284  0.00  0.00    -0.235 N 
ATOM    134  H68 ARG d   1      29.377  15.621  -1.052  0.00  0.00     0.174 HD
ATOM    135  H69 ARG d   1      30.501  16.896  -1.596  0.00  0.00     0.174 HD
ATOM    136  H70 ARG d   1      30.638  15.494   2.227  0.00  0.00     0.174 HD
ATOM    137  H71 ARG d   1      29.439  14.860   1.069  0.00  0.00     0.174 HD
ATOM    138  H67 ARG d   1      32.018  17.736  -0.196  0.00  0.00     0.177 HD
ENDBRANCH 127 130
ENDBRANCH 124 127
ENDBRANCH 121 124
ENDBRANCH 100 121
ENDBRANCH  98 100
ENDBRANCH  85  96
ENDBRANCH  80  82
BRANCH  80 139
ATOM    139  CB  ILE d   1      25.503  16.952   9.715  0.00  0.00    -0.030 C 
ATOM    140  H43 ILE d   1      26.504  17.383   9.563  0.00  0.00     0.043 H 
BRANCH 139 141
ATOM    141  CG1 ILE d   1      25.110  17.177  11.139  0.00  0.00    -0.063 C 
ATOM    142  H44 ILE d   1      25.144  18.254  11.362  0.00  0.00     0.033 H 
ATOM    143  H45 ILE d   1      25.809  16.643  11.800  0.00  0.00     0.033 H 
BRANCH 141 144
ATOM    144  CD1 ILE d   1      23.720  16.665  11.367  0.00  0.00    -0.076 C 
ATOM    145  H49 ILE d   1      23.435  16.833  12.416  0.00  0.00     0.027 H 
ATOM    146  H50 ILE d   1      23.685  15.588  11.145  0.00  0.00     0.027 H 
ATOM    147  H51 ILE d   1      23.020  17.198  10.707  0.00  0.00     0.027 H 
ENDBRANCH 141 144
ENDBRANCH 139 141
BRANCH 139 148
ATOM    148  CG2 ILE d   1      24.533  17.642   8.734  0.00  0.00    -0.071 C 
ATOM    149  H46 ILE d   1      24.859  17.451   7.701  0.00  0.00     0.028 H 
ATOM    150  H47 ILE d   1      24.530  18.726   8.923  0.00  0.00     0.028 H 
ATOM    151  H48 ILE d   1      23.519  17.241   8.879  0.00  0.00     0.028 H 
ENDBRANCH 139 148
ENDBRANCH  80 139
ENDBRANCH   3  80
TORSDOF 31
