REMARK  11 active torsions:
REMARK  status: ('A' for Active; 'I' for Inactive)
REMARK    1  A    between atoms: C25_2  and  C24_4 
REMARK    2  A    between atoms: C24_4  and  O23_5 
REMARK    3  A    between atoms: O23_5  and  C22_6 
REMARK    4  A    between atoms: C18_14  and  C17_15 
REMARK    5  A    between atoms: C17_15  and  N16_16 
REMARK    6  A    between atoms: N16_16  and  C15_17 
REMARK    7  A    between atoms: C11_22  and  C10_23 
REMARK    8  A    between atoms: C3_24  and  O2_25 
REMARK    9  A    between atoms: O2_25  and  C1_26 
REMARK   10  A    between atoms: C7_27  and  O8_28 
REMARK   11  A    between atoms: O8_28  and  C9_29 
ROOT
ATOM      1  C15 IHA d   1      22.615 -39.019 -25.601  0.00  0.00     0.741 A 
ATOM      2  N14 IHA d   1      23.563 -38.152 -25.197  0.00  0.00     0.043 NA
ATOM      3  N13 IHA d   1      23.920 -38.094 -23.847  0.00  0.00    -0.144 NA
ATOM      4  C12 IHA d   1      23.324 -38.903 -22.959  0.00  0.00     0.053 A 
ATOM      5  N32 IHA d   1      22.021 -39.833 -24.711  0.00  0.00    -0.059 NA
ATOM      6  C11 IHA d   1      22.350 -39.791 -23.408  0.00  0.00     0.111 A 
ATOM      7  H   IHA d   1      23.597 -38.866 -21.904  0.00  0.00     0.121 H 
ENDROOT
BRANCH   1   8
ATOM      8  N16 IHA d   1      22.243 -39.105 -26.893  0.00  0.00    -0.215 N 
ATOM      9  H   IHA d   1      22.614 -39.845 -27.489  0.00  0.00     0.178 HD
BRANCH   8  10
ATOM     10  C17 IHA d   1      21.309 -38.132 -27.424  0.00  0.00     0.055 C 
ATOM     11  H   IHA d   1      21.773 -37.146 -27.420  0.00  0.00     0.075 H 
ATOM     12  H   IHA d   1      21.041 -38.408 -28.444  0.00  0.00     0.075 H 
BRANCH  10  13
ATOM     13  C18 IHA d   1      20.062 -38.102 -26.569  0.00  0.00     0.094 A 
ATOM     14  N19 IHA d   1      19.121 -39.022 -26.204  0.00  0.00    -0.243 NA
ATOM     15  C20 IHA d   1      18.147 -38.497 -25.388  0.00  0.00     0.077 A 
ATOM     16  C21 IHA d   1      17.025 -39.058 -24.790  0.00  0.00    -0.022 A 
ATOM     17  C30 IHA d   1      18.397 -37.151 -25.161  0.00  0.00     0.035 A 
ATOM     18  C22 IHA d   1      16.197 -38.272 -23.993  0.00  0.00     0.071 A 
ATOM     19  H   IHA d   1      16.794 -40.112 -24.945  0.00  0.00     0.091 H 
ATOM     20  C28 IHA d   1      16.466 -36.925 -23.786  0.00  0.00    -0.049 A 
ATOM     21  C29 IHA d   1      17.581 -36.352 -24.373  0.00  0.00    -0.061 A 
ATOM     22  H   IHA d   1      15.803 -36.323 -23.165  0.00  0.00     0.087 H 
ATOM     23  H   IHA d   1      17.812 -35.298 -24.220  0.00  0.00     0.085 H 
ATOM     24  S31 IHA d   1      19.721 -36.604 -25.905  0.00  0.00    -0.071 SA
BRANCH  18  25
ATOM     25  O23 IHA d   1      15.094 -38.821 -23.408  0.00  0.00    -0.341 OA
BRANCH  25  26
ATOM     26  C24 IHA d   1      14.919 -40.234 -23.382  0.00  0.00     0.105 C 
ATOM     27  H   IHA d   1      15.140 -40.659 -24.361  0.00  0.00     0.091 H 
ATOM     28  H   IHA d   1      15.598 -40.684 -22.658  0.00  0.00     0.091 H 
BRANCH  26  29
ATOM     29  C25 IHA d   1      13.487 -40.520 -23.001  0.00  0.00     0.198 C 
ATOM     30  O27 IHA d   1      13.186 -41.663 -22.590  0.00  0.00    -0.646 OA
ATOM     31  O26 IHA d   1      12.657 -39.593 -23.123  0.00  0.00    -0.646 OA
ENDBRANCH  26  29
ENDBRANCH  25  26
ENDBRANCH  18  25
ENDBRANCH  10  13
ENDBRANCH   8  10
ENDBRANCH   1   8
BRANCH   6  32
ATOM     32  C10 IHA d   1      21.639 -40.708 -22.490  0.00  0.00     0.061 A 
ATOM     33  C3  IHA d   1      22.190 -41.930 -22.177  0.00  0.00     0.083 A 
ATOM     34  C4  IHA d   1      21.518 -42.805 -21.329  0.00  0.00    -0.050 A 
ATOM     35  C5  IHA d   1      20.295 -42.434 -20.788  0.00  0.00    -0.078 A 
ATOM     36  H   IHA d   1      21.950 -43.777 -21.091  0.00  0.00     0.087 H 
ATOM     37  C6  IHA d   1      19.746 -41.198 -21.108  0.00  0.00    -0.050 A 
ATOM     38  H   IHA d   1      19.767 -43.109 -20.115  0.00  0.00     0.083 H 
ATOM     39  C7  IHA d   1      20.424 -40.338 -21.963  0.00  0.00     0.083 A 
ATOM     40  H   IHA d   1      18.784 -40.904 -20.688  0.00  0.00     0.087 H 
BRANCH  33  41
ATOM     41  O2  IHA d   1      23.403 -42.282 -22.736  0.00  0.00    -0.355 OA
BRANCH  41  42
ATOM     42  C1  IHA d   1      24.497 -42.741 -21.920  0.00  0.00     0.010 C 
ATOM     43  H   IHA d   1      24.766 -41.964 -21.204  0.00  0.00     0.066 H 
ATOM     44  H   IHA d   1      24.196 -43.641 -21.384  0.00  0.00     0.066 H 
ATOM     45  H   IHA d   1      25.354 -42.964 -22.555  0.00  0.00     0.066 H 
ENDBRANCH  41  42
ENDBRANCH  33  41
BRANCH  39  46
ATOM     46  O8  IHA d   1      19.900 -39.114 -22.290  0.00  0.00    -0.355 OA
BRANCH  46  47
ATOM     47  C9  IHA d   1      18.749 -38.606 -21.602  0.00  0.00     0.010 C 
ATOM     48  H   IHA d   1      17.913 -39.291 -21.741  0.00  0.00     0.066 H 
ATOM     49  H   IHA d   1      18.973 -38.516 -20.539  0.00  0.00     0.066 H 
ATOM     50  H   IHA d   1      18.489 -37.627 -22.005  0.00  0.00     0.066 H 
ENDBRANCH  46  47
ENDBRANCH  39  46
ENDBRANCH   6  32
TORSDOF 11
