REMARK  11 active torsions:
REMARK  status: ('A' for Active; 'I' for Inactive)
REMARK    1  A    between atoms: C25_2  and  C24_4 
REMARK    2  A    between atoms: C24_4  and  O23_5 
REMARK    3  A    between atoms: O23_5  and  C22_6 
REMARK    4  A    between atoms: C18_14  and  C17_15 
REMARK    5  A    between atoms: C17_15  and  N16_16 
REMARK    6  A    between atoms: N16_16  and  C15_17 
REMARK    7  A    between atoms: C11_22  and  C10_23 
REMARK    8  A    between atoms: C3_24  and  O2_25 
REMARK    9  A    between atoms: O2_25  and  C1_26 
REMARK   10  A    between atoms: C7_27  and  O8_28 
REMARK   11  A    between atoms: O8_28  and  C9_29 
ROOT
ATOM      1  C15 IHA d   1      16.987 -11.423  32.588  0.00  0.00     0.741 A 
ATOM      2  N14 IHA d   1      17.892 -11.236  33.569  0.00  0.00     0.043 NA
ATOM      3  N13 IHA d   1      17.736 -11.886  34.797  0.00  0.00    -0.144 NA
ATOM      4  C12 IHA d   1      16.688 -12.688  34.999  0.00  0.00     0.053 A 
ATOM      5  N32 IHA d   1      15.925 -12.237  32.798  0.00  0.00    -0.059 NA
ATOM      6  C11 IHA d   1      15.760 -12.881  33.981  0.00  0.00     0.111 A 
ATOM      7  H   IHA d   1      16.560 -13.190  35.958  0.00  0.00     0.121 H 
ENDROOT
BRANCH   1   8
ATOM      8  N16 IHA d   1      17.161 -10.774  31.413  0.00  0.00    -0.215 N 
ATOM      9  H   IHA d   1      17.689  -9.901  31.405  0.00  0.00     0.178 HD
BRANCH   8  10
ATOM     10  C17 IHA d   1      16.622 -11.279  30.164  0.00  0.00     0.055 C 
ATOM     11  H   IHA d   1      17.135 -10.792  29.334  0.00  0.00     0.075 H 
ATOM     12  H   IHA d   1      16.771 -12.358  30.125  0.00  0.00     0.075 H 
BRANCH  10  13
ATOM     13  C18 IHA d   1      15.143 -10.984  30.068  0.00  0.00     0.094 A 
ATOM     14  N19 IHA d   1      14.079 -11.783  29.788  0.00  0.00    -0.243 NA
ATOM     15  C20 IHA d   1      12.882 -11.122  29.806  0.00  0.00     0.077 A 
ATOM     16  C21 IHA d   1      11.588 -11.567  29.577  0.00  0.00    -0.022 A 
ATOM     17  C30 IHA d   1      13.086  -9.782  30.114  0.00  0.00     0.035 A 
ATOM     18  C22 IHA d   1      10.527 -10.672  29.660  0.00  0.00     0.071 A 
ATOM     19  H   IHA d   1      11.404 -12.613  29.333  0.00  0.00     0.091 H 
ATOM     20  C28 IHA d   1      10.746  -9.331  29.961  0.00  0.00    -0.049 A 
ATOM     21  C29 IHA d   1      12.038  -8.875  30.196  0.00  0.00    -0.061 A 
ATOM     22  H   IHA d   1       9.905  -8.639  30.012  0.00  0.00     0.087 H 
ATOM     23  H   IHA d   1      12.224  -7.829  30.439  0.00  0.00     0.085 H 
ATOM     24  S31 IHA d   1      14.642  -9.399  30.355  0.00  0.00    -0.071 SA
BRANCH  18  25
ATOM     25  O23 IHA d   1       9.249 -11.101  29.434  0.00  0.00    -0.341 OA
BRANCH  25  26
ATOM     26  C24 IHA d   1       8.354 -11.154  30.541  0.00  0.00     0.105 C 
ATOM     27  H   IHA d   1       8.785 -11.758  31.340  0.00  0.00     0.091 H 
ATOM     28  H   IHA d   1       8.176 -10.149  30.924  0.00  0.00     0.091 H 
BRANCH  26  29
ATOM     29  C25 IHA d   1       7.058 -11.764  30.079  0.00  0.00     0.198 C 
ATOM     30  O27 IHA d   1       6.019 -11.065  30.099  0.00  0.00    -0.646 OA
ATOM     31  O26 IHA d   1       7.090 -12.953  29.691  0.00  0.00    -0.646 OA
ENDBRANCH  26  29
ENDBRANCH  25  26
ENDBRANCH  18  25
ENDBRANCH  10  13
ENDBRANCH   8  10
ENDBRANCH   1   8
BRANCH   6  32
ATOM     32  C10 IHA d   1      14.572 -13.763  34.197  0.00  0.00     0.061 A 
ATOM     33  C3  IHA d   1      14.671 -15.042  34.731  0.00  0.00     0.083 A 
ATOM     34  C4  IHA d   1      13.524 -15.813  34.914  0.00  0.00    -0.050 A 
ATOM     35  C5  IHA d   1      12.273 -15.313  34.572  0.00  0.00    -0.078 A 
ATOM     36  H   IHA d   1      13.609 -16.817  35.329  0.00  0.00     0.087 H 
ATOM     37  C6  IHA d   1      12.177 -14.032  34.045  0.00  0.00    -0.050 A 
ATOM     38  H   IHA d   1      11.378 -15.919  34.716  0.00  0.00     0.083 H 
ATOM     39  C7  IHA d   1      13.324 -13.266  33.863  0.00  0.00     0.083 A 
ATOM     40  H   IHA d   1      11.202 -13.626  33.774  0.00  0.00     0.087 H 
BRANCH  33  41
ATOM     41  O2  IHA d   1      15.887 -15.567  35.079  0.00  0.00    -0.355 OA
BRANCH  41  42
ATOM     42  C1  IHA d   1      15.978 -16.751  35.870  0.00  0.00     0.010 C 
ATOM     43  H   IHA d   1      15.490 -16.583  36.830  0.00  0.00     0.066 H 
ATOM     44  H   IHA d   1      15.486 -17.573  35.349  0.00  0.00     0.066 H 
ATOM     45  H   IHA d   1      17.027 -16.998  36.033  0.00  0.00     0.066 H 
ENDBRANCH  41  42
ENDBRANCH  33  41
BRANCH  39  46
ATOM     46  O8  IHA d   1      13.225 -12.003  33.343  0.00  0.00    -0.355 OA
BRANCH  46  47
ATOM     47  C9  IHA d   1      11.951 -11.463  33.011  0.00  0.00     0.010 C 
ATOM     48  H   IHA d   1      11.475 -12.094  32.260  0.00  0.00     0.066 H 
ATOM     49  H   IHA d   1      11.329 -11.428  33.905  0.00  0.00     0.066 H 
ATOM     50  H   IHA d   1      12.077 -10.456  32.614  0.00  0.00     0.066 H 
ENDBRANCH  46  47
ENDBRANCH  39  46
ENDBRANCH   6  32
TORSDOF 11
