REMARK  5 active torsions:
REMARK  status: ('A' for Active; 'I' for Inactive)
REMARK    1  A    between atoms: N1_1  and  C23_23 
REMARK    2  A    between atoms: C8_8  and  C11_11 
REMARK    3  A    between atoms: N13_13  and  C16_16 
REMARK    4  A    between atoms: C15_15  and  C29_29 
REMARK    5  A    between atoms: C16_16  and  C17_17 
ROOT
ATOM      1  C11 7RG d   1      73.898  53.956  41.764  0.00  0.00     0.032 C 
ATOM      2  C12 7RG d   1      73.196  53.198  40.622  0.00  0.00     0.094 C 
ATOM      3  N13 7RG d   1      73.567  53.932  39.402  0.00  0.00    -0.063 N 
ATOM      4  C14 7RG d   1      73.797  55.332  39.785  0.00  0.00     0.088 C 
ATOM      5  C15 7RG d   1      74.607  55.169  41.088  0.00  0.00    -0.022 C 
ATOM      6  H3  7RG d   1      73.138  54.327  42.468  0.00  0.00     0.055 H 
ATOM      7  H4  7RG d   1      72.105  53.207  40.764  0.00  0.00     0.077 H 
ATOM      8  H5  7RG d   1      73.550  52.158  40.572  0.00  0.00     0.077 H 
ATOM      9  H6  7RG d   1      74.379  53.529  38.961  0.00  0.00     0.280 HD
ATOM     10  H7  7RG d   1      72.849  55.860  39.965  0.00  0.00     0.076 H 
ATOM     11  H8  7RG d   1      74.375  55.868  39.018  0.00  0.00     0.076 H 
ATOM     12  H9  7RG d   1      75.662  54.943  40.875  0.00  0.00     0.043 H 
ENDROOT
BRANCH   1  13
ATOM     13  C8  7RG d   1      74.865  53.091  42.543  0.00  0.00     0.115 A 
ATOM     14  N7  7RG d   1      74.702  52.997  43.897  0.00  0.00    -0.195 NA
ATOM     15  C5  7RG d   1      75.554  52.277  44.675  0.00  0.00     0.284 A 
ATOM     16  C4  7RG d   1      76.664  51.600  43.990  0.00  0.00     0.099 A 
ATOM     17  O6  7RG d   1      75.403  52.217  45.886  0.00  0.00    -0.265 OA
ATOM     18  C3  7RG d   1      77.749  50.801  44.392  0.00  0.00     0.041 A 
ATOM     19  C10 7RG d   1      76.751  51.734  42.588  0.00  0.00     0.143 A 
ATOM     20  N2  7RG d   1      78.457  50.502  43.342  0.00  0.00    -0.182 NA
ATOM     21  H1  7RG d   1      77.961  50.485  45.412  0.00  0.00     0.119 H 
ATOM     22  N1  7RG d   1      77.850  51.039  42.199  0.00  0.00    -0.248 N 
ATOM     23  N9  7RG d   1      75.842  52.485  41.922  0.00  0.00    -0.328 N 
ATOM     24  H2  7RG d   1      75.923  52.581  40.900  0.00  0.00     0.169 HD
BRANCH  22  25
ATOM     25  C23 7RG d   1      78.346  50.997  40.829  0.00  0.00     0.040 C 
ATOM     26  C24 7RG d   1      77.951  49.709  40.090  0.00  0.00    -0.024 C 
ATOM     27  C25 7RG d   1      78.556  49.775  38.672  0.00  0.00     0.021 C 
ATOM     28  H16 7RG d   1      76.855  49.635  40.026  0.00  0.00     0.039 H 
ATOM     29  H17 7RG d   1      78.347  48.834  40.626  0.00  0.00     0.039 H 
ATOM     30  O26 7RG d   1      79.985  49.928  38.761  0.00  0.00    -0.391 OA
ATOM     31  H18 7RG d   1      78.129  50.633  38.132  0.00  0.00     0.074 H 
ATOM     32  H19 7RG d   1      78.321  48.847  38.130  0.00  0.00     0.074 H 
ATOM     33  C27 7RG d   1      80.339  51.212  39.299  0.00  0.00     0.021 C 
ATOM     34  C28 7RG d   1      79.847  51.338  40.749  0.00  0.00    -0.024 C 
ATOM     35  H20 7RG d   1      79.875  52.001  38.689  0.00  0.00     0.074 H 
ATOM     36  H21 7RG d   1      81.433  51.326  39.276  0.00  0.00     0.074 H 
ATOM     37  H22 7RG d   1      80.413  50.643  41.387  0.00  0.00     0.039 H 
ATOM     38  H23 7RG d   1      80.005  52.369  41.099  0.00  0.00     0.039 H 
ATOM     39  H15 7RG d   1      77.829  51.809  40.297  0.00  0.00     0.076 H 
ENDBRANCH  22  25
ENDBRANCH   1  13
BRANCH   5  40
ATOM     40  C29 7RG d   1      74.524  56.426  41.953  0.00  0.00    -0.071 C 
ATOM     41  H24 7RG d   1      75.110  56.278  42.872  0.00  0.00     0.028 H 
ATOM     42  H25 7RG d   1      73.474  56.622  42.216  0.00  0.00     0.028 H 
ATOM     43  H26 7RG d   1      74.928  57.283  41.394  0.00  0.00     0.028 H 
ENDBRANCH   5  40
BRANCH   3  44
ATOM     44  C16 7RG d   1      72.407  53.917  38.510  0.00  0.00     0.139 C 
ATOM     45  H10 7RG d   1      72.382  54.849  37.926  0.00  0.00     0.088 H 
ATOM     46  H11 7RG d   1      71.487  53.834  39.107  0.00  0.00     0.088 H 
BRANCH  44  47
ATOM     47  C17 7RG d   1      72.504  52.744  37.575  0.00  0.00     0.151 A 
ATOM     48  N18 7RG d   1      73.695  52.327  37.154  0.00  0.00    -0.244 NA
ATOM     49  C19 7RG d   1      73.793  51.310  36.299  0.00  0.00     0.006 A 
ATOM     50  C20 7RG d   1      72.631  50.664  35.863  0.00  0.00    -0.049 A 
ATOM     51  H12 7RG d   1      74.765  50.986  35.944  0.00  0.00     0.114 H 
ATOM     52  C21 7RG d   1      71.400  51.125  36.342  0.00  0.00     0.006 A 
ATOM     53  H13 7RG d   1      72.683  49.829  35.173  0.00  0.00     0.087 H 
ATOM     54  N22 7RG d   1      71.378  52.151  37.193  0.00  0.00    -0.244 NA
ATOM     55  H14 7RG d   1      70.476  50.654  36.025  0.00  0.00     0.114 H 
ENDBRANCH  44  47
ENDBRANCH   3  44
TORSDOF 5
