REMARK  13 active torsions:
REMARK  status: ('A' for Active; 'I' for Inactive)
REMARK    1  A    between atoms: C2_2  and  N29_29 
REMARK    2  A    between atoms: C4_4  and  N7_7 
REMARK    3  A    between atoms: N7_7  and  C8_8 
REMARK    4  A    between atoms: C11_11  and  N16_16 
REMARK    5  A    between atoms: C13_13  and  O14_14 
REMARK    6  A    between atoms: O14_14  and  C15_15 
REMARK    7  A    between atoms: C19_19  and  N22_22 
REMARK    8  A    between atoms: N25_25  and  C28_28 
REMARK    9  A    between atoms: N29_29  and  C30_30 
REMARK   10  A    between atoms: C31_31  and  S36_36 
REMARK   11  A    between atoms: S36_36  and  C37_37 
REMARK   12  A    between atoms: C37_37  and  C38_38 
REMARK   13  A    between atoms: C37_37  and  C39_39 
ROOT
ATOM      1  C8  GUI d   1      -0.596  17.473  26.637  0.00  0.00     0.082 A 
ATOM      2  C9  GUI d   1       0.570  17.753  27.349  0.00  0.00    -0.052 A 
ATOM      3  C10 GUI d   1       0.615  18.867  28.192  0.00  0.00    -0.055 A 
ATOM      4  C11 GUI d   1      -0.488  19.708  28.316  0.00  0.00     0.033 A 
ATOM      5  C12 GUI d   1      -1.648  19.467  27.560  0.00  0.00    -0.023 A 
ATOM      6  C13 GUI d   1      -1.674  18.328  26.739  0.00  0.00     0.097 A 
ATOM      7  H3  GUI d   1       1.437  17.110  27.249  0.00  0.00     0.087 H 
ATOM      8  H4  GUI d   1       1.517  19.078  28.755  0.00  0.00     0.087 H 
ATOM      9  H5  GUI d   1      -2.497  20.140  27.609  0.00  0.00     0.091 H 
ENDROOT
BRANCH   1  10
ATOM     10  N7  GUI d   1      -0.707  16.423  25.782  0.00  0.00    -0.185 N 
ATOM     11  H2  GUI d   1      -1.668  16.092  25.614  0.00  0.00     0.184 HD
BRANCH  10  12
ATOM     12  C4  GUI d   1       0.228  15.772  25.141  0.00  0.00     0.728 A 
ATOM     13  N3  GUI d   1       1.488  16.183  25.149  0.00  0.00    -0.043 NA
ATOM     14  C2  GUI d   1       2.449  15.500  24.494  0.00  0.00     0.170 A 
ATOM     15  C1  GUI d   1       2.077  14.391  23.701  0.00  0.00     0.098 A 
ATOM     16  C6  GUI d   1       0.745  13.999  23.712  0.00  0.00     0.046 A 
ATOM     17 CL   GUI d   1       3.247  13.459  22.850  0.00  0.00    -0.079 Cl
ATOM     18  N5  GUI d   1      -0.157  14.694  24.379  0.00  0.00    -0.073 NA
ATOM     19  H1  GUI d   1       0.443  13.112  23.167  0.00  0.00     0.118 H 
BRANCH  14  20
ATOM     20  N29 GUI d   1       3.734  15.867  24.511  0.00  0.00    -0.338 N 
ATOM     21  H31 GUI d   1       4.389  15.273  23.983  0.00  0.00     0.167 HD
BRANCH  20  22
ATOM     22  C30 GUI d   1       4.270  16.941  25.151  0.00  0.00     0.055 A 
ATOM     23  C31 GUI d   1       5.636  16.957  25.493  0.00  0.00     0.086 A 
ATOM     24  C32 GUI d   1       6.136  18.102  26.167  0.00  0.00    -0.060 A 
ATOM     25  C33 GUI d   1       5.347  19.216  26.442  0.00  0.00    -0.081 A 
ATOM     26  H32 GUI d   1       7.174  18.109  26.480  0.00  0.00     0.085 H 
ATOM     27  C34 GUI d   1       3.994  19.206  26.116  0.00  0.00    -0.081 A 
ATOM     28  H33 GUI d   1       5.786  20.090  26.909  0.00  0.00     0.083 H 
ATOM     29  C35 GUI d   1       3.502  18.046  25.485  0.00  0.00    -0.056 A 
ATOM     30  H34 GUI d   1       3.350  20.049  26.337  0.00  0.00     0.083 H 
ATOM     31  H35 GUI d   1       2.446  18.015  25.243  0.00  0.00     0.087 H 
BRANCH  23  32
ATOM     32  S36 GUI d   1       6.712  15.695  25.216  0.00  0.00     0.181 S 
ATOM     33  O40 GUI d   1       8.126  16.155  24.964  0.00  0.00    -0.222 OA
ATOM     34  O41 GUI d   1       6.278  14.826  24.087  0.00  0.00    -0.222 OA
BRANCH  32  35
ATOM     35  C37 GUI d   1       6.793  14.693  26.727  0.00  0.00     0.042 C 
ATOM     36  H36 GUI d   1       7.525  13.884  26.587  0.00  0.00     0.063 H 
BRANCH  35  37
ATOM     37  C38 GUI d   1       5.407  14.096  26.957  0.00  0.00    -0.060 C 
ATOM     38  H37 GUI d   1       5.420  13.480  27.868  0.00  0.00     0.029 H 
ATOM     39  H38 GUI d   1       5.130  13.470  26.096  0.00  0.00     0.029 H 
ATOM     40  H39 GUI d   1       4.673  14.907  27.073  0.00  0.00     0.029 H 
ENDBRANCH  35  37
BRANCH  35  41
ATOM     41  C39 GUI d   1       7.206  15.525  27.937  0.00  0.00    -0.060 C 
ATOM     42  H40 GUI d   1       7.243  14.882  28.829  0.00  0.00     0.029 H 
ATOM     43  H41 GUI d   1       6.474  16.330  28.096  0.00  0.00     0.029 H 
ATOM     44  H42 GUI d   1       8.199  15.963  27.759  0.00  0.00     0.029 H 
ENDBRANCH  35  41
ENDBRANCH  32  35
ENDBRANCH  23  32
ENDBRANCH  20  22
ENDBRANCH  14  20
ENDBRANCH  10  12
ENDBRANCH   1  10
BRANCH   6  45
ATOM     45  O14 GUI d   1      -2.773  18.031  26.015  0.00  0.00    -0.354 OA
BRANCH  45  46
ATOM     46  C15 GUI d   1      -3.847  18.980  26.119  0.00  0.00     0.010 C 
ATOM     47  H6  GUI d   1      -4.691  18.649  25.496  0.00  0.00     0.066 H 
ATOM     48  H7  GUI d   1      -3.501  19.965  25.774  0.00  0.00     0.066 H 
ATOM     49  H8  GUI d   1      -4.172  19.052  27.167  0.00  0.00     0.066 H 
ENDBRANCH  45  46
ENDBRANCH   6  45
BRANCH   4  50
ATOM     50  N16 GUI d   1      -0.365  20.864  29.148  0.00  0.00    -0.381 N 
ATOM     51  C17 GUI d   1       0.637  20.854  30.266  0.00  0.00    -0.003 C 
ATOM     52  C18 GUI d   1       0.526  22.041  31.241  0.00  0.00    -0.023 C 
ATOM     53  H9  GUI d   1       1.644  20.867  29.824  0.00  0.00     0.064 H 
ATOM     54  H10 GUI d   1       0.501  19.925  30.840  0.00  0.00     0.064 H 
ATOM     55  C19 GUI d   1       0.278  23.409  30.584  0.00  0.00     0.107 C 
ATOM     56  H11 GUI d   1       1.465  22.102  31.810  0.00  0.00     0.038 H 
ATOM     57  H12 GUI d   1      -0.307  21.838  31.930  0.00  0.00     0.038 H 
ATOM     58  C20 GUI d   1      -0.950  23.342  29.625  0.00  0.00    -0.023 C 
ATOM     59  H13 GUI d   1       1.175  23.687  30.011  0.00  0.00     0.084 H 
ATOM     60  C21 GUI d   1      -0.939  22.143  28.603  0.00  0.00    -0.003 C 
ATOM     61  H14 GUI d   1      -0.984  24.279  29.050  0.00  0.00     0.038 H 
ATOM     62  H15 GUI d   1      -1.858  23.256  30.240  0.00  0.00     0.038 H 
ATOM     63  H16 GUI d   1      -1.976  21.949  28.290  0.00  0.00     0.064 H 
ATOM     64  H17 GUI d   1      -0.342  22.442  27.729  0.00  0.00     0.064 H 
BRANCH  55  65
ATOM     65  N22 GUI d   1      -0.018  24.508  31.619  0.00  0.00    -0.064 N 
ATOM     66  C23 GUI d   1       1.137  24.819  32.408  0.00  0.00     0.106 C 
ATOM     67  C24 GUI d   1       0.763  26.032  33.334  0.00  0.00     0.105 C 
ATOM     68  H19 GUI d   1       1.977  25.092  31.753  0.00  0.00     0.078 H 
ATOM     69  H20 GUI d   1       1.418  23.950  33.022  0.00  0.00     0.078 H 
ATOM     70  N25 GUI d   1      -0.283  26.914  32.755  0.00  0.00    -0.072 N 
ATOM     71  H21 GUI d   1       1.669  26.632  33.506  0.00  0.00     0.078 H 
ATOM     72  H22 GUI d   1       0.396  25.639  34.293  0.00  0.00     0.078 H 
ATOM     73  C26 GUI d   1      -0.462  26.939  31.312  0.00  0.00     0.105 C 
ATOM     74  H23 GUI d   1      -1.156  26.597  33.146  0.00  0.00     0.279 HD
ATOM     75  C27 GUI d   1      -0.518  25.535  30.744  0.00  0.00     0.106 C 
ATOM     76  H24 GUI d   1       0.381  27.478  30.855  0.00  0.00     0.078 H 
ATOM     77  H25 GUI d   1      -1.402  27.460  31.076  0.00  0.00     0.078 H 
ATOM     78  H26 GUI d   1      -1.567  25.303  30.509  0.00  0.00     0.078 H 
ATOM     79  H27 GUI d   1       0.078  25.516  29.819  0.00  0.00     0.078 H 
ATOM     80  H18 GUI d   1      -0.746  24.218  32.252  0.00  0.00     0.280 HD
BRANCH  70  81
ATOM     81  C28 GUI d   1      -0.067  28.313  33.181  0.00  0.00     0.066 C 
ATOM     82  H28 GUI d   1       0.074  28.347  34.271  0.00  0.00     0.068 H 
ATOM     83  H29 GUI d   1      -0.943  28.919  32.906  0.00  0.00     0.068 H 
ATOM     84  H30 GUI d   1       0.828  28.714  32.683  0.00  0.00     0.068 H 
ENDBRANCH  70  81
ENDBRANCH  55  65
ENDBRANCH   4  50
TORSDOF 13
