REMARK  25 active torsions:
REMARK  status: ('A' for Active; 'I' for Inactive)
REMARK    1  A    between atoms: CA_2  and  C_3 
REMARK       I    between atoms: C_3  and  N_8 
REMARK    2  A    between atoms: CA_9  and  C_10 
REMARK       I    between atoms: C_10  and  N_15 
REMARK    3  A    between atoms: N_15  and  CA_16 
REMARK    4  A    between atoms: CA_16  and  C_17 
REMARK    5  A    between atoms: CA_16  and  CB_19 
REMARK       I    between atoms: C_17  and  N_23 
REMARK    6  A    between atoms: CB_19  and  CG_20 
REMARK    7  A    between atoms: CG_20  and  CD1_21 
REMARK    8  A    between atoms: CG_20  and  CD2_22 
REMARK    9  A    between atoms: N_23  and  CA_24 
REMARK   10  A    between atoms: CA_24  and  C_25 
REMARK   11  A    between atoms: CA_24  and  CB_27 
REMARK       I    between atoms: C_25  and  N_33 
REMARK   12  A    between atoms: CB_27  and  CG_28 
REMARK   13  A    between atoms: N_33  and  CA_34 
REMARK   14  A    between atoms: CA_34  and  C_35 
REMARK   15  A    between atoms: CA_34  and  CB_37 
REMARK       I    between atoms: C_35  and  N_39 
REMARK   16  A    between atoms: CB_37  and  OG_38 
REMARK   17  A    between atoms: N_39  and  CA_40 
REMARK   18  A    between atoms: CA_40  and  CB_41 
REMARK   19  A    between atoms: CA_40  and  C_48 
REMARK   20  A    between atoms: CB_41  and  CG2_42 
REMARK   21  A    between atoms: CB_41  and  OG1_43 
REMARK   22  A    between atoms: OG1_43  and  P_44 
REMARK       I    between atoms: C_48  and  N_50 
REMARK   23  A    between atoms: N_50  and  CA_51 
REMARK   24  A    between atoms: CA_51  and  C_52 
REMARK   25  A    between atoms: CA_51  and  CB_54 
REMARK       I    between atoms: C_52  and  N_55 
ROOT
ATOM      1  CA  HIS d   1       7.481 -10.863  11.339  0.00  0.00     0.094 C 
ATOM      2  H   HIS d   1       7.966 -10.726  10.373  0.00  0.00     0.088 H 
ENDROOT
BRANCH   1   3
ATOM      3  N   HIS d   1       8.378 -11.714  12.124  0.00  0.00    -0.346 N 
ATOM      4  C   LEU d   1       9.031 -12.730  11.566  0.00  0.00     0.241 C 
ATOM      5  O   LEU d   1       8.899 -13.028  10.382  0.00  0.00    -0.271 OA
ATOM      6  H   HIS d   1       8.505 -11.524  13.118  0.00  0.00     0.163 HD
BRANCH   4   7
ATOM      7  CA  LEU d   1       9.962 -13.544  12.473  0.00  0.00     0.089 C 
ATOM      8  H   LEU d   1      10.971 -13.402  12.086  0.00  0.00     0.087 H 
BRANCH   7   9
ATOM      9  N   LEU d   1       9.974 -13.077  13.862  0.00  0.00    -0.346 N 
ATOM     10  C   PRO d   1      10.916 -12.272  14.347  0.00  0.00     0.241 C 
ATOM     11  O   PRO d   1      11.839 -11.812  13.673  0.00  0.00    -0.271 OA
ATOM     12  H   LEU d   1       9.227 -13.383  14.485  0.00  0.00     0.163 HD
BRANCH  10  13
ATOM     13  CA  PRO d   1      10.783 -11.904  15.823  0.00  0.00     0.091 C 
ATOM     14  N   PRO d   1      12.054 -11.543  16.462  0.00  0.00    -0.337 N 
ATOM     15  C   PRO d   1      13.041 -12.439  16.675  0.00  0.00     0.251 C 
ATOM     16  CD  PRO d   1      12.078 -10.130  16.874  0.00  0.00    -0.001 C 
ATOM     17  O   PRO d   1      12.953 -13.619  16.329  0.00  0.00    -0.271 OA
ATOM     18  CG  PRO d   1      10.640  -9.778  16.946  0.00  0.00    -0.048 C 
ATOM     19  H   PRO d   1      12.633  -9.498  16.181  0.00  0.00     0.064 H 
ATOM     20  H   PRO d   1      12.598  -9.975  17.819  0.00  0.00     0.064 H 
ATOM     21  CB  PRO d   1       9.945 -10.625  15.946  0.00  0.00    -0.036 C 
ATOM     22  H   PRO d   1      10.246  -9.955  17.947  0.00  0.00     0.035 H 
ATOM     23  H   PRO d   1      10.487  -8.720  16.733  0.00  0.00     0.035 H 
ATOM     24  H   PRO d   1       8.925 -10.849  16.258  0.00  0.00     0.036 H 
ATOM     25  H   PRO d   1       9.859 -10.115  14.987  0.00  0.00     0.036 H 
ATOM     26  H   PRO d   1      10.355 -12.787  16.298  0.00  0.00     0.087 H 
BRANCH  15  27
ATOM     27  CA  PRO d   1      14.303 -11.950  17.404  0.00  0.00     0.178 C 
ATOM     28  N   PRO d   1      15.181 -13.056  17.778  0.00  0.00    -0.062 N 
ATOM     29  CD  PRO d   1      16.537 -12.901  17.224  0.00  0.00     0.083 C 
ATOM     30  H   PRO d   1      14.782 -13.918  17.405  0.00  0.00     0.278 HD
ATOM     31  H   PRO d   1      15.254 -13.074  18.795  0.00  0.00     0.278 HD
ATOM     32  CG  PRO d   1      16.587 -11.446  16.860  0.00  0.00    -0.040 C 
ATOM     33  H   PRO d   1      16.724 -13.556  16.373  0.00  0.00     0.075 H 
ATOM     34  H   PRO d   1      17.317 -13.188  17.929  0.00  0.00     0.075 H 
ATOM     35  CB  PRO d   1      15.190 -11.097  16.479  0.00  0.00    -0.028 C 
ATOM     36  H   PRO d   1      16.945 -10.834  17.688  0.00  0.00     0.035 H 
ATOM     37  H   PRO d   1      17.287 -11.257  16.047  0.00  0.00     0.035 H 
ATOM     38  H   PRO d   1      14.992 -10.032  16.598  0.00  0.00     0.036 H 
ATOM     39  H   PRO d   1      14.994 -11.303  15.427  0.00  0.00     0.036 H 
ATOM     40  H   PRO d   1      13.928 -11.401  18.267  0.00  0.00     0.099 H 
ENDBRANCH  15  27
ENDBRANCH  10  13
ENDBRANCH   7   9
BRANCH   7  41
ATOM     41  CB  LEU d   1       9.585 -15.028  12.424  0.00  0.00    -0.035 C 
ATOM     42  H   LEU d   1       9.029 -15.143  11.493  0.00  0.00     0.037 H 
ATOM     43  H   LEU d   1       9.084 -15.219  13.373  0.00  0.00     0.037 H 
BRANCH  41  44
ATOM     44  CG  LEU d   1      10.697 -16.086  12.349  0.00  0.00    -0.059 C 
ATOM     45  H   LEU d   1      10.936 -16.204  11.292  0.00  0.00     0.038 H 
BRANCH  44  46
ATOM     46  CD1 LEU d   1      12.009 -15.664  13.003  0.00  0.00    -0.073 C 
ATOM     47  H   LEU d   1      12.387 -14.768  12.511  0.00  0.00     0.028 H 
ATOM     48  H   LEU d   1      11.837 -15.456  14.059  0.00  0.00     0.028 H 
ATOM     49  H   LEU d   1      12.738 -16.468  12.905  0.00  0.00     0.028 H 
ENDBRANCH  44  46
BRANCH  44  50
ATOM     50  CD2 LEU d   1      10.199 -17.413  12.907  0.00  0.00    -0.073 C 
ATOM     51  H   LEU d   1       9.902 -17.280  13.947  0.00  0.00     0.028 H 
ATOM     52  H   LEU d   1       9.343 -17.752  12.324  0.00  0.00     0.028 H 
ATOM     53  H   LEU d   1      10.997 -18.153  12.848  0.00  0.00     0.028 H 
ENDBRANCH  44  50
ENDBRANCH  41  44
ENDBRANCH   7  41
ENDBRANCH   4   7
ENDBRANCH   1   3
BRANCH   1  54
ATOM     54  C   HIS d   1       7.298  -9.482  11.950  0.00  0.00     0.241 C 
ATOM     55  O   HIS d   1       7.537  -9.283  13.143  0.00  0.00    -0.271 OA
ATOM     56  N   SER d   1       6.869  -8.533  11.120  0.00  0.00    -0.344 N 
ATOM     57  H   SER d   1       6.767  -8.753  10.129  0.00  0.00     0.163 HD
BRANCH  56  58
ATOM     58  CA  SER d   1       6.539  -7.186  11.583  0.00  0.00     0.109 C 
ATOM     59  H   SER d   1       7.375  -6.808  12.171  0.00  0.00     0.090 H 
BRANCH  58  60
ATOM     60  C   SER d   1       5.302  -7.220  12.479  0.00  0.00     0.243 C 
ATOM     61  O   SER d   1       4.728  -8.287  12.710  0.00  0.00    -0.271 OA
ATOM     62  N   TPO d   1       4.908  -6.058  12.993  0.00  0.00    -0.344 N 
ATOM     63  H   TPO d   1       5.378  -5.201  12.701  0.00  0.00     0.163 HD
BRANCH  62  64
ATOM     64  CA  TPO d   1       3.815  -5.977  13.970  0.00  0.00     0.114 C 
ATOM     65  H   TPO d   1       4.104  -6.579  14.832  0.00  0.00     0.091 H 
BRANCH  64  66
ATOM     66  CB  TPO d   1       3.616  -4.526  14.412  0.00  0.00     0.076 C 
ATOM     67  H   TPO d   1       3.311  -3.938  13.546  0.00  0.00     0.087 H 
BRANCH  66  68
ATOM     68  CG2 TPO d   1       2.519  -4.392  15.470  0.00  0.00    -0.049 C 
ATOM     69  H   TPO d   1       1.576  -4.756  15.062  0.00  0.00     0.031 H 
ATOM     70  H   TPO d   1       2.788  -4.981  16.347  0.00  0.00     0.031 H 
ATOM     71  H   TPO d   1       2.414  -3.344  15.752  0.00  0.00     0.031 H 
ENDBRANCH  66  68
BRANCH  66  72
ATOM     72  OG1 TPO d   1       4.847  -4.061  14.959  0.00  0.00    -0.275 OA
BRANCH  72  73
ATOM     73  P   TPO d   1       5.765  -2.936  14.237  0.00  0.00     0.422 P 
ATOM     74  O1P TPO d   1       4.834  -1.780  13.990  0.00  0.00    -0.617 OA
ATOM     75  O2P TPO d   1       6.279  -3.564  12.965  0.00  0.00    -0.617 OA
ATOM     76  O3P TPO d   1       6.841  -2.651  15.258  0.00  0.00    -0.617 OA
ENDBRANCH  72  73
ENDBRANCH  66  72
ENDBRANCH  64  66
BRANCH  64  77
ATOM     77  C   TPO d   1       2.532  -6.567  13.459  0.00  0.00     0.243 C 
ATOM     78  O   TPO d   1       2.007  -6.158  12.414  0.00  0.00    -0.271 OA
ATOM     79  N   ALA d   1       2.030  -7.553  14.203  0.00  0.00    -0.346 N 
ATOM     80  H   ALA d   1       2.566  -7.888  15.004  0.00  0.00     0.163 HD
BRANCH  79  81
ATOM     81  CA  ALA d   1       0.742  -8.169  13.911  0.00  0.00     0.086 C 
ATOM     82  H   ALA d   1       0.485  -7.943  12.876  0.00  0.00     0.086 H 
BRANCH  81  83
ATOM     83  C   ALA d   1      -0.352  -7.599  14.809  0.00  0.00     0.237 C 
ATOM     84  O   ALA d   1      -0.073  -6.854  15.753  0.00  0.00    -0.271 OA
ATOM     85  N   NH2 d   1      -1.555  -7.825  14.494  0.00  0.00    -0.368 N 
ATOM     86  H   NH2 d   1      -2.311  -7.389  15.022  0.00  0.00     0.159 HD
ATOM     87  H   NH2 d   1      -1.770  -8.443  13.711  0.00  0.00     0.159 HD
ENDBRANCH  81  83
BRANCH  81  88
ATOM     88  CB  ALA d   1       0.827  -9.682  14.076  0.00  0.00    -0.049 C 
ATOM     89  H   ALA d   1       1.575 -10.080  13.390  0.00  0.00     0.030 H 
ATOM     90  H   ALA d   1       1.110  -9.919  15.101  0.00  0.00     0.030 H 
ATOM     91  H   ALA d   1      -0.144 -10.126  13.854  0.00  0.00     0.030 H 
ENDBRANCH  81  88
ENDBRANCH  79  81
ENDBRANCH  64  77
ENDBRANCH  62  64
ENDBRANCH  58  60
BRANCH  58  92
ATOM     92  CB  SER d   1       6.335  -6.234  10.394  0.00  0.00     0.044 C 
ATOM     93  H   SER d   1       7.269  -6.188   9.834  0.00  0.00     0.077 H 
ATOM     94  H   SER d   1       6.039  -5.261  10.787  0.00  0.00     0.077 H 
BRANCH  92  95
ATOM     95  OG  SER d   1       5.317  -6.681   9.515  0.00  0.00    -0.398 OA
ATOM     96  H   SER d   1       4.487  -6.742   9.993  0.00  0.00     0.209 HD
ENDBRANCH  92  95
ENDBRANCH  58  92
ENDBRANCH  56  58
ENDBRANCH   1  54
BRANCH   1  97
ATOM     97  CB  HIS d   1       6.118 -11.537  11.102  0.00  0.00     0.004 C 
ATOM     98  H   HIS d   1       6.307 -12.460  10.553  0.00  0.00     0.046 H 
ATOM     99  H   HIS d   1       5.493 -10.820  10.569  0.00  0.00     0.046 H 
BRANCH  97 100
ATOM    100  CG  HIS d   1       5.391 -11.910  12.356  0.00  0.00     0.053 A 
ATOM    101  ND1 HIS d   1       4.752 -10.985  13.153  0.00  0.00    -0.247 NA
ATOM    102  CE1 HIS d   1       4.195 -11.599  14.182  0.00  0.00     0.064 A 
ATOM    103  NE2 HIS d   1       4.442 -12.893  14.077  0.00  0.00    -0.359 N 
ATOM    104  H   HIS d   1       3.629 -11.120  14.981  0.00  0.00     0.143 H 
ATOM    105  CD2 HIS d   1       5.185 -13.115  12.942  0.00  0.00     0.002 A 
ATOM    106  H   HIS d   1       4.132 -13.611  14.732  0.00  0.00     0.166 HD
ATOM    107  H   HIS d   1       5.542 -14.079  12.581  0.00  0.00     0.114 H 
ENDBRANCH  97 100
ENDBRANCH   1  97
TORSDOF 25
