REMARK  32 active torsions:
REMARK  status: ('A' for Active; 'I' for Inactive)
REMARK    1  A    between atoms: CAU_1  and  CAM_3 
REMARK       I    between atoms: CAU_1  and  N_14 
REMARK    2  A    between atoms: CAM_3  and  CAN_4 
REMARK    3  A    between atoms: CAN_4  and  CAW_5 
REMARK    4  A    between atoms: N_14  and  CA_15 
REMARK    5  A    between atoms: CA_15  and  C_16 
REMARK    6  A    between atoms: CA_15  and  CB_18 
REMARK       I    between atoms: C_16  and  N_22 
REMARK    7  A    between atoms: CB_18  and  CG_19 
REMARK    8  A    between atoms: CA_23  and  C_24 
REMARK       I    between atoms: C_24  and  N_29 
REMARK    9  A    between atoms: CA_30  and  C_31 
REMARK       I    between atoms: C_31  and  N_36 
REMARK   10  A    between atoms: N_36  and  CA_37 
REMARK   11  A    between atoms: CA_37  and  C_38 
REMARK   12  A    between atoms: CA_37  and  CB_40 
REMARK       I    between atoms: C_38  and  N_44 
REMARK   13  A    between atoms: CB_40  and  CG_41 
REMARK   14  A    between atoms: CG_41  and  CD1_42 
REMARK   15  A    between atoms: CG_41  and  CD2_43 
REMARK   16  A    between atoms: N_44  and  CA_45 
REMARK   17  A    between atoms: CA_45  and  C_46 
REMARK   18  A    between atoms: CA_45  and  CB_48 
REMARK       I    between atoms: C_46  and  N_54 
REMARK   19  A    between atoms: CB_48  and  CG_49 
REMARK   20  A    between atoms: N_54  and  CA_55 
REMARK   21  A    between atoms: CA_55  and  C_56 
REMARK   22  A    between atoms: CA_55  and  CB_58 
REMARK       I    between atoms: C_56  and  N_60 
REMARK   23  A    between atoms: CB_58  and  OG_59 
REMARK   24  A    between atoms: N_60  and  CA_61 
REMARK   25  A    between atoms: CA_61  and  CB_62 
REMARK   26  A    between atoms: CA_61  and  C_69 
REMARK   27  A    between atoms: CB_62  and  CG2_63 
REMARK   28  A    between atoms: CB_62  and  OG1_64 
REMARK   29  A    between atoms: OG1_64  and  P_65 
REMARK       I    between atoms: C_69  and  N_71 
REMARK   30  A    between atoms: N_71  and  CA_72 
REMARK   31  A    between atoms: CA_72  and  C_73 
REMARK   32  A    between atoms: CA_72  and  CB_75 
ROOT
ATOM      1  CA  LEU d   1       2.292  10.068 -12.410  0.00  0.00     0.089 C 
ATOM      2  H   LEU d   1       2.635  11.069 -12.149  0.00  0.00     0.087 H 
ENDROOT
BRANCH   1   3
ATOM      3  N   LEU d   1       2.474   9.916 -13.859  0.00  0.00    -0.346 N 
ATOM      4  C   PRO d   1       2.449  10.955 -14.696  0.00  0.00     0.241 C 
ATOM      5  O   PRO d   1       2.344  12.125 -14.319  0.00  0.00    -0.271 OA
ATOM      6  H   LEU d   1       2.625   8.982 -14.240  0.00  0.00     0.163 HD
BRANCH   4   7
ATOM      7  CA  PRO d   1       2.559  10.650 -16.195  0.00  0.00     0.091 C 
ATOM      8  N   PRO d   1       3.434   9.518 -16.501  0.00  0.00    -0.337 N 
ATOM      9  C   PRO d   1       4.617   9.812 -16.324  0.00  0.00     0.243 C 
ATOM     10  CD  PRO d   1       2.696   8.424 -17.159  0.00  0.00    -0.001 C 
ATOM     11  O   PRO d   1       5.245  10.673 -15.748  0.00  0.00    -0.271 OA
ATOM     12  CG  PRO d   1       1.273   8.731 -16.829  0.00  0.00    -0.048 C 
ATOM     13  H   PRO d   1       3.006   7.438 -16.813  0.00  0.00     0.064 H 
ATOM     14  H   PRO d   1       2.880   8.377 -18.232  0.00  0.00     0.064 H 
ATOM     15  CB  PRO d   1       1.199  10.209 -16.754  0.00  0.00    -0.036 C 
ATOM     16  H   PRO d   1       0.592   8.333 -17.581  0.00  0.00     0.035 H 
ATOM     17  H   PRO d   1       0.969   8.266 -15.891  0.00  0.00     0.035 H 
ATOM     18  H   PRO d   1       1.002  10.653 -17.730  0.00  0.00     0.036 H 
ATOM     19  H   PRO d   1       0.376  10.540 -16.120  0.00  0.00     0.036 H 
ATOM     20  H   PRO d   1       2.944  11.573 -16.628  0.00  0.00     0.087 H 
BRANCH   9  21
ATOM     21  CA  PRO d   1       5.281   8.498 -16.537  0.00  0.00     0.092 C 
ATOM     22  N   PRO d   1       6.559   8.537 -17.288  0.00  0.00    -0.337 N 
ATOM     23  C   ASP d   1       6.783   8.994 -18.561  0.00  0.00     0.243 C 
ATOM     24  CD  PRO d   1       7.528   7.766 -16.516  0.00  0.00    -0.001 C 
ATOM     25  O   ASP d   1       5.886   9.561 -19.177  0.00  0.00    -0.271 OA
ATOM     26  CG  PRO d   1       7.105   8.111 -15.155  0.00  0.00    -0.048 C 
ATOM     27  H   PRO d   1       8.569   8.002 -16.737  0.00  0.00     0.064 H 
ATOM     28  H   PRO d   1       7.525   6.697 -16.730  0.00  0.00     0.064 H 
ATOM     29  CB  PRO d   1       5.654   7.873 -15.224  0.00  0.00    -0.036 C 
ATOM     30  H   PRO d   1       7.605   7.526 -14.383  0.00  0.00     0.035 H 
ATOM     31  H   PRO d   1       7.365   9.129 -14.864  0.00  0.00     0.035 H 
ATOM     32  H   PRO d   1       5.393   6.816 -15.166  0.00  0.00     0.036 H 
ATOM     33  H   PRO d   1       5.112   8.300 -14.380  0.00  0.00     0.036 H 
ATOM     34  H   PRO d   1       4.537   7.945 -17.110  0.00  0.00     0.087 H 
BRANCH  23  35
ATOM     35  CA  ASP d   1       8.155   8.763 -19.213  0.00  0.00     0.098 C 
ATOM     36  H   ASP d   1       8.801   8.409 -18.409  0.00  0.00     0.088 H 
BRANCH  35  37
ATOM     37  N   ASP d   1       8.012   7.784 -20.310  0.00  0.00    -0.347 N 
ATOM     38  CAU 0OB d   1       9.074   7.236 -20.809  0.00  0.00     0.218 C 
ATOM     39  OAC 0OB d   1      10.133   7.571 -20.351  0.00  0.00    -0.274 OA
ATOM     40  H   ASP d   1       7.089   7.543 -20.670  0.00  0.00     0.163 HD
BRANCH  38  41
ATOM     41  CAM 0OB d   1       8.975   6.121 -21.883  0.00  0.00     0.013 C 
ATOM     42  H   0OB d   1       9.432   6.524 -22.787  0.00  0.00     0.047 H 
ATOM     43  H   0OB d   1       7.919   5.860 -21.958  0.00  0.00     0.047 H 
BRANCH  41  44
ATOM     44  CAN 0OB d   1       9.735   4.792 -21.561  0.00  0.00    -0.027 C 
ATOM     45  H   0OB d   1      10.805   4.938 -21.706  0.00  0.00     0.041 H 
ATOM     46  H   0OB d   1       9.389   4.001 -22.227  0.00  0.00     0.041 H 
BRANCH  44  47
ATOM     47  CAW 0OB d   1       9.465   4.402 -20.125  0.00  0.00    -0.015 A 
ATOM     48  CAK 0OB d   1       8.585   3.557 -19.663  0.00  0.00    -0.059 A 
ATOM     49  CAX 0OB d   1       8.564   3.452 -18.336  0.00  0.00    -0.018 A 
ATOM     50  H   0OB d   1       7.921   2.984 -20.310  0.00  0.00     0.086 H 
ATOM     51  CAY 0OB d   1       9.453   4.279 -17.731  0.00  0.00     0.015 A 
ATOM     52  CAI 0OB d   1       7.779   2.666 -17.518  0.00  0.00    -0.072 A 
ATOM     53  SAS 0OB d   1      10.188   5.030 -18.863  0.00  0.00    -0.094 SA
ATOM     54  CAJ 0OB d   1       9.535   4.317 -16.368  0.00  0.00    -0.066 A 
ATOM     55  CAH 0OB d   1       8.734   3.532 -15.566  0.00  0.00    -0.082 A 
ATOM     56  H   0OB d   1      10.255   4.988 -15.900  0.00  0.00     0.085 H 
ATOM     57  CAG 0OB d   1       7.869   2.693 -16.166  0.00  0.00    -0.082 A 
ATOM     58  H   0OB d   1       8.799   3.589 -14.479  0.00  0.00     0.083 H 
ATOM     59  H   0OB d   1       7.241   2.035 -15.565  0.00  0.00     0.083 H 
ATOM     60  H   0OB d   1       7.055   1.994 -17.979  0.00  0.00     0.084 H 
ENDBRANCH  44  47
ENDBRANCH  41  44
ENDBRANCH  38  41
ENDBRANCH  35  37
BRANCH  35  61
ATOM     61  CB  ASP d   1       8.799   9.996 -19.785  0.00  0.00     0.043 C 
ATOM     62  H   ASP d   1       8.349  10.123 -20.770  0.00  0.00     0.052 H 
ATOM     63  H   ASP d   1       9.872   9.812 -19.726  0.00  0.00     0.052 H 
BRANCH  61  64
ATOM     64  CG  ASP d   1       8.585  11.296 -19.086  0.00  0.00     0.175 C 
ATOM     65  OD1 ASP d   1       8.463  12.305 -19.785  0.00  0.00    -0.648 OA
ATOM     66  OD2 ASP d   1       8.640  11.279 -17.871  0.00  0.00    -0.648 OA
ENDBRANCH  61  64
ENDBRANCH  35  61
ENDBRANCH  23  35
ENDBRANCH   9  21
ENDBRANCH   4   7
ENDBRANCH   1   3
BRANCH   1  67
ATOM     67  C   LEU d   1       3.135   9.071 -11.608  0.00  0.00     0.241 C 
ATOM     68  O   LEU d   1       3.375   7.946 -12.055  0.00  0.00    -0.271 OA
ATOM     69  N   HIS d   1       3.574   9.497 -10.422  0.00  0.00    -0.346 N 
ATOM     70  H   HIS d   1       3.332  10.443 -10.126  0.00  0.00     0.163 HD
BRANCH  69  71
ATOM     71  CA  HIS d   1       4.391   8.669  -9.519  0.00  0.00     0.094 C 
ATOM     72  H   HIS d   1       3.969   7.665  -9.555  0.00  0.00     0.088 H 
BRANCH  71  73
ATOM     73  C   HIS d   1       4.317   9.134  -8.058  0.00  0.00     0.241 C 
ATOM     74  O   HIS d   1       3.708  10.163  -7.759  0.00  0.00    -0.271 OA
ATOM     75  N   SER d   1       4.938   8.371  -7.155  0.00  0.00    -0.344 N 
ATOM     76  H   SER d   1       5.389   7.510  -7.464  0.00  0.00     0.163 HD
BRANCH  75  77
ATOM     77  CA  SER d   1       4.993   8.730  -5.730  0.00  0.00     0.109 C 
ATOM     78  H   SER d   1       3.999   9.082  -5.453  0.00  0.00     0.090 H 
BRANCH  77  79
ATOM     79  C   SER d   1       5.981   9.871  -5.466  0.00  0.00     0.243 C 
ATOM     80  O   SER d   1       6.660  10.336  -6.387  0.00  0.00    -0.271 OA
ATOM     81  N   TPO d   1       6.055  10.306  -4.205  0.00  0.00    -0.344 N 
ATOM     82  H   TPO d   1       5.518   9.817  -3.489  0.00  0.00     0.163 HD
BRANCH  81  83
ATOM     83  CA  TPO d   1       6.876  11.457  -3.803  0.00  0.00     0.114 C 
ATOM     84  H   TPO d   1       6.424  12.346  -4.242  0.00  0.00     0.091 H 
BRANCH  83  85
ATOM     85  CB  TPO d   1       6.862  11.633  -2.283  0.00  0.00     0.076 C 
ATOM     86  H   TPO d   1       7.292  10.733  -1.844  0.00  0.00     0.087 H 
BRANCH  85  87
ATOM     87  CG2 TPO d   1       7.698  12.819  -1.809  0.00  0.00    -0.049 C 
ATOM     88  H   TPO d   1       8.734  12.677  -2.116  0.00  0.00     0.031 H 
ATOM     89  H   TPO d   1       7.309  13.736  -2.252  0.00  0.00     0.031 H 
ATOM     90  H   TPO d   1       7.646  12.888  -0.722  0.00  0.00     0.031 H 
ENDBRANCH  85  87
BRANCH  85  91
ATOM     91  OG1 TPO d   1       5.513  11.852  -1.877  0.00  0.00    -0.275 OA
BRANCH  91  92
ATOM     92  P   TPO d   1       4.807  10.951  -0.744  0.00  0.00     0.422 P 
ATOM     93  O1P TPO d   1       5.100   9.532  -1.170  0.00  0.00    -0.617 OA
ATOM     94  O2P TPO d   1       5.489  11.357   0.541  0.00  0.00    -0.617 OA
ATOM     95  O3P TPO d   1       3.348  11.344  -0.828  0.00  0.00    -0.617 OA
ENDBRANCH  91  92
ENDBRANCH  85  91
ENDBRANCH  83  85
BRANCH  83  96
ATOM     96  C   TPO d   1       8.273  11.394  -4.358  0.00  0.00     0.243 C 
ATOM     97  O   TPO d   1       8.984  10.400  -4.183  0.00  0.00    -0.271 OA
ATOM     98  N   ALA d   1       8.656  12.465  -5.047  0.00  0.00    -0.345 N 
ATOM     99  H   ALA d   1       8.019  13.260  -5.106  0.00  0.00     0.163 HD
BRANCH  98 100
ATOM    100  CA  ALA d   1       9.942  12.554  -5.720  0.00  0.00     0.093 C 
ATOM    101  H   ALA d   1      10.402  11.566  -5.714  0.00  0.00     0.089 H 
BRANCH 100 102
ATOM    102  C   ALA d   1      10.882  13.506  -4.988  0.00  0.00     0.196 C 
ATOM    103  O   ALA d   1      11.730  13.075  -4.207  0.00  0.00    -0.646 OA
ATOM    104  H   ALA d   1      10.802  14.580  -5.158  0.00  0.00    -0.646 OA
ENDBRANCH 100 102
BRANCH 100 105
ATOM    105  CB  ALA d   1       9.745  12.996  -7.163  0.00  0.00    -0.048 C 
ATOM    106  H   ALA d   1       9.118  12.271  -7.681  0.00  0.00     0.030 H 
ATOM    107  H   ALA d   1       9.262  13.973  -7.180  0.00  0.00     0.030 H 
ATOM    108  H   ALA d   1      10.714  13.059  -7.658  0.00  0.00     0.030 H 
ENDBRANCH 100 105
ENDBRANCH  98 100
ENDBRANCH  83  96
ENDBRANCH  81  83
ENDBRANCH  77  79
BRANCH  77 109
ATOM    109  CB  SER d   1       5.333   7.511  -4.862  0.00  0.00     0.044 C 
ATOM    110  H   SER d   1       4.614   6.722  -5.080  0.00  0.00     0.077 H 
ATOM    111  H   SER d   1       5.294   7.812  -3.815  0.00  0.00     0.077 H 
BRANCH 109 112
ATOM    112  OG  SER d   1       6.632   7.021  -5.138  0.00  0.00    -0.398 OA
ATOM    113  H   SER d   1       6.811   6.261  -4.580  0.00  0.00     0.209 HD
ENDBRANCH 109 112
ENDBRANCH  77 109
ENDBRANCH  75  77
ENDBRANCH  71  73
BRANCH  71 114
ATOM    114  CB  HIS d   1       5.853   8.611  -9.994  0.00  0.00     0.004 C 
ATOM    115  H   HIS d   1       5.882   7.960 -10.868  0.00  0.00     0.046 H 
ATOM    116  H   HIS d   1       6.451   8.257  -9.154  0.00  0.00     0.046 H 
BRANCH 114 117
ATOM    117  CG  HIS d   1       6.416   9.937 -10.410  0.00  0.00     0.053 A 
ATOM    118  ND1 HIS d   1       6.788  10.907  -9.504  0.00  0.00    -0.247 NA
ATOM    119  CE1 HIS d   1       7.253  11.959 -10.154  0.00  0.00     0.064 A 
ATOM    120  NE2 HIS d   1       7.202  11.704 -11.449  0.00  0.00    -0.359 N 
ATOM    121  H   HIS d   1       7.617  12.880  -9.699  0.00  0.00     0.143 H 
ATOM    122  CD2 HIS d   1       6.685  10.446 -11.636  0.00  0.00     0.002 A 
ATOM    123  H   HIS d   1       7.499  12.339 -12.190  0.00  0.00     0.166 HD
ATOM    124  H   HIS d   1       6.521   9.950 -12.592  0.00  0.00     0.114 H 
ENDBRANCH 114 117
ENDBRANCH  71 114
ENDBRANCH  69  71
ENDBRANCH   1  67
BRANCH   1 125
ATOM    125  CB  LEU d   1       0.811   9.919 -12.039  0.00  0.00    -0.035 C 
ATOM    126  H   LEU d   1       0.766  10.086 -10.963  0.00  0.00     0.037 H 
ATOM    127  H   LEU d   1       0.516   8.942 -12.422  0.00  0.00     0.037 H 
BRANCH 125 128
ATOM    128  CG  LEU d   1      -0.192  10.910 -12.644  0.00  0.00    -0.059 C 
ATOM    129  H   LEU d   1       0.236  11.281 -13.575  0.00  0.00     0.038 H 
BRANCH 128 130
ATOM    130  CD1 LEU d   1      -1.509  10.225 -12.981  0.00  0.00    -0.073 C 
ATOM    131  H   LEU d   1      -1.329   9.428 -13.703  0.00  0.00     0.028 H 
ATOM    132  H   LEU d   1      -1.941   9.804 -12.073  0.00  0.00     0.028 H 
ATOM    133  H   LEU d   1      -2.198  10.954 -13.408  0.00  0.00     0.028 H 
ENDBRANCH 128 130
BRANCH 128 134
ATOM    134  CD2 LEU d   1      -0.410  12.112 -11.731  0.00  0.00    -0.073 C 
ATOM    135  H   LEU d   1      -0.797  11.772 -10.771  0.00  0.00     0.028 H 
ATOM    136  H   LEU d   1       0.538  12.629 -11.580  0.00  0.00     0.028 H 
ATOM    137  H   LEU d   1      -1.126  12.792 -12.192  0.00  0.00     0.028 H 
ENDBRANCH 128 134
ENDBRANCH 125 128
ENDBRANCH   1 125
TORSDOF 32
