REMARK  12 active torsions:
REMARK  status: ('A' for Active; 'I' for Inactive)
REMARK    1  A    between atoms: CAR_18  and  CAA_1 
REMARK    2  A    between atoms: CAR_18  and  CAB_2 
REMARK    3  A    between atoms: CAS_19  and  CAC_3 
REMARK    4  A    between atoms: CAD_4  and  CAR_18 
REMARK    5  A    between atoms: CAG_7  and  CAE_5 
REMARK    6  A    between atoms: CAJ_10  and  CAF_6 
REMARK    7  A    between atoms: NAP_16  and  CAG_7 
REMARK    8  A    between atoms: CAI_9  and  CAH_8 
REMARK    9  A    between atoms: CAH_8  and  NAP_16 
REMARK   10  A    between atoms: NAQ_17  and  CAI_9 
REMARK   11  A    between atoms: CAS_19  and  CAJ_10 
REMARK   12  A    between atoms: CAX_24  and  NAQ_17 
ROOT
ATOM      1  CAH 3RX d   1      -6.329 -27.883   9.895  0.00  0.00     0.104 C 
ATOM      2  H15 3RX d   1      -6.791 -27.129  10.549  0.00  0.00     0.078 H 
ATOM      3  H16 3RX d   1      -6.477 -27.596   8.843  0.00  0.00     0.078 H 
ENDROOT
BRANCH   1   4
ATOM      4  CAI 3RX d   1      -6.972 -29.241  10.149  0.00  0.00     0.104 C 
ATOM      5  H17 3RX d   1      -6.644 -29.618  11.129  0.00  0.00     0.078 H 
ATOM      6  H18 3RX d   1      -6.656 -29.942   9.363  0.00  0.00     0.078 H 
BRANCH   4   7
ATOM      7  NAQ 3RX d   1      -8.447 -29.133  10.139  0.00  0.00    -0.069 N 
ATOM      8  H33 3RX d   1      -8.819 -30.040   9.905  0.00  0.00     0.277 HD
ATOM      9  H34 3RX d   1      -8.701 -28.471   9.422  0.00  0.00     0.277 HD
BRANCH   7  10
ATOM     10  CAX 3RX d   1      -9.079 -28.701  11.387  0.00  0.00     0.109 C 
ATOM     11  CAV 3RX d   1     -10.111 -29.692  11.884  0.00  0.00    -0.026 C 
ATOM     12  CAL 3RX d   1     -10.770 -29.218  13.156  0.00  0.00    -0.056 C 
ATOM     13  CAM 3RX d   1     -11.234 -29.957  10.889  0.00  0.00    -0.056 C 
ATOM     14  H38 3RX d   1      -9.590 -30.640  12.084  0.00  0.00     0.043 H 
ATOM     15  CAT 3RX d   1     -11.456 -27.905  12.868  0.00  0.00    -0.053 C 
ATOM     16  H23 3RX d   1     -11.510 -29.960  13.491  0.00  0.00     0.034 H 
ATOM     17  H24 3RX d   1     -10.011 -29.078  13.939  0.00  0.00     0.034 H 
ATOM     18  CAK 3RX d   1     -12.536 -28.106  11.835  0.00  0.00    -0.058 C 
ATOM     19  CAN 3RX d   1     -10.452 -26.911  12.341  0.00  0.00    -0.056 C 
ATOM     20  H36 3RX d   1     -11.904 -27.518  13.795  0.00  0.00     0.040 H 
ATOM     21  CAU 3RX d   1     -11.897 -28.660  10.577  0.00  0.00    -0.053 C 
ATOM     22  H21 3RX d   1     -13.021 -27.144  11.613  0.00  0.00     0.034 H 
ATOM     23  H22 3RX d   1     -13.286 -28.816  12.214  0.00  0.00     0.034 H 
ATOM     24  CAO 3RX d   1     -10.837 -27.729  10.039  0.00  0.00    -0.056 C 
ATOM     25  H37 3RX d   1     -12.675 -28.811   9.814  0.00  0.00     0.040 H 
ATOM     26  CAW 3RX d   1      -9.797 -27.445  11.091  0.00  0.00    -0.026 C 
ATOM     27  H29 3RX d   1     -11.308 -26.784   9.732  0.00  0.00     0.034 H 
ATOM     28  H30 3RX d   1     -10.353 -28.197   9.169  0.00  0.00     0.034 H 
ATOM     29  H39 3RX d   1      -9.085 -26.697  10.710  0.00  0.00     0.043 H 
ATOM     30  H27 3RX d   1      -9.682 -26.731  13.106  0.00  0.00     0.034 H 
ATOM     31  H28 3RX d   1     -10.964 -25.966  12.107  0.00  0.00     0.034 H 
ATOM     32  H25 3RX d   1     -10.820 -30.394   9.969  0.00  0.00     0.034 H 
ATOM     33  H26 3RX d   1     -11.964 -30.652  11.329  0.00  0.00     0.034 H 
ATOM     34  H40 3RX d   1      -8.312 -28.543  12.159  0.00  0.00     0.085 H 
ENDBRANCH   7  10
ENDBRANCH   4   7
ENDBRANCH   1   4
BRANCH   1  35
ATOM     35  NAP 3RX d   1      -4.900 -27.969  10.181  0.00  0.00    -0.070 N 
ATOM     36  H31 3RX d   1      -4.733 -27.605  11.106  0.00  0.00     0.277 HD
ATOM     37  H32 3RX d   1      -4.620 -28.937  10.145  0.00  0.00     0.277 HD
BRANCH  35  38
ATOM     38  CAG 3RX d   1      -4.092 -27.209   9.223  0.00  0.00     0.097 C 
ATOM     39  H13 3RX d   1      -4.561 -27.217   8.228  0.00  0.00     0.081 H 
ATOM     40  H14 3RX d   1      -3.966 -26.170   9.561  0.00  0.00     0.081 H 
BRANCH  38  41
ATOM     41  CAE 3RX d   1      -2.876 -27.861   9.193  0.00  0.00    -0.076 C 
ATOM     42  CAS 3RX d   1      -1.559 -27.417   9.225  0.00  0.00    -0.083 C 
ATOM     43  H11 3RX d   1      -2.967 -28.945   9.132  0.00  0.00     0.079 H 
BRANCH  42  44
ATOM     44  CAC 3RX d   1      -1.194 -25.942   9.292  0.00  0.00    -0.054 C 
ATOM     45  H7  3RX d   1      -2.109 -25.335   9.233  0.00  0.00     0.033 H 
ATOM     46  H8  3RX d   1      -0.531 -25.690   8.451  0.00  0.00     0.033 H 
ATOM     47  H9  3RX d   1      -0.677 -25.735  10.241  0.00  0.00     0.033 H 
ENDBRANCH  42  44
BRANCH  42  48
ATOM     48  CAJ 3RX d   1      -0.535 -28.540   9.280  0.00  0.00    -0.030 C 
ATOM     49  H19 3RX d   1      -0.062 -28.512  10.273  0.00  0.00     0.045 H 
ATOM     50  H20 3RX d   1      -1.076 -29.490   9.159  0.00  0.00     0.045 H 
BRANCH  48  51
ATOM     51  CAF 3RX d   1       0.548 -28.505   8.264  0.00  0.00    -0.102 C 
ATOM     52  CAD 3RX d   1       1.667 -29.126   8.749  0.00  0.00    -0.103 C 
ATOM     53  H10 3RX d   1       1.687 -29.480   9.779  0.00  0.00     0.076 H 
ATOM     54  H12 3RX d   1       0.464 -28.052   7.277  0.00  0.00     0.076 H 
BRANCH  52  55
ATOM     55  CAR 3RX d   1       2.744 -29.302   7.958  0.00  0.00    -0.045 C 
ATOM     56  H35 3RX d   1       2.388 -30.298   7.657  0.00  0.00     0.044 H 
BRANCH  55  57
ATOM     57  CAA 3RX d   1       4.036 -29.911   8.419  0.00  0.00    -0.070 C 
ATOM     58  H1  3RX d   1       4.748 -29.938   7.581  0.00  0.00     0.028 H 
ATOM     59  H2  3RX d   1       3.852 -30.935   8.777  0.00  0.00     0.028 H 
ATOM     60  H3  3RX d   1       4.455 -29.306   9.237  0.00  0.00     0.028 H 
ENDBRANCH  55  57
BRANCH  55  61
ATOM     61  CAB 3RX d   1       2.580 -28.781   6.586  0.00  0.00    -0.070 C 
ATOM     62  H4  3RX d   1       1.562 -28.383   6.464  0.00  0.00     0.028 H 
ATOM     63  H5  3RX d   1       2.745 -29.594   5.863  0.00  0.00     0.028 H 
ATOM     64  H6  3RX d   1       3.311 -27.979   6.409  0.00  0.00     0.028 H 
ENDBRANCH  55  61
ENDBRANCH  52  55
ENDBRANCH  48  51
ENDBRANCH  42  48
ENDBRANCH  38  41
ENDBRANCH  35  38
ENDBRANCH   1  35
TORSDOF 12
