REMARK  7 active torsions:
REMARK  status: ('A' for Active; 'I' for Inactive)
REMARK    1  A    between atoms: C13_11  and  N1_7 
REMARK    2  A    between atoms: C14_12  and  C13_11 
REMARK    3  A    between atoms: C15_13  and  C14_12 
REMARK    4  A    between atoms: N2_18  and  C15_13 
REMARK    5  A    between atoms: C17_15  and  C16_14 
REMARK       I    between atoms: C16_14  and  N2_18 
REMARK    6  A    between atoms: C21_20  and  C22_21 
REMARK    7  A    between atoms: C21_20  and  N3_27 
ROOT
ATOM      1  C14 0NN d   1      10.488 -55.836   4.068  0.00  0.00    -0.025 C 
ATOM      2  H   0NN d   1      10.029 -56.658   3.519  0.00  0.00     0.037 H 
ATOM      3  H   0NN d   1       9.710 -55.224   4.524  0.00  0.00     0.037 H 
ENDROOT
BRANCH   1   4
ATOM      4  C13 0NN d   1      11.305 -54.987   3.115  0.00  0.00     0.115 C 
ATOM      5  H   0NN d   1      11.691 -54.126   3.661  0.00  0.00     0.080 H 
ATOM      6  H   0NN d   1      12.115 -55.596   2.714  0.00  0.00     0.080 H 
BRANCH   4   7
ATOM      7  N1  0NN d   1      10.495 -54.509   2.009  0.00  0.00     0.088 N 
ATOM      8  C10 0NN d   1      10.408 -55.508   0.933  0.00  0.00     0.116 C 
ATOM      9  C9  0NN d   1       9.435 -55.038  -0.111  0.00  0.00    -0.007 C 
ATOM     10  H   0NN d   1      10.067 -56.457   1.346  0.00  0.00     0.080 H 
ATOM     11  H   0NN d   1      11.391 -55.640   0.480  0.00  0.00     0.080 H 
ATOM     12  C8  0NN d   1       9.867 -53.747  -0.763  0.00  0.00     0.092 C 
ATOM     13  H   0NN d   1       8.476 -54.864   0.377  0.00  0.00     0.040 H 
ATOM     14  H   0NN d   1       9.376 -55.803  -0.885  0.00  0.00     0.040 H 
ATOM     15  C1  0NN d   1       9.035 -53.198  -1.925  0.00  0.00    -0.015 A 
ATOM     16  O1  0NN d   1      10.915 -54.384  -1.442  0.00  0.00    -0.371 OA
ATOM     17  C11 0NN d   1      10.228 -52.693   0.305  0.00  0.00    -0.007 C 
ATOM     18  C2  0NN d   1       7.610 -52.707  -2.006  0.00  0.00    -0.073 A 
ATOM     19  C6  0NN d   1       9.816 -53.193  -3.038  0.00  0.00    -0.025 A 
ATOM     20  C3  0NN d   1       7.105 -52.254  -3.207  0.00  0.00    -0.082 A 
ATOM     21  H   0NN d   1       6.981 -52.710  -1.116  0.00  0.00     0.084 H 
ATOM     22  C4  0NN d   1       7.964 -52.247  -4.430  0.00  0.00    -0.082 A 
ATOM     23  H   0NN d   1       6.076 -51.900  -3.264  0.00  0.00     0.083 H 
ATOM     24  C5  0NN d   1       9.264 -52.696  -4.356  0.00  0.00    -0.074 A 
ATOM     25  H   0NN d   1       7.563 -51.888  -5.378  0.00  0.00     0.083 H 
ATOM     26  H   0NN d   1       9.894 -52.693  -5.245  0.00  0.00     0.084 H 
ATOM     27  C7  0NN d   1      11.164 -53.734  -2.651  0.00  0.00     0.045 C 
ATOM     28  H   0NN d   1      11.581 -54.400  -3.407  0.00  0.00     0.081 H 
ATOM     29  H   0NN d   1      11.919 -52.953  -2.559  0.00  0.00     0.081 H 
ATOM     30  C12 0NN d   1      11.096 -53.254   1.466  0.00  0.00     0.116 C 
ATOM     31  H   0NN d   1      10.808 -51.913  -0.189  0.00  0.00     0.040 H 
ATOM     32  H   0NN d   1       9.294 -52.335   0.739  0.00  0.00     0.040 H 
ATOM     33  H   0NN d   1      12.094 -53.474   1.087  0.00  0.00     0.080 H 
ATOM     34  H   0NN d   1      11.145 -52.511   2.262  0.00  0.00     0.080 H 
ENDBRANCH   4   7
ENDBRANCH   1   4
BRANCH   1  35
ATOM     35  C15 0NN d   1      11.395 -56.396   5.156  0.00  0.00    -0.003 C 
ATOM     36  H   0NN d   1      11.834 -55.562   5.703  0.00  0.00     0.064 H 
ATOM     37  H   0NN d   1      12.161 -57.011   4.684  0.00  0.00     0.064 H 
BRANCH  35  38
ATOM     38  N2  0NN d   1      10.643 -57.235   6.108  0.00  0.00    -0.359 N 
ATOM     39  C16 0NN d   1      10.372 -58.642   5.775  0.00  0.00     0.251 C 
ATOM     40  O2  0NN d   1      10.776 -59.097   4.724  0.00  0.00    -0.271 OA
ATOM     41  H   0NN d   1      10.314 -56.843   6.990  0.00  0.00     0.162 HD
BRANCH  39  42
ATOM     42  C17 0NN d   1       9.589 -59.563   6.753  0.00  0.00     0.210 C 
ATOM     43  C18 0NN d   1      10.429 -59.969   7.900  0.00  0.00    -0.026 C 
ATOM     44  C19 0NN d   1      10.066 -59.018   8.999  0.00  0.00    -0.038 C 
ATOM     45  H   0NN d   1      11.491 -59.924   7.660  0.00  0.00     0.036 H 
ATOM     46  H   0NN d   1      10.250 -61.005   8.186  0.00  0.00     0.036 H 
ATOM     47  C20 0NN d   1       8.607 -58.666   8.748  0.00  0.00     0.115 C 
ATOM     48  H   0NN d   1      10.702 -58.133   8.994  0.00  0.00     0.035 H 
ATOM     49  H   0NN d   1      10.211 -59.463   9.983  0.00  0.00     0.035 H 
ATOM     50  N3  0NN d   1       8.382 -58.978   7.333  0.00  0.00     0.106 N 
ATOM     51  H   0NN d   1       8.399 -57.619   8.970  0.00  0.00     0.080 H 
ATOM     52  H   0NN d   1       7.937 -59.229   9.398  0.00  0.00     0.080 H 
ATOM     53  H   0NN d   1       9.302 -60.401   6.118  0.00  0.00     0.103 H 
BRANCH  50  54
ATOM     54  C21 0NN d   1       7.824 -57.829   6.583  0.00  0.00     0.138 C 
ATOM     55  H   0NN d   1       6.895 -57.519   7.061  0.00  0.00     0.087 H 
ATOM     56  H   0NN d   1       8.556 -57.021   6.587  0.00  0.00     0.087 H 
BRANCH  54  57
ATOM     57  C22 0NN d   1       7.523 -58.213   5.125  0.00  0.00    -0.030 A 
ATOM     58  C23 0NN d   1       7.584 -57.254   4.146  0.00  0.00    -0.075 A 
ATOM     59  C24 0NN d   1       7.291 -57.619   2.710  0.00  0.00    -0.082 A 
ATOM     60  H   0NN d   1       7.844 -56.228   4.405  0.00  0.00     0.084 H 
ATOM     61  C25 0NN d   1       6.967 -58.905   2.389  0.00  0.00    -0.083 A 
ATOM     62  H   0NN d   1       7.338 -56.857   1.932  0.00  0.00     0.083 H 
ATOM     63  C26 0NN d   1       6.900 -59.959   3.464  0.00  0.00    -0.082 A 
ATOM     64  H   0NN d   1       6.756 -59.170   1.353  0.00  0.00     0.083 H 
ATOM     65  C27 0NN d   1       7.164 -59.630   4.770  0.00  0.00    -0.075 A 
ATOM     66  H   0NN d   1       6.641 -60.985   3.204  0.00  0.00     0.083 H 
ATOM     67  H   0NN d   1       7.114 -60.393   5.547  0.00  0.00     0.084 H 
ENDBRANCH  54  57
ENDBRANCH  50  54
ENDBRANCH  39  42
ENDBRANCH  35  38
ENDBRANCH   1  35
TORSDOF 7
