REMARK  6 active torsions:
REMARK  status: ('A' for Active; 'I' for Inactive)
REMARK    1  A    between atoms: C2_2  and  N2_3 
REMARK    2  A    between atoms: C9_11  and  C10_13 
REMARK    3  A    between atoms: C10_13  and  N1'_12 
REMARK    4  A    between atoms: C3'_15  and  O3'_16 
REMARK    5  A    between atoms: C4'_17  and  C5'_18 
REMARK    6  A    between atoms: C5'_18  and  O5'_19 
ROOT
ATOM      1  C10 IM5 d   1     -18.122  31.452 -47.621  0.00  0.00     0.111 C 
ATOM      2  H8  IM5 d   1     -18.123  31.273 -46.536  0.00  0.00     0.083 H 
ATOM      3  H9  IM5 d   1     -18.581  32.429 -47.832  0.00  0.00     0.083 H 
ENDROOT
BRANCH   1   4
ATOM      4  C9  IM5 d   1     -18.987  30.368 -48.282  0.00  0.00     0.013 A 
ATOM      5  C4  IM5 d   1     -19.160  29.109 -47.820  0.00  0.00     0.090 A 
ATOM      6  N3  IM5 d   1     -18.600  28.444 -46.757  0.00  0.00    -0.189 N 
ATOM      7  C5  IM5 d   1     -20.032  28.469 -48.659  0.00  0.00     0.129 A 
ATOM      8  C2  IM5 d   1     -18.929  27.145 -46.531  0.00  0.00     0.679 A 
ATOM      9  H4  IM5 d   1     -17.935  28.926 -46.135  0.00  0.00     0.184 HD
ATOM     10  N1  IM5 d   1     -19.846  26.491 -47.373  0.00  0.00    -0.154 N 
ATOM     11  C6  IM5 d   1     -20.392  27.168 -48.452  0.00  0.00     0.288 A 
ATOM     12  H1  IM5 d   1     -20.103  25.541 -47.194  0.00  0.00     0.187 HD
ATOM     13  O6  IM5 d   1     -21.176  26.519 -49.182  0.00  0.00    -0.265 OA
ATOM     14  N7  IM5 d   1     -20.389  29.362 -49.603  0.00  0.00    -0.359 N 
ATOM     15  C8  IM5 d   1     -19.776  30.528 -49.353  0.00  0.00    -0.012 A 
ATOM     16  H5  IM5 d   1     -21.029  29.179 -50.389  0.00  0.00     0.165 HD
ATOM     17  H6  IM5 d   1     -19.898  31.448 -49.923  0.00  0.00     0.112 H 
BRANCH   8  18
ATOM     18  N2  IM5 d   1     -18.476  26.484 -45.481  0.00  0.00    -0.234 N 
ATOM     19  H2  IM5 d   1     -17.803  26.931 -44.842  0.00  0.00     0.174 HD
ATOM     20  H3  IM5 d   1     -18.796  25.521 -45.301  0.00  0.00     0.174 HD
ENDBRANCH   8  18
ENDBRANCH   1   4
BRANCH   1  21
ATOM     21  N1' IM5 d   1     -16.680  31.501 -48.087  0.00  0.00    -0.064 N 
ATOM     22  C2' IM5 d   1     -15.909  30.367 -47.632  0.00  0.00     0.108 C 
ATOM     23  C3' IM5 d   1     -14.544  30.720 -48.306  0.00  0.00     0.066 C 
ATOM     24  H10 IM5 d   1     -16.318  29.415 -48.001  0.00  0.00     0.080 H 
ATOM     25  H11 IM5 d   1     -15.832  30.333 -46.535  0.00  0.00     0.080 H 
ATOM     26  C4' IM5 d   1     -14.988  31.176 -49.704  0.00  0.00     0.016 C 
ATOM     27  H12 IM5 d   1     -13.905  29.827 -48.371  0.00  0.00     0.086 H 
ATOM     28  C6' IM5 d   1     -16.511  31.564 -49.531  0.00  0.00     0.091 C 
ATOM     29  H14 IM5 d   1     -14.394  32.032 -50.058  0.00  0.00     0.049 H 
ATOM     30  H18 IM5 d   1     -16.711  32.576 -49.913  0.00  0.00     0.076 H 
ATOM     31  H19 IM5 d   1     -17.167  30.843 -50.041  0.00  0.00     0.076 H 
ATOM     32  H7  IM5 d   1     -16.277  32.336 -47.692  0.00  0.00     0.280 HD
BRANCH  23  33
ATOM     33  O3' IM5 d   1     -13.813  31.761 -47.608  0.00  0.00    -0.393 OA
ATOM     34  H13 IM5 d   1     -12.996  31.932 -48.062  0.00  0.00     0.210 HD
ENDBRANCH  23  33
BRANCH  26  35
ATOM     35  C5' IM5 d   1     -14.861  30.021 -50.651  0.00  0.00     0.024 C 
ATOM     36  H15 IM5 d   1     -15.290  29.115 -50.199  0.00  0.00     0.074 H 
ATOM     37  H16 IM5 d   1     -13.802  29.845 -50.890  0.00  0.00     0.074 H 
BRANCH  35  38
ATOM     38  O5' IM5 d   1     -15.584  30.364 -51.846  0.00  0.00    -0.400 OA
ATOM     39  H17 IM5 d   1     -15.210  31.150 -52.227  0.00  0.00     0.209 HD
ENDBRANCH  35  38
ENDBRANCH  26  35
ENDBRANCH   1  21
TORSDOF 6
