REMARK  4 active torsions:
REMARK  status: ('A' for Active; 'I' for Inactive)
REMARK    1  A    between atoms: C1_1  and  C2_2 
REMARK    2  A    between atoms: C2_2  and  C3_3 
REMARK    3  A    between atoms: C6_6  and  C9_9 
REMARK    4  A    between atoms: N13_13  and  C14_14 
ROOT
ATOM      1  C9  0O7 d   1     -10.581   4.255 -16.393  0.00  0.00    -0.025 A 
ATOM      2  C10 0O7 d   1     -10.813   3.230 -17.327  0.00  0.00    -0.070 A 
ATOM      3  C11 0O7 d   1     -11.110   1.926 -16.937  0.00  0.00    -0.055 A 
ATOM      4  C12 0O7 d   1     -11.205   1.598 -15.583  0.00  0.00     0.057 A 
ATOM      5  N13 0O7 d   1     -11.487   0.264 -15.266  0.00  0.00    -0.275 N 
ATOM      6  S15 0O7 d   1     -12.192  -0.109 -13.806  0.00  0.00     0.268 S 
ATOM      7  O16 0O7 d   1     -13.578   0.155 -14.079  0.00  0.00    -0.200 OA
ATOM      8  O17 0O7 d   1     -11.781  -1.427 -13.392  0.00  0.00    -0.200 OA
ATOM      9  C18 0O7 d   1     -11.604   1.099 -12.682  0.00  0.00     0.128 A 
ATOM     10  C19 0O7 d   1     -11.577   1.115 -11.351  0.00  0.00     0.046 A 
ATOM     11  N20 0O7 d   1     -11.076   2.302 -10.993  0.00  0.00    -0.185 NA
ATOM     12  N22 0O7 d   1     -10.758   3.043 -12.130  0.00  0.00    -0.276 N 
ATOM     13  C23 0O7 d   1     -11.089   2.326 -13.166  0.00  0.00     0.087 A 
ATOM     14  C24 0O7 d   1     -10.989   2.625 -14.615  0.00  0.00     0.022 A 
ATOM     15  C25 0O7 d   1     -10.670   3.931 -15.026  0.00  0.00    -0.058 A 
ATOM     16  H   0O7 d   1     -10.759   3.463 -18.390  0.00  0.00     0.084 H 
ATOM     17  H   0O7 d   1     -11.269   1.157 -17.693  0.00  0.00     0.087 H 
ATOM     18  H   0O7 d   1     -11.900   0.316 -10.683  0.00  0.00     0.119 H 
ATOM     19  H   0O7 d   1     -10.343   3.974 -12.148  0.00  0.00     0.189 HD
ATOM     20  H   0O7 d   1     -10.489   4.702 -14.277  0.00  0.00     0.086 H 
ENDROOT
BRANCH   1  21
ATOM     21  C6  0O7 d   1     -10.204   5.637 -16.849  0.00  0.00    -0.026 A 
ATOM     22  C5  0O7 d   1     -10.771   6.245 -17.982  0.00  0.00    -0.072 A 
ATOM     23  C4  0O7 d   1     -10.352   7.522 -18.354  0.00  0.00    -0.076 A 
ATOM     24  H   0O7 d   1     -11.531   5.724 -18.564  0.00  0.00     0.084 H 
ATOM     25  C3  0O7 d   1      -9.376   8.209 -17.640  0.00  0.00    -0.059 A 
ATOM     26  H   0O7 d   1     -10.801   7.994 -19.228  0.00  0.00     0.084 H 
ATOM     27  C8  0O7 d   1      -8.783   7.622 -16.523  0.00  0.00    -0.076 A 
ATOM     28  C7  0O7 d   1      -9.201   6.347 -16.142  0.00  0.00    -0.072 A 
ATOM     29  H   0O7 d   1      -8.011   8.147 -15.961  0.00  0.00     0.084 H 
ATOM     30  H   0O7 d   1      -8.741   5.881 -15.271  0.00  0.00     0.084 H 
BRANCH  25  31
ATOM     31  C2  0O7 d   1      -8.967   9.600 -18.083  0.00  0.00    -0.044 C 
ATOM     32  H   0O7 d   1      -9.848  10.201 -18.307  0.00  0.00     0.039 H 
ATOM     33  H   0O7 d   1      -8.415  10.104 -17.290  0.00  0.00     0.039 H 
BRANCH  31  34
ATOM     34  C1  0O7 d   1      -8.097   9.454 -19.323  0.00  0.00    -0.073 C 
ATOM     35  H   0O7 d   1      -7.217   8.859 -19.080  0.00  0.00     0.028 H 
ATOM     36  H   0O7 d   1      -8.667   8.958 -20.109  0.00  0.00     0.028 H 
ATOM     37  H   0O7 d   1      -7.787  10.441 -19.666  0.00  0.00     0.028 H 
ENDBRANCH  31  34
ENDBRANCH  25  31
ENDBRANCH   1  21
BRANCH   5  38
ATOM     38  C14 0O7 d   1     -11.196  -0.817 -16.216  0.00  0.00    -0.003 C 
ATOM     39  H   0O7 d   1     -10.510  -1.529 -15.756  0.00  0.00     0.058 H 
ATOM     40  H   0O7 d   1     -12.123  -1.324 -16.483  0.00  0.00     0.058 H 
ATOM     41  H   0O7 d   1     -10.739  -0.398 -17.113  0.00  0.00     0.058 H 
ENDBRANCH   5  38
TORSDOF 4
