REMARK  6 active torsions:
REMARK  status: ('A' for Active; 'I' for Inactive)
REMARK    1  A    between atoms: C1_1  and  C2_2 
REMARK    2  A    between atoms: C2_2  and  C3_3 
REMARK    3  A    between atoms: C6_6  and  C9_9 
REMARK    4  A    between atoms: N13_13  and  C14_14 
REMARK    5  A    between atoms: N21_21  and  C22_22 
REMARK    6  A    between atoms: C22_22  and  C23_23 
ROOT
ATOM      1  C9  0PF d   1       9.765   4.110  20.863  0.00  0.00    -0.025 A 
ATOM      2  C10 0PF d   1       9.511   3.082  19.951  0.00  0.00    -0.070 A 
ATOM      3  C11 0PF d   1       9.040   1.875  20.395  0.00  0.00    -0.055 A 
ATOM      4  C12 0PF d   1       8.794   1.650  21.753  0.00  0.00     0.057 A 
ATOM      5  N13 0PF d   1       8.290   0.399  22.133  0.00  0.00    -0.275 N 
ATOM      6  S15 0PF d   1       8.597  -0.175  23.651  0.00  0.00     0.268 S 
ATOM      7  O16 0PF d   1       7.444  -0.919  24.018  0.00  0.00    -0.200 OA
ATOM      8  O17 0PF d   1       9.923  -0.686  23.616  0.00  0.00    -0.200 OA
ATOM      9  C18 0PF d   1       8.648   1.258  24.674  0.00  0.00     0.128 A 
ATOM     10  C19 0PF d   1       8.526   1.362  26.031  0.00  0.00     0.047 A 
ATOM     11  N20 0PF d   1       8.643   2.632  26.333  0.00  0.00    -0.183 NA
ATOM     12  N21 0PF d   1       8.853   3.393  25.166  0.00  0.00    -0.268 N 
ATOM     13  C24 0PF d   1       8.837   2.515  24.127  0.00  0.00     0.090 A 
ATOM     14  C25 0PF d   1       9.036   2.690  22.669  0.00  0.00     0.022 A 
ATOM     15  C26 0PF d   1       9.532   3.907  22.210  0.00  0.00    -0.058 A 
ATOM     16  H   0PF d   1       9.688   3.241  18.887  0.00  0.00     0.084 H 
ATOM     17  H   0PF d   1       8.854   1.076  19.677  0.00  0.00     0.087 H 
ATOM     18  H   0PF d   1       8.362   0.543  26.731  0.00  0.00     0.119 H 
ATOM     19  H   0PF d   1       9.739   4.708  22.920  0.00  0.00     0.086 H 
ENDROOT
BRANCH   1  20
ATOM     20  C6  0PF d   1      10.276   5.425  20.405  0.00  0.00    -0.026 A 
ATOM     21  C5  0PF d   1       9.762   5.982  19.231  0.00  0.00    -0.072 A 
ATOM     22  C4  0PF d   1      10.214   7.208  18.796  0.00  0.00    -0.076 A 
ATOM     23  H   0PF d   1       9.004   5.446  18.660  0.00  0.00     0.084 H 
ATOM     24  C3  0PF d   1      11.187   7.888  19.519  0.00  0.00    -0.059 A 
ATOM     25  H   0PF d   1       9.808   7.646  17.884  0.00  0.00     0.084 H 
ATOM     26  C8  0PF d   1      11.702   7.333  20.689  0.00  0.00    -0.076 A 
ATOM     27  C7  0PF d   1      11.252   6.109  21.139  0.00  0.00    -0.072 A 
ATOM     28  H   0PF d   1      12.465   7.870  21.252  0.00  0.00     0.084 H 
ATOM     29  H   0PF d   1      11.652   5.679  22.057  0.00  0.00     0.084 H 
BRANCH  24  30
ATOM     30  C2  0PF d   1      11.667   9.237  19.012  0.00  0.00    -0.044 C 
ATOM     31  H   0PF d   1      10.986   9.583  18.234  0.00  0.00     0.039 H 
ATOM     32  H   0PF d   1      11.690   9.939  19.846  0.00  0.00     0.039 H 
BRANCH  30  33
ATOM     33  C1  0PF d   1      13.075   9.125  18.422  0.00  0.00    -0.073 C 
ATOM     34  H   0PF d   1      13.763   8.772  19.191  0.00  0.00     0.028 H 
ATOM     35  H   0PF d   1      13.064   8.420  17.591  0.00  0.00     0.028 H 
ATOM     36  H   0PF d   1      13.397  10.103  18.066  0.00  0.00     0.028 H 
ENDBRANCH  30  33
ENDBRANCH  24  30
ENDBRANCH   1  20
BRANCH   5  37
ATOM     37  C14 0PF d   1       7.458  -0.427  21.241  0.00  0.00    -0.003 C 
ATOM     38  H   0PF d   1       7.939  -1.393  21.089  0.00  0.00     0.058 H 
ATOM     39  H   0PF d   1       6.478  -0.575  21.694  0.00  0.00     0.058 H 
ATOM     40  H   0PF d   1       7.344   0.078  20.282  0.00  0.00     0.058 H 
ENDBRANCH   5  37
BRANCH  12  41
ATOM     41  C22 0PF d   1       9.011   4.862  25.128  0.00  0.00     0.014 C 
ATOM     42  H   0PF d   1       8.393   5.299  25.912  0.00  0.00     0.066 H 
ATOM     43  H   0PF d   1       8.709   5.219  24.143  0.00  0.00     0.066 H 
BRANCH  41  44
ATOM     44  C23 0PF d   1      10.466   5.269  25.370  0.00  0.00    -0.059 C 
ATOM     45  H   0PF d   1      10.784   4.910  26.349  0.00  0.00     0.029 H 
ATOM     46  H   0PF d   1      11.098   4.831  24.597  0.00  0.00     0.029 H 
ATOM     47  H   0PF d   1      10.549   6.355  25.336  0.00  0.00     0.029 H 
ENDBRANCH  41  44
ENDBRANCH  12  41
TORSDOF 6
