REMARK  7 active torsions:
REMARK  status: ('A' for Active; 'I' for Inactive)
REMARK    1  A    between atoms: C3_3  and  C8_8 
REMARK    2  A    between atoms: C6_6  and  C7_7 
REMARK       I    between atoms: C8_8  and  N10_10 
REMARK    3  A    between atoms: N10_10  and  C11_11 
REMARK    4  A    between atoms: C11_11  and  C12_12 
REMARK    5  A    between atoms: C12_12  and  N13_13 
REMARK    6  A    between atoms: C23_23  and  C28_28 
REMARK    7  A    between atoms: C28_28  and  N29_29 
ROOT
ATOM      1  C1  7PQ d   1      19.695   0.223  18.516  0.00  0.00    -0.071 A 
ATOM      2  C2  7PQ d   1      21.096   0.134  18.477  0.00  0.00    -0.067 A 
ATOM      3  C3  7PQ d   1      21.857   1.110  17.775  0.00  0.00     0.032 A 
ATOM      4  C4  7PQ d   1      21.182   2.164  17.120  0.00  0.00    -0.067 A 
ATOM      5  C5  7PQ d   1      19.781   2.255  17.152  0.00  0.00    -0.071 A 
ATOM      6  C6  7PQ d   1      19.013   1.289  17.846  0.00  0.00    -0.025 A 
ATOM      7  H   7PQ d   1      19.121  -0.526  19.061  0.00  0.00     0.084 H 
ATOM      8  H   7PQ d   1      21.602  -0.686  18.986  0.00  0.00     0.085 H 
ATOM      9  H   7PQ d   1      21.757   2.918  16.582  0.00  0.00     0.085 H 
ATOM     10  H   7PQ d   1      19.281   3.076  16.638  0.00  0.00     0.084 H 
ENDROOT
BRANCH   3  11
ATOM     11  C8  7PQ d   1      23.352   1.038  17.720  0.00  0.00     0.251 C 
ATOM     12  O9  7PQ d   1      23.944   0.049  18.151  0.00  0.00    -0.268 OA
ATOM     13  N10 7PQ d   1      24.049   2.073  17.175  0.00  0.00    -0.355 N 
ATOM     14  H   7PQ d   1      23.588   2.670  16.489  0.00  0.00     0.162 HD
BRANCH  13  15
ATOM     15  C11 7PQ d   1      25.441   2.359  17.541  0.00  0.00     0.020 C 
ATOM     16  H   7PQ d   1      26.070   1.497  17.316  0.00  0.00     0.066 H 
ATOM     17  H   7PQ d   1      25.510   2.567  18.609  0.00  0.00     0.066 H 
BRANCH  15  18
ATOM     18  C12 7PQ d   1      25.916   3.581  16.735  0.00  0.00     0.128 C 
ATOM     19  H   7PQ d   1      25.293   4.436  16.999  0.00  0.00     0.082 H 
ATOM     20  H   7PQ d   1      25.838   3.349  15.673  0.00  0.00     0.082 H 
BRANCH  18  21
ATOM     21  N13 7PQ d   1      27.324   3.910  17.044  0.00  0.00     0.094 N 
ATOM     22  C14 7PQ d   1      27.539   5.311  16.572  0.00  0.00     0.133 C 
ATOM     23  C15 7PQ d   1      29.048   5.658  16.620  0.00  0.00     0.044 C 
ATOM     24  H   7PQ d   1      26.992   5.996  17.219  0.00  0.00     0.083 H 
ATOM     25  H   7PQ d   1      27.181   5.404  15.546  0.00  0.00     0.083 H 
ATOM     26  O16 7PQ d   1      29.790   4.735  15.786  0.00  0.00    -0.388 OA
ATOM     27  H   7PQ d   1      29.403   5.581  17.648  0.00  0.00     0.077 H 
ATOM     28  H   7PQ d   1      29.196   6.674  16.254  0.00  0.00     0.077 H 
ATOM     29  C17 7PQ d   1      29.667   3.409  16.342  0.00  0.00     0.044 C 
ATOM     30  C18 7PQ d   1      28.191   2.969  16.272  0.00  0.00     0.133 C 
ATOM     31  H   7PQ d   1      30.000   3.414  17.380  0.00  0.00     0.077 H 
ATOM     32  H   7PQ d   1      30.285   2.714  15.774  0.00  0.00     0.077 H 
ATOM     33  H   7PQ d   1      27.872   2.969  15.230  0.00  0.00     0.083 H 
ATOM     34  H   7PQ d   1      28.099   1.971  16.702  0.00  0.00     0.083 H 
ENDBRANCH  18  21
ENDBRANCH  15  18
ENDBRANCH  13  15
ENDBRANCH   3  11
BRANCH   6  35
ATOM     35  C7  7PQ d   1      17.488   1.368  17.913  0.00  0.00    -0.007 A 
ATOM     36  C19 7PQ d   1      16.632   0.306  17.355  0.00  0.00    -0.014 A 
ATOM     37  C20 7PQ d   1      15.170   0.424  17.479  0.00  0.00    -0.025 A 
ATOM     38  C24 7PQ d   1      17.158  -0.863  16.701  0.00  0.00    -0.071 A 
ATOM     39  C21 7PQ d   1      14.597   1.556  18.101  0.00  0.00    -0.072 A 
ATOM     40  C27 7PQ d   1      14.342  -0.611  16.956  0.00  0.00    -0.072 A 
ATOM     41  C22 7PQ d   1      15.408   2.550  18.604  0.00  0.00    -0.074 A 
ATOM     42  H   7PQ d   1      13.514   1.643  18.183  0.00  0.00     0.084 H 
ATOM     43  C23 7PQ d   1      16.831   2.492  18.533  0.00  0.00    -0.021 A 
ATOM     44  H   7PQ d   1      14.943   3.416  19.075  0.00  0.00     0.084 H 
ATOM     45  C26 7PQ d   1      14.910  -1.713  16.337  0.00  0.00    -0.082 A 
ATOM     46  H   7PQ d   1      13.258  -0.536  17.043  0.00  0.00     0.084 H 
ATOM     47  C25 7PQ d   1      16.304  -1.835  16.204  0.00  0.00    -0.082 A 
ATOM     48  H   7PQ d   1      14.264  -2.499  15.946  0.00  0.00     0.083 H 
ATOM     49  H   7PQ d   1      16.720  -2.708  15.702  0.00  0.00     0.083 H 
ATOM     50  H   7PQ d   1      18.236  -0.985  16.596  0.00  0.00     0.084 H 
BRANCH  43  51
ATOM     51  C28 7PQ d   1      17.645   3.635  19.132  0.00  0.00     0.104 C 
ATOM     52  H   7PQ d   1      17.828   4.370  18.348  0.00  0.00     0.082 H 
ATOM     53  H   7PQ d   1      18.572   3.221  19.529  0.00  0.00     0.082 H 
BRANCH  51  54
ATOM     54  N29 7PQ d   1      16.944   4.292  20.212  0.00  0.00    -0.075 N 
ATOM     55  H   7PQ d   1      17.522   5.047  20.582  0.00  0.00     0.274 HD
ATOM     56  H   7PQ d   1      16.066   4.675  19.862  0.00  0.00     0.274 HD
ATOM     57  H   7PQ d   1      16.751   3.616  20.951  0.00  0.00     0.274 HD
ENDBRANCH  51  54
ENDBRANCH  43  51
ENDBRANCH   6  35
TORSDOF 7
