REMARK  10 active torsions:
REMARK  status: ('A' for Active; 'I' for Inactive)
REMARK    1  A    between atoms: C1_1  and  C16_16 
REMARK    2  A    between atoms: C1_1  and  C17_17 
REMARK    3  A    between atoms: C5_5  and  C18_18 
REMARK    4  A    between atoms: C6_6  and  C7_7 
REMARK    5  A    between atoms: C8_8  and  C9_9 
REMARK    6  A    between atoms: C9_9  and  C19_19 
REMARK    7  A    between atoms: C10_10  and  C11_11 
REMARK    8  A    between atoms: C12_12  and  C13_13 
REMARK    9  A    between atoms: C13_13  and  C20_20 
REMARK   10  A    between atoms: C14_14  and  C15_15 
ROOT
ATOM      1  C7  RET d   1      -7.696  -2.316   9.517  0.00  0.00    -0.075 C 
ATOM      2  C8  RET d   1      -6.538  -1.864  10.011  0.00  0.00    -0.077 C 
ATOM      3  H   RET d   1      -8.470  -2.714  10.173  0.00  0.00     0.084 H 
ATOM      4  H   RET d   1      -5.775  -1.499   9.324  0.00  0.00     0.084 H 
ENDROOT
BRANCH   1   5
ATOM      5  C6  RET d   1      -7.893  -2.258   8.043  0.00  0.00    -0.048 C 
ATOM      6  C1  RET d   1      -7.649  -1.001   7.194  0.00  0.00    -0.020 C 
ATOM      7  C2  RET d   1      -7.543  -1.273   5.682  0.00  0.00    -0.054 C 
ATOM      8  C3  RET d   1      -8.069  -2.609   5.142  0.00  0.00    -0.061 C 
ATOM      9  H   RET d   1      -6.474  -1.279   5.467  0.00  0.00     0.034 H 
ATOM     10  H   RET d   1      -8.163  -0.510   5.210  0.00  0.00     0.034 H 
ATOM     11  C4  RET d   1      -9.003  -3.294   6.137  0.00  0.00    -0.044 C 
ATOM     12  H   RET d   1      -7.218  -3.266   4.963  0.00  0.00     0.033 H 
ATOM     13  H   RET d   1      -8.627  -2.413   4.227  0.00  0.00     0.033 H 
ATOM     14  C5  RET d   1      -8.323  -3.375   7.480  0.00  0.00    -0.077 C 
ATOM     15  H   RET d   1      -9.239  -4.298   5.785  0.00  0.00     0.039 H 
ATOM     16  H   RET d   1      -9.925  -2.720   6.228  0.00  0.00     0.039 H 
BRANCH   6  17
ATOM     17  C16 RET d   1      -6.366  -0.310   7.637  0.00  0.00    -0.065 C 
ATOM     18  H   RET d   1      -6.204   0.578   7.026  0.00  0.00     0.028 H 
ATOM     19  H   RET d   1      -6.453  -0.021   8.684  0.00  0.00     0.028 H 
ATOM     20  H   RET d   1      -5.526  -0.994   7.516  0.00  0.00     0.028 H 
ENDBRANCH   6  17
BRANCH   6  21
ATOM     21  C17 RET d   1      -8.672   0.101   7.438  0.00  0.00    -0.065 C 
ATOM     22  H   RET d   1      -8.666   0.373   8.493  0.00  0.00     0.028 H 
ATOM     23  H   RET d   1      -8.416   0.972   6.835  0.00  0.00     0.028 H 
ATOM     24  H   RET d   1      -9.663  -0.257   7.159  0.00  0.00     0.028 H 
ENDBRANCH   6  21
BRANCH  14  25
ATOM     25  C18 RET d   1      -8.120  -4.688   8.172  0.00  0.00    -0.054 C 
ATOM     26  H   RET d   1      -7.053  -4.859   8.318  0.00  0.00     0.033 H 
ATOM     27  H   RET d   1      -8.622  -4.669   9.139  0.00  0.00     0.033 H 
ATOM     28  H   RET d   1      -8.537  -5.488   7.560  0.00  0.00     0.033 H 
ENDBRANCH  14  25
ENDBRANCH   1   5
BRANCH   2  29
ATOM     29  C9  RET d   1      -6.269  -1.847  11.450  0.00  0.00    -0.062 C 
ATOM     30  C10 RET d   1      -5.415  -0.882  11.891  0.00  0.00    -0.077 C 
ATOM     31  H   RET d   1      -4.971  -0.225  11.144  0.00  0.00     0.084 H 
BRANCH  30  32
ATOM     32  C11 RET d   1      -5.051  -0.661  13.275  0.00  0.00    -0.082 C 
ATOM     33  C12 RET d   1      -3.939   0.053  13.545  0.00  0.00    -0.077 C 
ATOM     34  H   RET d   1      -3.300   0.423  12.743  0.00  0.00     0.084 H 
ATOM     35  H   RET d   1      -5.663  -1.063  14.082  0.00  0.00     0.083 H 
BRANCH  33  36
ATOM     36  C13 RET d   1      -3.616   0.317  14.955  0.00  0.00    -0.066 C 
ATOM     37  C14 RET d   1      -2.724   1.253  15.218  0.00  0.00    -0.101 C 
ATOM     38  H   RET d   1      -2.199   1.800  14.435  0.00  0.00     0.077 H 
BRANCH  37  39
ATOM     39  C15 RET d   1      -2.487   1.507  16.676  0.00  0.00    -0.059 C 
ATOM     40  H   RET d   1      -3.419   1.821  17.145  0.00  0.00     0.032 H 
ATOM     41  H   RET d   1      -2.131   0.592  17.150  0.00  0.00     0.032 H 
ATOM     42  H   RET d   1      -1.739   2.292  16.790  0.00  0.00     0.032 H 
ENDBRANCH  37  39
BRANCH  36  43
ATOM     43  C20 RET d   1      -4.226  -0.421  16.127  0.00  0.00    -0.051 C 
ATOM     44  H   RET d   1      -3.438  -0.924  16.688  0.00  0.00     0.033 H 
ATOM     45  H   RET d   1      -4.738   0.290  16.776  0.00  0.00     0.033 H 
ATOM     46  H   RET d   1      -4.939  -1.158  15.759  0.00  0.00     0.033 H 
ENDBRANCH  36  43
ENDBRANCH  33  36
ENDBRANCH  30  32
BRANCH  29  47
ATOM     47  C19 RET d   1      -6.924  -2.869  12.343  0.00  0.00    -0.051 C 
ATOM     48  H   RET d   1      -6.156  -3.462  12.839  0.00  0.00     0.033 H 
ATOM     49  H   RET d   1      -7.531  -2.360  13.091  0.00  0.00     0.033 H 
ATOM     50  H   RET d   1      -7.557  -3.522  11.742  0.00  0.00     0.033 H 
ENDBRANCH  29  47
ENDBRANCH   2  29
TORSDOF 10
