REMARK WARNING: 32 MAX_TORS EXCEEDED!!!
REMARK  40 active torsions:
REMARK  status: ('A' for Active; 'I' for Inactive)
REMARK    1  A    between atoms: N_1  and  CA_2 
REMARK    2  A    between atoms: CA_2  and  C_3 
REMARK    3  A    between atoms: CA_2  and  CB_5 
REMARK       I    between atoms: C_3  and  N_6 
REMARK    4  A    between atoms: N_6  and  CA_7 
REMARK    5  A    between atoms: CA_7  and  C_8 
REMARK    6  A    between atoms: CA_7  and  CB_10 
REMARK       I    between atoms: C_8  and  N_16 
REMARK    7  A    between atoms: CB_10  and  CG_11 
REMARK    8  A    between atoms: N_16  and  CA_17 
REMARK    9  A    between atoms: CA_17  and  C_18 
REMARK   10  A    between atoms: CA_17  and  CB_20 
REMARK       I    between atoms: C_18  and  N_27 
REMARK   11  A    between atoms: CB_20  and  CG_21 
REMARK   12  A    between atoms: CG_21  and  CD_22 
REMARK   13  A    between atoms: CD_22  and  NE_23 
REMARK       I    between atoms: NE_23  and  CZ_24 
REMARK       I    between atoms: CZ_24  and  NH1_25 
REMARK   14  A    between atoms: N_27  and  CA_28 
REMARK   15  A    between atoms: CA_28  and  C_29 
REMARK   16  A    between atoms: CA_28  and  CB_31 
REMARK       I    between atoms: C_29  and  N_35 
REMARK   17  A    between atoms: CB_31  and  CG_32 
REMARK   18  A    between atoms: CG_32  and  CD1_33 
REMARK   19  A    between atoms: CG_32  and  CD2_34 
REMARK   20  A    between atoms: N_35  and  CA_36 
REMARK   21  A    between atoms: CA_36  and  C_37 
REMARK   22  A    between atoms: CA_36  and  CB_39 
REMARK       I    between atoms: C_37  and  N_43 
REMARK   23  A    between atoms: CB_39  and  CG_40 
REMARK   24  A    between atoms: CG_40  and  CD1_41 
REMARK   25  A    between atoms: CG_40  and  CD2_42 
REMARK   26  A    between atoms: N_43  and  CA_44 
REMARK   27  A    between atoms: CA_44  and  C_45 
REMARK   28  A    between atoms: CA_44  and  CB_47 
REMARK       I    between atoms: C_45  and  N_50 
REMARK   29  A    between atoms: CB_47  and  CG_48 
REMARK   30  A    between atoms: CG_48  and  CD_49 
REMARK   31  A    between atoms: N_50  and  CA_51 
REMARK   32  A    between atoms: CA_51  and  CB_52 
REMARK   33  A    between atoms: CA_51  and  C_58 
REMARK   34  A    between atoms: CB_52  and  CG_53 
REMARK   35  A    between atoms: CG_53  and  CD_54 
REMARK   36  A    between atoms: CD_54  and  CE_55 
REMARK   37  A    between atoms: CE_55  and  NZ_56 
REMARK   38  A    between atoms: NZ_56  and  CM_57 
REMARK       I    between atoms: C_58  and  N_60 
REMARK   39  A    between atoms: N_60  and  CA_61 
REMARK   40  A    between atoms: CA_61  and  C_62 
ROOT
ATOM      1  CA  LEU d   1      33.024 -14.704  46.675  0.00  0.00     0.089 C 
ATOM      2  H   LEU d   1      32.968 -14.093  45.774  0.00  0.00     0.087 H 
ENDROOT
BRANCH   1   3
ATOM      3  N   LEU d   1      34.227 -15.539  46.584  0.00  0.00    -0.346 N 
ATOM      4  C   ARG d   1      35.389 -14.973  46.298  0.00  0.00     0.241 C 
ATOM      5  O   ARG d   1      35.490 -13.769  46.103  0.00  0.00    -0.271 OA
ATOM      6  H   LEU d   1      34.169 -16.545  46.739  0.00  0.00     0.163 HD
BRANCH   4   7
ATOM      7  CA  ARG d   1      36.615 -15.899  46.183  0.00  0.00     0.089 C 
ATOM      8  H   ARG d   1      36.350 -16.863  45.749  0.00  0.00     0.087 H 
BRANCH   7   9
ATOM      9  N   ARG d   1      37.582 -15.202  45.319  0.00  0.00    -0.346 N 
ATOM     10  C   HIS d   1      38.204 -15.753  44.274  0.00  0.00     0.241 C 
ATOM     11  O   HIS d   1      38.348 -16.967  44.124  0.00  0.00    -0.271 OA
ATOM     12  H   ARG d   1      37.792 -14.227  45.534  0.00  0.00     0.163 HD
BRANCH  10  13
ATOM     13  CA  HIS d   1      38.726 -14.749  43.262  0.00  0.00     0.094 C 
ATOM     14  H   HIS d   1      39.178 -13.945  43.843  0.00  0.00     0.088 H 
BRANCH  13  15
ATOM     15  N   HIS d   1      39.847 -15.164  42.379  0.00  0.00    -0.346 N 
ATOM     16  C   VAL d   1      40.991 -15.711  42.812  0.00  0.00     0.248 C 
ATOM     17  O   VAL d   1      41.165 -16.121  43.969  0.00  0.00    -0.271 OA
ATOM     18  H   HIS d   1      39.738 -15.023  41.375  0.00  0.00     0.163 HD
BRANCH  16  19
ATOM     19  CA  VAL d   1      42.108 -15.841  41.759  0.00  0.00     0.172 C 
ATOM     20  H   VAL d   1      43.070 -15.909  42.266  0.00  0.00     0.098 H 
BRANCH  19  21
ATOM     21  N   VAL d   1      41.951 -17.090  40.955  0.00  0.00    -0.067 N 
ATOM     22  H   VAL d   1      41.959 -17.897  41.578  0.00  0.00     0.275 HD
ATOM     23  H   VAL d   1      41.066 -17.058  40.449  0.00  0.00     0.275 HD
ATOM     24  H   VAL d   1      42.721 -17.164  40.291  0.00  0.00     0.275 HD
ENDBRANCH  19  21
BRANCH  19  25
ATOM     25  CB  VAL d   1      42.102 -14.582  40.851  0.00  0.00    -0.042 C 
ATOM     26  H   VAL d   1      41.136 -14.500  40.353  0.00  0.00     0.030 H 
ATOM     27  H   VAL d   1      42.274 -13.695  41.461  0.00  0.00     0.030 H 
ATOM     28  H   VAL d   1      42.891 -14.670  40.104  0.00  0.00     0.030 H 
ENDBRANCH  19  25
ENDBRANCH  16  19
ENDBRANCH  13  15
BRANCH  13  29
ATOM     29  CB  HIS d   1      37.521 -14.330  42.410  0.00  0.00     0.004 C 
ATOM     30  H   HIS d   1      36.626 -14.573  42.983  0.00  0.00     0.046 H 
ATOM     31  H   HIS d   1      37.606 -14.855  41.459  0.00  0.00     0.046 H 
BRANCH  29  32
ATOM     32  CG  HIS d   1      37.458 -12.869  42.099  0.00  0.00     0.053 A 
ATOM     33  ND1 HIS d   1      36.918 -12.402  40.963  0.00  0.00    -0.247 NA
ATOM     34  CE1 HIS d   1      36.988 -11.056  40.952  0.00  0.00     0.064 A 
ATOM     35  NE2 HIS d   1      37.573 -10.659  42.096  0.00  0.00    -0.359 N 
ATOM     36  H   HIS d   1      36.633 -10.403  40.155  0.00  0.00     0.143 H 
ATOM     37  CD2 HIS d   1      37.875 -11.752  42.829  0.00  0.00     0.002 A 
ATOM     38  H   HIS d   1      37.758  -9.693  42.365  0.00  0.00     0.166 HD
ATOM     39  H   HIS d   1      38.355 -11.762  43.808  0.00  0.00     0.114 H 
ENDBRANCH  29  32
ENDBRANCH  13  29
ENDBRANCH  10  13
ENDBRANCH   7   9
BRANCH   7  40
ATOM     40  CB  ARG d   1      37.199 -16.219  47.581  0.00  0.00    -0.036 C 
ATOM     41  H   ARG d   1      36.373 -16.156  48.289  0.00  0.00     0.036 H 
ATOM     42  H   ARG d   1      38.008 -15.510  47.754  0.00  0.00     0.036 H 
BRANCH  40  43
ATOM     43  CG  ARG d   1      37.803 -17.627  47.726  0.00  0.00    -0.048 C 
ATOM     44  H   ARG d   1      38.781 -17.619  47.245  0.00  0.00     0.035 H 
ATOM     45  H   ARG d   1      37.109 -18.334  47.272  0.00  0.00     0.035 H 
BRANCH  43  46
ATOM     46  CD  ARG d   1      38.006 -18.047  49.187  0.00  0.00     0.009 C 
ATOM     47  H   ARG d   1      38.556 -17.252  49.690  0.00  0.00     0.064 H 
ATOM     48  H   ARG d   1      38.540 -18.997  49.190  0.00  0.00     0.064 H 
BRANCH  46  49
ATOM     49  NE  ARG d   1      36.738 -18.241  49.906  0.00  0.00    -0.227 N 
ATOM     50  CZ  ARG d   1      36.141 -19.423  50.081  0.00  0.00     0.665 C 
ATOM     51  NH1 ARG d   1      36.689 -20.531  49.590  0.00  0.00    -0.235 N 
ATOM     52  NH2 ARG d   1      34.992 -19.497  50.748  0.00  0.00    -0.235 N 
ATOM     53  H   ARG d   1      37.569 -20.481  49.077  0.00  0.00     0.174 HD
ATOM     54  H   ARG d   1      36.229 -21.431  49.726  0.00  0.00     0.174 HD
ATOM     55  H   ARG d   1      34.566 -18.651  51.126  0.00  0.00     0.174 HD
ATOM     56  H   ARG d   1      34.537 -20.400  50.881  0.00  0.00     0.174 HD
ATOM     57  H   ARG d   1      36.283 -17.416  50.298  0.00  0.00     0.177 HD
ENDBRANCH  46  49
ENDBRANCH  43  46
ENDBRANCH  40  43
ENDBRANCH   7  40
ENDBRANCH   4   7
ENDBRANCH   1   3
BRANCH   1  58
ATOM     58  C   LEU d   1      33.114 -13.796  47.904  0.00  0.00     0.241 C 
ATOM     59  O   LEU d   1      33.527 -14.236  48.984  0.00  0.00    -0.271 OA
ATOM     60  N   LEU d   1      32.721 -12.537  47.733  0.00  0.00    -0.346 N 
ATOM     61  H   LEU d   1      32.335 -12.264  46.829  0.00  0.00     0.163 HD
BRANCH  60  62
ATOM     62  CA  LEU d   1      32.820 -11.524  48.791  0.00  0.00     0.089 C 
ATOM     63  H   LEU d   1      33.828 -11.598  49.200  0.00  0.00     0.087 H 
BRANCH  62  64
ATOM     64  C   LEU d   1      31.835 -11.759  49.930  0.00  0.00     0.241 C 
ATOM     65  O   LEU d   1      30.675 -12.088  49.671  0.00  0.00    -0.271 OA
ATOM     66  N   ARG d   1      32.294 -11.579  51.185  0.00  0.00    -0.346 N 
ATOM     67  H   ARG d   1      33.295 -11.454  51.332  0.00  0.00     0.163 HD
BRANCH  66  68
ATOM     68  CA  ARG d   1      31.386 -11.558  52.359  0.00  0.00     0.089 C 
ATOM     69  H   ARG d   1      30.542 -12.228  52.195  0.00  0.00     0.087 H 
BRANCH  68  70
ATOM     70  C   ARG d   1      30.852 -10.111  52.524  0.00  0.00     0.241 C 
ATOM     71  O   ARG d   1      31.169  -9.273  51.713  0.00  0.00    -0.271 OA
ATOM     72  N   MLZ d   1      30.029  -9.843  53.545  0.00  0.00    -0.346 N 
ATOM     73  H   MLZ d   1      29.673 -10.620  54.101  0.00  0.00     0.163 HD
BRANCH  72  74
ATOM     74  CA  MLZ d   1      29.606  -8.443  53.908  0.00  0.00     0.089 C 
ATOM     75  H   MLZ d   1      29.935  -7.801  53.091  0.00  0.00     0.087 H 
BRANCH  74  76
ATOM     76  CB  MLZ d   1      28.086  -8.408  54.101  0.00  0.00    -0.038 C 
ATOM     77  H   MLZ d   1      27.793  -7.412  54.434  0.00  0.00     0.036 H 
ATOM     78  H   MLZ d   1      27.805  -9.155  54.844  0.00  0.00     0.036 H 
BRANCH  76  79
ATOM     79  CG  MLZ d   1      27.376  -8.722  52.786  0.00  0.00    -0.061 C 
ATOM     80  H   MLZ d   1      27.306  -9.808  52.717  0.00  0.00     0.033 H 
ATOM     81  H   MLZ d   1      27.955  -8.247  51.994  0.00  0.00     0.033 H 
BRANCH  79  82
ATOM     82  CD  MLZ d   1      25.949  -8.179  52.677  0.00  0.00    -0.043 C 
ATOM     83  H   MLZ d   1      25.672  -7.712  53.622  0.00  0.00     0.035 H 
ATOM     84  H   MLZ d   1      25.271  -9.002  52.450  0.00  0.00     0.035 H 
BRANCH  82  85
ATOM     85  CE  MLZ d   1      25.864  -7.144  51.567  0.00  0.00     0.081 C 
ATOM     86  H   MLZ d   1      26.642  -7.372  50.838  0.00  0.00     0.075 H 
ATOM     87  H   MLZ d   1      25.984  -6.159  52.019  0.00  0.00     0.075 H 
BRANCH  85  88
ATOM     88  NZ  MLZ d   1      24.601  -7.163  50.883  0.00  0.00    -0.079 N 
ATOM     89  H   MLZ d   1      23.928  -7.420  51.605  0.00  0.00     0.276 HD
ATOM     90  H   MLZ d   1      24.759  -7.773  50.081  0.00  0.00     0.276 HD
BRANCH  88  91
ATOM     91  CM  MLZ d   1      24.064  -5.962  50.312  0.00  0.00     0.065 C 
ATOM     92  H   MLZ d   1      23.922  -5.220  51.097  0.00  0.00     0.067 H 
ATOM     93  H   MLZ d   1      24.757  -5.575  49.565  0.00  0.00     0.067 H 
ATOM     94  H   MLZ d   1      23.106  -6.182  49.841  0.00  0.00     0.067 H 
ENDBRANCH  88  91
ENDBRANCH  85  88
ENDBRANCH  82  85
ENDBRANCH  79  82
ENDBRANCH  76  79
ENDBRANCH  74  76
BRANCH  74  95
ATOM     95  C   MLZ d   1      30.244  -7.935  55.202  0.00  0.00     0.240 C 
ATOM     96  O   MLZ d   1      30.068  -8.539  56.264  0.00  0.00    -0.271 OA
ATOM     97  N   GLY d   1      30.954  -6.800  55.129  0.00  0.00    -0.349 N 
ATOM     98  H   GLY d   1      30.928  -6.258  54.265  0.00  0.00     0.163 HD
BRANCH  97  99
ATOM     99  CA  GLY d   1      31.782  -6.300  56.267  0.00  0.00     0.075 C 
ATOM    100  H   GLY d   1      32.298  -5.415  55.895  0.00  0.00     0.080 H 
ATOM    101  H   GLY d   1      32.405  -7.140  56.575  0.00  0.00     0.080 H 
BRANCH  99 102
ATOM    102  C   GLY d   1      31.032  -5.852  57.521  0.00  0.00     0.191 C 
ATOM    103  O   GLY d   1      31.599  -5.177  58.407  0.00  0.00    -0.647 OA
ATOM    104  H   GLY d   1      29.984  -6.126  57.645  0.00  0.00    -0.647 OA
ENDBRANCH  99 102
ENDBRANCH  97  99
ENDBRANCH  74  95
ENDBRANCH  72  74
ENDBRANCH  68  70
BRANCH  68 105
ATOM    105  CB  ARG d   1      32.079 -12.108  53.642  0.00  0.00    -0.038 C 
ATOM    106  H   ARG d   1      32.422 -13.111  53.390  0.00  0.00     0.036 H 
ATOM    107  H   ARG d   1      31.340 -12.027  54.439  0.00  0.00     0.036 H 
BRANCH 105 108
ATOM    108  CG  ARG d   1      33.328 -11.346  54.142  0.00  0.00    -0.066 C 
ATOM    109  H   ARG d   1      33.057 -10.293  54.221  0.00  0.00     0.032 H 
ATOM    110  H   ARG d   1      34.133 -11.541  53.434  0.00  0.00     0.032 H 
BRANCH 108 111
ATOM    111  CD  ARG d   1      33.819 -11.800  55.533  0.00  0.00    -0.076 C 
ATOM    112  H   ARG d   1      33.028 -11.642  56.266  0.00  0.00     0.027 H 
ATOM    113  H   ARG d   1      34.077 -12.858  55.498  0.00  0.00     0.027 H 
ATOM    114  H   ARG d   1      34.698 -11.219  55.814  0.00  0.00     0.027 H 
ENDBRANCH 108 111
ENDBRANCH 105 108
ENDBRANCH  68 105
ENDBRANCH  66  68
ENDBRANCH  62  64
BRANCH  62 115
ATOM    115  CB  LEU d   1      32.565 -10.126  48.200  0.00  0.00    -0.035 C 
ATOM    116  H   LEU d   1      32.487  -9.439  49.042  0.00  0.00     0.037 H 
ATOM    117  H   LEU d   1      31.670 -10.205  47.583  0.00  0.00     0.037 H 
BRANCH 115 118
ATOM    118  CG  LEU d   1      33.673  -9.593  47.300  0.00  0.00    -0.059 C 
ATOM    119  H   LEU d   1      33.830 -10.288  46.475  0.00  0.00     0.038 H 
BRANCH 118 120
ATOM    120  CD1 LEU d   1      33.276  -8.255  46.682  0.00  0.00    -0.073 C 
ATOM    121  H   LEU d   1      32.372  -8.385  46.087  0.00  0.00     0.028 H 
ATOM    122  H   LEU d   1      33.089  -7.531  47.475  0.00  0.00     0.028 H 
ATOM    123  H   LEU d   1      34.084  -7.897  46.044  0.00  0.00     0.028 H 
ENDBRANCH 118 120
BRANCH 118 124
ATOM    124  CD2 LEU d   1      34.982  -9.493  48.094  0.00  0.00    -0.073 C 
ATOM    125  H   LEU d   1      34.843  -8.816  48.937  0.00  0.00     0.028 H 
ATOM    126  H   LEU d   1      35.259 -10.481  48.462  0.00  0.00     0.028 H 
ATOM    127  H   LEU d   1      35.771  -9.111  47.446  0.00  0.00     0.028 H 
ENDBRANCH 118 124
ENDBRANCH 115 118
ENDBRANCH  62 115
ENDBRANCH  60  62
ENDBRANCH   1  58
BRANCH   1 128
ATOM    128  CB  LEU d   1      31.747 -15.560  46.742  0.00  0.00    -0.035 C 
ATOM    129  H   LEU d   1      30.956 -14.864  47.021  0.00  0.00     0.037 H 
ATOM    130  H   LEU d   1      31.991 -16.378  47.420  0.00  0.00     0.037 H 
BRANCH 128 131
ATOM    131  CG  LEU d   1      31.239 -16.248  45.450  0.00  0.00    -0.059 C 
ATOM    132  H   LEU d   1      32.098 -16.714  44.967  0.00  0.00     0.038 H 
BRANCH 131 133
ATOM    133  CD1 LEU d   1      30.231 -17.344  45.769  0.00  0.00    -0.073 C 
ATOM    134  H   LEU d   1      30.702 -18.096  46.402  0.00  0.00     0.028 H 
ATOM    135  H   LEU d   1      29.378 -16.911  46.291  0.00  0.00     0.028 H 
ATOM    136  H   LEU d   1      29.894 -17.807  44.842  0.00  0.00     0.028 H 
ENDBRANCH 131 133
BRANCH 131 137
ATOM    137  CD2 LEU d   1      30.652 -15.231  44.473  0.00  0.00    -0.073 C 
ATOM    138  H   LEU d   1      29.815 -14.717  44.945  0.00  0.00     0.028 H 
ATOM    139  H   LEU d   1      31.419 -14.505  44.202  0.00  0.00     0.028 H 
ATOM    140  H   LEU d   1      30.305 -15.747  43.578  0.00  0.00     0.028 H 
ENDBRANCH 131 137
ENDBRANCH 128 131
ENDBRANCH   1 128
TORSDOF 40
