REMARK  7 active torsions:
REMARK  status: ('A' for Active; 'I' for Inactive)
REMARK       I    between atoms: C23_2  and  N25_3 
REMARK    1  A    between atoms: C23_2  and  C16_12 
REMARK    2  A    between atoms: N25_3  and  C26_4 
REMARK    3  A    between atoms: C26_4  and  C27_5 
REMARK    4  A    between atoms: C27_5  and  N7_6 
REMARK    5  A    between atoms: C13_17  and  C19_18 
REMARK    6  A    between atoms: C20_20  and  C28_21 
REMARK    7  A    between atoms: C28_21  and  O29_22 
ROOT
ATOM      1  C16 9PQ d   1      21.833   1.919  17.642  0.00  0.00     0.032 A 
ATOM      2  C15 9PQ d   1      21.075   0.960  18.305  0.00  0.00    -0.067 A 
ATOM      3  C14 9PQ d   1      19.693   1.063  18.341  0.00  0.00    -0.071 A 
ATOM      4  C17 9PQ d   1      21.191   2.981  17.009  0.00  0.00    -0.067 A 
ATOM      5  C18 9PQ d   1      19.799   3.084  17.042  0.00  0.00    -0.071 A 
ATOM      6  C13 9PQ d   1      19.049   2.117  17.701  0.00  0.00    -0.024 A 
ATOM      7  H   9PQ d   1      21.570   0.123  18.799  0.00  0.00     0.085 H 
ATOM      8  H   9PQ d   1      19.108   0.314  18.874  0.00  0.00     0.084 H 
ATOM      9  H   9PQ d   1      21.778   3.735  16.485  0.00  0.00     0.085 H 
ATOM     10  H   9PQ d   1      19.302   3.921  16.552  0.00  0.00     0.084 H 
ENDROOT
BRANCH   1  11
ATOM     11  C23 9PQ d   1      23.330   1.787  17.605  0.00  0.00     0.251 C 
ATOM     12  O24 9PQ d   1      24.024   2.738  17.280  0.00  0.00    -0.268 OA
ATOM     13  N25 9PQ d   1      23.855   0.607  17.927  0.00  0.00    -0.355 N 
ATOM     14  H   9PQ d   1      23.180  -0.112  18.189  0.00  0.00     0.162 HD
BRANCH  13  15
ATOM     15  C26 9PQ d   1      25.247   0.191  17.961  0.00  0.00     0.020 C 
ATOM     16  H   9PQ d   1      25.744   0.488  17.037  0.00  0.00     0.066 H 
ATOM     17  H   9PQ d   1      25.306  -0.893  18.059  0.00  0.00     0.066 H 
BRANCH  15  18
ATOM     18  C27 9PQ d   1      25.930   0.856  19.152  0.00  0.00     0.128 C 
ATOM     19  H   9PQ d   1      25.694   0.314  20.068  0.00  0.00     0.082 H 
ATOM     20  H   9PQ d   1      25.578   1.882  19.259  0.00  0.00     0.082 H 
BRANCH  18  21
ATOM     21  N7  9PQ d   1      27.386   0.844  18.920  0.00  0.00     0.094 N 
ATOM     22  C12 9PQ d   1      27.941  -0.507  19.125  0.00  0.00     0.133 C 
ATOM     23  C11 9PQ d   1      29.435  -0.491  18.825  0.00  0.00     0.044 C 
ATOM     24  H   9PQ d   1      27.443  -1.210  18.457  0.00  0.00     0.083 H 
ATOM     25  H   9PQ d   1      27.780  -0.814  20.159  0.00  0.00     0.083 H 
ATOM     26  O10 9PQ d   1      30.078   0.456  19.677  0.00  0.00    -0.388 OA
ATOM     27  H   9PQ d   1      29.595  -0.212  17.784  0.00  0.00     0.077 H 
ATOM     28  H   9PQ d   1      29.853  -1.482  19.001  0.00  0.00     0.077 H 
ATOM     29  C9  9PQ d   1      29.557   1.779  19.539  0.00  0.00     0.044 C 
ATOM     30  C8  9PQ d   1      28.058   1.787  19.828  0.00  0.00     0.133 C 
ATOM     31  H   9PQ d   1      29.726   2.125  18.519  0.00  0.00     0.077 H 
ATOM     32  H   9PQ d   1      30.061   2.437  20.247  0.00  0.00     0.077 H 
ATOM     33  H   9PQ d   1      27.883   1.488  20.861  0.00  0.00     0.083 H 
ATOM     34  H   9PQ d   1      27.661   2.790  19.674  0.00  0.00     0.083 H 
ENDBRANCH  18  21
ENDBRANCH  15  18
ENDBRANCH  13  15
ENDBRANCH   1  11
BRANCH   6  35
ATOM     35  C19 9PQ d   1      17.565   2.170  17.791  0.00  0.00    -0.006 A 
ATOM     36  C2  9PQ d   1      16.707   1.087  17.230  0.00  0.00    -0.014 A 
ATOM     37  C1  9PQ d   1      15.235   1.214  17.393  0.00  0.00    -0.025 A 
ATOM     38  C3  9PQ d   1      17.216  -0.025  16.559  0.00  0.00    -0.071 A 
ATOM     39  C22 9PQ d   1      14.686   2.310  18.051  0.00  0.00    -0.072 A 
ATOM     40  C6  9PQ d   1      14.407   0.226  16.877  0.00  0.00    -0.072 A 
ATOM     41  C21 9PQ d   1      15.489   3.321  18.579  0.00  0.00    -0.073 A 
ATOM     42  H   9PQ d   1      13.603   2.380  18.156  0.00  0.00     0.084 H 
ATOM     43  C20 9PQ d   1      16.886   3.296  18.486  0.00  0.00    -0.023 A 
ATOM     44  H   9PQ d   1      15.011   4.162  19.083  0.00  0.00     0.084 H 
ATOM     45  C5  9PQ d   1      14.964  -0.863  16.216  0.00  0.00    -0.082 A 
ATOM     46  H   9PQ d   1      13.326   0.304  16.990  0.00  0.00     0.084 H 
ATOM     47  C4  9PQ d   1      16.339  -0.985  16.059  0.00  0.00    -0.082 A 
ATOM     48  H   9PQ d   1      14.309  -1.636  15.813  0.00  0.00     0.083 H 
ATOM     49  H   9PQ d   1      16.741  -1.851  15.533  0.00  0.00     0.083 H 
ATOM     50  H   9PQ d   1      18.292  -0.142  16.427  0.00  0.00     0.084 H 
BRANCH  43  51
ATOM     51  C28 9PQ d   1      17.719   4.413  19.079  0.00  0.00     0.041 C 
ATOM     52  H   9PQ d   1      17.951   5.130  18.292  0.00  0.00     0.081 H 
ATOM     53  H   9PQ d   1      18.628   3.984  19.500  0.00  0.00     0.081 H 
BRANCH  51  54
ATOM     54  O29 9PQ d   1      17.010   5.088  20.117  0.00  0.00    -0.396 OA
ATOM     55  H   9PQ d   1      16.793   4.464  20.813  0.00  0.00     0.209 HD
ENDBRANCH  51  54
ENDBRANCH  43  51
ENDBRANCH   6  35
TORSDOF 7
