REMARK  6 active torsions:
REMARK  status: ('A' for Active; 'I' for Inactive)
REMARK       I    between atoms: C18_2  and  N20_3 
REMARK    1  A    between atoms: C18_2  and  C13_12 
REMARK    2  A    between atoms: N20_3  and  C21_4 
REMARK    3  A    between atoms: C21_4  and  C22_5 
REMARK    4  A    between atoms: C22_5  and  N23_6 
REMARK    5  A    between atoms: C9_17  and  C4_18 
REMARK    6  A    between atoms: C2_20  and  C1_21 
ROOT
ATOM      1  C13 0O5 d   1      33.331  13.352 -25.192  0.00  0.00     0.032 A 
ATOM      2  C17 0O5 d   1      33.263  12.670 -26.412  0.00  0.00    -0.067 A 
ATOM      3  C14 0O5 d   1      32.326  11.658 -26.606  0.00  0.00    -0.070 A 
ATOM      4  C16 0O5 d   1      32.443  13.032 -24.171  0.00  0.00    -0.067 A 
ATOM      5  C15 0O5 d   1      31.501  12.028 -24.372  0.00  0.00    -0.070 A 
ATOM      6  C9  0O5 d   1      31.455  11.321 -25.575  0.00  0.00    -0.006 A 
ATOM      7  H   0O5 d   1      33.949  12.933 -27.217  0.00  0.00     0.085 H 
ATOM      8  H   0O5 d   1      32.276  11.133 -27.560  0.00  0.00     0.084 H 
ATOM      9  H   0O5 d   1      32.485  13.564 -23.220  0.00  0.00     0.085 H 
ATOM     10  H   0O5 d   1      30.790  11.790 -23.581  0.00  0.00     0.084 H 
ENDROOT
BRANCH   1  11
ATOM     11  C18 0O5 d   1      34.338  14.447 -24.987  0.00  0.00     0.251 C 
ATOM     12  O19 0O5 d   1      34.826  14.978 -25.969  0.00  0.00    -0.268 OA
ATOM     13  N20 0O5 d   1      34.674  14.806 -23.744  0.00  0.00    -0.355 N 
ATOM     14  H   0O5 d   1      34.222  14.287 -22.991  0.00  0.00     0.162 HD
BRANCH  13  15
ATOM     15  C21 0O5 d   1      35.605  15.846 -23.332  0.00  0.00     0.020 C 
ATOM     16  H   0O5 d   1      35.927  16.465 -24.169  0.00  0.00     0.066 H 
ATOM     17  H   0O5 d   1      36.532  15.434 -22.932  0.00  0.00     0.066 H 
BRANCH  15  18
ATOM     18  C22 0O5 d   1      34.833  16.646 -22.288  0.00  0.00     0.128 C 
ATOM     19  H   0O5 d   1      35.086  16.227 -21.314  0.00  0.00     0.082 H 
ATOM     20  H   0O5 d   1      33.777  16.577 -22.550  0.00  0.00     0.082 H 
BRANCH  18  21
ATOM     21  N23 0O5 d   1      35.173  18.082 -22.241  0.00  0.00     0.094 N 
ATOM     22  C28 0O5 d   1      36.618  18.348 -22.136  0.00  0.00     0.133 C 
ATOM     23  C24 0O5 d   1      36.795  19.839 -21.848  0.00  0.00     0.044 C 
ATOM     24  H   0O5 d   1      37.122  18.078 -23.064  0.00  0.00     0.083 H 
ATOM     25  H   0O5 d   1      37.057  17.752 -21.336  0.00  0.00     0.083 H 
ATOM     26  O26 0O5 d   1      36.147  20.626 -22.859  0.00  0.00    -0.388 OA
ATOM     27  H   0O5 d   1      37.859  20.075 -21.843  0.00  0.00     0.077 H 
ATOM     28  H   0O5 d   1      36.349  20.068 -20.880  0.00  0.00     0.077 H 
ATOM     29  C25 0O5 d   1      34.763  20.314 -23.045  0.00  0.00     0.044 C 
ATOM     30  C27 0O5 d   1      34.619  18.833 -23.377  0.00  0.00     0.133 C 
ATOM     31  H   0O5 d   1      34.362  20.912 -23.863  0.00  0.00     0.077 H 
ATOM     32  H   0O5 d   1      34.213  20.538 -22.131  0.00  0.00     0.077 H 
ATOM     33  H   0O5 d   1      33.572  18.574 -23.537  0.00  0.00     0.083 H 
ATOM     34  H   0O5 d   1      35.152  18.590 -24.296  0.00  0.00     0.083 H 
ENDBRANCH  18  21
ENDBRANCH  15  18
ENDBRANCH  13  15
ENDBRANCH   1  11
BRANCH   6  35
ATOM     35  C4  0O5 d   1      30.407  10.276 -25.717  0.00  0.00     0.078 A 
ATOM     36  N6  0O5 d   1      29.542  10.395 -26.760  0.00  0.00    -0.252 NA
ATOM     37  C2  0O5 d   1      28.528   9.533 -26.977  0.00  0.00     0.032 A 
ATOM     38  C3  0O5 d   1      28.312   8.458 -26.123  0.00  0.00    -0.049 A 
ATOM     39  C5  0O5 d   1      29.141   8.268 -25.036  0.00  0.00    -0.022 A 
ATOM     40  H   0O5 d   1      27.490   7.767 -26.311  0.00  0.00     0.087 H 
ATOM     41  C7  0O5 d   1      30.258   9.220 -24.808  0.00  0.00     0.004 A 
ATOM     42  C8  0O5 d   1      28.941   7.207 -24.160  0.00  0.00    -0.072 A 
ATOM     43  C12 0O5 d   1      31.091   9.006 -23.708  0.00  0.00    -0.070 A 
ATOM     44  C11 0O5 d   1      30.857   7.925 -22.866  0.00  0.00    -0.082 A 
ATOM     45  H   0O5 d   1      31.921   9.684 -23.510  0.00  0.00     0.084 H 
ATOM     46  C10 0O5 d   1      29.804   7.035 -23.084  0.00  0.00    -0.082 A 
ATOM     47  H   0O5 d   1      31.515   7.768 -22.011  0.00  0.00     0.083 H 
ATOM     48  H   0O5 d   1      29.657   6.196 -22.403  0.00  0.00     0.083 H 
ATOM     49  H   0O5 d   1      28.113   6.515 -24.316  0.00  0.00     0.084 H 
BRANCH  37  50
ATOM     50  C1  0O5 d   1      27.618   9.737 -28.160  0.00  0.00    -0.035 C 
ATOM     51  H   0O5 d   1      27.668   8.864 -28.810  0.00  0.00     0.035 H 
ATOM     52  H   0O5 d   1      26.595   9.873 -27.810  0.00  0.00     0.035 H 
ATOM     53  H   0O5 d   1      27.935  10.621 -28.713  0.00  0.00     0.035 H 
ENDBRANCH  37  50
ENDBRANCH   6  35
TORSDOF 6
