REMARK  5 active torsions:
REMARK  status: ('A' for Active; 'I' for Inactive)
REMARK       I    between atoms: C2_2  and  N3_3 
REMARK    1  A    between atoms: C2_2  and  C12_12 
REMARK    2  A    between atoms: N3_3  and  C4_4 
REMARK    3  A    between atoms: C4_4  and  C5_5 
REMARK    4  A    between atoms: C5_5  and  N6_6 
REMARK    5  A    between atoms: C15_16  and  C18_18 
ROOT
ATOM      1  C12 0O4 d   1      21.627   1.357  18.100  0.00  0.00     0.032 A 
ATOM      2  C13 0O4 d   1      20.778   2.467  18.023  0.00  0.00    -0.067 A 
ATOM      3  C17 0O4 d   1      21.060   0.090  18.185  0.00  0.00    -0.067 A 
ATOM      4  C16 0O4 d   1      19.679  -0.058  18.197  0.00  0.00    -0.070 A 
ATOM      5  C15 0O4 d   1      18.830   1.050  18.074  0.00  0.00    -0.006 A 
ATOM      6  C14 0O4 d   1      19.388   2.320  18.030  0.00  0.00    -0.070 A 
ATOM      7  H   0O4 d   1      21.209   3.466  17.956  0.00  0.00     0.085 H 
ATOM      8  H   0O4 d   1      21.701  -0.789  18.242  0.00  0.00     0.085 H 
ATOM      9  H   0O4 d   1      19.248  -1.054  18.304  0.00  0.00     0.084 H 
ATOM     10  H   0O4 d   1      18.745   3.200  18.001  0.00  0.00     0.084 H 
ENDROOT
BRANCH   1  11
ATOM     11  C2  0O4 d   1      23.125   1.528  18.097  0.00  0.00     0.251 C 
ATOM     12  O1  0O4 d   1      23.582   2.657  18.101  0.00  0.00    -0.268 OA
ATOM     13  N3  0O4 d   1      23.943   0.469  18.114  0.00  0.00    -0.355 N 
ATOM     14  H   0O4 d   1      23.508  -0.453  18.121  0.00  0.00     0.162 HD
BRANCH  13  15
ATOM     15  C4  0O4 d   1      25.407   0.515  18.124  0.00  0.00     0.010 C 
ATOM     16  H   0O4 d   1      25.780   1.507  17.868  0.00  0.00     0.066 H 
ATOM     17  H   0O4 d   1      25.835  -0.153  17.377  0.00  0.00     0.066 H 
BRANCH  15  18
ATOM     18  C5  0O4 d   1      25.811   0.109  19.540  0.00  0.00     0.005 C 
ATOM     19  H   0O4 d   1      25.842  -0.980  19.576  0.00  0.00     0.066 H 
ATOM     20  H   0O4 d   1      25.084   0.540  20.228  0.00  0.00     0.066 H 
BRANCH  18  21
ATOM     21  N6  0O4 d   1      27.138   0.605  19.927  0.00  0.00    -0.407 N 
ATOM     22  C11 0O4 d   1      27.475   0.512  21.347  0.00  0.00     0.010 C 
ATOM     23  C10 0O4 d   1      28.617   1.482  21.629  0.00  0.00     0.034 C 
ATOM     24  H   0O4 d   1      27.777  -0.505  21.595  0.00  0.00     0.066 H 
ATOM     25  H   0O4 d   1      26.608   0.767  21.956  0.00  0.00     0.066 H 
ATOM     26  O9  0O4 d   1      29.768   1.156  20.843  0.00  0.00    -0.388 OA
ATOM     27  H   0O4 d   1      28.882   1.415  22.684  0.00  0.00     0.076 H 
ATOM     28  H   0O4 d   1      28.292   2.491  21.374  0.00  0.00     0.076 H 
ATOM     29  C8  0O4 d   1      29.492   0.697  19.509  0.00  0.00     0.034 C 
ATOM     30  C7  0O4 d   1      28.122   1.152  18.995  0.00  0.00     0.010 C 
ATOM     31  H   0O4 d   1      29.498  -0.393  19.523  0.00  0.00     0.076 H 
ATOM     32  H   0O4 d   1      30.252   1.115  18.849  0.00  0.00     0.076 H 
ATOM     33  H   0O4 d   1      28.059   2.239  18.949  0.00  0.00     0.066 H 
ATOM     34  H   0O4 d   1      27.944   0.796  17.980  0.00  0.00     0.066 H 
ENDBRANCH  18  21
ENDBRANCH  15  18
ENDBRANCH  13  15
ENDBRANCH   1  11
BRANCH   5  35
ATOM     35  C18 0O4 d   1      17.367   0.813  18.151  0.00  0.00     0.077 A 
ATOM     36  N19 0O4 d   1      16.678   1.578  19.042  0.00  0.00    -0.259 NA
ATOM     37  C20 0O4 d   1      15.357   1.413  19.248  0.00  0.00     0.004 A 
ATOM     38  C21 0O4 d   1      14.666   0.433  18.552  0.00  0.00    -0.055 A 
ATOM     39  H   0O4 d   1      14.832   2.049  19.961  0.00  0.00     0.114 H 
ATOM     40  C22 0O4 d   1      15.339  -0.367  17.642  0.00  0.00    -0.022 A 
ATOM     41  H   0O4 d   1      13.598   0.292  18.720  0.00  0.00     0.087 H 
ATOM     42  C27 0O4 d   1      16.706  -0.198  17.438  0.00  0.00     0.004 A 
ATOM     43  C23 0O4 d   1      14.640  -1.349  16.955  0.00  0.00    -0.072 A 
ATOM     44  C26 0O4 d   1      17.354  -1.012  16.503  0.00  0.00    -0.070 A 
ATOM     45  C25 0O4 d   1      16.644  -1.986  15.819  0.00  0.00    -0.082 A 
ATOM     46  H   0O4 d   1      18.419  -0.880  16.312  0.00  0.00     0.084 H 
ATOM     47  C24 0O4 d   1      15.294  -2.155  16.044  0.00  0.00    -0.082 A 
ATOM     48  H   0O4 d   1      17.156  -2.623  15.098  0.00  0.00     0.083 H 
ATOM     49  H   0O4 d   1      14.743  -2.925  15.503  0.00  0.00     0.083 H 
ATOM     50  H   0O4 d   1      13.573  -1.484  17.134  0.00  0.00     0.084 H 
ENDBRANCH   5  35
TORSDOF 5
