REMARK  3 active torsions:
REMARK  status: ('A' for Active; 'I' for Inactive)
REMARK    1  A    between atoms: C2_2  and  C5_5 
REMARK    2  A    between atoms: C12_12  and  O15_15 
REMARK    3  A    between atoms: C16_16  and  O17_17 
ROOT
ATOM      1  C1  HH6 d   1      64.515  33.873  25.238  0.00  0.00     0.024 A 
ATOM      2  C2  HH6 d   1      64.026  34.590  24.058  0.00  0.00     0.099 A 
ATOM      3  C3  HH6 d   1      63.364  33.299  25.860  0.00  0.00     0.065 A 
ATOM      4  C4  HH6 d   1      65.797  33.642  25.795  0.00  0.00    -0.066 A 
ATOM      5  N6  HH6 d   1      62.733  34.389  24.006  0.00  0.00    -0.173 NA
ATOM      6  N7  HH6 d   1      62.264  33.684  25.137  0.00  0.00    -0.277 N 
ATOM      7  C8  HH6 d   1      63.511  32.547  27.034  0.00  0.00    -0.023 A 
ATOM      8  C9  HH6 d   1      65.924  32.859  26.927  0.00  0.00    -0.050 A 
ATOM      9  C12 HH6 d   1      64.771  32.360  27.567  0.00  0.00     0.068 A 
ATOM     10  H1  HH6 d   1      66.676  34.078  25.335  0.00  0.00     0.085 H 
ATOM     11  H2  HH6 d   1      61.280  33.495  25.374  0.00  0.00     0.189 HD
ATOM     12  H3  HH6 d   1      62.643  32.116  27.519  0.00  0.00     0.091 H 
ATOM     13  H4  HH6 d   1      66.907  32.629  27.322  0.00  0.00     0.087 H 
ENDROOT
BRANCH   2  14
ATOM     14  C5  HH6 d   1      64.763  35.494  23.128  0.00  0.00    -0.005 A 
ATOM     15  C10 HH6 d   1      64.092  36.036  22.018  0.00  0.00    -0.068 A 
ATOM     16  C13 HH6 d   1      64.741  36.945  21.193  0.00  0.00    -0.050 A 
ATOM     17  H5  HH6 d   1      63.069  35.745  21.806  0.00  0.00     0.085 H 
ATOM     18  C16 HH6 d   1      66.052  37.341  21.472  0.00  0.00     0.065 A 
ATOM     19  H7  HH6 d   1      64.228  37.350  20.328  0.00  0.00     0.087 H 
ATOM     20  C14 HH6 d   1      66.716  36.831  22.590  0.00  0.00    -0.050 A 
ATOM     21  C11 HH6 d   1      66.062  35.950  23.433  0.00  0.00    -0.068 A 
ATOM     22  H8  HH6 d   1      67.739  37.124  22.796  0.00  0.00     0.087 H 
ATOM     23  H6  HH6 d   1      66.553  35.607  24.337  0.00  0.00     0.085 H 
BRANCH  18  24
ATOM     24  O17 HH6 d   1      66.684  38.227  20.657  0.00  0.00    -0.361 OA
ATOM     25  H10 HH6 d   1      66.102  38.475  19.949  0.00  0.00     0.217 HD
ENDBRANCH  18  24
ENDBRANCH   2  14
BRANCH   9  26
ATOM     26  O15 HH6 d   1      64.869  31.664  28.716  0.00  0.00    -0.361 OA
ATOM     27  H9  HH6 d   1      64.001  31.407  29.004  0.00  0.00     0.217 HD
ENDBRANCH   9  26
TORSDOF 3
