REMARK  10 active torsions:
REMARK  status: ('A' for Active; 'I' for Inactive)
REMARK    1  A    between atoms: C1_1  and  C16_16 
REMARK    2  A    between atoms: C1_1  and  C17_17 
REMARK    3  A    between atoms: C5_5  and  C18_18 
REMARK    4  A    between atoms: C6_6  and  C7_7 
REMARK    5  A    between atoms: C8_8  and  C9_9 
REMARK    6  A    between atoms: C9_9  and  C19_19 
REMARK    7  A    between atoms: C10_10  and  C11_11 
REMARK    8  A    between atoms: C12_12  and  C13_13 
REMARK    9  A    between atoms: C13_13  and  C20_20 
REMARK   10  A    between atoms: C14_14  and  C15_15 
ROOT
ATOM      1  C7  RET d   1      -7.256   0.797  -9.916  0.00  0.00    -0.075 C 
ATOM      2  C8  RET d   1      -6.505  -0.221 -10.312  0.00  0.00    -0.077 C 
ATOM      3  H   RET d   1      -7.425   1.613 -10.618  0.00  0.00     0.084 H 
ATOM      4  H   RET d   1      -6.291  -1.050  -9.638  0.00  0.00     0.084 H 
ENDROOT
BRANCH   1   5
ATOM      5  C6  RET d   1      -7.878   0.891  -8.579  0.00  0.00    -0.048 C 
ATOM      6  C1  RET d   1      -7.929  -0.308  -7.619  0.00  0.00    -0.020 C 
ATOM      7  C2  RET d   1      -8.840  -0.087  -6.456  0.00  0.00    -0.054 C 
ATOM      8  C3  RET d   1      -8.511   1.264  -5.910  0.00  0.00    -0.061 C 
ATOM      9  H   RET d   1      -8.700  -0.859  -5.699  0.00  0.00     0.034 H 
ATOM     10  H   RET d   1      -9.884  -0.140  -6.763  0.00  0.00     0.034 H 
ATOM     11  C4  RET d   1      -9.043   2.239  -6.914  0.00  0.00    -0.044 C 
ATOM     12  H   RET d   1      -7.438   1.386  -5.763  0.00  0.00     0.033 H 
ATOM     13  H   RET d   1      -8.957   1.418  -4.927  0.00  0.00     0.033 H 
ATOM     14  C5  RET d   1      -8.376   2.071  -8.223  0.00  0.00    -0.077 C 
ATOM     15  H   RET d   1      -8.854   3.250  -6.553  0.00  0.00     0.039 H 
ATOM     16  H   RET d   1     -10.111   2.062  -7.041  0.00  0.00     0.039 H 
BRANCH   6  17
ATOM     17  C16 RET d   1      -6.548  -0.490  -6.988  0.00  0.00    -0.065 C 
ATOM     18  H   RET d   1      -6.610  -1.227  -6.187  0.00  0.00     0.028 H 
ATOM     19  H   RET d   1      -5.846  -0.835  -7.747  0.00  0.00     0.028 H 
ATOM     20  H   RET d   1      -6.207   0.462  -6.582  0.00  0.00     0.028 H 
ENDBRANCH   6  17
BRANCH   6  21
ATOM     21  C17 RET d   1      -8.418  -1.603  -8.184  0.00  0.00    -0.065 C 
ATOM     22  H   RET d   1      -7.721  -1.951  -8.947  0.00  0.00     0.028 H 
ATOM     23  H   RET d   1      -8.486  -2.343  -7.387  0.00  0.00     0.028 H 
ATOM     24  H   RET d   1      -9.402  -1.455  -8.629  0.00  0.00     0.028 H 
ENDBRANCH   6  21
BRANCH  14  25
ATOM     25  C18 RET d   1      -8.311   3.328  -9.033  0.00  0.00    -0.054 C 
ATOM     26  H   RET d   1      -7.268   3.590  -9.211  0.00  0.00     0.033 H 
ATOM     27  H   RET d   1      -8.816   3.171  -9.986  0.00  0.00     0.033 H 
ATOM     28  H   RET d   1      -8.802   4.135  -8.489  0.00  0.00     0.033 H 
ENDBRANCH  14  25
ENDBRANCH   1   5
BRANCH   2  29
ATOM     29  C9  RET d   1      -5.974  -0.208 -11.661  0.00  0.00    -0.062 C 
ATOM     30  C10 RET d   1      -5.135  -1.167 -12.033  0.00  0.00    -0.077 C 
ATOM     31  H   RET d   1      -4.872  -1.933 -11.303  0.00  0.00     0.084 H 
BRANCH  30  32
ATOM     32  C11 RET d   1      -4.546  -1.252 -13.366  0.00  0.00    -0.082 C 
ATOM     33  C12 RET d   1      -3.872  -2.351 -13.693  0.00  0.00    -0.077 C 
ATOM     34  H   RET d   1      -3.789  -3.119 -12.924  0.00  0.00     0.084 H 
ATOM     35  H   RET d   1      -4.656  -0.433 -14.077  0.00  0.00     0.083 H 
BRANCH  33  36
ATOM     36  C13 RET d   1      -3.233  -2.637 -14.970  0.00  0.00    -0.066 C 
ATOM     37  C14 RET d   1      -2.301  -3.573 -15.141  0.00  0.00    -0.101 C 
ATOM     38  H   RET d   1      -2.031  -4.126 -14.241  0.00  0.00     0.077 H 
BRANCH  37  39
ATOM     39  C15 RET d   1      -1.595  -3.966 -16.335  0.00  0.00    -0.059 C 
ATOM     40  H   RET d   1      -2.310  -4.310 -17.082  0.00  0.00     0.032 H 
ATOM     41  H   RET d   1      -1.042  -3.112 -16.726  0.00  0.00     0.032 H 
ATOM     42  H   RET d   1      -0.901  -4.772 -16.096  0.00  0.00     0.032 H 
ENDBRANCH  37  39
BRANCH  36  43
ATOM     43  C20 RET d   1      -3.707  -1.815 -16.088  0.00  0.00    -0.051 C 
ATOM     44  H   RET d   1      -2.869  -1.259 -16.509  0.00  0.00     0.033 H 
ATOM     45  H   RET d   1      -4.138  -2.459 -16.854  0.00  0.00     0.033 H 
ATOM     46  H   RET d   1      -4.464  -1.118 -15.729  0.00  0.00     0.033 H 
ENDBRANCH  36  43
ENDBRANCH  33  36
ENDBRANCH  30  32
BRANCH  29  47
ATOM     47  C19 RET d   1      -6.412   0.879 -12.587  0.00  0.00    -0.051 C 
ATOM     48  H   RET d   1      -5.541   1.441 -12.923  0.00  0.00     0.033 H 
ATOM     49  H   RET d   1      -6.917   0.440 -13.447  0.00  0.00     0.033 H 
ATOM     50  H   RET d   1      -7.097   1.546 -12.064  0.00  0.00     0.033 H 
ENDBRANCH  29  47
ENDBRANCH   2  29
TORSDOF 10
