REMARK  8 active torsions:
REMARK  status: ('A' for Active; 'I' for Inactive)
REMARK    1  A    between atoms: C14_14  and  C15_15 
REMARK    2  A    between atoms: N35_35  and  C17_17 
REMARK    3  A    between atoms: N36_36  and  C18_18 
REMARK    4  A    between atoms: C19_19  and  O39_39 
REMARK    5  A    between atoms: O39_39  and  C20_20 
REMARK    6  A    between atoms: C28_28  and  C25_25 
REMARK    7  A    between atoms: C26_26  and  C29_29 
REMARK       I    between atoms: C28_28  and  N36_36 
REMARK    8  A    between atoms: N34_34  and  C30_30 
ROOT
ATOM      1  C3  L1X d   1      12.369  -0.804  44.996  0.00  0.00    -0.054 A 
ATOM      2  C4  L1X d   1      13.584  -1.401  44.677  0.00  0.00    -0.045 A 
ATOM      3  C9  L1X d   1      12.227  -2.079  46.996  0.00  0.00    -0.017 A 
ATOM      4  C18 L1X d   1      11.686  -1.145  46.151  0.00  0.00     0.037 A 
ATOM      5  C19 L1X d   1      14.120  -2.338  45.532  0.00  0.00     0.114 A 
ATOM      6  C22 L1X d   1      13.447  -2.664  46.685  0.00  0.00     0.152 A 
ATOM      7  F41 L1X d   1      13.954  -3.587  47.537  0.00  0.00    -0.203 F 
ATOM      8  H3  L1X d   1      11.950  -0.059  44.329  0.00  0.00     0.087 H 
ATOM      9  H4  L1X d   1      14.104  -1.131  43.765  0.00  0.00     0.088 H 
ATOM     10  H9  L1X d   1      11.704  -2.360  47.903  0.00  0.00     0.091 H 
ENDROOT
BRANCH   4  11
ATOM     11  N36 L1X d   1      10.439  -0.536  46.407  0.00  0.00    -0.326 N 
ATOM     12  C28 L1X d   1       9.828  -0.475  47.625  0.00  0.00     0.239 C 
ATOM     13  O38 L1X d   1      10.154  -1.078  48.630  0.00  0.00    -0.272 OA
ATOM     14  H24 L1X d   1       9.965  -0.115  45.633  0.00  0.00     0.169 HD
BRANCH  12  15
ATOM     15  C25 L1X d   1       8.570   0.269  47.596  0.00  0.00     0.117 A 
ATOM     16  C23 L1X d   1       7.858   0.266  48.743  0.00  0.00    -0.083 A 
ATOM     17  C24 L1X d   1       6.588   0.917  48.858  0.00  0.00    -0.084 A 
ATOM     18  H13 L1X d   1       8.264  -0.250  49.612  0.00  0.00     0.078 H 
ATOM     19  C26 L1X d   1       6.093   1.554  47.782  0.00  0.00     0.032 A 
ATOM     20  H14 L1X d   1       6.035   0.897  49.796  0.00  0.00     0.079 H 
ATOM     21  N35 L1X d   1       6.821   1.605  46.594  0.00  0.00    -0.309 N 
ATOM     22  H16 L1X d   1       5.603   0.623  47.461  0.00  0.00     0.079 H 
ATOM     23  C27 L1X d   1       8.032   0.981  46.408  0.00  0.00     0.241 A 
ATOM     24  O37 L1X d   1       8.671   0.942  45.360  0.00  0.00    -0.272 OA
ATOM     25  H15 L1X d   1       9.100   1.186  47.895  0.00  0.00     0.075 H 
BRANCH  19  26
ATOM     26  C29 L1X d   1       4.775   2.253  47.807  0.00  0.00    -0.054 C 
ATOM     27  H17 L1X d   1       4.314   2.131  48.798  0.00  0.00     0.030 H 
ATOM     28  H18 L1X d   1       4.115   1.820  47.041  0.00  0.00     0.030 H 
ATOM     29  H19 L1X d   1       4.923   3.323  47.600  0.00  0.00     0.030 H 
ENDBRANCH  19  26
BRANCH  21  30
ATOM     30  C17 L1X d   1       6.307   2.287  45.477  0.00  0.00     0.038 A 
ATOM     31  C1  L1X d   1       6.317   3.670  45.406  0.00  0.00    -0.054 A 
ATOM     32  C5  L1X d   1       5.829   4.257  44.246  0.00  0.00    -0.044 A 
ATOM     33  H1  L1X d   1       6.692   4.272  46.226  0.00  0.00     0.087 H 
ATOM     34  C21 L1X d   1       5.353   3.448  43.259  0.00  0.00     0.116 A 
ATOM     35  H5  L1X d   1       5.827   5.335  44.129  0.00  0.00     0.088 H 
ATOM     36  C6  L1X d   1       5.350   2.080  43.336  0.00  0.00    -0.044 A 
ATOM     37  F40 L1X d   1       4.858   3.988  42.128  0.00  0.00    -0.206 F 
ATOM     38  C2  L1X d   1       5.841   1.484  44.482  0.00  0.00    -0.054 A 
ATOM     39  H6  L1X d   1       4.971   1.479  42.517  0.00  0.00     0.088 H 
ATOM     40  H2  L1X d   1       5.855   0.405  44.586  0.00  0.00     0.087 H 
ENDBRANCH  21  30
ENDBRANCH  12  15
ENDBRANCH   4  11
BRANCH   5  41
ATOM     41  O39 L1X d   1      15.359  -2.922  45.244  0.00  0.00    -0.307 OA
BRANCH  41  42
ATOM     42  C20 L1X d   1      15.477  -3.732  44.129  0.00  0.00     0.088 A 
ATOM     43  C7  L1X d   1      14.393  -4.446  43.652  0.00  0.00    -0.036 A 
ATOM     44  C13 L1X d   1      14.675  -5.237  42.537  0.00  0.00     0.014 A 
ATOM     45  H7  L1X d   1      13.409  -4.396  44.105  0.00  0.00     0.089 H 
ATOM     46  C10 L1X d   1      13.915  -6.095  41.731  0.00  0.00     0.034 A 
ATOM     47  C16 L1X d   1      15.944  -5.260  41.987  0.00  0.00     0.065 A 
ATOM     48  N31 L1X d   1      14.634  -6.637  40.755  0.00  0.00    -0.184 NA
ATOM     49  H10 L1X d   1      12.856  -6.295  41.887  0.00  0.00     0.118 H 
ATOM     50  N34 L1X d   1      15.862  -6.119  40.934  0.00  0.00    -0.274 N 
ATOM     51  C8  L1X d   1      17.017  -4.544  42.450  0.00  0.00    -0.041 A 
ATOM     52  C14 L1X d   1      16.736  -3.788  43.554  0.00  0.00     0.013 A 
ATOM     53  H8  L1X d   1      17.996  -4.574  41.985  0.00  0.00     0.088 H 
BRANCH  50  54
ATOM     54  C30 L1X d   1      16.964  -6.478  40.047  0.00  0.00     0.003 C 
ATOM     55  H20 L1X d   1      16.607  -7.190  39.288  0.00  0.00     0.059 H 
ATOM     56  H21 L1X d   1      17.771  -6.942  40.634  0.00  0.00     0.059 H 
ATOM     57  H22 L1X d   1      17.345  -5.573  39.551  0.00  0.00     0.059 H 
ENDBRANCH  50  54
BRANCH  52  58
ATOM     58  C15 L1X d   1      17.838  -3.046  44.104  0.00  0.00     0.013 A 
ATOM     59  C11 L1X d   1      19.115  -2.764  43.556  0.00  0.00     0.008 A 
ATOM     60  N32 L1X d   1      19.834  -2.030  44.400  0.00  0.00    -0.289 N 
ATOM     61  H11 L1X d   1      19.459  -3.102  42.580  0.00  0.00     0.115 H 
ATOM     62  N33 L1X d   1      19.056  -1.851  45.463  0.00  0.00    -0.187 NA
ATOM     63  H23 L1X d   1      20.791  -1.675  44.260  0.00  0.00     0.188 HD
ATOM     64  C12 L1X d   1      17.826  -2.438  45.338  0.00  0.00     0.034 A 
ATOM     65  H12 L1X d   1      17.012  -2.426  46.061  0.00  0.00     0.118 H 
ENDBRANCH  52  58
ENDBRANCH  41  42
ENDBRANCH   5  41
TORSDOF 8
