REMARK  6 active torsions:
REMARK  status: ('A' for Active; 'I' for Inactive)
REMARK    1  A    between atoms: C2'_10  and  O2'_11 
REMARK    2  A    between atoms: C1'_12  and  N9_13 
REMARK    3  A    between atoms: C2_20  and  N2_21 
REMARK    4  A    between atoms: C2A_33  and  O2A_34 
REMARK    5  A    between atoms: C1A_35  and  N91_36 
REMARK    6  A    between atoms: C21_43  and  N21_44 
ROOT
ATOM      1  P1  C2E d   1     -10.806  18.934 -15.156  0.00  0.00     0.408 P 
ATOM      2  O2P C2E d   1     -10.924  20.018 -14.164  0.00  0.00    -0.624 OA
ATOM      3  O1P C2E d   1      -9.376  18.951 -15.681  0.00  0.00    -0.624 OA
ATOM      4  O5' C2E d   1     -11.670  19.151 -16.465  0.00  0.00    -0.287 OA
ATOM      5  C5' C2E d   1     -13.136  19.085 -16.375  0.00  0.00     0.058 C 
ATOM      6  C4' C2E d   1     -13.834  19.084 -17.668  0.00  0.00     0.090 C 
ATOM      7  O4' C2E d   1     -13.506  20.250 -18.344  0.00  0.00    -0.353 OA
ATOM      8  C3' C2E d   1     -13.346  18.017 -18.527  0.00  0.00     0.106 C 
ATOM      9  O3' C2E d   1     -14.003  16.781 -18.187  0.00  0.00    -0.279 OA
ATOM     10  C2' C2E d   1     -13.770  18.457 -19.769  0.00  0.00     0.106 C 
ATOM     11  C1' C2E d   1     -13.459  19.925 -19.705  0.00  0.00     0.140 C 
ATOM     12  P11 C2E d   1     -13.304  15.353 -18.233  0.00  0.00     0.408 P 
ATOM     13  O21 C2E d   1     -14.277  14.246 -18.218  0.00  0.00    -0.624 OA
ATOM     14  O11 C2E d   1     -12.559  15.261 -19.510  0.00  0.00    -0.624 OA
ATOM     15  O5A C2E d   1     -12.168  15.167 -17.072  0.00  0.00    -0.287 OA
ATOM     16  C5A C2E d   1     -12.515  14.939 -15.691  0.00  0.00     0.058 C 
ATOM     17  C4A C2E d   1     -11.483  15.087 -14.784  0.00  0.00     0.090 C 
ATOM     18  O4A C2E d   1     -10.591  13.893 -14.876  0.00  0.00    -0.353 OA
ATOM     19  C3A C2E d   1     -10.588  16.220 -15.091  0.00  0.00     0.106 C 
ATOM     20  O3A C2E d   1     -11.020  17.431 -14.527  0.00  0.00    -0.279 OA
ATOM     21  C2A C2E d   1      -9.334  15.797 -14.453  0.00  0.00     0.106 C 
ATOM     22  C1A C2E d   1      -9.290  14.337 -14.680  0.00  0.00     0.140 C 
ATOM     23  H1  C2E d   1     -13.483  19.956 -15.800  0.00  0.00     0.079 H 
ATOM     24  H2  C2E d   1     -13.405  18.162 -15.841  0.00  0.00     0.079 H 
ATOM     25  H3  C2E d   1     -14.920  18.999 -17.513  0.00  0.00     0.090 H 
ATOM     26  H4  C2E d   1     -12.253  17.902 -18.475  0.00  0.00     0.092 H 
ATOM     27  H5  C2E d   1     -13.205  17.971 -20.578  0.00  0.00     0.093 H 
ATOM     28  H7  C2E d   1     -14.193  20.516 -20.272  0.00  0.00     0.122 H 
ATOM     29  H12 C2E d   1     -12.898  13.912 -15.603  0.00  0.00     0.079 H 
ATOM     30  H13 C2E d   1     -13.309  15.650 -15.419  0.00  0.00     0.079 H 
ATOM     31  H14 C2E d   1     -11.901  15.195 -13.772  0.00  0.00     0.090 H 
ATOM     32  H15 C2E d   1     -10.469  16.344 -16.177  0.00  0.00     0.092 H 
ATOM     33  H16 C2E d   1      -8.475  16.288 -14.934  0.00  0.00     0.093 H 
ATOM     34  H18 C2E d   1      -8.868  13.848 -13.790  0.00  0.00     0.122 H 
ENDROOT
BRANCH  11  35
ATOM     35  N9  C2E d   1     -12.111  20.131 -20.253  0.00  0.00    -0.293 N 
ATOM     36  C8  C2E d   1     -10.915  20.019 -19.649  0.00  0.00     0.071 A 
ATOM     37  N7  C2E d   1      -9.965  20.260 -20.569  0.00  0.00    -0.235 NA
ATOM     38  H8  C2E d   1     -10.746  19.776 -18.601  0.00  0.00     0.144 H 
ATOM     39  C5  C2E d   1     -10.565  20.514 -21.759  0.00  0.00     0.159 A 
ATOM     40  C6  C2E d   1     -10.095  20.832 -23.044  0.00  0.00     0.226 A 
ATOM     41  C4  C2E d   1     -11.939  20.428 -21.550  0.00  0.00     0.185 A 
ATOM     42  O6  C2E d   1      -8.705  20.928 -23.281  0.00  0.00    -0.169 OA
ATOM     43  N1  C2E d   1     -10.973  21.047 -24.033  0.00  0.00    -0.164 N 
ATOM     44  C2  C2E d   1     -12.286  20.959 -23.789  0.00  0.00     0.702 A 
ATOM     45  H9  C2E d   1     -10.648  21.273 -24.951  0.00  0.00     0.186 HD
ATOM     46  N3  C2E d   1     -12.783  20.654 -22.570  0.00  0.00    -0.044 NA
BRANCH  44  47
ATOM     47  N2  C2E d   1     -13.213  21.188 -24.883  0.00  0.00    -0.233 N 
ATOM     48  H10 C2E d   1     -14.228  21.126 -24.720  0.00  0.00     0.174 HD
ATOM     49  H11 C2E d   1     -12.855  21.413 -25.823  0.00  0.00     0.174 HD
ENDBRANCH  44  47
ENDBRANCH  11  35
BRANCH  10  50
ATOM     50  O2' C2E d   1     -15.122  18.213 -19.948  0.00  0.00    -0.388 OA
ATOM     51  H6  C2E d   1     -15.286  17.279 -19.883  0.00  0.00     0.210 HD
ENDBRANCH  10  50
BRANCH  21  52
ATOM     52  O2A C2E d   1      -9.321  16.087 -13.120  0.00  0.00    -0.388 OA
ATOM     53  H17 C2E d   1      -8.498  15.800 -12.743  0.00  0.00     0.210 HD
ENDBRANCH  21  52
BRANCH  22  54
ATOM     54  N91 C2E d   1      -8.442  13.986 -15.869  0.00  0.00    -0.293 N 
ATOM     55  C81 C2E d   1      -8.806  14.014 -17.168  0.00  0.00     0.071 A 
ATOM     56  N71 C2E d   1      -7.751  13.637 -17.912  0.00  0.00    -0.235 NA
ATOM     57  H19 C2E d   1      -9.787  14.294 -17.549  0.00  0.00     0.144 H 
ATOM     58  C51 C2E d   1      -6.704  13.361 -17.095  0.00  0.00     0.159 A 
ATOM     59  C61 C2E d   1      -5.382  12.937 -17.262  0.00  0.00     0.226 A 
ATOM     60  C41 C2E d   1      -7.164  13.595 -15.796  0.00  0.00     0.185 A 
ATOM     61  O61 C2E d   1      -4.854  12.686 -18.526  0.00  0.00    -0.169 OA
ATOM     62  N11 C2E d   1      -4.611  12.766 -16.167  0.00  0.00    -0.164 N 
ATOM     63  C21 C2E d   1      -5.102  13.001 -14.937  0.00  0.00     0.702 A 
ATOM     64  H20 C2E d   1      -3.664  12.461 -16.272  0.00  0.00     0.186 HD
ATOM     65  N31 C2E d   1      -6.361  13.413 -14.740  0.00  0.00    -0.044 NA
BRANCH  63  66
ATOM     66  N21 C2E d   1      -4.270  12.816 -13.807  0.00  0.00    -0.233 N 
ATOM     67  H21 C2E d   1      -4.638  12.994 -12.862  0.00  0.00     0.174 HD
ATOM     68  H22 C2E d   1      -3.296  12.504 -13.930  0.00  0.00     0.174 HD
ENDBRANCH  63  66
ENDBRANCH  22  54
TORSDOF 6
