REMARK  10 active torsions:
REMARK  status: ('A' for Active; 'I' for Inactive)
REMARK    1  A    between atoms: C1_1  and  C16_16 
REMARK    2  A    between atoms: C1_1  and  C17_17 
REMARK    3  A    between atoms: C5_5  and  C18_18 
REMARK    4  A    between atoms: C6_6  and  C7_7 
REMARK    5  A    between atoms: C8_8  and  C9_9 
REMARK    6  A    between atoms: C9_9  and  C19_19 
REMARK    7  A    between atoms: C10_10  and  C11_11 
REMARK    8  A    between atoms: C12_12  and  C13_13 
REMARK    9  A    between atoms: C13_13  and  C20_20 
REMARK   10  A    between atoms: C14_14  and  C15_15 
ROOT
ATOM      1  C7  RET d   1      -7.207   2.884 -10.573  0.00  0.00    -0.075 C 
ATOM      2  C8  RET d   1      -6.035   2.335 -10.935  0.00  0.00    -0.077 C 
ATOM      3  H   RET d   1      -7.898   3.238 -11.338  0.00  0.00     0.084 H 
ATOM      4  H   RET d   1      -5.358   1.977 -10.159  0.00  0.00     0.084 H 
ENDROOT
BRANCH   1   5
ATOM      5  C6  RET d   1      -7.566   3.011  -9.139  0.00  0.00    -0.048 C 
ATOM      6  C1  RET d   1      -7.570   1.780  -8.221  0.00  0.00    -0.020 C 
ATOM      7  C2  RET d   1      -8.363   1.977  -6.940  0.00  0.00    -0.054 C 
ATOM      8  C3  RET d   1      -8.070   3.350  -6.341  0.00  0.00    -0.061 C 
ATOM      9  H   RET d   1      -8.077   1.208  -6.223  0.00  0.00     0.034 H 
ATOM     10  H   RET d   1      -9.427   1.907  -7.166  0.00  0.00     0.034 H 
ATOM     11  C4  RET d   1      -8.381   4.500  -7.297  0.00  0.00    -0.044 C 
ATOM     12  H   RET d   1      -7.005   3.390  -6.110  0.00  0.00     0.033 H 
ATOM     13  H   RET d   1      -8.703   3.470  -5.462  0.00  0.00     0.033 H 
ATOM     14  C5  RET d   1      -7.861   4.260  -8.711  0.00  0.00    -0.077 C 
ATOM     15  H   RET d   1      -7.891   5.394  -6.911  0.00  0.00     0.039 H 
ATOM     16  H   RET d   1      -9.465   4.599  -7.355  0.00  0.00     0.039 H 
BRANCH   6  17
ATOM     17  C16 RET d   1      -8.098   0.523  -8.917  0.00  0.00    -0.065 C 
ATOM     18  H   RET d   1      -7.459   0.284  -9.767  0.00  0.00     0.028 H 
ATOM     19  H   RET d   1      -8.094  -0.309  -8.213  0.00  0.00     0.028 H 
ATOM     20  H   RET d   1      -9.116   0.702  -9.265  0.00  0.00     0.028 H 
ENDBRANCH   6  17
BRANCH   6  21
ATOM     21  C17 RET d   1      -6.154   1.445  -7.770  0.00  0.00    -0.065 C 
ATOM     22  H   RET d   1      -6.183   0.597  -7.085  0.00  0.00     0.028 H 
ATOM     23  H   RET d   1      -5.548   1.191  -8.639  0.00  0.00     0.028 H 
ATOM     24  H   RET d   1      -5.722   2.308  -7.264  0.00  0.00     0.028 H 
ENDBRANCH   6  21
BRANCH  14  25
ATOM     25  C18 RET d   1      -7.686   5.477  -9.607  0.00  0.00    -0.054 C 
ATOM     26  H   RET d   1      -6.641   5.560  -9.905  0.00  0.00     0.033 H 
ATOM     27  H   RET d   1      -8.311   5.367 -10.493  0.00  0.00     0.033 H 
ATOM     28  H   RET d   1      -7.981   6.373  -9.062  0.00  0.00     0.033 H 
ENDBRANCH  14  25
ENDBRANCH   1   5
BRANCH   2  29
ATOM     29  C9  RET d   1      -5.633   2.200 -12.354  0.00  0.00    -0.062 C 
ATOM     30  C10 RET d   1      -4.706   1.268 -12.658  0.00  0.00    -0.077 C 
ATOM     31  H   RET d   1      -4.287   0.665 -11.853  0.00  0.00     0.084 H 
BRANCH  30  32
ATOM     32  C11 RET d   1      -4.240   1.034 -14.030  0.00  0.00    -0.082 C 
ATOM     33  C12 RET d   1      -3.183   0.237 -14.164  0.00  0.00    -0.077 C 
ATOM     34  H   RET d   1      -2.679  -0.191 -13.297  0.00  0.00     0.084 H 
ATOM     35  H   RET d   1      -4.732   1.488 -14.890  0.00  0.00     0.083 H 
BRANCH  33  36
ATOM     36  C13 RET d   1      -2.729  -0.039 -15.523  0.00  0.00    -0.066 C 
ATOM     37  C14 RET d   1      -1.937  -1.064 -15.734  0.00  0.00    -0.101 C 
ATOM     38  H   RET d   1      -1.588  -1.709 -14.928  0.00  0.00     0.077 H 
BRANCH  37  39
ATOM     39  C15 RET d   1      -1.547  -1.283 -17.163  0.00  0.00    -0.059 C 
ATOM     40  H   RET d   1      -2.442  -1.453 -17.761  0.00  0.00     0.032 H 
ATOM     41  H   RET d   1      -1.023  -0.403 -17.534  0.00  0.00     0.032 H 
ATOM     42  H   RET d   1      -0.893  -2.152 -17.231  0.00  0.00     0.032 H 
ENDBRANCH  37  39
BRANCH  36  43
ATOM     43  C20 RET d   1      -3.182   0.797 -16.684  0.00  0.00    -0.051 C 
ATOM     44  H   RET d   1      -2.313   1.227 -17.182  0.00  0.00     0.033 H 
ATOM     45  H   RET d   1      -3.733   0.172 -17.387  0.00  0.00     0.033 H 
ATOM     46  H   RET d   1      -3.829   1.597 -16.324  0.00  0.00     0.033 H 
ENDBRANCH  36  43
ENDBRANCH  33  36
ENDBRANCH  30  32
BRANCH  29  47
ATOM     47  C19 RET d   1      -6.221   3.094 -13.420  0.00  0.00    -0.051 C 
ATOM     48  H   RET d   1      -5.424   3.673 -13.887  0.00  0.00     0.033 H 
ATOM     49  H   RET d   1      -6.716   2.482 -14.174  0.00  0.00     0.033 H 
ATOM     50  H   RET d   1      -6.945   3.770 -12.966  0.00  0.00     0.033 H 
ENDBRANCH  29  47
ENDBRANCH   2  29
TORSDOF 10
