REMARK  4 active torsions:
REMARK  status: ('A' for Active; 'I' for Inactive)
REMARK    1  A    between atoms: C2_2  and  O14_14 
REMARK    2  A    between atoms: C7_7  and  C10_10 
REMARK    3  A    between atoms: C10_10  and  C11_11 
REMARK    4  A    between atoms: C11_11  and  C15_15 
ROOT
ATOM      1  C10 EFT d   1      69.111  32.906  26.338  0.00  0.00     0.075 C 
ATOM      2  C12 EFT d   1      69.520  34.319  26.295  0.00  0.00     0.070 C 
ATOM      3  N13 EFT d   1      69.833  35.410  26.296  0.00  0.00    -0.197 NA
ATOM      4  H5  EFT d   1      69.697  32.395  27.116  0.00  0.00     0.072 H 
ENDROOT
BRANCH   1   5
ATOM      5  C7  EFT d   1      67.656  32.836  26.733  0.00  0.00     0.085 A 
ATOM      6  N6  EFT d   1      67.182  32.409  27.885  0.00  0.00    -0.177 NA
ATOM      7  N5  EFT d   1      65.799  32.495  27.921  0.00  0.00    -0.277 N 
ATOM      8  C9  EFT d   1      65.378  33.059  26.734  0.00  0.00     0.065 A 
ATOM      9  H4  EFT d   1      65.193  32.192  28.697  0.00  0.00     0.189 HD
ATOM     10  C3  EFT d   1      64.121  33.406  26.217  0.00  0.00    -0.023 A 
ATOM     11  C8  EFT d   1      66.535  33.309  25.935  0.00  0.00     0.020 A 
ATOM     12  C2  EFT d   1      64.052  33.976  24.956  0.00  0.00     0.068 A 
ATOM     13  H2  EFT d   1      63.220  33.231  26.794  0.00  0.00     0.091 H 
ATOM     14  C1  EFT d   1      65.187  34.221  24.167  0.00  0.00    -0.050 A 
ATOM     15  C4  EFT d   1      66.423  33.900  24.656  0.00  0.00    -0.066 A 
ATOM     16  H1  EFT d   1      65.085  34.660  23.181  0.00  0.00     0.087 H 
ATOM     17  H3  EFT d   1      67.311  34.097  24.067  0.00  0.00     0.085 H 
BRANCH  12  18
ATOM     18  O14 EFT d   1      62.846  34.249  24.442  0.00  0.00    -0.361 OA
ATOM     19  H8  EFT d   1      62.343  33.446  24.373  0.00  0.00     0.217 HD
ENDBRANCH  12  18
ENDBRANCH   1   5
BRANCH   1  20
ATOM     20  C11 EFT d   1      69.423  32.221  25.000  0.00  0.00    -0.041 C 
ATOM     21  H6  EFT d   1      69.570  33.002  24.239  0.00  0.00     0.036 H 
ATOM     22  H7  EFT d   1      68.561  31.596  24.723  0.00  0.00     0.036 H 
BRANCH  20  23
ATOM     23  C15 EFT d   1      70.671  31.333  25.024  0.00  0.00    -0.053 C 
ATOM     24  C16 EFT d   1      70.733  30.667  23.644  0.00  0.00    -0.062 C 
ATOM     25  C17 EFT d   1      71.940  29.740  23.515  0.00  0.00    -0.065 C 
ATOM     26  H10 EFT d   1      70.801  31.449  22.874  0.00  0.00     0.033 H 
ATOM     27  H11 EFT d   1      69.815  30.080  23.490  0.00  0.00     0.033 H 
ATOM     28  C18 EFT d   1      73.248  30.501  23.784  0.00  0.00    -0.065 C 
ATOM     29  H12 EFT d   1      71.968  29.325  22.497  0.00  0.00     0.033 H 
ATOM     30  H13 EFT d   1      71.844  28.921  24.243  0.00  0.00     0.033 H 
ATOM     31  C19 EFT d   1      73.196  31.189  25.162  0.00  0.00    -0.065 C 
ATOM     32  H14 EFT d   1      73.391  31.263  23.004  0.00  0.00     0.033 H 
ATOM     33  H15 EFT d   1      74.090  29.793  23.764  0.00  0.00     0.033 H 
ATOM     34  C20 EFT d   1      71.974  32.127  25.258  0.00  0.00    -0.062 C 
ATOM     35  H16 EFT d   1      74.115  31.777  25.307  0.00  0.00     0.033 H 
ATOM     36  H17 EFT d   1      73.124  30.421  25.946  0.00  0.00     0.033 H 
ATOM     37  H18 EFT d   1      71.946  32.585  26.258  0.00  0.00     0.033 H 
ATOM     38  H19 EFT d   1      72.061  32.915  24.496  0.00  0.00     0.033 H 
ATOM     39  H9  EFT d   1      70.569  30.573  25.813  0.00  0.00     0.040 H 
ENDBRANCH  20  23
ENDBRANCH   1  20
TORSDOF 4
