REMARK  9 active torsions:
REMARK  status: ('A' for Active; 'I' for Inactive)
REMARK    1  A    between atoms: CAA_1  and  CAL_2 
REMARK    2  A    between atoms: CAL_2  and  OAT_3 
REMARK    3  A    between atoms: OAT_3  and  CAY_4 
REMARK    4  A    between atoms: CAX_11  and  CAP_12 
REMARK    5  A    between atoms: CAP_12  and  NAQ_13 
REMARK    6  A    between atoms: NAQ_13  and  CAN_14 
REMARK    7  A    between atoms: CAN_14  and  CAM_15 
REMARK    8  A    between atoms: CAM_15  and  CAO_16 
REMARK    9  A    between atoms: CAO_16  and  NAR_17 
ROOT
ATOM      1  CAN MOL d   1      42.186  11.901  -9.198  0.00  0.00     0.084 C 
ATOM      2  H12 MOL d   1      42.471  12.962  -9.152  0.00  0.00     0.075 H 
ATOM      3  H13 MOL d   1      41.134  11.817  -9.508  0.00  0.00     0.075 H 
ENDROOT
BRANCH   1   4
ATOM      4  NAQ MOL d   1      42.373  11.267  -7.863  0.00  0.00    -0.071 N 
ATOM      5  H10 MOL d   1      42.293  10.268  -7.969  0.00  0.00     0.277 HD
ATOM      6  H11 MOL d   1      43.295  11.496  -7.526  0.00  0.00     0.277 HD
BRANCH   4   7
ATOM      7  CAP MOL d   1      41.388  11.711  -6.865  0.00  0.00     0.108 C 
ATOM      8  H8  MOL d   1      40.516  11.047  -6.956  0.00  0.00     0.083 H 
ATOM      9  H9  MOL d   1      41.849  11.577  -5.875  0.00  0.00     0.083 H 
BRANCH   7  10
ATOM     10  CAX MOL d   1      40.862  13.159  -6.926  0.00  0.00     0.003 A 
ATOM     11  CAY MOL d   1      41.641  14.309  -7.013  0.00  0.00     0.094 A 
ATOM     12  CAV MOL d   1      41.009  15.575  -7.038  0.00  0.00     0.046 A 
ATOM     13 BR2  MOL d   1      41.836  17.303  -7.167  0.00  0.00    -0.048 Br
ATOM     14  CAI MOL d   1      39.628  15.641  -6.967  0.00  0.00    -0.047 A 
ATOM     15  CAU MOL d   1      38.862  14.507  -6.869  0.00  0.00     0.013 A 
ATOM     16  H6  MOL d   1      39.141  16.609  -6.989  0.00  0.00     0.087 H 
ATOM     17 BR1  MOL d   1      36.987  14.701  -6.760  0.00  0.00    -0.051 Br
ATOM     18  CAJ MOL d   1      39.479  13.272  -6.845  0.00  0.00    -0.056 A 
ATOM     19  H7  MOL d   1      38.875  12.376  -6.762  0.00  0.00     0.086 H 
BRANCH  11  20
ATOM     20  OAT MOL d   1      42.988  14.071  -7.077  0.00  0.00    -0.349 OA
BRANCH  20  21
ATOM     21  CAL MOL d   1      43.946  15.139  -7.250  0.00  0.00     0.023 C 
ATOM     22  H4  MOL d   1      43.779  15.623  -8.223  0.00  0.00     0.074 H 
ATOM     23  H5  MOL d   1      43.816  15.878  -6.446  0.00  0.00     0.074 H 
BRANCH  21  24
ATOM     24  CAA MOL d   1      45.367  14.584  -7.200  0.00  0.00    -0.056 C 
ATOM     25  H1  MOL d   1      46.086  15.405  -7.333  0.00  0.00     0.030 H 
ATOM     26  H2  MOL d   1      45.501  13.846  -8.005  0.00  0.00     0.030 H 
ATOM     27  H3  MOL d   1      45.538  14.101  -6.227  0.00  0.00     0.030 H 
ENDBRANCH  21  24
ENDBRANCH  20  21
ENDBRANCH  11  20
ENDBRANCH   7  10
ENDBRANCH   4   7
ENDBRANCH   1   4
BRANCH   1  28
ATOM     28  CAM MOL d   1      43.094  11.155 -10.208  0.00  0.00    -0.026 C 
ATOM     29  H14 MOL d   1      42.445  10.628 -10.923  0.00  0.00     0.037 H 
ATOM     30  H15 MOL d   1      43.694  10.422  -9.649  0.00  0.00     0.037 H 
BRANCH  28  31
ATOM     31  CAO MOL d   1      44.064  12.052 -11.014  0.00  0.00     0.018 C 
ATOM     32  H16 MOL d   1      44.858  11.433 -11.458  0.00  0.00     0.067 H 
ATOM     33  H17 MOL d   1      44.514  12.802 -10.347  0.00  0.00     0.067 H 
BRANCH  31  34
ATOM     34  NAR MOL d   1      43.307  12.729 -12.083  0.00  0.00    -0.276 NA
ATOM     35  CAW MOL d   1      43.823  13.637 -12.914  0.00  0.00     0.106 A 
ATOM     36  CAK MOL d   1      45.176  13.677 -13.268  0.00  0.00     0.049 A 
ATOM     37  NAS MOL d   1      42.950  14.572 -13.452  0.00  0.00    -0.344 N 
ATOM     38  CAZ MOL d   1      45.653  14.655 -14.154  0.00  0.00     0.168 A 
ATOM     39  H18 MOL d   1      45.413  12.702 -13.719  0.00  0.00     0.056 H 
ATOM     40  H19 MOL d   1      45.743  13.796 -12.333  0.00  0.00     0.056 H 
ATOM     41  OAB MOL d   1      46.857  14.690 -14.452  0.00  0.00    -0.292 OA
ATOM     42  CBB MOL d   1      44.752  15.593 -14.689  0.00  0.00     0.037 A 
ATOM     43  CAH MOL d   1      45.178  16.588 -15.569  0.00  0.00    -0.067 A 
ATOM     44  CBA MOL d   1      43.404  15.547 -14.338  0.00  0.00     0.047 A 
ATOM     45  CAF MOL d   1      44.266  17.507 -16.082  0.00  0.00    -0.082 A 
ATOM     46  H20 MOL d   1      46.222  16.646 -15.854  0.00  0.00     0.085 H 
ATOM     47  CAE MOL d   1      42.925  17.448 -15.731  0.00  0.00    -0.081 A 
ATOM     48  H21 MOL d   1      44.608  18.277 -16.764  0.00  0.00     0.083 H 
ATOM     49  CAG MOL d   1      42.495  16.462 -14.861  0.00  0.00    -0.056 A 
ATOM     50  H22 MOL d   1      42.221  18.167 -16.134  0.00  0.00     0.083 H 
ATOM     51  H23 MOL d   1      41.448  16.402 -14.586  0.00  0.00     0.086 H 
ATOM     52  H24 MOL d   1      41.953  14.545 -13.193  0.00  0.00     0.167 HD
ENDBRANCH  31  34
ENDBRANCH  28  31
ENDBRANCH   1  28
TORSDOF 9
