REMARK  6 active torsions:
REMARK  status: ('A' for Active; 'I' for Inactive)
REMARK    1  A    between atoms: CAU_8  and  CAO_9 
REMARK    2  A    between atoms: CAO_9  and  NAP_10 
REMARK    3  A    between atoms: NAP_10  and  CAM_11 
REMARK    4  A    between atoms: CAM_11  and  CAL_12 
REMARK    5  A    between atoms: CAL_12  and  CAN_13 
REMARK    6  A    between atoms: CAN_13  and  NAQ_14 
ROOT
ATOM      1  CAL MOL d   1      42.936 -11.197  10.421  0.00  0.00    -0.026 C 
ATOM      2  H10 MOL d   1      41.919 -11.142  10.837  0.00  0.00     0.037 H 
ATOM      3  H11 MOL d   1      43.353 -10.183  10.335  0.00  0.00     0.037 H 
ENDROOT
BRANCH   1   4
ATOM      4  CAM MOL d   1      42.864 -11.824   9.017  0.00  0.00     0.084 C 
ATOM      5  H8  MOL d   1      43.554 -11.302   8.337  0.00  0.00     0.075 H 
ATOM      6  H9  MOL d   1      43.135 -12.889   9.068  0.00  0.00     0.075 H 
BRANCH   4   7
ATOM      7  NAP MOL d   1      41.472 -11.679   8.533  0.00  0.00    -0.071 N 
ATOM      8  H6  MOL d   1      40.853 -12.261   9.075  0.00  0.00     0.277 HD
ATOM      9  H7  MOL d   1      41.178 -10.718   8.604  0.00  0.00     0.277 HD
BRANCH   7  10
ATOM     10  CAO MOL d   1      41.468 -12.104   7.138  0.00  0.00     0.105 C 
ATOM     11  H4  MOL d   1      40.975 -11.352   6.504  0.00  0.00     0.083 H 
ATOM     12  H5  MOL d   1      42.495 -12.270   6.780  0.00  0.00     0.083 H 
BRANCH  10  13
ATOM     13  CAU MOL d   1      40.678 -13.413   7.136  0.00  0.00    -0.029 A 
ATOM     14  CAI MOL d   1      41.383 -14.604   7.148  0.00  0.00    -0.054 A 
ATOM     15  CAS MOL d   1      40.696 -15.805   7.161  0.00  0.00     0.036 A 
ATOM     16  H1  MOL d   1      42.467 -14.596   7.147  0.00  0.00     0.086 H 
ATOM     17 CL1  MOL d   1      41.548 -17.292   7.147  0.00  0.00    -0.084 Cl
ATOM     18  CAH MOL d   1      39.320 -15.835   7.170  0.00  0.00    -0.041 A 
ATOM     19  CAT MOL d   1      38.613 -14.646   7.168  0.00  0.00     0.036 A 
ATOM     20  H2  MOL d   1      38.794 -16.783   7.179  0.00  0.00     0.088 H 
ATOM     21 CL2  MOL d   1      36.889 -14.769   7.178  0.00  0.00    -0.084 Cl
ATOM     22  CAJ MOL d   1      39.282 -13.421   7.163  0.00  0.00    -0.054 A 
ATOM     23  H3  MOL d   1      38.726 -12.490   7.180  0.00  0.00     0.086 H 
ENDBRANCH  10  13
ENDBRANCH   7  10
ENDBRANCH   4   7
ENDBRANCH   1   4
BRANCH   1  24
ATOM     24  CAN MOL d   1      43.816 -12.014  11.374  0.00  0.00     0.018 C 
ATOM     25  H12 MOL d   1      44.297 -11.335  12.093  0.00  0.00     0.067 H 
ATOM     26  H13 MOL d   1      44.588 -12.539  10.792  0.00  0.00     0.067 H 
BRANCH  24  27
ATOM     27  NAQ MOL d   1      43.008 -13.002  12.108  0.00  0.00    -0.276 NA
ATOM     28  CAV MOL d   1      43.538 -13.875  12.982  0.00  0.00     0.106 A 
ATOM     29  CAK MOL d   1      44.905 -13.905  13.304  0.00  0.00     0.049 A 
ATOM     30  NAR MOL d   1      42.675 -14.798  13.596  0.00  0.00    -0.344 N 
ATOM     31  CAW MOL d   1      45.403 -14.840  14.224  0.00  0.00     0.168 A 
ATOM     32  H14 MOL d   1      45.157 -12.910  13.700  0.00  0.00     0.056 H 
ATOM     33  H15 MOL d   1      45.447 -14.072  12.361  0.00  0.00     0.056 H 
ATOM     34  OAA MOL d   1      46.605 -14.879  14.501  0.00  0.00    -0.292 OA
ATOM     35  CAY MOL d   1      44.530 -15.753  14.824  0.00  0.00     0.037 A 
ATOM     36  CAG MOL d   1      45.001 -16.700  15.736  0.00  0.00    -0.067 A 
ATOM     37  CAX MOL d   1      43.167 -15.733  14.514  0.00  0.00     0.047 A 
ATOM     38  CAE MOL d   1      44.112 -17.607  16.328  0.00  0.00    -0.082 A 
ATOM     39  H16 MOL d   1      46.055 -16.733  15.986  0.00  0.00     0.085 H 
ATOM     40  CAD MOL d   1      42.751 -17.591  16.025  0.00  0.00    -0.081 A 
ATOM     41  H17 MOL d   1      44.490 -18.336  17.036  0.00  0.00     0.083 H 
ATOM     42  CAF MOL d   1      42.290 -16.643  15.115  0.00  0.00    -0.056 A 
ATOM     43  H18 MOL d   1      42.070 -18.298  16.485  0.00  0.00     0.083 H 
ATOM     44  H19 MOL d   1      41.235 -16.609  14.868  0.00  0.00     0.086 H 
ATOM     45  H20 MOL d   1      41.670 -14.787  13.368  0.00  0.00     0.167 HD
ENDBRANCH  24  27
ENDBRANCH   1  24
TORSDOF 6
