REMARK  8 active torsions:
REMARK  status: ('A' for Active; 'I' for Inactive)
REMARK    1  A    between atoms: CAZ_4  and  OAV_5 
REMARK    2  A    between atoms: OAV_5  and  CAA_6 
REMARK    3  A    between atoms: CBD_9  and  OAW_10 
REMARK    4  A    between atoms: OAW_10  and  C4_11 
REMARK    5  A    between atoms: C2_14  and  N_15 
REMARK    6  A    between atoms: C6_23  and  NAT_24 
REMARK    7  A    between atoms: NAT_24  and  CAN_25 
REMARK    8  A    between atoms: CAN_25  and  CBC_26 
ROOT
ATOM      1  C4  MOL d   1     -42.750 -13.547  -7.870  0.00  0.00     0.192 A 
ATOM      2  C5  MOL d   1     -42.242 -13.153  -9.113  0.00  0.00     0.014 A 
ATOM      3  N3  MOL d   1     -44.067 -13.697  -7.721  0.00  0.00    -0.038 NA
ATOM      4  C2  MOL d   1     -44.897 -13.477  -8.749  0.00  0.00     0.729 A 
ATOM      5  N1  MOL d   1     -44.440 -13.107  -9.949  0.00  0.00    -0.045 NA
ATOM      6  C6  MOL d   1     -43.136 -12.940 -10.157  0.00  0.00     0.147 A 
ATOM      7  H7  MOL d   1     -41.176 -13.017  -9.259  0.00  0.00     0.096 H 
ENDROOT
BRANCH   6   8
ATOM      8  NAT MOL d   1     -42.717 -12.571 -11.356  0.00  0.00    -0.367 N 
ATOM      9  H15 MOL d   1     -41.719 -12.364 -11.505  0.00  0.00     0.161 HD
BRANCH   8  10
ATOM     10  CAN MOL d   1     -43.660 -12.452 -12.480  0.00  0.00     0.049 C 
ATOM     11  H16 MOL d   1     -43.357 -11.605 -13.113  0.00  0.00     0.075 H 
ATOM     12  H17 MOL d   1     -44.670 -12.271 -12.083  0.00  0.00     0.075 H 
BRANCH  10  13
ATOM     13  CBC MOL d   1     -43.680 -13.717 -13.323  0.00  0.00     0.123 A 
ATOM     14  NAU MOL d   1     -44.754 -14.181 -13.949  0.00  0.00    -0.341 N 
ATOM     15  CBG MOL d   1     -44.422 -15.301 -14.582  0.00  0.00     0.062 A 
ATOM     16  H18 MOL d   1     -45.688 -13.746 -13.945  0.00  0.00     0.167 HD
ATOM     17  CAI MOL d   1     -45.152 -16.184 -15.373  0.00  0.00    -0.055 A 
ATOM     18  CBF MOL d   1     -43.075 -15.527 -14.333  0.00  0.00     0.085 A 
ATOM     19  CAE MOL d   1     -44.517 -17.294 -15.918  0.00  0.00    -0.081 A 
ATOM     20  H19 MOL d   1     -46.205 -16.008 -15.562  0.00  0.00     0.087 H 
ATOM     21  CAD MOL d   1     -43.163 -17.515 -15.664  0.00  0.00    -0.081 A 
ATOM     22  H20 MOL d   1     -45.073 -17.987 -16.539  0.00  0.00     0.083 H 
ATOM     23  CAH MOL d   1     -42.434 -16.630 -14.878  0.00  0.00    -0.053 A 
ATOM     24  H21 MOL d   1     -42.674 -18.387 -16.084  0.00  0.00     0.083 H 
ATOM     25  H22 MOL d   1     -41.379 -16.799 -14.694  0.00  0.00     0.087 H 
ATOM     26  NAR MOL d   1     -42.654 -14.536 -13.559  0.00  0.00    -0.232 NA
ENDBRANCH  10  13
ENDBRANCH   8  10
ENDBRANCH   6   8
BRANCH   1  27
ATOM     27  OAW MOL d   1     -41.987 -13.772  -6.777  0.00  0.00    -0.290 OA
BRANCH  27  28
ATOM     28  CBD MOL d   1     -40.642 -13.881  -6.922  0.00  0.00     0.099 A 
ATOM     29  CAY MOL d   1     -40.110 -15.148  -7.003  0.00  0.00     0.070 A 
ATOM     30 CL1  MOL d   1     -41.197 -16.483  -6.968  0.00  0.00    -0.081 Cl
ATOM     31  CAJ MOL d   1     -38.744 -15.335  -7.132  0.00  0.00    -0.027 A 
ATOM     32  CAZ MOL d   1     -37.901 -14.224  -7.168  0.00  0.00     0.070 A 
ATOM     33  H1  MOL d   1     -38.333 -16.336  -7.204  0.00  0.00     0.090 H 
ATOM     34  CAF MOL d   1     -38.437 -12.945  -7.089  0.00  0.00    -0.048 A 
ATOM     35  CAG MOL d   1     -39.809 -12.769  -6.955  0.00  0.00    -0.046 A 
ATOM     36  H5  MOL d   1     -37.783 -12.082  -7.132  0.00  0.00     0.087 H 
ATOM     37  H6  MOL d   1     -40.226 -11.772  -6.877  0.00  0.00     0.087 H 
BRANCH  32  38
ATOM     38  OAV MOL d   1     -36.559 -14.367  -7.293  0.00  0.00    -0.356 OA
BRANCH  38  39
ATOM     39  CAA MOL d   1     -36.166 -15.662  -6.864  0.00  0.00     0.010 C 
ATOM     40  H2  MOL d   1     -35.076 -15.768  -6.969  0.00  0.00     0.066 H 
ATOM     41  H3  MOL d   1     -36.669 -16.421  -7.481  0.00  0.00     0.066 H 
ATOM     42  H4  MOL d   1     -36.448 -15.800  -5.810  0.00  0.00     0.066 H 
ENDBRANCH  38  39
ENDBRANCH  32  38
ENDBRANCH  27  28
ENDBRANCH   1  27
BRANCH   4  43
ATOM     43  N   MOL d   1     -46.260 -13.659  -8.581  0.00  0.00    -0.204 N 
ATOM     44  CA  MOL d   1     -46.807 -13.812  -7.207  0.00  0.00     0.085 C 
ATOM     45  C   MOL d   1     -48.173 -14.465  -7.285  0.00  0.00     0.236 C 
ATOM     46  H8  MOL d   1     -46.898 -12.823  -6.735  0.00  0.00     0.079 H 
ATOM     47  H9  MOL d   1     -46.131 -14.442  -6.610  0.00  0.00     0.079 H 
ATOM     48  NAS MOL d   1     -48.997 -14.203  -8.385  0.00  0.00    -0.358 N 
ATOM     49  O   MOL d   1     -48.558 -15.206  -6.387  0.00  0.00    -0.272 OA
ATOM     50  CAL MOL d   1     -48.522 -13.302  -9.458  0.00  0.00     0.011 C 
ATOM     51  H14 MOL d   1     -49.903 -14.623  -8.446  0.00  0.00     0.162 HD
ATOM     52  CAM MOL d   1     -47.113 -13.749  -9.800  0.00  0.00     0.027 C 
ATOM     53  H12 MOL d   1     -49.173 -13.386 -10.341  0.00  0.00     0.066 H 
ATOM     54  H13 MOL d   1     -48.516 -12.260  -9.105  0.00  0.00     0.066 H 
ATOM     55  H10 MOL d   1     -47.134 -14.789 -10.158  0.00  0.00     0.067 H 
ATOM     56  H11 MOL d   1     -46.701 -13.098 -10.586  0.00  0.00     0.067 H 
ENDBRANCH   4  43
TORSDOF 8
