REMARK  7 active torsions:
REMARK  status: ('A' for Active; 'I' for Inactive)
REMARK    1  A    between atoms: CAT_8  and  CAM_9 
REMARK    2  A    between atoms: CAM_9  and  NAO_10 
REMARK    3  A    between atoms: NAO_10  and  CAK_11 
REMARK    4  A    between atoms: CAK_11  and  CAJ_12 
REMARK    5  A    between atoms: CAJ_12  and  CAL_13 
REMARK    6  A    between atoms: CAL_13  and  NAP_14 
REMARK    7  A    between atoms: NAP_14  and  CAU_15 
ROOT
ATOM      1  CAJ MOL d   1     -43.839  11.440  10.221  0.00  0.00    -0.027 C 
ATOM      2  H10 MOL d   1     -42.879  11.211  10.706  0.00  0.00     0.037 H 
ATOM      3  H11 MOL d   1     -44.424  10.515  10.110  0.00  0.00     0.037 H 
ENDROOT
BRANCH   1   4
ATOM      4  CAK MOL d   1     -43.564  12.019   8.833  0.00  0.00     0.083 C 
ATOM      5  H8  MOL d   1     -44.305  11.627   8.121  0.00  0.00     0.075 H 
ATOM      6  H9  MOL d   1     -43.640  13.116   8.874  0.00  0.00     0.075 H 
BRANCH   4   7
ATOM      7  NAO MOL d   1     -42.214  11.641   8.388  0.00  0.00    -0.071 N 
ATOM      8  H6  MOL d   1     -41.512  12.113   8.936  0.00  0.00     0.277 HD
ATOM      9  H7  MOL d   1     -42.081  10.644   8.457  0.00  0.00     0.277 HD
BRANCH   7  10
ATOM     10  CAM MOL d   1     -42.161  12.074   6.997  0.00  0.00     0.105 C 
ATOM     11  H4  MOL d   1     -41.611  11.335   6.396  0.00  0.00     0.083 H 
ATOM     12  H5  MOL d   1     -43.181  12.183   6.600  0.00  0.00     0.083 H 
BRANCH  10  13
ATOM     13  CAT MOL d   1     -41.435  13.428   6.953  0.00  0.00    -0.029 A 
ATOM     14  CAH MOL d   1     -40.042  13.498   6.969  0.00  0.00    -0.054 A 
ATOM     15  CAR MOL d   1     -39.397  14.735   6.921  0.00  0.00     0.036 A 
ATOM     16  H1  MOL d   1     -39.457  12.587   7.019  0.00  0.00     0.086 H 
ATOM     17 CL1  MOL d   1     -37.648  14.849   6.934  0.00  0.00    -0.084 Cl
ATOM     18  CAG MOL d   1     -40.170  15.894   6.869  0.00  0.00    -0.041 A 
ATOM     19  CAS MOL d   1     -41.560  15.821   6.862  0.00  0.00     0.036 A 
ATOM     20  H2  MOL d   1     -39.684  16.862   6.834  0.00  0.00     0.088 H 
ATOM     21 CL2  MOL d   1     -42.527  17.264   6.790  0.00  0.00    -0.084 Cl
ATOM     22  CAI MOL d   1     -42.187  14.588   6.909  0.00  0.00    -0.054 A 
ATOM     23  H3  MOL d   1     -43.270  14.531   6.911  0.00  0.00     0.086 H 
ENDBRANCH  10  13
ENDBRANCH   7  10
ENDBRANCH   4   7
ENDBRANCH   1   4
BRANCH   1  24
ATOM     24  CAL MOL d   1     -44.617  12.410  11.105  0.00  0.00     0.011 C 
ATOM     25  H12 MOL d   1     -45.308  11.846  11.749  0.00  0.00     0.064 H 
ATOM     26  H13 MOL d   1     -45.190  13.104  10.472  0.00  0.00     0.064 H 
BRANCH  24  27
ATOM     27  NAP MOL d   1     -43.683  13.168  11.938  0.00  0.00    -0.224 N 
ATOM     28  H14 MOL d   1     -42.672  12.992  11.854  0.00  0.00     0.177 HD
BRANCH  27  29
ATOM     29  CAU MOL d   1     -44.112  14.069  12.791  0.00  0.00     0.701 A 
ATOM     30  NAQ MOL d   1     -45.378  14.222  13.150  0.00  0.00    -0.188 N 
ATOM     31  CAW MOL d   1     -45.414  15.235  14.012  0.00  0.00     0.078 A 
ATOM     32  H15 MOL d   1     -46.180  13.664  12.824  0.00  0.00     0.184 HD
ATOM     33  CAF MOL d   1     -46.455  15.849  14.713  0.00  0.00    -0.054 A 
ATOM     34  CAV MOL d   1     -44.110  15.691  14.169  0.00  0.00     0.103 A 
ATOM     35  CAD MOL d   1     -46.191  16.915  15.568  0.00  0.00    -0.081 A 
ATOM     36  H16 MOL d   1     -47.472  15.494  14.591  0.00  0.00     0.087 H 
ATOM     37  CAC MOL d   1     -44.885  17.373  15.717  0.00  0.00    -0.081 A 
ATOM     38  H17 MOL d   1     -46.999  17.387  16.116  0.00  0.00     0.083 H 
ATOM     39  CAE MOL d   1     -43.842  16.759  15.024  0.00  0.00    -0.052 A 
ATOM     40  H18 MOL d   1     -44.678  18.210  16.374  0.00  0.00     0.083 H 
ATOM     41  H19 MOL d   1     -42.825  17.112  15.150  0.00  0.00     0.087 H 
ATOM     42  NAN MOL d   1     -43.332  14.944  13.392  0.00  0.00    -0.063 NA
ENDBRANCH  27  29
ENDBRANCH  24  27
ENDBRANCH   1  24
TORSDOF 7
