REMARK  8 active torsions:
REMARK  status: ('A' for Active; 'I' for Inactive)
REMARK    1  A    between atoms: CAA_1  and  OAS_2 
REMARK    2  A    between atoms: OAS_2  and  CAX_3 
REMARK    3  A    between atoms: CAW_10  and  CAO_11 
REMARK    4  A    between atoms: CAO_11  and  NAP_12 
REMARK    5  A    between atoms: NAP_12  and  CAM_13 
REMARK    6  A    between atoms: CAM_13  and  CAL_14 
REMARK    7  A    between atoms: CAL_14  and  CAN_15 
REMARK    8  A    between atoms: CAN_15  and  NAQ_16 
ROOT
ATOM      1  CAL MOL d   1     -42.916  11.008  10.622  0.00  0.00    -0.026 C 
ATOM      2  H12 MOL d   1     -41.902  11.075  11.044  0.00  0.00     0.037 H 
ATOM      3  H13 MOL d   1     -43.364  10.041  10.895  0.00  0.00     0.037 H 
ENDROOT
BRANCH   1   4
ATOM      4  CAM MOL d   1     -42.822  11.095   9.095  0.00  0.00     0.084 C 
ATOM      5  H10 MOL d   1     -42.853  10.086   8.658  0.00  0.00     0.075 H 
ATOM      6  H11 MOL d   1     -43.657  11.692   8.700  0.00  0.00     0.075 H 
BRANCH   4   7
ATOM      7  NAP MOL d   1     -41.545  11.742   8.775  0.00  0.00    -0.071 N 
ATOM      8  H8  MOL d   1     -41.500  12.632   9.245  0.00  0.00     0.277 HD
ATOM      9  H9  MOL d   1     -40.789  11.155   9.093  0.00  0.00     0.277 HD
BRANCH   7  10
ATOM     10  CAO MOL d   1     -41.412  11.954   7.339  0.00  0.00     0.108 C 
ATOM     11  H6  MOL d   1     -40.780  11.175   6.888  0.00  0.00     0.083 H 
ATOM     12  H7  MOL d   1     -42.399  11.954   6.853  0.00  0.00     0.083 H 
BRANCH  10  13
ATOM     13  CAW MOL d   1     -40.745  13.334   7.216  0.00  0.00     0.003 A 
ATOM     14  CAX MOL d   1     -41.442  14.547   7.199  0.00  0.00     0.093 A 
ATOM     15  CAU MOL d   1     -40.717  15.714   7.111  0.00  0.00     0.046 A 
ATOM     16 BR1  MOL d   1     -41.653  17.347   7.054  0.00  0.00    -0.048 Br
ATOM     17  CAI MOL d   1     -39.344  15.732   7.041  0.00  0.00    -0.047 A 
ATOM     18  CAT MOL d   1     -38.632  14.561   7.068  0.00  0.00     0.013 A 
ATOM     19  H4  MOL d   1     -38.821  16.678   6.964  0.00  0.00     0.087 H 
ATOM     20 BR2  MOL d   1     -36.724  14.692   6.964  0.00  0.00    -0.051 Br
ATOM     21  CAJ MOL d   1     -39.344  13.366   7.165  0.00  0.00    -0.056 A 
ATOM     22  H5  MOL d   1     -38.797  12.431   7.202  0.00  0.00     0.086 H 
BRANCH  14  23
ATOM     23  OAS MOL d   1     -42.812  14.702   7.267  0.00  0.00    -0.354 OA
BRANCH  23  24
ATOM     24  CAA MOL d   1     -43.587  13.628   6.806  0.00  0.00     0.010 C 
ATOM     25  H1  MOL d   1     -44.654  13.873   6.913  0.00  0.00     0.066 H 
ATOM     26  H2  MOL d   1     -43.357  12.729   7.397  0.00  0.00     0.066 H 
ATOM     27  H3  MOL d   1     -43.358  13.439   5.747  0.00  0.00     0.066 H 
ENDBRANCH  23  24
ENDBRANCH  14  23
ENDBRANCH  10  13
ENDBRANCH   7  10
ENDBRANCH   4   7
ENDBRANCH   1   4
BRANCH   1  28
ATOM     28  CAN MOL d   1     -43.768  12.127  11.212  0.00  0.00     0.018 C 
ATOM     29  H14 MOL d   1     -44.681  11.698  11.649  0.00  0.00     0.067 H 
ATOM     30  H15 MOL d   1     -44.041  12.836  10.416  0.00  0.00     0.067 H 
BRANCH  28  31
ATOM     31  NAQ MOL d   1     -43.011  12.837  12.261  0.00  0.00    -0.276 NA
ATOM     32  CAV MOL d   1     -43.557  13.719  13.088  0.00  0.00     0.106 A 
ATOM     33  CAK MOL d   1     -44.922  13.710  13.369  0.00  0.00     0.049 A 
ATOM     34  NAR MOL d   1     -42.724  14.659  13.682  0.00  0.00    -0.344 N 
ATOM     35  CAY MOL d   1     -45.473  14.653  14.240  0.00  0.00     0.168 A 
ATOM     36  H16 MOL d   1     -45.150  12.720  13.791  0.00  0.00     0.056 H 
ATOM     37  H17 MOL d   1     -45.443  13.828  12.407  0.00  0.00     0.056 H 
ATOM     38  OAB MOL d   1     -46.687  14.625  14.473  0.00  0.00    -0.292 OA
ATOM     39  CBA MOL d   1     -44.630  15.605  14.836  0.00  0.00     0.037 A 
ATOM     40  CAH MOL d   1     -45.131  16.564  15.711  0.00  0.00    -0.067 A 
ATOM     41  CAZ MOL d   1     -43.257  15.606  14.557  0.00  0.00     0.047 A 
ATOM     42  CAF MOL d   1     -44.278  17.508  16.283  0.00  0.00    -0.082 A 
ATOM     43  H18 MOL d   1     -46.188  16.578  15.949  0.00  0.00     0.085 H 
ATOM     44  CAE MOL d   1     -42.916  17.506  15.997  0.00  0.00    -0.081 A 
ATOM     45  H19 MOL d   1     -44.681  18.253  16.959  0.00  0.00     0.083 H 
ATOM     46  CAG MOL d   1     -42.408  16.548  15.132  0.00  0.00    -0.056 A 
ATOM     47  H20 MOL d   1     -42.260  18.244  16.445  0.00  0.00     0.083 H 
ATOM     48  H21 MOL d   1     -41.349  16.533  14.903  0.00  0.00     0.086 H 
ATOM     49  H22 MOL d   1     -41.715  14.657  13.477  0.00  0.00     0.167 HD
ENDBRANCH  28  31
ENDBRANCH   1  28
TORSDOF 8
