REMARK  2 active torsions:
REMARK  status: ('A' for Active; 'I' for Inactive)
REMARK       I    between atoms: C1_2  and  N_3 
REMARK    1  A    between atoms: C1_2  and  C2_9 
REMARK    2  A    between atoms: C5_12  and  O2_13 
ROOT
ATOM      1  O1  0OY d   1       2.434  10.374 -27.016  0.00  0.00    -0.267 OA
ATOM      2  C1  0OY d   1       1.645   9.856 -26.186  0.00  0.00     0.253 C 
ATOM      3  N   0OY d   1       0.984   8.704 -26.373  0.00  0.00    -0.344 N 
ATOM      4  C11 0OY d   1       0.082   8.062 -25.398  0.00  0.00     0.018 C 
ATOM      5  C10 0OY d   1       0.461   6.591 -25.370  0.00  0.00     0.034 C 
ATOM      6  O3  0OY d   1       0.299   6.009 -26.666  0.00  0.00    -0.388 OA
ATOM      7  C9  0OY d   1       1.304   6.499 -27.498  0.00  0.00     0.034 C 
ATOM      8  C8  0OY d   1       0.983   7.989 -27.643  0.00  0.00     0.018 C 
ATOM      9  H1  0OY d   1      -0.965   8.179 -25.713  0.00  0.00     0.067 H 
ATOM     10  H2  0OY d   1       0.217   8.509 -24.402  0.00  0.00     0.067 H 
ATOM     11  H3  0OY d   1      -0.185   6.064 -24.653  0.00  0.00     0.076 H 
ATOM     12  H4  0OY d   1       1.511   6.493 -25.058  0.00  0.00     0.076 H 
ATOM     13  H5  0OY d   1       1.278   5.998 -28.477  0.00  0.00     0.076 H 
ATOM     14  H6  0OY d   1       2.293   6.357 -27.039  0.00  0.00     0.076 H 
ATOM     15  H7  0OY d   1       1.736   8.446 -28.302  0.00  0.00     0.067 H 
ATOM     16  H8  0OY d   1      -0.013   8.089 -28.099  0.00  0.00     0.067 H 
ENDROOT
BRANCH   2  17
ATOM     17  C2  0OY d   1       1.433  10.607 -24.921  0.00  0.00     0.032 A 
ATOM     18  C7  0OY d   1       0.196  11.046 -24.483  0.00  0.00    -0.065 A 
ATOM     19  C6  0OY d   1       0.064  11.765 -23.270  0.00  0.00    -0.050 A 
ATOM     20  H9  0OY d   1      -0.686  10.836 -25.078  0.00  0.00     0.085 H 
ATOM     21  C5  0OY d   1       1.206  12.048 -22.479  0.00  0.00     0.065 A 
ATOM     22  H10 0OY d   1      -0.914  12.100 -22.945  0.00  0.00     0.087 H 
ATOM     23  C4  0OY d   1       2.461  11.609 -22.948  0.00  0.00    -0.050 A 
ATOM     24  C3  0OY d   1       2.542  10.921 -24.160  0.00  0.00    -0.065 A 
ATOM     25  H12 0OY d   1       3.358  11.805 -22.371  0.00  0.00     0.087 H 
ATOM     26  H13 0OY d   1       3.519  10.620 -24.520  0.00  0.00     0.085 H 
BRANCH  21  27
ATOM     27  O2  0OY d   1       1.180  12.679 -21.283  0.00  0.00    -0.361 OA
ATOM     28  H11 0OY d   1       2.065  12.753 -20.946  0.00  0.00     0.217 HD
ENDBRANCH  21  27
ENDBRANCH   2  17
TORSDOF 2
