REMARK  1 active torsions:
REMARK  status: ('A' for Active; 'I' for Inactive)
REMARK    1  A    between atoms: CAM_6  and  NAQ_7 
ROOT
ATOM      1  NAQ 0OK d   1       3.771  -0.590  20.147  0.00  0.00    -0.273 N 
ATOM      2  CAK 0OK d   1       3.566   0.779  20.440  0.00  0.00     0.074 A 
ATOM      3  NAL 0OK d   1       3.348   1.172  21.695  0.00  0.00    -0.243 NA
ATOM      4  CAO 0OK d   1       3.313   0.302  22.732  0.00  0.00     0.073 A 
ATOM      5  CAI 0OK d   1       3.075   0.769  24.029  0.00  0.00    -0.054 A 
ATOM      6  CAE 0OK d   1       3.029  -0.121  25.105  0.00  0.00    -0.081 A 
ATOM      7  CAF 0OK d   1       3.225  -1.485  24.897  0.00  0.00    -0.082 A 
ATOM      8  CAJ 0OK d   1       3.455  -1.959  23.604  0.00  0.00    -0.065 A 
ATOM      9  CAP 0OK d   1       3.503  -1.070  22.518  0.00  0.00     0.061 A 
ATOM     10  CAN 0OK d   1       3.736  -1.526  21.211  0.00  0.00     0.265 A 
ATOM     11  OAA 0OK d   1       3.902  -2.727  20.976  0.00  0.00    -0.267 OA
ATOM     12  H6  0OK d   1       3.586   1.514  19.637  0.00  0.00     0.144 H 
ATOM     13  H7  0OK d   1       2.925   1.829  24.200  0.00  0.00     0.087 H 
ATOM     14  H8  0OK d   1       2.840   0.251  26.105  0.00  0.00     0.083 H 
ATOM     15  H9  0OK d   1       3.199  -2.174  25.734  0.00  0.00     0.083 H 
ATOM     16  H10 0OK d   1       3.598  -3.021  23.437  0.00  0.00     0.085 H 
ENDROOT
BRANCH   1  17
ATOM     17  CAM 0OK d   1       4.027  -1.046  18.832  0.00  0.00     0.043 A 
ATOM     18  CAG 0OK d   1       3.015  -1.575  18.025  0.00  0.00    -0.057 A 
ATOM     19  CAC 0OK d   1       3.324  -2.031  16.743  0.00  0.00    -0.081 A 
ATOM     20  H1  0OK d   1       1.997  -1.631  18.393  0.00  0.00     0.086 H 
ATOM     21  CAB 0OK d   1       4.635  -1.964  16.266  0.00  0.00    -0.083 A 
ATOM     22  H2  0OK d   1       2.542  -2.440  16.113  0.00  0.00     0.083 H 
ATOM     23  CAD 0OK d   1       5.646  -1.439  17.070  0.00  0.00    -0.081 A 
ATOM     24  H3  0OK d   1       4.867  -2.321  15.269  0.00  0.00     0.083 H 
ATOM     25  CAH 0OK d   1       5.342  -0.983  18.353  0.00  0.00    -0.057 A 
ATOM     26  H4  0OK d   1       6.663  -1.385  16.700  0.00  0.00     0.083 H 
ATOM     27  H5  0OK d   1       6.127  -0.578  18.982  0.00  0.00     0.086 H 
ENDBRANCH   1  17
TORSDOF 1
