REMARK  4 active torsions:
REMARK  status: ('A' for Active; 'I' for Inactive)
REMARK    1  A    between atoms: C2_2  and  O4_19 
REMARK    2  A    between atoms: C4_4  and  O5_20 
REMARK    3  A    between atoms: C9_9  and  C10_12 
REMARK    4  A    between atoms: C13_15  and  O3_18 
ROOT
ATOM      1  C1  NAR d   1      -1.416  -0.874 -23.960  0.00  0.00    -0.018 A 
ATOM      2  C2  NAR d   1      -0.541  -0.305 -24.891  0.00  0.00     0.071 A 
ATOM      3  C3  NAR d   1      -0.364   1.071 -24.942  0.00  0.00    -0.018 A 
ATOM      4  C4  NAR d   1      -1.066   1.887 -24.064  0.00  0.00     0.085 A 
ATOM      5  C5  NAR d   1      -1.949   1.329 -23.139  0.00  0.00     0.076 A 
ATOM      6  C6  NAR d   1      -2.122  -0.057 -23.078  0.00  0.00     0.089 A 
ATOM      7  C7  NAR d   1      -2.650   2.105 -22.217  0.00  0.00     0.167 C 
ATOM      8  C8  NAR d   1      -3.024   1.527 -20.853  0.00  0.00     0.024 C 
ATOM      9  C9  NAR d   1      -2.668   0.007 -20.836  0.00  0.00     0.077 C 
ATOM     10  O1  NAR d   1      -2.979  -0.587 -22.145  0.00  0.00    -0.340 OA
ATOM     11  O2  NAR d   1      -2.935   3.274 -22.466  0.00  0.00    -0.292 OA
ATOM     12  H   NAR d   1      -1.546  -1.956 -23.924  0.00  0.00     0.092 H 
ATOM     13  H   NAR d   1       0.322   1.509 -25.667  0.00  0.00     0.092 H 
ATOM     14  H   NAR d   1      -4.091   1.658 -20.676  0.00  0.00     0.049 H 
ATOM     15  H   NAR d   1      -2.472   2.045 -20.069  0.00  0.00     0.049 H 
ATOM     16  H   NAR d   1      -1.600  -0.168 -20.709  0.00  0.00     0.092 H 
ENDROOT
BRANCH   9  17
ATOM     17  C10 NAR d   1      -3.316  -0.650 -19.611  0.00  0.00    -0.028 A 
ATOM     18  C11 NAR d   1      -4.682  -0.495 -19.377  0.00  0.00    -0.072 A 
ATOM     19  C12 NAR d   1      -5.271  -1.075 -18.260  0.00  0.00    -0.050 A 
ATOM     20  H   NAR d   1      -5.290   0.083 -20.073  0.00  0.00     0.084 H 
ATOM     21  C13 NAR d   1      -4.485  -1.809 -17.379  0.00  0.00     0.065 A 
ATOM     22  H   NAR d   1      -6.339  -0.956 -18.076  0.00  0.00     0.087 H 
ATOM     23  C14 NAR d   1      -3.115  -1.967 -17.603  0.00  0.00    -0.050 A 
ATOM     24  C15 NAR d   1      -2.529  -1.385 -18.725  0.00  0.00    -0.072 A 
ATOM     25  H   NAR d   1      -2.508  -2.542 -16.904  0.00  0.00     0.087 H 
ATOM     26  H   NAR d   1      -1.461  -1.504 -18.909  0.00  0.00     0.084 H 
BRANCH  21  27
ATOM     27  O3  NAR d   1      -5.068  -2.373 -16.293  0.00  0.00    -0.361 OA
ATOM     28  H   NAR d   1      -6.006  -2.168 -16.292  0.00  0.00     0.217 HD
ENDBRANCH  21  27
ENDBRANCH   9  17
BRANCH   4  29
ATOM     29  O5  NAR d   1      -0.883   3.226 -24.122  0.00  0.00    -0.360 OA
ATOM     30  H   NAR d   1      -1.719   3.654 -24.320  0.00  0.00     0.217 HD
ENDBRANCH   4  29
BRANCH   2  31
ATOM     31  O4  NAR d   1       0.153  -1.084 -25.762  0.00  0.00    -0.361 OA
ATOM     32  H   NAR d   1      -0.068  -2.006 -25.611  0.00  0.00     0.217 HD
ENDBRANCH   2  31
TORSDOF 4
