REMARK  1 active torsions:
REMARK  status: ('A' for Active; 'I' for Inactive)
REMARK       I    between atoms: NAN_6  and  CAL_7 
REMARK    1  A    between atoms: CAL_7  and  CAM_9 
ROOT
ATOM      1  CAJ 0OL d   1       2.042  -0.424  21.953  0.00  0.00    -0.002 C 
ATOM      2  CAH 0OL d   1       1.337   0.737  22.715  0.00  0.00    -0.050 C 
ATOM      3  CAG 0OL d   1       2.173   2.031  22.796  0.00  0.00    -0.062 C 
ATOM      4  CAI 0OL d   1       2.507   2.504  21.373  0.00  0.00    -0.050 C 
ATOM      5  CAK 0OL d   1       3.254   1.429  20.525  0.00  0.00    -0.002 C 
ATOM      6  NAN 0OL d   1       2.879  -0.017  20.746  0.00  0.00    -0.348 N 
ATOM      7  CAL 0OL d   1       3.336  -1.015  19.887  0.00  0.00     0.253 C 
ATOM      8  OAA 0OL d   1       2.985  -2.182  20.079  0.00  0.00    -0.267 OA
ATOM      9  H1  0OL d   1       1.264  -1.120  21.605  0.00  0.00     0.064 H 
ATOM     10  H2  0OL d   1       2.704  -0.940  22.664  0.00  0.00     0.064 H 
ATOM     11  H3  0OL d   1       1.123   0.399  23.739  0.00  0.00     0.035 H 
ATOM     12  H4  0OL d   1       0.393   0.967  22.199  0.00  0.00     0.035 H 
ATOM     13  H5  0OL d   1       3.105   1.834  23.347  0.00  0.00     0.033 H 
ATOM     14  H6  0OL d   1       1.597   2.810  23.317  0.00  0.00     0.033 H 
ATOM     15  H7  0OL d   1       3.144   3.398  21.443  0.00  0.00     0.035 H 
ATOM     16  H8  0OL d   1       1.568   2.762  20.861  0.00  0.00     0.035 H 
ATOM     17  H9  0OL d   1       4.328   1.527  20.740  0.00  0.00     0.064 H 
ATOM     18  H10 0OL d   1       3.070   1.659  19.465  0.00  0.00     0.064 H 
ENDROOT
BRANCH   7  19
ATOM     19  CAM 0OL d   1       4.206  -0.765  18.627  0.00  0.00     0.032 A 
ATOM     20  CAE 0OL d   1       3.661  -0.963  17.353  0.00  0.00    -0.068 A 
ATOM     21  CAC 0OL d   1       4.432  -0.712  16.205  0.00  0.00    -0.082 A 
ATOM     22  H11 0OL d   1       2.640  -1.312  17.251  0.00  0.00     0.085 H 
ATOM     23  CAB 0OL d   1       5.754  -0.284  16.301  0.00  0.00    -0.083 A 
ATOM     24  H12 0OL d   1       3.989  -0.854  15.226  0.00  0.00     0.083 H 
ATOM     25  CAD 0OL d   1       6.299  -0.105  17.571  0.00  0.00    -0.082 A 
ATOM     26  H13 0OL d   1       6.343  -0.095  15.411  0.00  0.00     0.083 H 
ATOM     27  CAF 0OL d   1       5.544  -0.356  18.728  0.00  0.00    -0.068 A 
ATOM     28  H14 0OL d   1       7.324   0.234  17.667  0.00  0.00     0.083 H 
ATOM     29  H15 0OL d   1       5.998  -0.233  19.705  0.00  0.00     0.085 H 
ENDBRANCH   7  19
TORSDOF 1
