REMARK  4 active torsions:
REMARK  status: ('A' for Active; 'I' for Inactive)
REMARK    1  A    between atoms: CAO_6  and  CAK_7 
REMARK    2  A    between atoms: CAK_7  and  OAM_8 
REMARK    3  A    between atoms: OAM_8  and  CAN_9 
REMARK    4  A    between atoms: CAN_9  and  CAP_11 
ROOT
ATOM      1  CAK 0OM d   1      -4.346  -1.216 -19.915  0.00  0.00     0.053 C 
ATOM      2  H6  0OM d   1      -4.465  -2.290 -20.120  0.00  0.00     0.082 H 
ATOM      3  H7  0OM d   1      -3.276  -0.959 -19.917  0.00  0.00     0.082 H 
ENDROOT
BRANCH   1   4
ATOM      4  CAO 0OM d   1      -4.810  -0.999 -18.624  0.00  0.00    -0.034 A 
ATOM      5  CAG 0OM d   1      -4.012  -1.351 -17.539  0.00  0.00    -0.075 A 
ATOM      6  CAC 0OM d   1      -4.475  -1.126 -16.246  0.00  0.00    -0.082 A 
ATOM      7  H1  0OM d   1      -3.037  -1.797 -17.700  0.00  0.00     0.084 H 
ATOM      8  CAB 0OM d   1      -5.726  -0.547 -16.040  0.00  0.00    -0.083 A 
ATOM      9  H2  0OM d   1      -3.861  -1.402 -15.396  0.00  0.00     0.083 H 
ATOM     10  CAD 0OM d   1      -6.526  -0.193 -17.128  0.00  0.00    -0.082 A 
ATOM     11  H3  0OM d   1      -6.079  -0.371 -15.030  0.00  0.00     0.083 H 
ATOM     12  CAH 0OM d   1      -6.065  -0.421 -18.423  0.00  0.00    -0.075 A 
ATOM     13  H4  0OM d   1      -7.499   0.256 -16.966  0.00  0.00     0.083 H 
ATOM     14  H5  0OM d   1      -6.680  -0.150 -19.273  0.00  0.00     0.084 H 
ENDBRANCH   1   4
BRANCH   1  15
ATOM     15  OAM 0OM d   1      -4.949  -0.508 -21.023  0.00  0.00    -0.313 OA
BRANCH  15  16
ATOM     16  CAN 0OM d   1      -4.119  -0.317 -22.093  0.00  0.00     0.295 C 
ATOM     17  OAA 0OM d   1      -3.889  -1.221 -22.897  0.00  0.00    -0.259 OA
BRANCH  16  18
ATOM     18  CAP 0OM d   1      -3.514   1.064 -22.298  0.00  0.00     0.057 A 
ATOM     19  CAI 0OM d   1      -2.557   1.541 -21.404  0.00  0.00    -0.064 A 
ATOM     20  CAE 0OM d   1      -2.027   2.804 -21.619  0.00  0.00    -0.065 A 
ATOM     21  H8  0OM d   1      -2.235   0.940 -20.562  0.00  0.00     0.085 H 
ATOM     22  CAF 0OM d   1      -2.486   3.523 -22.718  0.00  0.00     0.002 A 
ATOM     23  H9  0OM d   1      -1.279   3.218 -20.952  0.00  0.00     0.085 H 
ATOM     24  NAL 0OM d   1      -3.407   3.052 -23.550  0.00  0.00    -0.272 NA
ATOM     25  H10 0OM d   1      -2.075   4.509 -22.903  0.00  0.00     0.114 H 
ATOM     26  CAJ 0OM d   1      -3.932   1.848 -23.375  0.00  0.00     0.018 A 
ATOM     27  H11 0OM d   1      -4.681   1.474 -24.064  0.00  0.00     0.116 H 
ENDBRANCH  16  18
ENDBRANCH  15  16
ENDBRANCH   1  15
TORSDOF 4
