REMARK  2 active torsions:
REMARK  status: ('A' for Active; 'I' for Inactive)
REMARK    1  A    between atoms: CAN_6  and  NAL_7 
REMARK       I    between atoms: NAL_7  and  CAM_8 
REMARK    2  A    between atoms: CAM_8  and  CAO_10 
ROOT
ATOM      1  NAL 0ON d   1       4.137   0.002  19.398  0.00  0.00    -0.323 N 
ATOM      2  CAM 0ON d   1       3.589  -0.555  20.485  0.00  0.00     0.257 C 
ATOM      3  OAA 0ON d   1       3.294  -1.752  20.582  0.00  0.00    -0.267 OA
ATOM      4  H   0ON d   1       4.312   1.007  19.406  0.00  0.00     0.169 HD
ENDROOT
BRANCH   1   5
ATOM      5  CAN 0ON d   1       4.466  -0.688  18.305  0.00  0.00     0.035 A 
ATOM      6  CAG 0ON d   1       3.499  -1.367  17.554  0.00  0.00    -0.057 A 
ATOM      7  CAC 0ON d   1       3.870  -2.074  16.421  0.00  0.00    -0.081 A 
ATOM      8  H   0ON d   1       2.453  -1.340  17.861  0.00  0.00     0.086 H 
ATOM      9  CAB 0ON d   1       5.203  -2.085  16.034  0.00  0.00    -0.083 A 
ATOM     10  H   0ON d   1       3.123  -2.615  15.840  0.00  0.00     0.083 H 
ATOM     11  CAD 0ON d   1       6.159  -1.403  16.776  0.00  0.00    -0.081 A 
ATOM     12  H   0ON d   1       5.502  -2.633  15.141  0.00  0.00     0.083 H 
ATOM     13  CAH 0ON d   1       5.804  -0.705  17.920  0.00  0.00    -0.057 A 
ATOM     14  H   0ON d   1       7.201  -1.417  16.455  0.00  0.00     0.083 H 
ATOM     15  H   0ON d   1       6.558  -0.180  18.507  0.00  0.00     0.086 H 
ENDBRANCH   1   5
BRANCH   2  16
ATOM     16  CAO 0ON d   1       3.355   0.442  21.651  0.00  0.00     0.049 A 
ATOM     17  CAI 0ON d   1       3.535   0.026  22.976  0.00  0.00    -0.065 A 
ATOM     18  CAE 0ON d   1       3.326   0.953  23.996  0.00  0.00    -0.065 A 
ATOM     19  H   0ON d   1       3.831  -0.998  23.204  0.00  0.00     0.085 H 
ATOM     20  CAF 0ON d   1       2.950   2.259  23.646  0.00  0.00     0.002 A 
ATOM     21  H   0ON d   1       3.452   0.670  25.041  0.00  0.00     0.085 H 
ATOM     22  NAK 0ON d   1       2.797   2.631  22.374  0.00  0.00    -0.272 NA
ATOM     23  H   0ON d   1       2.778   2.990  24.436  0.00  0.00     0.114 H 
ATOM     24  CAJ 0ON d   1       2.991   1.772  21.382  0.00  0.00     0.017 A 
ATOM     25  H   0ON d   1       2.867   2.101  20.350  0.00  0.00     0.116 H 
ENDBRANCH   2  16
TORSDOF 2
