REMARK  4 active torsions:
REMARK  status: ('A' for Active; 'I' for Inactive)
REMARK    1  A    between atoms: CAN_6  and  OAL_7 
REMARK    2  A    between atoms: OAL_7  and  CAO_8 
REMARK    3  A    between atoms: CAM_13  and  CAK_14 
REMARK    4  A    between atoms: CAK_14  and  OAA_15 
ROOT
ATOM      1  CAO 0OO d   1       2.887  -0.128  21.021  0.00  0.00     0.076 A 
ATOM      2  CAJ 0OO d   1       2.269  -0.214  22.277  0.00  0.00    -0.042 A 
ATOM      3  CAI 0OO d   1       2.868   1.097  20.349  0.00  0.00    -0.050 A 
ATOM      4  CAE 0OO d   1       2.244   2.209  20.919  0.00  0.00    -0.080 A 
ATOM      5  CAF 0OO d   1       1.631   2.120  22.173  0.00  0.00    -0.075 A 
ATOM      6  CAM 0OO d   1       1.641   0.901  22.856  0.00  0.00    -0.032 A 
ATOM      7  H   0OO d   1       2.276  -1.163  22.813  0.00  0.00     0.088 H 
ATOM      8  H   0OO d   1       3.344   1.185  19.372  0.00  0.00     0.087 H 
ATOM      9  H   0OO d   1       2.235   3.157  20.381  0.00  0.00     0.083 H 
ATOM     10  H   0OO d   1       1.150   2.993  22.613  0.00  0.00     0.084 H 
ENDROOT
BRANCH   1  11
ATOM     11  OAL 0OO d   1       3.492  -1.261  20.502  0.00  0.00    -0.311 OA
BRANCH  11  12
ATOM     12  CAN 0OO d   1       4.026  -1.313  19.222  0.00  0.00     0.076 A 
ATOM     13  CAG 0OO d   1       5.305  -0.791  18.953  0.00  0.00    -0.050 A 
ATOM     14  CAC 0OO d   1       5.846  -0.853  17.663  0.00  0.00    -0.080 A 
ATOM     15  H   0OO d   1       5.881  -0.334  19.758  0.00  0.00     0.087 H 
ATOM     16  CAB 0OO d   1       5.104  -1.461  16.637  0.00  0.00    -0.083 A 
ATOM     17  H   0OO d   1       6.831  -0.434  17.457  0.00  0.00     0.083 H 
ATOM     18  CAD 0OO d   1       3.838  -2.003  16.895  0.00  0.00    -0.080 A 
ATOM     19  H   0OO d   1       5.517  -1.512  15.630  0.00  0.00     0.083 H 
ATOM     20  CAH 0OO d   1       3.305  -1.931  18.185  0.00  0.00    -0.050 A 
ATOM     21  H   0OO d   1       3.272  -2.478  16.094  0.00  0.00     0.083 H 
ATOM     22  H   0OO d   1       2.323  -2.357  18.389  0.00  0.00     0.087 H 
ENDBRANCH  11  12
ENDBRANCH   1  11
BRANCH   6  23
ATOM     23  CAK 0OO d   1       0.970   0.777  24.236  0.00  0.00     0.041 C 
ATOM     24  H   0OO d   1       1.731   0.478  24.956  0.00  0.00     0.081 H 
ATOM     25  H   0OO d   1       0.166   0.046  24.157  0.00  0.00     0.081 H 
BRANCH  23  26
ATOM     26  OAA 0OO d   1       0.402   2.017  24.678  0.00  0.00    -0.396 OA
ATOM     27  H   0OO d   1       1.093   2.680  24.741  0.00  0.00     0.209 HD
ENDBRANCH  23  26
ENDBRANCH   6  23
TORSDOF 4
