REMARK  5 active torsions:
REMARK  status: ('A' for Active; 'I' for Inactive)
REMARK    1  A    between atoms: CAN_6  and  CAL_7 
REMARK    2  A    between atoms: CAL_7  and  OAM_8 
REMARK    3  A    between atoms: OAM_8  and  CAP_9 
REMARK    4  A    between atoms: CAO_14  and  CAK_15 
REMARK    5  A    between atoms: CAK_15  and  OAA_16 
ROOT
ATOM      1  CAP 0OP d   1       2.608  -1.858 -11.680  0.00  0.00     0.069 A 
ATOM      2  CAJ 0OP d   1       3.332  -2.953 -11.235  0.00  0.00    -0.043 A 
ATOM      3  CAI 0OP d   1       3.226  -0.662 -12.017  0.00  0.00    -0.051 A 
ATOM      4  CAE 0OP d   1       4.594  -0.573 -11.887  0.00  0.00    -0.080 A 
ATOM      5  CAH 0OP d   1       5.326  -1.659 -11.428  0.00  0.00    -0.075 A 
ATOM      6  CAO 0OP d   1       4.692  -2.852 -11.103  0.00  0.00    -0.032 A 
ATOM      7  H   0OP d   1       2.824  -3.886 -10.992  0.00  0.00     0.088 H 
ATOM      8  H   0OP d   1       2.643   0.186 -12.376  0.00  0.00     0.087 H 
ATOM      9  H   0OP d   1       5.104   0.355 -12.146  0.00  0.00     0.083 H 
ATOM     10  H   0OP d   1       6.408  -1.575 -11.322  0.00  0.00     0.084 H 
ENDROOT
BRANCH   1  11
ATOM     11  OAM 0OP d   1       1.274  -1.998 -11.782  0.00  0.00    -0.347 OA
BRANCH  11  12
ATOM     12  CAL 0OP d   1       1.012  -3.395 -11.805  0.00  0.00     0.050 C 
ATOM     13  H   0OP d   1       1.948  -3.940 -11.930  0.00  0.00     0.082 H 
ATOM     14  H   0OP d   1       0.544  -3.695 -10.867  0.00  0.00     0.082 H 
BRANCH  12  15
ATOM     15  CAN 0OP d   1       0.167  -3.681 -12.854  0.00  0.00    -0.034 A 
ATOM     16  CAF 0OP d   1      -0.389  -4.955 -12.942  0.00  0.00    -0.075 A 
ATOM     17  CAC 0OP d   1      -1.231  -5.217 -14.010  0.00  0.00    -0.082 A 
ATOM     18  H   0OP d   1      -0.169  -5.719 -12.196  0.00  0.00     0.084 H 
ATOM     19  CAB 0OP d   1      -1.525  -4.232 -14.954  0.00  0.00    -0.083 A 
ATOM     20  H   0OP d   1      -1.671  -6.209 -14.115  0.00  0.00     0.083 H 
ATOM     21  CAD 0OP d   1      -0.969  -2.967 -14.849  0.00  0.00    -0.082 A 
ATOM     22  H   0OP d   1      -2.198  -4.460 -15.781  0.00  0.00     0.083 H 
ATOM     23  CAG 0OP d   1      -0.115  -2.693 -13.797  0.00  0.00    -0.075 A 
ATOM     24  H   0OP d   1      -1.202  -2.198 -15.586  0.00  0.00     0.083 H 
ATOM     25  H   0OP d   1       0.338  -1.706 -13.705  0.00  0.00     0.084 H 
ENDBRANCH  12  15
ENDBRANCH  11  12
ENDBRANCH   1  11
BRANCH   6  26
ATOM     26  CAK 0OP d   1       5.368  -3.963 -10.680  0.00  0.00     0.041 C 
ATOM     27  H   0OP d   1       5.113  -4.187  -9.644  0.00  0.00     0.081 H 
ATOM     28  H   0OP d   1       6.443  -3.792 -10.734  0.00  0.00     0.081 H 
BRANCH  26  29
ATOM     29  OAA 0OP d   1       4.996  -5.064 -11.533  0.00  0.00    -0.396 OA
ATOM     30  H   0OP d   1       5.231  -4.858 -12.441  0.00  0.00     0.209 HD
ENDBRANCH  26  29
ENDBRANCH   6  26
TORSDOF 5
