REMARK  2 active torsions:
REMARK  status: ('A' for Active; 'I' for Inactive)
REMARK       I    between atoms: NAX_14  and  CAQ_15 
REMARK    1  A    between atoms: CAQ_15  and  CAR_17 
REMARK    2  A    between atoms: CAS_20  and  CAZ_21 
ROOT
ATOM      1  OAB 0OQ d   1      -1.055 -11.771  11.688  0.00  0.00    -0.268 OA
ATOM      2  CAU 0OQ d   1      -1.015 -10.870  12.533  0.00  0.00     0.247 A 
ATOM      3  CAL 0OQ d   1       0.130 -10.064  12.589  0.00  0.00    -0.017 A 
ATOM      4  CAF 0OQ d   1       0.208  -9.046  13.537  0.00  0.00    -0.076 A 
ATOM      5  CAG 0OQ d   1      -0.865  -8.866  14.411  0.00  0.00    -0.060 A 
ATOM      6  CAT 0OQ d   1      -2.009  -9.680  14.344  0.00  0.00     0.020 A 
ATOM      7  NAY 0OQ d   1      -2.059 -10.675  13.389  0.00  0.00    -0.317 N 
ATOM      8  CAP 0OQ d   1      -3.232 -11.611  13.246  0.00  0.00     0.008 C 
ATOM      9  CAV 0OQ d   1      -4.443 -11.203  14.100  0.00  0.00    -0.022 C 
ATOM     10  CAN 0OQ d   1      -5.198 -10.105  13.322  0.00  0.00     0.003 C 
ATOM     11  CAM 0OQ d   1      -3.944 -10.683  15.474  0.00  0.00    -0.049 C 
ATOM     12  CAW 0OQ d   1      -3.078  -9.408  15.266  0.00  0.00     0.003 C 
ATOM     13  CAO 0OQ d   1      -4.025  -8.299  14.700  0.00  0.00     0.006 C 
ATOM     14  NAX 0OQ d   1      -4.474  -8.783  13.358  0.00  0.00    -0.347 N 
ATOM     15  CAQ 0OQ d   1      -4.112  -8.180  12.196  0.00  0.00     0.253 C 
ATOM     16  OAA 0OQ d   1      -4.444  -8.659  11.111  0.00  0.00    -0.267 OA
ATOM     17  H   0OQ d   1       0.954 -10.232  11.896  0.00  0.00     0.092 H 
ATOM     18  H   0OQ d   1       1.087  -8.405  13.595  0.00  0.00     0.083 H 
ATOM     19  H   0OQ d   1      -0.815  -8.077  15.162  0.00  0.00     0.086 H 
ATOM     20  H   0OQ d   1      -2.910 -12.597  13.581  0.00  0.00     0.065 H 
ATOM     21  H   0OQ d   1      -3.544 -11.591  12.202  0.00  0.00     0.065 H 
ATOM     22  H   0OQ d   1      -5.111 -12.044  14.288  0.00  0.00     0.045 H 
ATOM     23  H   0OQ d   1      -6.175  -9.970  13.787  0.00  0.00     0.065 H 
ATOM     24  H   0OQ d   1      -5.278 -10.420  12.282  0.00  0.00     0.065 H 
ATOM     25  H   0OQ d   1      -3.343 -11.454  15.957  0.00  0.00     0.034 H 
ATOM     26  H   0OQ d   1      -4.801 -10.440  16.102  0.00  0.00     0.034 H 
ATOM     27  H   0OQ d   1      -2.626  -9.084  16.204  0.00  0.00     0.052 H 
ATOM     28  H   0OQ d   1      -3.509  -7.342  14.621  0.00  0.00     0.065 H 
ATOM     29  H   0OQ d   1      -4.874  -8.130  15.362  0.00  0.00     0.065 H 
ENDROOT
BRANCH  15  30
ATOM     30  CAR 0OQ d   1      -3.500  -6.909  12.197  0.00  0.00     0.032 A 
ATOM     31  CAH 0OQ d   1      -4.352  -5.792  12.194  0.00  0.00    -0.067 A 
ATOM     32  CAJ 0OQ d   1      -3.864  -4.482  12.189  0.00  0.00    -0.067 A 
ATOM     33  H   0OQ d   1      -5.430  -5.952  12.196  0.00  0.00     0.085 H 
ATOM     34  CAS 0OQ d   1      -2.483  -4.257  12.173  0.00  0.00     0.048 A 
ATOM     35  H   0OQ d   1      -4.556  -3.640  12.197  0.00  0.00     0.084 H 
ATOM     36  CAK 0OQ d   1      -1.622  -5.376  12.152  0.00  0.00    -0.067 A 
ATOM     37  CAI 0OQ d   1      -2.118  -6.696  12.168  0.00  0.00    -0.067 A 
ATOM     38  H   0OQ d   1      -0.544  -5.215  12.123  0.00  0.00     0.084 H 
ATOM     39  H   0OQ d   1      -1.431  -7.542  12.158  0.00  0.00     0.085 H 
BRANCH  34  40
ATOM     40  CAZ 0OQ d   1      -2.004  -2.922  12.149  0.00  0.00     0.417 C 
ATOM     41  FAD 0OQ d   1      -2.649  -2.226  11.076  0.00  0.00    -0.166 F 
ATOM     42  FAE 0OQ d   1      -2.271  -2.252  13.341  0.00  0.00    -0.166 F 
ATOM     43  FAC 0OQ d   1      -0.732  -2.873  11.958  0.00  0.00    -0.166 F 
ENDBRANCH  34  40
ENDBRANCH  15  30
TORSDOF 2
