REMARK  8 active torsions:
REMARK  status: ('A' for Active; 'I' for Inactive)
REMARK    1  A    between atoms: C3_3  and  N10_10 
REMARK    2  A    between atoms: C9_9  and  C11_11 
REMARK       I    between atoms: C11_11  and  N13_13 
REMARK    3  A    between atoms: N13_13  and  C14_14 
REMARK    4  A    between atoms: C16_16  and  N20_20 
REMARK    5  A    between atoms: N20_20  and  S23_23 
REMARK    6  A    between atoms: S23_23  and  C26_26 
REMARK    7  A    between atoms: C26_26  and  C27_27 
REMARK    8  A    between atoms: C27_27  and  C28_28 
ROOT
ATOM      1  C14 RI8 d   1      13.257 -27.962  -2.622  0.00  0.00     0.115 A 
ATOM      2  C15 RI8 d   1      13.009 -28.222  -3.973  0.00  0.00     0.173 A 
ATOM      3  C16 RI8 d   1      12.277 -29.371  -4.343  0.00  0.00     0.083 A 
ATOM      4  C17 RI8 d   1      11.798 -30.248  -3.339  0.00  0.00    -0.051 A 
ATOM      5  C18 RI8 d   1      12.037 -29.991  -1.974  0.00  0.00    -0.041 A 
ATOM      6  C19 RI8 d   1      12.772 -28.838  -1.635  0.00  0.00     0.146 A 
ATOM      7  F21 RI8 d   1      13.502 -27.346  -4.869  0.00  0.00    -0.201 F 
ATOM      8  F22 RI8 d   1      13.034 -28.541  -0.356  0.00  0.00    -0.204 F 
ATOM      9  H6  RI8 d   1      11.239 -31.131  -3.625  0.00  0.00     0.087 H 
ATOM     10  H7  RI8 d   1      11.666 -30.661  -1.207  0.00  0.00     0.088 H 
ENDROOT
BRANCH   1  11
ATOM     11  N13 RI8 d   1      13.994 -26.826  -2.270  0.00  0.00    -0.318 N 
ATOM     12  C11 RI8 d   1      13.608 -25.550  -2.264  0.00  0.00     0.259 C 
ATOM     13  O12 RI8 d   1      12.489 -25.126  -2.563  0.00  0.00    -0.267 OA
ATOM     14  H5  RI8 d   1      14.938 -26.994  -1.984  0.00  0.00     0.169 HD
BRANCH  12  15
ATOM     15  C9  RI8 d   1      14.654 -24.707  -1.817  0.00  0.00     0.069 A 
ATOM     16  C5  RI8 d   1      15.983 -25.264  -1.599  0.00  0.00     0.095 A 
ATOM     17  C4  RI8 d   1      16.808 -24.209  -1.154  0.00  0.00     0.080 A 
ATOM     18  N6  RI8 d   1      16.492 -26.501  -1.744  0.00  0.00    -0.240 NA
ATOM     19  C3  RI8 d   1      18.180 -24.427  -0.851  0.00  0.00     0.142 A 
ATOM     20  S7  RI8 d   1      16.034 -22.651  -1.006  0.00  0.00    -0.095 SA
ATOM     21  N2  RI8 d   1      18.671 -25.671  -0.997  0.00  0.00    -0.224 NA
ATOM     22  C1  RI8 d   1      17.802 -26.609  -1.432  0.00  0.00     0.089 A 
ATOM     23  H1  RI8 d   1      18.220 -27.602  -1.549  0.00  0.00     0.146 H 
ATOM     24  C8  RI8 d   1      14.519 -23.318  -1.539  0.00  0.00    -0.026 A 
ATOM     25  H2  RI8 d   1      13.595 -22.751  -1.645  0.00  0.00     0.096 H 
BRANCH  19  26
ATOM     26  N10 RI8 d   1      19.008 -23.442  -0.418  0.00  0.00    -0.383 N 
ATOM     27  H3  RI8 d   1      18.650 -22.483  -0.300  0.00  0.00     0.157 HD
ATOM     28  H4  RI8 d   1      19.994 -23.653  -0.207  0.00  0.00     0.157 HD
ENDBRANCH  19  26
ENDBRANCH  12  15
ENDBRANCH   1  11
BRANCH   3  29
ATOM     29  N20 RI8 d   1      12.041 -29.635  -5.627  0.00  0.00    -0.281 N 
ATOM     30  H8  RI8 d   1      12.389 -28.990  -6.307  0.00  0.00     0.178 HD
BRANCH  29  31
ATOM     31  S23 RI8 d   1      11.180 -31.008  -6.193  0.00  0.00     0.231 S 
ATOM     32  O24 RI8 d   1      10.011 -31.092  -5.310  0.00  0.00    -0.206 OA
ATOM     33  O25 RI8 d   1      11.028 -30.954  -7.655  0.00  0.00    -0.206 OA
BRANCH  31  34
ATOM     34  C26 RI8 d   1      12.343 -32.390  -5.836  0.00  0.00     0.046 C 
ATOM     35  H9  RI8 d   1      11.997 -33.289  -6.366  0.00  0.00     0.058 H 
ATOM     36  H10 RI8 d   1      12.344 -32.581  -4.753  0.00  0.00     0.058 H 
BRANCH  34  37
ATOM     37  C27 RI8 d   1      13.774 -32.075  -6.282  0.00  0.00    -0.055 C 
ATOM     38  H11 RI8 d   1      14.228 -31.386  -5.554  0.00  0.00     0.033 H 
ATOM     39  H12 RI8 d   1      13.739 -31.593  -7.270  0.00  0.00     0.033 H 
BRANCH  37  40
ATOM     40  C28 RI8 d   1      14.642 -33.330  -6.378  0.00  0.00    -0.076 C 
ATOM     41  H13 RI8 d   1      15.656 -33.051  -6.701  0.00  0.00     0.027 H 
ATOM     42  H14 RI8 d   1      14.203 -34.025  -7.109  0.00  0.00     0.027 H 
ATOM     43  H15 RI8 d   1      14.692 -33.818  -5.393  0.00  0.00     0.027 H 
ENDBRANCH  37  40
ENDBRANCH  34  37
ENDBRANCH  31  34
ENDBRANCH  29  31
ENDBRANCH   3  29
TORSDOF 8
