REMARK  11 active torsions:
REMARK  status: ('A' for Active; 'I' for Inactive)
REMARK       I    between atoms: C2_2  and  N3_3 
REMARK       I    between atoms: C2_2  and  N11_11 
REMARK    1  A    between atoms: N3_3  and  C4_4 
REMARK    2  A    between atoms: C8_8  and  N10_10 
REMARK    3  A    between atoms: N10_10  and  C27_27 
REMARK    4  A    between atoms: N11_11  and  C12_12 
REMARK    5  A    between atoms: C14_14  and  N20_20 
REMARK    6  A    between atoms: N20_20  and  S21_21 
REMARK    7  A    between atoms: S21_21  and  C22_22 
REMARK    8  A    between atoms: C22_22  and  C25_25 
REMARK    9  A    between atoms: C25_25  and  C26_26 
REMARK   10  A    between atoms: C28_28  and  C27_27 
REMARK   11  A    between atoms: C28_28  and  O29_29 
ROOT
ATOM      1  C12 RI9 d   1      -5.808  20.732   7.174  0.00  0.00     0.116 A 
ATOM      2  C13 RI9 d   1      -5.372  20.937   5.850  0.00  0.00     0.173 A 
ATOM      3  C14 RI9 d   1      -4.384  21.902   5.561  0.00  0.00     0.083 A 
ATOM      4  C15 RI9 d   1      -3.885  22.717   6.598  0.00  0.00    -0.051 A 
ATOM      5  C16 RI9 d   1      -4.306  22.517   7.928  0.00  0.00    -0.041 A 
ATOM      6  C17 RI9 d   1      -5.269  21.529   8.206  0.00  0.00     0.146 A 
ATOM      7  F18 RI9 d   1      -5.671  21.355   9.476  0.00  0.00    -0.204 F 
ATOM      8  F19 RI9 d   1      -5.895  20.166   4.867  0.00  0.00    -0.201 F 
ATOM      9  H6  RI9 d   1      -3.173  23.502   6.371  0.00  0.00     0.087 H 
ATOM     10  H7  RI9 d   1      -3.892  23.118   8.729  0.00  0.00     0.088 H 
ENDROOT
BRANCH   1  11
ATOM     11  N11 RI9 d   1      -6.797  19.738   7.408  0.00  0.00    -0.303 N 
ATOM     12  C2  RI9 d   1      -6.719  18.431   7.162  0.00  0.00     0.326 C 
ATOM     13  O1  RI9 d   1      -5.718  17.893   6.703  0.00  0.00    -0.247 OA
ATOM     14  N3  RI9 d   1      -7.830  17.762   7.473  0.00  0.00    -0.293 N 
ATOM     15  H1  RI9 d   1      -7.780  16.776   7.312  0.00  0.00     0.172 HD
ATOM     16  H5  RI9 d   1      -7.656  20.059   7.806  0.00  0.00     0.171 HD
BRANCH  14  17
ATOM     17  C4  RI9 d   1      -9.070  18.212   7.993  0.00  0.00     0.136 A 
ATOM     18  N5  RI9 d   1      -9.405  19.506   8.152  0.00  0.00    -0.224 NA
ATOM     19  C6  RI9 d   1     -10.628  19.758   8.653  0.00  0.00     0.091 A 
ATOM     20  N7  RI9 d   1     -11.559  18.854   9.011  0.00  0.00    -0.225 NA
ATOM     21  H2  RI9 d   1     -10.892  20.801   8.782  0.00  0.00     0.146 H 
ATOM     22  C8  RI9 d   1     -11.252  17.551   8.854  0.00  0.00     0.128 A 
ATOM     23  C9  RI9 d   1      -9.989  17.195   8.335  0.00  0.00     0.005 A 
ATOM     24  H3  RI9 d   1      -9.727  16.152   8.200  0.00  0.00     0.095 H 
BRANCH  22  25
ATOM     25  N10 RI9 d   1     -12.166  16.608   9.201  0.00  0.00    -0.373 N 
ATOM     26  H4  RI9 d   1     -12.684  16.757  10.079  0.00  0.00     0.161 HD
BRANCH  25  27
ATOM     27  C27 RI9 d   1     -12.504  15.306   8.379  0.00  0.00     0.013 C 
ATOM     28  H16 RI9 d   1     -11.911  15.231   7.456  0.00  0.00     0.067 H 
ATOM     29  H17 RI9 d   1     -13.574  15.235   8.134  0.00  0.00     0.067 H 
BRANCH  27  30
ATOM     30  C28 RI9 d   1     -12.011  14.106   9.595  0.00  0.00     0.031 C 
ATOM     31  H18 RI9 d   1     -11.233  13.426   9.219  0.00  0.00     0.076 H 
ATOM     32  H19 RI9 d   1     -11.668  14.575  10.529  0.00  0.00     0.076 H 
BRANCH  30  33
ATOM     33  O29 RI9 d   1     -13.356  13.413   9.756  0.00  0.00    -0.399 OA
ATOM     34  H20 RI9 d   1     -13.626  13.050   8.921  0.00  0.00     0.209 HD
ENDBRANCH  30  33
ENDBRANCH  27  30
ENDBRANCH  25  27
ENDBRANCH  22  25
ENDBRANCH  14  17
ENDBRANCH   1  11
BRANCH   3  35
ATOM     35  N20 RI9 d   1      -4.040  22.124   4.289  0.00  0.00    -0.281 N 
ATOM     36  H8  RI9 d   1      -4.340  21.432   3.632  0.00  0.00     0.178 HD
BRANCH  35  37
ATOM     37  S21 RI9 d   1      -3.148  23.445   3.628  0.00  0.00     0.231 S 
ATOM     38  O23 RI9 d   1      -1.900  23.489   4.398  0.00  0.00    -0.206 OA
ATOM     39  O24 RI9 d   1      -3.123  23.262   2.175  0.00  0.00    -0.206 OA
BRANCH  37  40
ATOM     40  C22 RI9 d   1      -4.160  24.948   3.955  0.00  0.00     0.046 C 
ATOM     41  H9  RI9 d   1      -3.491  25.816   4.050  0.00  0.00     0.058 H 
ATOM     42  H10 RI9 d   1      -4.715  24.809   4.894  0.00  0.00     0.058 H 
BRANCH  40  43
ATOM     43  C25 RI9 d   1      -5.156  25.207   2.821  0.00  0.00    -0.055 C 
ATOM     44  H11 RI9 d   1      -5.025  24.438   2.045  0.00  0.00     0.033 H 
ATOM     45  H12 RI9 d   1      -4.960  26.200   2.390  0.00  0.00     0.033 H 
BRANCH  43  46
ATOM     46  C26 RI9 d   1      -6.618  25.160   3.340  0.00  0.00    -0.076 C 
ATOM     47  H13 RI9 d   1      -7.309  25.349   2.506  0.00  0.00     0.027 H 
ATOM     48  H14 RI9 d   1      -6.758  25.930   4.113  0.00  0.00     0.027 H 
ATOM     49  H15 RI9 d   1      -6.823  24.168   3.769  0.00  0.00     0.027 H 
ENDBRANCH  43  46
ENDBRANCH  40  43
ENDBRANCH  37  40
ENDBRANCH  35  37
ENDBRANCH   3  35
TORSDOF 11
