REMARK  7 active torsions:
REMARK  status: ('A' for Active; 'I' for Inactive)
REMARK    1  A    between atoms: CAN_1  and  CBB_2 
REMARK    2  A    between atoms: CBA_6  and  CAU_7 
REMARK    3  A    between atoms: CAZ_11  and  OAQ_12 
REMARK    4  A    between atoms: OAQ_12  and  CAA_13 
REMARK    5  A    between atoms: CAY_14  and  CAD_15 
REMARK    6  A    between atoms: CAW_21  and  CAC_22 
REMARK    7  A    between atoms: CAX_24  and  OAJ_25 
ROOT
ATOM      1  CBB PJA d   1       5.742  20.291  25.890  0.00  0.00     0.006 A 
ATOM      2  CBF PJA d   1       5.630  20.844  24.599  0.00  0.00     0.101 A 
ATOM      3  OAS PJA d   1       5.420  19.886  23.648  0.00  0.00    -0.305 OA
ATOM      4  CBE PJA d   1       6.268  19.995  22.555  0.00  0.00     0.127 A 
ATOM      5  CBA PJA d   1       7.129  18.910  22.310  0.00  0.00     0.080 A 
ATOM      6  CAL PJA d   1       7.981  18.931  21.206  0.00  0.00    -0.031 A 
ATOM      7  CAZ PJA d   1       7.997  20.009  20.316  0.00  0.00     0.078 A 
ATOM      8  CAY PJA d   1       7.150  21.096  20.554  0.00  0.00     0.008 A 
ATOM      9  CBD PJA d   1       6.305  21.075  21.670  0.00  0.00     0.123 A 
ATOM     10  OAR PJA d   1       5.532  22.194  21.757  0.00  0.00    -0.271 OA
ATOM     11  CBC PJA d   1       5.613  22.867  22.947  0.00  0.00     0.302 C 
ATOM     12  OAG PJA d   1       5.488  24.084  22.850  0.00  0.00    -0.259 OA
ATOM     13  CBG PJA d   1       5.756  22.209  24.348  0.00  0.00     0.080 A 
ATOM     14  CAW PJA d   1       5.999  23.085  25.413  0.00  0.00    -0.040 A 
ATOM     15  CAK PJA d   1       6.124  22.575  26.680  0.00  0.00    -0.044 A 
ATOM     16  CAX PJA d   1       6.002  21.218  26.920  0.00  0.00     0.074 A 
ATOM     17  H   PJA d   1       8.650  18.088  21.033  0.00  0.00     0.089 H 
ATOM     18  H   PJA d   1       6.323  23.250  27.512  0.00  0.00     0.088 H 
ENDROOT
BRANCH   7  19
ATOM     19  OAQ PJA d   1       8.849  20.020  19.247  0.00  0.00    -0.355 OA
BRANCH  19  20
ATOM     20  CAA PJA d   1       9.331  18.734  18.857  0.00  0.00     0.010 C 
ATOM     21  H   PJA d   1       9.873  18.283  19.689  0.00  0.00     0.066 H 
ATOM     22  H   PJA d   1       8.488  18.099  18.583  0.00  0.00     0.066 H 
ATOM     23  H   PJA d   1       9.999  18.842  18.002  0.00  0.00     0.066 H 
ENDBRANCH  19  20
ENDBRANCH   7  19
BRANCH   8  24
ATOM     24  CAD PJA d   1       7.144  22.311  19.605  0.00  0.00    -0.046 C 
ATOM     25  H   PJA d   1       6.147  22.436  19.183  0.00  0.00     0.033 H 
ATOM     26  H   PJA d   1       7.420  23.207  20.162  0.00  0.00     0.033 H 
ATOM     27  H   PJA d   1       7.862  22.146  18.801  0.00  0.00     0.033 H 
ENDBRANCH   8  24
BRANCH   5  28
ATOM     28  CAU PJA d   1       7.208  17.653  23.181  0.00  0.00     0.212 C 
ATOM     29  OAH PJA d   1       6.551  16.657  22.793  0.00  0.00    -0.644 OA
ATOM     30  OAE PJA d   1       7.941  17.686  24.206  0.00  0.00    -0.644 OA
ENDBRANCH   5  28
BRANCH   1  31
ATOM     31  CAN PJA d   1       5.601  18.730  26.067  0.00  0.00    -0.046 C 
ATOM     32  H   PJA d   1       4.619  18.413  25.717  0.00  0.00     0.033 H 
ATOM     33  H   PJA d   1       6.375  18.228  25.485  0.00  0.00     0.033 H 
ATOM     34  H   PJA d   1       5.713  18.474  27.120  0.00  0.00     0.033 H 
ENDBRANCH   1  31
BRANCH  14  35
ATOM     35  CAC PJA d   1       6.160  24.598  25.281  0.00  0.00    -0.050 C 
ATOM     36  H   PJA d   1       7.004  24.817  24.627  0.00  0.00     0.033 H 
ATOM     37  H   PJA d   1       5.250  25.023  24.857  0.00  0.00     0.033 H 
ATOM     38  H   PJA d   1       6.340  25.030  26.265  0.00  0.00     0.033 H 
ENDBRANCH  14  35
BRANCH  16  39
ATOM     39  OAJ PJA d   1       6.135  20.851  28.218  0.00  0.00    -0.360 OA
ATOM     40  H   PJA d   1       6.037  19.899  28.292  0.00  0.00     0.217 HD
ENDBRANCH  16  39
TORSDOF 7
