REMARK  17 active torsions:
REMARK  status: ('A' for Active; 'I' for Inactive)
REMARK       I    between atoms: C27_2  and  N3_3 
REMARK    1  A    between atoms: C27_2  and  C_13 
REMARK    2  A    between atoms: C5_14  and  C6_15 
REMARK    3  A    between atoms: C8_16  and  C9_17 
REMARK    4  A    between atoms: C9_17  and  C10_18 
REMARK    5  A    between atoms: C10_18  and  C11_19 
REMARK    6  A    between atoms: C11_19  and  C12_20 
REMARK    7  A    between atoms: N1_21  and  C13_22 
REMARK    8  A    between atoms: C7_29  and  C19_30 
REMARK    9  A    between atoms: C19_30  and  O_31 
REMARK   10  A    between atoms: C2_34  and  C20_36 
REMARK       I    between atoms: C20_36  and  N2_38 
REMARK   11  A    between atoms: N2_38  and  S_39 
REMARK   12  A    between atoms: S_39  and  C21_42 
REMARK   13  A    between atoms: C21_42  and  C22_43 
REMARK   14  A    between atoms: C22_43  and  SI1_44 
REMARK   15  A    between atoms: SI1_44  and  C26_45 
REMARK   16  A    between atoms: SI1_44  and  C25_46 
REMARK   17  A    between atoms: SI1_44  and  C24_47 
ROOT
ATOM      1  C   0Q5 d   1      13.669  30.745   8.936  0.00  0.00     0.044 A 
ATOM      2  C5  0Q5 d   1      12.913  31.469   7.991  0.00  0.00    -0.006 A 
ATOM      3  C4  0Q5 d   1      13.458  32.622   7.424  0.00  0.00    -0.070 A 
ATOM      4  C3  0Q5 d   1      14.731  33.050   7.770  0.00  0.00    -0.067 A 
ATOM      5  C2  0Q5 d   1      15.487  32.342   8.704  0.00  0.00     0.034 A 
ATOM      6  C1  0Q5 d   1      14.950  31.197   9.282  0.00  0.00    -0.051 A 
ATOM      7  H   0Q5 d   1      12.876  33.193   6.700  0.00  0.00     0.084 H 
ATOM      8  H   0Q5 d   1      15.144  33.947   7.308  0.00  0.00     0.085 H 
ATOM      9  H   0Q5 d   1      15.534  30.642  10.016  0.00  0.00     0.086 H 
ENDROOT
BRANCH   2  10
ATOM     10  C6  0Q5 d   1      11.563  31.064   7.571  0.00  0.00     0.028 A 
ATOM     11  C8  0Q5 d   1      11.228  30.173   6.580  0.00  0.00     0.050 A 
ATOM     12  N1  0Q5 d   1       9.829  29.981   6.683  0.00  0.00    -0.237 N 
ATOM     13  N   0Q5 d   1       9.318  30.781   7.691  0.00  0.00    -0.169 NA
ATOM     14  C7  0Q5 d   1      10.336  31.418   8.221  0.00  0.00     0.091 A 
BRANCH  11  15
ATOM     15  C9  0Q5 d   1      12.127  29.470   5.615  0.00  0.00    -0.024 C 
ATOM     16  H   0Q5 d   1      12.000  28.404   5.805  0.00  0.00     0.042 H 
ATOM     17  H   0Q5 d   1      13.125  29.877   5.780  0.00  0.00     0.042 H 
BRANCH  15  18
ATOM     18  C10 0Q5 d   1      11.829  29.673   4.145  0.00  0.00    -0.060 C 
ATOM     19  H   0Q5 d   1      11.927  30.733   3.912  0.00  0.00     0.033 H 
ATOM     20  H   0Q5 d   1      10.819  29.319   3.942  0.00  0.00     0.033 H 
BRANCH  18  21
ATOM     21  C11 0Q5 d   1      12.797  28.897   3.282  0.00  0.00    -0.068 C 
ATOM     22  H   0Q5 d   1      12.629  27.837   3.472  0.00  0.00     0.032 H 
ATOM     23  H   0Q5 d   1      13.803  29.229   3.538  0.00  0.00     0.032 H 
BRANCH  21  24
ATOM     24  C12 0Q5 d   1      12.608  29.125   1.836  0.00  0.00    -0.077 C 
ATOM     25  H   0Q5 d   1      11.600  28.823   1.550  0.00  0.00     0.027 H 
ATOM     26  H   0Q5 d   1      12.748  30.183   1.615  0.00  0.00     0.027 H 
ATOM     27  H   0Q5 d   1      13.337  28.537   1.278  0.00  0.00     0.027 H 
ENDBRANCH  21  24
ENDBRANCH  18  21
ENDBRANCH  15  18
ENDBRANCH  11  15
BRANCH  12  28
ATOM     28  C13 0Q5 d   1       8.973  29.022   6.058  0.00  0.00     0.058 A 
ATOM     29  C18 0Q5 d   1       7.926  29.444   5.242  0.00  0.00    -0.055 A 
ATOM     30  C17 0Q5 d   1       7.154  28.501   4.570  0.00  0.00    -0.081 A 
ATOM     31  H   0Q5 d   1       7.713  30.507   5.130  0.00  0.00     0.087 H 
ATOM     32  C16 0Q5 d   1       7.422  27.151   4.706  0.00  0.00    -0.083 A 
ATOM     33  H   0Q5 d   1       6.333  28.828   3.932  0.00  0.00     0.083 H 
ATOM     34  C15 0Q5 d   1       8.464  26.731   5.516  0.00  0.00    -0.081 A 
ATOM     35  H   0Q5 d   1       6.814  26.418   4.176  0.00  0.00     0.083 H 
ATOM     36  C14 0Q5 d   1       9.234  27.656   6.206  0.00  0.00    -0.055 A 
ATOM     37  H   0Q5 d   1       8.680  25.667   5.612  0.00  0.00     0.083 H 
ATOM     38  H   0Q5 d   1      10.038  27.320   6.860  0.00  0.00     0.087 H 
ENDBRANCH  12  28
BRANCH  14  39
ATOM     39  C19 0Q5 d   1      10.155  32.403   9.331  0.00  0.00     0.059 C 
ATOM     40  H   0Q5 d   1      11.070  32.563   9.901  0.00  0.00     0.083 H 
ATOM     41  H   0Q5 d   1       9.444  32.060  10.083  0.00  0.00     0.083 H 
BRANCH  39  42
ATOM     42  O   0Q5 d   1       9.718  33.575   8.664  0.00  0.00    -0.395 OA
ATOM     43  H   0Q5 d   1       8.898  33.391   8.200  0.00  0.00     0.209 HD
ENDBRANCH  39  42
ENDBRANCH  14  39
ENDBRANCH   2  10
BRANCH   1  44
ATOM     44  C27 0Q5 d   1      13.151  29.484   9.586  0.00  0.00     0.255 C 
ATOM     45  O4  0Q5 d   1      12.208  29.575  10.347  0.00  0.00    -0.267 OA
ATOM     46  N3  0Q5 d   1      13.611  28.300   9.128  0.00  0.00    -0.343 N 
ATOM     47  C36 0Q5 d   1      14.990  28.195   8.675  0.00  0.00     0.002 C 
ATOM     48  C28 0Q5 d   1      12.856  27.037   9.066  0.00  0.00     0.022 C 
ATOM     49  C35 0Q5 d   1      14.988  27.942   7.189  0.00  0.00    -0.025 C 
ATOM     50  H   0Q5 d   1      15.489  27.375   9.191  0.00  0.00     0.064 H 
ATOM     51  H   0Q5 d   1      15.525  29.119   8.894  0.00  0.00     0.064 H 
ATOM     52  C30 0Q5 d   1      14.128  26.754   6.861  0.00  0.00    -0.049 A 
ATOM     53  H   0Q5 d   1      16.008  27.743   6.861  0.00  0.00     0.042 H 
ATOM     54  H   0Q5 d   1      14.590  28.820   6.680  0.00  0.00     0.042 H 
ATOM     55  C31 0Q5 d   1      14.296  26.099   5.640  0.00  0.00    -0.076 A 
ATOM     56  C29 0Q5 d   1      13.070  26.364   7.716  0.00  0.00    -0.034 A 
ATOM     57  C32 0Q5 d   1      13.418  25.105   5.243  0.00  0.00    -0.082 A 
ATOM     58  H   0Q5 d   1      15.128  26.373   4.992  0.00  0.00     0.084 H 
ATOM     59  C33 0Q5 d   1      12.377  24.733   6.069  0.00  0.00    -0.082 A 
ATOM     60  H   0Q5 d   1      13.549  24.616   4.278  0.00  0.00     0.083 H 
ATOM     61  C34 0Q5 d   1      12.209  25.352   7.301  0.00  0.00    -0.075 A 
ATOM     62  H   0Q5 d   1      11.685  23.952   5.754  0.00  0.00     0.083 H 
ATOM     63  H   0Q5 d   1      11.392  25.041   7.952  0.00  0.00     0.084 H 
ATOM     64  H   0Q5 d   1      11.795  27.248   9.196  0.00  0.00     0.071 H 
ATOM     65  H   0Q5 d   1      13.206  26.372   9.856  0.00  0.00     0.071 H 
ENDBRANCH   1  44
BRANCH   5  66
ATOM     66  C20 0Q5 d   1      16.818  32.833   9.173  0.00  0.00     0.265 C 
ATOM     67  O1  0Q5 d   1      17.670  32.073   9.645  0.00  0.00    -0.267 OA
ATOM     68  N2  0Q5 d   1      17.005  34.205   9.139  0.00  0.00    -0.250 N 
ATOM     69  H   0Q5 d   1      16.262  34.821   8.809  0.00  0.00     0.181 HD
BRANCH  68  70
ATOM     70  S   0Q5 d   1      18.439  34.822   9.637  0.00  0.00     0.233 S 
ATOM     71  O2  0Q5 d   1      18.312  36.248   9.622  0.00  0.00    -0.206 OA
ATOM     72  O3  0Q5 d   1      18.823  34.166  10.848  0.00  0.00    -0.206 OA
BRANCH  70  73
ATOM     73  C21 0Q5 d   1      19.448  34.326   8.324  0.00  0.00     0.046 C 
ATOM     74  H   0Q5 d   1      19.118  34.823   7.412  0.00  0.00     0.058 H 
ATOM     75  H   0Q5 d   1      19.378  33.244   8.208  0.00  0.00     0.058 H 
BRANCH  73  76
ATOM     76  C22 0Q5 d   1      20.900  34.707   8.604  0.00  0.00    -0.050 C 
ATOM     77  H   0Q5 d   1      21.209  34.160   9.495  0.00  0.00     0.034 H 
ATOM     78  H   0Q5 d   1      20.932  35.791   8.709  0.00  0.00     0.034 H 
BRANCH  76  79
ATOM     79 SI1  0Q5 d   1      22.108  34.245   7.221  0.00  0.00     0.000 Si
BRANCH  79  80
ATOM     80  C26 0Q5 d   1      21.567  35.035   5.595  0.00  0.00    -0.080 C 
ATOM     81  H   0Q5 d   1      20.570  34.679   5.333  0.00  0.00     0.027 H 
ATOM     82  H   0Q5 d   1      21.549  36.119   5.707  0.00  0.00     0.027 H 
ATOM     83  H   0Q5 d   1      22.270  34.761   4.808  0.00  0.00     0.027 H 
ENDBRANCH  79  80
BRANCH  79  84
ATOM     84  C25 0Q5 d   1      22.176  32.370   7.023  0.00  0.00    -0.080 C 
ATOM     85  H   0Q5 d   1      22.510  31.919   7.957  0.00  0.00     0.027 H 
ATOM     86  H   0Q5 d   1      21.183  31.996   6.772  0.00  0.00     0.027 H 
ATOM     87  H   0Q5 d   1      22.874  32.115   6.225  0.00  0.00     0.027 H 
ENDBRANCH  79  84
BRANCH  79  88
ATOM     88  C24 0Q5 d   1      23.822  34.885   7.697  0.00  0.00    -0.080 C 
ATOM     89  H   0Q5 d   1      23.784  35.968   7.816  0.00  0.00     0.027 H 
ATOM     90  H   0Q5 d   1      24.132  34.426   8.636  0.00  0.00     0.027 H 
ATOM     91  H   0Q5 d   1      24.535  34.629   6.913  0.00  0.00     0.027 H 
ENDBRANCH  79  88
ENDBRANCH  76  79
ENDBRANCH  73  76
ENDBRANCH  70  73
ENDBRANCH  68  70
ENDBRANCH   5  66
TORSDOF 17
