REMARK  1 active torsions:
REMARK  status: ('A' for Active; 'I' for Inactive)
REMARK       I    between atoms: NAX_14  and  CAQ_15 
REMARK    1  A    between atoms: CAQ_15  and  CAR_17 
ROOT
ATOM      1  OAB 0SJ d   1      -0.781 -11.395  11.925  0.00  0.00    -0.268 OA
ATOM      2  CAU 0SJ d   1      -0.713 -10.436  12.710  0.00  0.00     0.247 A 
ATOM      3  CAL 0SJ d   1       0.452  -9.666  12.767  0.00  0.00    -0.017 A 
ATOM      4  CAF 0SJ d   1       0.523  -8.596  13.656  0.00  0.00    -0.076 A 
ATOM      5  CAG 0SJ d   1      -0.574  -8.314  14.467  0.00  0.00    -0.060 A 
ATOM      6  CAT 0SJ d   1      -1.729  -9.104  14.396  0.00  0.00     0.020 A 
ATOM      7  NAY 0SJ d   1      -1.769 -10.146  13.507  0.00  0.00    -0.317 N 
ATOM      8  CAP 0SJ d   1      -2.955 -11.048  13.366  0.00  0.00     0.008 C 
ATOM      9  CAV 0SJ d   1      -4.184 -10.523  14.079  0.00  0.00    -0.022 C 
ATOM     10  CAN 0SJ d   1      -4.826  -9.436  13.209  0.00  0.00     0.003 C 
ATOM     11  CAM 0SJ d   1      -3.758  -9.972  15.455  0.00  0.00    -0.049 C 
ATOM     12  CAW 0SJ d   1      -2.824  -8.760  15.250  0.00  0.00     0.003 C 
ATOM     13  CAO 0SJ d   1      -3.668  -7.636  14.603  0.00  0.00     0.006 C 
ATOM     14  NAX 0SJ d   1      -4.087  -8.128  13.261  0.00  0.00    -0.347 N 
ATOM     15  CAQ 0SJ d   1      -3.752  -7.510  12.102  0.00  0.00     0.253 C 
ATOM     16  OAA 0SJ d   1      -4.076  -7.997  11.014  0.00  0.00    -0.267 OA
ATOM     17  H1  0SJ d   1       1.297  -9.901  12.122  0.00  0.00     0.092 H 
ATOM     18  H2  0SJ d   1       1.424  -7.988  13.716  0.00  0.00     0.083 H 
ATOM     19  H3  0SJ d   1      -0.534  -7.475  15.160  0.00  0.00     0.086 H 
ATOM     20  H4  0SJ d   1      -2.699 -12.032  13.786  0.00  0.00     0.065 H 
ATOM     21  H5  0SJ d   1      -3.189 -11.155  12.297  0.00  0.00     0.065 H 
ATOM     22  H6  0SJ d   1      -4.906 -11.340  14.226  0.00  0.00     0.045 H 
ATOM     23  H7  0SJ d   1      -5.856  -9.271  13.558  0.00  0.00     0.065 H 
ATOM     24  H8  0SJ d   1      -4.844  -9.787  12.167  0.00  0.00     0.065 H 
ATOM     25  H9  0SJ d   1      -3.227 -10.755  16.016  0.00  0.00     0.034 H 
ATOM     26  H10 0SJ d   1      -4.650  -9.658  16.018  0.00  0.00     0.034 H 
ATOM     27  H11 0SJ d   1      -2.433  -8.423  16.221  0.00  0.00     0.052 H 
ATOM     28  H12 0SJ d   1      -3.065  -6.722  14.499  0.00  0.00     0.065 H 
ATOM     29  H13 0SJ d   1      -4.553  -7.424  15.221  0.00  0.00     0.065 H 
ENDROOT
BRANCH  15  30
ATOM     30  CAR 0SJ d   1      -3.110  -6.263  12.054  0.00  0.00     0.032 A 
ATOM     31  CAH 0SJ d   1      -3.899  -5.108  12.022  0.00  0.00    -0.066 A 
ATOM     32  CAJ 0SJ d   1      -3.323  -3.839  11.939  0.00  0.00    -0.061 A 
ATOM     33  H14 0SJ d   1      -4.978  -5.200  12.062  0.00  0.00     0.085 H 
ATOM     34  CAS 0SJ d   1      -1.934  -3.723  11.867  0.00  0.00     0.034 A 
ATOM     35  H15 0SJ d   1      -3.948  -2.953  11.931  0.00  0.00     0.086 H 
ATOM     36 CL1  0SJ d   1      -1.195  -2.157  11.751  0.00  0.00    -0.084 Cl
ATOM     37  CAK 0SJ d   1      -1.138  -4.870  11.884  0.00  0.00    -0.061 A 
ATOM     38  CAI 0SJ d   1      -1.720  -6.140  11.964  0.00  0.00    -0.066 A 
ATOM     39  H16 0SJ d   1      -0.059  -4.776  11.835  0.00  0.00     0.086 H 
ATOM     40  H17 0SJ d   1      -1.095  -7.026  11.956  0.00  0.00     0.085 H 
ENDBRANCH  15  30
TORSDOF 1
