REMARK WARNING: 32 MAX_TORS EXCEEDED!!!
REMARK  59 active torsions:
REMARK  status: ('A' for Active; 'I' for Inactive)
REMARK    1  A    between atoms: N_1  and  CA_2 
REMARK    2  A    between atoms: CA_2  and  C_3 
REMARK    3  A    between atoms: CA_2  and  CB_5 
REMARK       I    between atoms: C_3  and  N_12 
REMARK    4  A    between atoms: CB_5  and  CG_6 
REMARK    5  A    between atoms: CG_6  and  CD_7 
REMARK    6  A    between atoms: CD_7  and  NE_8 
REMARK       I    between atoms: NE_8  and  CZ_9 
REMARK       I    between atoms: CZ_9  and  NH1_10 
REMARK    7  A    between atoms: N_12  and  CA_13 
REMARK    8  A    between atoms: CA_13  and  C_14 
REMARK    9  A    between atoms: CA_13  and  CB_16 
REMARK       I    between atoms: C_14  and  N_20 
REMARK   10  A    between atoms: CB_16  and  CG_17 
REMARK   11  A    between atoms: CG_17  and  CD1_18 
REMARK   12  A    between atoms: CG_17  and  CD2_19 
REMARK   13  A    between atoms: N_20  and  CA_21 
REMARK   14  A    between atoms: CA_21  and  C_22 
REMARK   15  A    between atoms: CA_21  and  CB_24 
REMARK       I    between atoms: C_22  and  N_30 
REMARK   16  A    between atoms: CB_24  and  CG_25 
REMARK   17  A    between atoms: N_30  and  CA_31 
REMARK   18  A    between atoms: CA_31  and  C_32 
REMARK   19  A    between atoms: CA_31  and  CB_34 
REMARK       I    between atoms: C_32  and  N_36 
REMARK   20  A    between atoms: CB_34  and  SG_35 
REMARK   21  A    between atoms: N_36  and  CA_37 
REMARK   22  A    between atoms: CA_37  and  C_38 
REMARK   23  A    between atoms: CA_37  and  CB_40 
REMARK       I    between atoms: C_38  and  N_43 
REMARK   24  A    between atoms: CB_40  and  CG1_41 
REMARK   25  A    between atoms: CB_40  and  CG2_42 
REMARK   26  A    between atoms: N_43  and  CA_44 
REMARK   27  A    between atoms: CA_44  and  C_45 
REMARK   28  A    between atoms: CA_44  and  CB_47 
REMARK       I    between atoms: C_45  and  N_52 
REMARK   29  A    between atoms: CB_47  and  CG_48 
REMARK   30  A    between atoms: CG_48  and  CD_49 
REMARK   31  A    between atoms: N_52  and  CA_53 
REMARK   32  A    between atoms: CA_53  and  C_54 
REMARK   33  A    between atoms: CA_53  and  CB_56 
REMARK       I    between atoms: C_54  and  N_66 
REMARK   34  A    between atoms: CB_56  and  CG_57 
REMARK   35  A    between atoms: N_66  and  CA_67 
REMARK   36  A    between atoms: CA_67  and  C_68 
REMARK   37  A    between atoms: CA_67  and  CB_70 
REMARK       I    between atoms: C_68  and  N_73 
REMARK   38  A    between atoms: CB_70  and  OG1_71 
REMARK   39  A    between atoms: CB_70  and  CG2_72 
REMARK   40  A    between atoms: N_73  and  CA_74 
REMARK   41  A    between atoms: CA_74  and  C_75 
REMARK   42  A    between atoms: CA_74  and  CB_77 
REMARK       I    between atoms: C_75  and  N_81 
REMARK   43  A    between atoms: CB_77  and  CG1_78 
REMARK   44  A    between atoms: CB_77  and  CG2_79 
REMARK   45  A    between atoms: CG1_78  and  CD1_80 
REMARK   46  A    between atoms: N_81  and  CA_82 
REMARK   47  A    between atoms: CA_82  and  C_83 
REMARK   48  A    between atoms: CA_82  and  CB_85 
REMARK       I    between atoms: C_83  and  N_89 
REMARK   49  A    between atoms: CB_85  and  CG_86 
REMARK   50  A    between atoms: CG_86  and  CD1_87 
REMARK   51  A    between atoms: CG_86  and  CD2_88 
REMARK   52  A    between atoms: N_89  and  CA_90 
REMARK   53  A    between atoms: CA_90  and  C_91 
REMARK   54  A    between atoms: CA_90  and  CB_93 
REMARK       I    between atoms: C_91  and  N_98 
REMARK   55  A    between atoms: CB_93  and  CG_94 
REMARK   56  A    between atoms: CG_94  and  CD_95 
REMARK   57  A    between atoms: N_98  and  CA_99 
REMARK   58  A    between atoms: CA_99  and  C_100 
REMARK   59  A    between atoms: CA_99  and  CB_102 
ROOT
ATOM      1  C   GLU d   1      24.252 -18.887  24.823  0.00  0.00     0.241 C 
ATOM      2  O   GLU d   1      25.321 -18.276  24.729  0.00  0.00    -0.271 OA
ATOM      3  N   TRP d   1      23.333 -18.598  25.738  0.00  0.00    -0.346 N 
ATOM      4  H   TRP d   1      22.447 -19.104  25.730  0.00  0.00     0.163 HD
ENDROOT
BRANCH   1   5
ATOM      5  CA  GLU d   1      23.903 -20.031  23.866  0.00  0.00     0.090 C 
ATOM      6  H   GLU d   1      22.839 -20.235  23.988  0.00  0.00     0.087 H 
BRANCH   5   7
ATOM      7  N   GLU d   1      24.102 -19.671  22.469  0.00  0.00    -0.346 N 
ATOM      8  C   VAL d   1      23.311 -20.153  21.514  0.00  0.00     0.241 C 
ATOM      9  O   VAL d   1      22.394 -20.957  21.737  0.00  0.00    -0.271 OA
ATOM     10  H   GLU d   1      24.861 -19.038  22.218  0.00  0.00     0.163 HD
BRANCH   8  11
ATOM     11  CA  VAL d   1      23.584 -19.642  20.103  0.00  0.00     0.092 C 
ATOM     12  H   VAL d   1      22.640 -19.431  19.600  0.00  0.00     0.088 H 
BRANCH  11  13
ATOM     13  N   VAL d   1      24.337 -18.397  20.160  0.00  0.00    -0.346 N 
ATOM     14  C   CYS d   1      23.741 -17.220  20.010  0.00  0.00     0.241 C 
ATOM     15  O   CYS d   1      22.533 -17.103  19.806  0.00  0.00    -0.271 OA
ATOM     16  H   VAL d   1      25.344 -18.430  20.319  0.00  0.00     0.163 HD
BRANCH  14  17
ATOM     17  CA  CYS d   1      24.636 -15.991  20.103  0.00  0.00     0.097 C 
ATOM     18  H   CYS d   1      25.681 -16.300  20.099  0.00  0.00     0.088 H 
BRANCH  17  19
ATOM     19  N   CYS d   1      24.388 -15.132  18.957  0.00  0.00    -0.345 N 
ATOM     20  C   HIS d   1      24.974 -15.363  17.788  0.00  0.00     0.241 C 
ATOM     21  O   HIS d   1      25.812 -16.248  17.625  0.00  0.00    -0.271 OA
ATOM     22  H   CYS d   1      23.754 -14.339  19.052  0.00  0.00     0.163 HD
BRANCH  20  23
ATOM     23  CA  HIS d   1      24.544 -14.469  16.629  0.00  0.00     0.094 C 
ATOM     24  H   HIS d   1      23.935 -13.662  17.036  0.00  0.00     0.088 H 
BRANCH  23  25
ATOM     25  N   HIS d   1      25.686 -13.855  15.964  0.00  0.00    -0.346 N 
ATOM     26  C   LEU d   1      25.609 -12.639  15.434  0.00  0.00     0.241 C 
ATOM     27  O   LEU d   1      24.585 -11.956  15.469  0.00  0.00    -0.271 OA
ATOM     28  H   HIS d   1      26.564 -14.370  15.904  0.00  0.00     0.163 HD
BRANCH  26  29
ATOM     29  CA  LEU d   1      26.877 -12.116  14.767  0.00  0.00     0.089 C 
ATOM     30  H   LEU d   1      27.447 -12.979  14.423  0.00  0.00     0.087 H 
BRANCH  29  31
ATOM     31  N   LEU d   1      26.585 -11.297  13.596  0.00  0.00    -0.346 N 
ATOM     32  C   ARG d   1      26.236 -11.836  12.433  0.00  0.00     0.248 C 
ATOM     33  O   ARG d   1      26.050 -13.044  12.281  0.00  0.00    -0.271 OA
ATOM     34  H   LEU d   1      26.651 -10.282  13.672  0.00  0.00     0.163 HD
BRANCH  32  35
ATOM     35  CA  ARG d   1      26.067 -10.867  11.267  0.00  0.00     0.176 C 
ATOM     36  H   ARG d   1      27.062 -10.556  10.949  0.00  0.00     0.099 H 
BRANCH  35  37
ATOM     37  N   ARG d   1      25.420 -11.504  10.126  0.00  0.00    -0.067 N 
ATOM     38  H   ARG d   1      25.958 -12.324   9.846  0.00  0.00     0.275 HD
ATOM     39  H   ARG d   1      24.476 -11.788  10.387  0.00  0.00     0.275 HD
ATOM     40  H   ARG d   1      25.375 -10.844   9.350  0.00  0.00     0.275 HD
ENDBRANCH  35  37
BRANCH  35  41
ATOM     41  CB  ARG d   1      25.280  -9.632  11.709  0.00  0.00    -0.029 C 
ATOM     42  H   ARG d   1      25.494  -8.835  10.996  0.00  0.00     0.036 H 
ATOM     43  H   ARG d   1      25.584  -9.398  12.729  0.00  0.00     0.036 H 
BRANCH  41  44
ATOM     44  CG  ARG d   1      23.779  -9.841  11.719  0.00  0.00    -0.047 C 
ATOM     45  H   ARG d   1      23.576 -10.877  11.447  0.00  0.00     0.035 H 
ATOM     46  H   ARG d   1      23.331  -9.141  11.014  0.00  0.00     0.035 H 
BRANCH  44  47
ATOM     47  CD  ARG d   1      23.182  -9.583  13.090  0.00  0.00     0.009 C 
ATOM     48  H   ARG d   1      23.672 -10.247  13.802  0.00  0.00     0.064 H 
ATOM     49  H   ARG d   1      22.108  -9.759  13.028  0.00  0.00     0.064 H 
BRANCH  47  50
ATOM     50  NE  ARG d   1      23.389  -8.210  13.538  0.00  0.00    -0.227 N 
ATOM     51  CZ  ARG d   1      22.820  -7.144  12.985  0.00  0.00     0.665 C 
ATOM     52  NH1 ARG d   1      22.012  -7.277  11.940  0.00  0.00    -0.235 N 
ATOM     53  NH2 ARG d   1      23.069  -5.940  13.478  0.00  0.00    -0.235 N 
ATOM     54  H   ARG d   1      21.824  -8.203  11.555  0.00  0.00     0.174 HD
ATOM     55  H   ARG d   1      21.579  -6.453  11.522  0.00  0.00     0.174 HD
ATOM     56  H   ARG d   1      23.694  -5.835  14.277  0.00  0.00     0.174 HD
ATOM     57  H   ARG d   1      22.636  -5.117  13.058  0.00  0.00     0.174 HD
ATOM     58  H   ARG d   1      24.013  -8.058  14.330  0.00  0.00     0.177 HD
ENDBRANCH  47  50
ENDBRANCH  44  47
ENDBRANCH  41  44
ENDBRANCH  35  41
ENDBRANCH  32  35
ENDBRANCH  29  31
BRANCH  29  59
ATOM     59  CB  LEU d   1      27.711 -11.323  15.775  0.00  0.00    -0.035 C 
ATOM     60  H   LEU d   1      28.129 -12.048  16.473  0.00  0.00     0.037 H 
ATOM     61  H   LEU d   1      27.045 -10.582  16.217  0.00  0.00     0.037 H 
BRANCH  59  62
ATOM     62  CG  LEU d   1      28.892 -10.553  15.182  0.00  0.00    -0.059 C 
ATOM     63  H   LEU d   1      29.137 -10.994  14.216  0.00  0.00     0.038 H 
BRANCH  62  64
ATOM     64  CD1 LEU d   1      28.523  -9.092  14.965  0.00  0.00    -0.073 C 
ATOM     65  H   LEU d   1      27.679  -9.030  14.278  0.00  0.00     0.028 H 
ATOM     66  H   LEU d   1      28.250  -8.642  15.919  0.00  0.00     0.028 H 
ATOM     67  H   LEU d   1      29.377  -8.562  14.543  0.00  0.00     0.028 H 
ENDBRANCH  62  64
BRANCH  62  68
ATOM     68  CD2 LEU d   1      30.110 -10.666  16.080  0.00  0.00    -0.073 C 
ATOM     69  H   LEU d   1      29.876 -10.253  17.061  0.00  0.00     0.028 H 
ATOM     70  H   LEU d   1      30.388 -11.715  16.183  0.00  0.00     0.028 H 
ATOM     71  H   LEU d   1      30.938 -10.111  15.639  0.00  0.00     0.028 H 
ENDBRANCH  62  68
ENDBRANCH  59  62
ENDBRANCH  29  59
ENDBRANCH  26  29
ENDBRANCH  23  25
BRANCH  23  72
ATOM     72  CB  HIS d   1      23.714 -15.278  15.629  0.00  0.00     0.004 C 
ATOM     73  H   HIS d   1      24.308 -16.145  15.340  0.00  0.00     0.046 H 
ATOM     74  H   HIS d   1      23.470 -14.616  14.798  0.00  0.00     0.046 H 
BRANCH  72  75
ATOM     75  CG  HIS d   1      22.422 -15.787  16.189  0.00  0.00     0.053 A 
ATOM     76  ND1 HIS d   1      22.227 -17.107  16.536  0.00  0.00    -0.247 NA
ATOM     77  CE1 HIS d   1      21.000 -17.262  16.999  0.00  0.00     0.064 A 
ATOM     78  NE2 HIS d   1      20.391 -16.090  16.967  0.00  0.00    -0.359 N 
ATOM     79  H   HIS d   1      20.564 -18.198  17.348  0.00  0.00     0.143 H 
ATOM     80  CD2 HIS d   1      21.259 -15.151  16.465  0.00  0.00     0.002 A 
ATOM     81  H   HIS d   1      19.432 -15.911  17.266  0.00  0.00     0.166 HD
ATOM     82  H   HIS d   1      21.050 -14.091  16.317  0.00  0.00     0.114 H 
ENDBRANCH  72  75
ENDBRANCH  23  72
ENDBRANCH  20  23
ENDBRANCH  17  19
BRANCH  17  83
ATOM     83  CB  CYS d   1      24.369 -15.239  21.408  0.00  0.00     0.001 C 
ATOM     84  H   CYS d   1      23.360 -14.833  21.342  0.00  0.00     0.052 H 
ATOM     85  H   CYS d   1      25.151 -14.487  21.510  0.00  0.00     0.052 H 
BRANCH  83  86
ATOM     86  SG  CYS d   1      24.430 -16.272  22.891  0.00  0.00    -0.180 SA
ATOM     87  H   CYS d   1      25.637 -16.820  22.998  0.00  0.00     0.101 HD
ENDBRANCH  83  86
ENDBRANCH  17  83
ENDBRANCH  14  17
ENDBRANCH  11  13
BRANCH  11  88
ATOM     88  CB  VAL d   1      24.312 -20.716  19.290  0.00  0.00    -0.033 C 
ATOM     89  H   VAL d   1      23.749 -21.648  19.339  0.00  0.00     0.042 H 
BRANCH  88  90
ATOM     90  CG1 VAL d   1      24.395 -20.296  17.818  0.00  0.00    -0.071 C 
ATOM     91  H   VAL d   1      23.388 -20.167  17.421  0.00  0.00     0.028 H 
ATOM     92  H   VAL d   1      24.941 -19.356  17.740  0.00  0.00     0.028 H 
ATOM     93  H   VAL d   1      24.915 -21.068  17.250  0.00  0.00     0.028 H 
ENDBRANCH  88  90
BRANCH  88  94
ATOM     94  CG2 VAL d   1      25.689 -20.978  19.878  0.00  0.00    -0.071 C 
ATOM     95  H   VAL d   1      26.273 -20.058  19.857  0.00  0.00     0.028 H 
ATOM     96  H   VAL d   1      25.584 -21.320  20.908  0.00  0.00     0.028 H 
ATOM     97  H   VAL d   1      26.194 -21.744  19.289  0.00  0.00     0.028 H 
ENDBRANCH  88  94
ENDBRANCH  11  88
ENDBRANCH   8  11
ENDBRANCH   5   7
BRANCH   5  98
ATOM     98  CB  GLU d   1      24.688 -21.294  24.223  0.00  0.00    -0.029 C 
ATOM     99  H   GLU d   1      25.749 -21.047  24.179  0.00  0.00     0.037 H 
ATOM    100  H   GLU d   1      24.399 -22.073  23.517  0.00  0.00     0.037 H 
BRANCH  98 101
ATOM    101  CG  GLU d   1      24.393 -21.807  25.620  0.00  0.00     0.018 C 
ATOM    102  H   GLU d   1      23.323 -22.002  25.687  0.00  0.00     0.049 H 
ATOM    103  H   GLU d   1      24.726 -21.052  26.332  0.00  0.00     0.049 H 
BRANCH 101 104
ATOM    104  CD  GLU d   1      25.121 -23.093  25.931  0.00  0.00     0.172 C 
ATOM    105  OE1 GLU d   1      26.032 -23.462  25.161  0.00  0.00    -0.648 OA
ATOM    106  OE2 GLU d   1      24.784 -23.735  26.945  0.00  0.00    -0.648 OA
ENDBRANCH 101 104
ENDBRANCH  98 101
ENDBRANCH   5  98
ENDBRANCH   1   5
BRANCH   3 107
ATOM    107  CA  TRP d   1      23.559 -17.579  26.750  0.00  0.00     0.093 C 
ATOM    108  H   TRP d   1      24.475 -17.045  26.497  0.00  0.00     0.088 H 
BRANCH 107 109
ATOM    109  C   TRP d   1      23.701 -18.228  28.118  0.00  0.00     0.241 C 
ATOM    110  O   TRP d   1      23.052 -19.233  28.411  0.00  0.00    -0.271 OA
ATOM    111  N   THR d   1      24.559 -17.652  28.951  0.00  0.00    -0.344 N 
ATOM    112  H   THR d   1      25.171 -16.913  28.605  0.00  0.00     0.163 HD
BRANCH 111 113
ATOM    113  CA  THR d   1      24.646 -18.052  30.347  0.00  0.00     0.113 C 
ATOM    114  H   THR d   1      23.900 -18.829  30.514  0.00  0.00     0.091 H 
BRANCH 113 115
ATOM    115  C   THR d   1      24.394 -16.839  31.225  0.00  0.00     0.243 C 
ATOM    116  O   THR d   1      24.447 -15.700  30.759  0.00  0.00    -0.271 OA
ATOM    117  N   ILE d   1      24.112 -17.086  32.498  0.00  0.00    -0.346 N 
ATOM    118  H   ILE d   1      23.973 -18.049  32.803  0.00  0.00     0.163 HD
BRANCH 117 119
ATOM    119  CA  ILE d   1      23.998 -16.006  33.464  0.00  0.00     0.092 C 
ATOM    120  H   ILE d   1      23.933 -15.068  32.913  0.00  0.00     0.088 H 
BRANCH 119 121
ATOM    121  C   ILE d   1      25.225 -16.004  34.365  0.00  0.00     0.241 C 
ATOM    122  O   ILE d   1      25.440 -16.940  35.132  0.00  0.00    -0.271 OA
ATOM    123  N   LEU d   1      26.029 -14.951  34.254  0.00  0.00    -0.346 N 
ATOM    124  H   LEU d   1      25.762 -14.197  33.621  0.00  0.00     0.163 HD
BRANCH 123 125
ATOM    125  CA  LEU d   1      27.279 -14.827  35.000  0.00  0.00     0.089 C 
ATOM    126  H   LEU d   1      27.816 -15.763  34.848  0.00  0.00     0.087 H 
BRANCH 125 127
ATOM    127  C   LEU d   1      27.080 -14.653  36.499  0.00  0.00     0.241 C 
ATOM    128  O   LEU d   1      26.029 -14.206  36.953  0.00  0.00    -0.271 OA
ATOM    129  N   GLU d   1      28.105 -15.003  37.269  0.00  0.00    -0.346 N 
ATOM    130  H   GLU d   1      28.952 -15.366  36.833  0.00  0.00     0.163 HD
BRANCH 129 131
ATOM    131  CA  GLU d   1      28.051 -14.882  38.721  0.00  0.00     0.090 C 
ATOM    132  H   GLU d   1      27.001 -14.921  39.010  0.00  0.00     0.087 H 
BRANCH 131 133
ATOM    133  C   GLU d   1      28.621 -13.550  39.200  0.00  0.00     0.241 C 
ATOM    134  O   GLU d   1      28.286 -13.077  40.285  0.00  0.00    -0.271 OA
ATOM    135  N   ARG d   1      29.485 -12.950  38.387  0.00  0.00    -0.345 N 
ATOM    136  H   ARG d   1      29.724 -13.393  37.500  0.00  0.00     0.163 HD
BRANCH 135 137
ATOM    137  CA  ARG d   1      30.098 -11.674  38.734  0.00  0.00     0.093 C 
ATOM    138  H   ARG d   1      29.353 -11.081  39.265  0.00  0.00     0.089 H 
BRANCH 137 139
ATOM    139  C   ARG d   1      30.517 -10.904  37.487  0.00  0.00     0.196 C 
ATOM    140  O   ARG d   1      29.653 -10.382  36.733  0.00  0.00    -0.646 OA
ATOM    141  O   ARG d   1      31.740 -10.789  37.207  0.00  0.00    -0.646 OA
ENDBRANCH 137 139
BRANCH 137 142
ATOM    142  CB  ARG d   1      31.306 -11.892  39.648  0.00  0.00    -0.048 C 
ATOM    143  H   ARG d   1      30.983 -12.391  40.562  0.00  0.00     0.030 H 
ATOM    144  H   ARG d   1      32.041 -12.511  39.135  0.00  0.00     0.030 H 
ATOM    145  H   ARG d   1      31.751 -10.928  39.897  0.00  0.00     0.030 H 
ENDBRANCH 137 142
ENDBRANCH 135 137
ENDBRANCH 131 133
BRANCH 131 146
ATOM    146  CB  GLU d   1      28.799 -16.039  39.385  0.00  0.00    -0.029 C 
ATOM    147  H   GLU d   1      29.267 -15.647  40.288  0.00  0.00     0.037 H 
ATOM    148  H   GLU d   1      29.507 -16.429  38.654  0.00  0.00     0.037 H 
BRANCH 146 149
ATOM    149  CG  GLU d   1      27.903 -17.190  39.805  0.00  0.00     0.018 C 
ATOM    150  H   GLU d   1      27.457 -16.936  40.767  0.00  0.00     0.049 H 
ATOM    151  H   GLU d   1      28.514 -18.092  39.854  0.00  0.00     0.049 H 
BRANCH 149 152
ATOM    152  CD  GLU d   1      26.780 -17.438  38.819  0.00  0.00     0.172 C 
ATOM    153  OE1 GLU d   1      27.074 -17.621  37.620  0.00  0.00    -0.648 OA
ATOM    154  OE2 GLU d   1      25.606 -17.447  39.242  0.00  0.00    -0.648 OA
ENDBRANCH 149 152
ENDBRANCH 146 149
ENDBRANCH 131 146
ENDBRANCH 129 131
ENDBRANCH 125 127
BRANCH 125 155
ATOM    155  CB  LEU d   1      28.075 -13.632  34.476  0.00  0.00    -0.035 C 
ATOM    156  H   LEU d   1      28.426 -13.125  35.375  0.00  0.00     0.037 H 
ATOM    157  H   LEU d   1      27.390 -13.127  33.795  0.00  0.00     0.037 H 
BRANCH 155 158
ATOM    158  CG  LEU d   1      29.339 -13.856  33.647  0.00  0.00    -0.059 C 
ATOM    159  H   LEU d   1      30.201 -13.836  34.314  0.00  0.00     0.038 H 
BRANCH 158 160
ATOM    160  CD1 LEU d   1      29.340 -15.220  32.981  0.00  0.00    -0.073 C 
ATOM    161  H   LEU d   1      29.288 -15.996  33.745  0.00  0.00     0.028 H 
ATOM    162  H   LEU d   1      28.477 -15.301  32.320  0.00  0.00     0.028 H 
ATOM    163  H   LEU d   1      30.256 -15.339  32.401  0.00  0.00     0.028 H 
ENDBRANCH 158 160
BRANCH 158 164
ATOM    164  CD2 LEU d   1      29.482 -12.734  32.623  0.00  0.00    -0.073 C 
ATOM    165  H   LEU d   1      28.612 -12.730  31.966  0.00  0.00     0.028 H 
ATOM    166  H   LEU d   1      29.552 -11.778  33.141  0.00  0.00     0.028 H 
ATOM    167  H   LEU d   1      30.384 -12.895  32.033  0.00  0.00     0.028 H 
ENDBRANCH 158 164
ENDBRANCH 155 158
ENDBRANCH 125 155
ENDBRANCH 123 125
ENDBRANCH 119 121
BRANCH 119 168
ATOM    168  CB  ILE d   1      22.728 -16.129  34.316  0.00  0.00    -0.030 C 
ATOM    169  H   ILE d   1      22.773 -17.058  34.885  0.00  0.00     0.043 H 
BRANCH 168 170
ATOM    170  CG1 ILE d   1      21.492 -16.168  33.415  0.00  0.00    -0.063 C 
ATOM    171  H   ILE d   1      21.546 -17.085  32.828  0.00  0.00     0.033 H 
ATOM    172  H   ILE d   1      21.500 -15.259  32.813  0.00  0.00     0.033 H 
BRANCH 170 173
ATOM    173  CD1 ILE d   1      20.188 -16.195  34.172  0.00  0.00    -0.076 C 
ATOM    174  H   ILE d   1      20.155 -17.081  34.806  0.00  0.00     0.027 H 
ATOM    175  H   ILE d   1      20.110 -15.301  34.791  0.00  0.00     0.027 H 
ATOM    176  H   ILE d   1      19.359 -16.222  33.465  0.00  0.00     0.027 H 
ENDBRANCH 170 173
ENDBRANCH 168 170
BRANCH 168 177
ATOM    177  CG2 ILE d   1      22.637 -14.969  35.295  0.00  0.00    -0.071 C 
ATOM    178  H   ILE d   1      23.509 -14.979  35.950  0.00  0.00     0.028 H 
ATOM    179  H   ILE d   1      22.607 -14.030  34.742  0.00  0.00     0.028 H 
ATOM    180  H   ILE d   1      21.731 -15.070  35.893  0.00  0.00     0.028 H 
ENDBRANCH 168 177
ENDBRANCH 119 168
ENDBRANCH 117 119
ENDBRANCH 113 115
BRANCH 113 181
ATOM    181  CB  THR d   1      26.026 -18.627  30.702  0.00  0.00     0.060 C 
ATOM    182  H   THR d   1      26.308 -19.355  29.942  0.00  0.00     0.086 H 
BRANCH 181 183
ATOM    183  OG1 THR d   1      25.963 -19.257  31.988  0.00  0.00    -0.393 OA
ATOM    184  H   THR d   1      26.825 -19.616  32.210  0.00  0.00     0.210 HD
ENDBRANCH 181 183
BRANCH 181 185
ATOM    185  CG2 THR d   1      27.068 -17.520  30.741  0.00  0.00    -0.050 C 
ATOM    186  H   THR d   1      27.123 -17.040  29.764  0.00  0.00     0.031 H 
ATOM    187  H   THR d   1      26.786 -16.783  31.493  0.00  0.00     0.031 H 
ATOM    188  H   THR d   1      28.039 -17.946  30.994  0.00  0.00     0.031 H 
ENDBRANCH 181 185
ENDBRANCH 113 181
ENDBRANCH 111 113
ENDBRANCH 107 109
BRANCH 107 189
ATOM    189  CB  TRP d   1      22.395 -16.588  26.786  0.00  0.00    -0.012 C 
ATOM    190  H   TRP d   1      22.574 -15.922  27.630  0.00  0.00     0.044 H 
ATOM    191  H   TRP d   1      21.481 -17.178  26.852  0.00  0.00     0.044 H 
BRANCH 189 192
ATOM    192  CG  TRP d   1      22.266 -15.725  25.575  0.00  0.00    -0.028 A 
ATOM    193  CD1 TRP d   1      21.527 -15.985  24.458  0.00  0.00    -0.015 A 
ATOM    194  NE1 TRP d   1      21.651 -14.954  23.559  0.00  0.00    -0.365 N 
ATOM    195  H   TRP d   1      20.926 -16.881  24.302  0.00  0.00     0.112 H 
ATOM    196  CE2 TRP d   1      22.478 -13.999  24.090  0.00  0.00     0.042 A 
ATOM    197  H   TRP d   1      21.201 -14.907  22.645  0.00  0.00     0.165 HD
ATOM    198  CD2 TRP d   1      22.883 -14.451  25.362  0.00  0.00    -0.002 A 
ATOM    199  CZ2 TRP d   1      22.903 -12.782  23.562  0.00  0.00    -0.056 A 
ATOM    200  CE3 TRP d   1      23.741 -13.650  26.122  0.00  0.00    -0.070 A 
ATOM    201  CZ3 TRP d   1      24.162 -12.444  25.596  0.00  0.00    -0.082 A 
ATOM    202  H   TRP d   1      24.071 -13.971  27.110  0.00  0.00     0.084 H 
ATOM    203  CH2 TRP d   1      23.743 -12.021  24.327  0.00  0.00    -0.081 A 
ATOM    204  H   TRP d   1      24.831 -11.810  26.178  0.00  0.00     0.083 H 
ATOM    205  H   TRP d   1      24.095 -11.064  23.941  0.00  0.00     0.083 H 
ATOM    206  H   TRP d   1      22.578 -12.449  22.576  0.00  0.00     0.086 H 
ENDBRANCH 189 192
ENDBRANCH 107 189
ENDBRANCH   3 107
TORSDOF 59
