REMARK  9 active torsions:
REMARK  status: ('A' for Active; 'I' for Inactive)
REMARK    1  A    between atoms: C21_2  and  C22_3 
REMARK       I    between atoms: C21_2  and  N5_4 
REMARK    2  A    between atoms: N5_4  and  C17_5 
REMARK    3  A    between atoms: C15_10  and  C3_11 
REMARK    4  A    between atoms: C6_18  and  C23_19 
REMARK    5  A    between atoms: C24_20  and  N7_21 
REMARK    6  A    between atoms: N3_26  and  C7_27 
REMARK    7  A    between atoms: C10_32  and  C13_33 
REMARK    8  A    between atoms: C13_33  and  N4_34 
REMARK       I    between atoms: N4_34  and  C14_35 
REMARK    9  A    between atoms: C14_35  and  C28_37 
ROOT
ATOM      1  C3  0R4 d   1      38.069  44.353  20.265  0.00  0.00     0.069 A 
ATOM      2  C2  0R4 d   1      39.283  45.068  20.248  0.00  0.00    -0.052 A 
ATOM      3  C1  0R4 d   1      39.694  45.784  19.107  0.00  0.00    -0.049 A 
ATOM      4  N1  0R4 d   1      37.283  44.338  19.174  0.00  0.00    -0.228 NA
ATOM      5  C5  0R4 d   1      37.628  45.011  18.049  0.00  0.00     0.166 A 
ATOM      6  C4  0R4 d   1      38.878  45.779  17.970  0.00  0.00     0.105 A 
ATOM      7  N2  0R4 d   1      38.927  46.314  16.715  0.00  0.00    -0.226 NA
ATOM      8  C6  0R4 d   1      37.816  45.940  16.013  0.00  0.00     0.151 A 
ATOM      9  N3  0R4 d   1      37.101  45.146  16.841  0.00  0.00    -0.278 N 
ATOM     10  H   0R4 d   1      39.916  45.067  21.135  0.00  0.00     0.087 H 
ATOM     11  H   0R4 d   1      40.635  46.334  19.109  0.00  0.00     0.087 H 
ENDROOT
BRANCH   9  12
ATOM     12  C7  0R4 d   1      35.878  44.616  16.613  0.00  0.00     0.043 A 
ATOM     13  C8  0R4 d   1      34.828  45.428  16.136  0.00  0.00    -0.056 A 
ATOM     14  C9  0R4 d   1      33.531  44.958  15.929  0.00  0.00    -0.073 A 
ATOM     15  H   0R4 d   1      35.041  46.475  15.918  0.00  0.00     0.087 H 
ATOM     16  C10 0R4 d   1      33.221  43.648  16.248  0.00  0.00    -0.040 A 
ATOM     17  H   0R4 d   1      32.767  45.618  15.519  0.00  0.00     0.084 H 
ATOM     18  C11 0R4 d   1      34.225  42.806  16.736  0.00  0.00    -0.073 A 
ATOM     19  C12 0R4 d   1      35.515  43.287  16.920  0.00  0.00    -0.056 A 
ATOM     20  H   0R4 d   1      33.994  41.767  16.973  0.00  0.00     0.084 H 
ATOM     21  H   0R4 d   1      36.275  42.613  17.316  0.00  0.00     0.087 H 
BRANCH  16  22
ATOM     22  C13 0R4 d   1      31.808  43.145  16.025  0.00  0.00     0.019 C 
ATOM     23  H   0R4 d   1      31.769  42.581  15.093  0.00  0.00     0.071 H 
ATOM     24  H   0R4 d   1      31.127  43.995  15.970  0.00  0.00     0.071 H 
BRANCH  22  25
ATOM     25  N4  0R4 d   1      31.414  42.284  17.125  0.00  0.00    -0.353 N 
ATOM     26  C14 0R4 d   1      30.425  41.427  16.921  0.00  0.00     0.252 C 
ATOM     27  O2  0R4 d   1      29.670  41.577  15.977  0.00  0.00    -0.268 OA
ATOM     28  H   0R4 d   1      31.885  42.337  18.028  0.00  0.00     0.163 HD
BRANCH  26  29
ATOM     29  C28 0R4 d   1      30.205  40.253  17.816  0.00  0.00     0.035 A 
ATOM     30  C33 0R4 d   1      31.270  39.511  18.330  0.00  0.00    -0.030 A 
ATOM     31  C32 0R4 d   1      30.988  38.408  19.150  0.00  0.00     0.117 A 
ATOM     32  H   0R4 d   1      32.300  39.783  18.099  0.00  0.00     0.089 H 
ATOM     33  C31 0R4 d   1      29.678  38.052  19.445  0.00  0.00    -0.046 A 
ATOM     34  F1  0R4 d   1      31.986  37.669  19.679  0.00  0.00    -0.206 F 
ATOM     35  C30 0R4 d   1      28.625  38.796  18.930  0.00  0.00    -0.079 A 
ATOM     36  H   0R4 d   1      29.477  37.189  20.080  0.00  0.00     0.088 H 
ATOM     37  C29 0R4 d   1      28.887  39.887  18.106  0.00  0.00    -0.068 A 
ATOM     38  H   0R4 d   1      27.596  38.527  19.170  0.00  0.00     0.083 H 
ATOM     39  H   0R4 d   1      28.060  40.459  17.685  0.00  0.00     0.085 H 
ENDBRANCH  26  29
ENDBRANCH  22  25
ENDBRANCH  16  22
ENDBRANCH   9  12
BRANCH   8  40
ATOM     40  C23 0R4 d   1      37.472  46.321  14.611  0.00  0.00     0.056 A 
ATOM     41  C24 0R4 d   1      37.794  47.685  14.098  0.00  0.00     0.135 A 
ATOM     42  N6  0R4 d   1      37.459  47.982  12.831  0.00  0.00    -0.243 NA
ATOM     43  C25 0R4 d   1      36.845  47.096  12.014  0.00  0.00     0.004 A 
ATOM     44  C26 0R4 d   1      36.525  45.802  12.454  0.00  0.00    -0.065 A 
ATOM     45  H   0R4 d   1      36.594  47.392  10.995  0.00  0.00     0.114 H 
ATOM     46  C27 0R4 d   1      36.844  45.409  13.748  0.00  0.00    -0.064 A 
ATOM     47  H   0R4 d   1      36.026  45.105  11.780  0.00  0.00     0.085 H 
ATOM     48  H   0R4 d   1      36.609  44.401  14.090  0.00  0.00     0.085 H 
BRANCH  41  49
ATOM     49  N7  0R4 d   1      38.403  48.618  14.895  0.00  0.00    -0.383 N 
ATOM     50  H   0R4 d   1      38.645  48.386  15.858  0.00  0.00     0.157 HD
ATOM     51  H   0R4 d   1      38.614  49.545  14.525  0.00  0.00     0.157 HD
ENDBRANCH  41  49
ENDBRANCH   8  40
BRANCH   1  52
ATOM     52  C15 0R4 d   1      37.611  43.585  21.467  0.00  0.00    -0.005 A 
ATOM     53  C20 0R4 d   1      36.966  42.353  21.304  0.00  0.00    -0.071 A 
ATOM     54  C19 0R4 d   1      36.544  41.632  22.424  0.00  0.00    -0.080 A 
ATOM     55  H   0R4 d   1      36.793  41.956  20.303  0.00  0.00     0.084 H 
ATOM     56  C18 0R4 d   1      36.752  42.129  23.716  0.00  0.00    -0.057 A 
ATOM     57  H   0R4 d   1      36.047  40.671  22.290  0.00  0.00     0.083 H 
ATOM     58  C17 0R4 d   1      37.386  43.370  23.885  0.00  0.00     0.035 A 
ATOM     59  H   0R4 d   1      36.424  41.557  24.584  0.00  0.00     0.086 H 
ATOM     60  C16 0R4 d   1      37.809  44.084  22.758  0.00  0.00    -0.045 A 
ATOM     61  H   0R4 d   1      38.302  45.047  22.889  0.00  0.00     0.088 H 
BRANCH  58  62
ATOM     62  N5  0R4 d   1      37.578  43.852  25.151  0.00  0.00    -0.327 N 
ATOM     63  C21 0R4 d   1      37.608  45.147  25.514  0.00  0.00     0.218 C 
ATOM     64  O1  0R4 d   1      37.406  46.100  24.755  0.00  0.00    -0.274 OA
ATOM     65  H   0R4 d   1      37.711  43.163  25.891  0.00  0.00     0.169 HD
BRANCH  63  66
ATOM     66  C22 0R4 d   1      37.911  45.359  26.972  0.00  0.00    -0.003 C 
ATOM     67  H   0R4 d   1      38.819  45.955  27.070  0.00  0.00     0.040 H 
ATOM     68  H   0R4 d   1      37.079  45.882  27.442  0.00  0.00     0.040 H 
ATOM     69  H   0R4 d   1      38.055  44.393  27.456  0.00  0.00     0.040 H 
ENDBRANCH  63  66
ENDBRANCH  58  62
ENDBRANCH   1  52
TORSDOF 9
