REMARK  11 active torsions:
REMARK  status: ('A' for Active; 'I' for Inactive)
REMARK    1  A    between atoms: N1_1  and  C1'_12 
REMARK    2  A    between atoms: C8_10  and  C9_11 
REMARK    3  A    between atoms: C9_11  and  C10_13 
REMARK    4  A    between atoms: C10_13  and  C11_14 
REMARK    5  A    between atoms: C11_14  and  C12_15 
REMARK    6  A    between atoms: C12_15  and  C13_16 
REMARK    7  A    between atoms: C2'_17  and  O2'_18 
REMARK    8  A    between atoms: C3'_19  and  O3'_20 
REMARK    9  A    between atoms: C4'_21  and  O4'_22 
REMARK   10  A    between atoms: C5'_23  and  C6'_25 
REMARK   11  A    between atoms: C6'_25  and  O6'_26 
ROOT
ATOM      1  N1  D1I d   1      34.020  23.670  28.735  0.00  0.00    -0.300 N 
ATOM      2  C2  D1I d   1      33.291  24.198  29.745  0.00  0.00     0.326 C 
ATOM      3  O2  D1I d   1      32.063  24.148  29.799  0.00  0.00    -0.247 OA
ATOM      4  N3  D1I d   1      33.899  24.950  30.717  0.00  0.00    -0.288 N 
ATOM      5  C4  D1I d   1      35.331  24.825  30.792  0.00  0.00     0.159 C 
ATOM      6  C5  D1I d   1      36.044  24.457  29.661  0.00  0.00     0.014 C 
ATOM      7  O5  D1I d   1      36.038  25.722  31.579  0.00  0.00    -0.297 OA
ATOM      8  C6  D1I d   1      35.438  23.752  28.704  0.00  0.00     0.030 C 
ATOM      9  C7  D1I d   1      37.309  24.700  30.011  0.00  0.00    -0.042 C 
ATOM     10  C8  D1I d   1      37.312  25.449  31.154  0.00  0.00     0.056 C 
ATOM     11  H   D1I d   1      33.372  25.557  31.345  0.00  0.00     0.172 HD
ATOM     12  H   D1I d   1      35.678  24.263  27.771  0.00  0.00     0.072 H 
ATOM     13  H   D1I d   1      35.790  22.728  28.831  0.00  0.00     0.072 H 
ATOM     14  H   D1I d   1      38.194  24.358  29.474  0.00  0.00     0.088 H 
ENDROOT
BRANCH   1  15
ATOM     15  C1' D1I d   1      33.275  22.882  27.756  0.00  0.00     0.137 C 
ATOM     16  C2' D1I d   1      33.690  23.039  26.312  0.00  0.00     0.104 C 
ATOM     17  C3' D1I d   1      32.559  22.420  25.465  0.00  0.00     0.091 C 
ATOM     18  H   D1I d   1      34.631  22.531  26.104  0.00  0.00     0.093 H 
ATOM     19  C4' D1I d   1      32.322  20.994  25.917  0.00  0.00     0.089 C 
ATOM     20  H   D1I d   1      31.669  23.037  25.594  0.00  0.00     0.091 H 
ATOM     21  C5' D1I d   1      32.125  20.866  27.444  0.00  0.00     0.088 C 
ATOM     22  H   D1I d   1      33.218  20.417  25.688  0.00  0.00     0.091 H 
ATOM     23  O5' D1I d   1      33.219  21.464  28.143  0.00  0.00    -0.354 OA
ATOM     24  H   D1I d   1      31.171  21.343  27.670  0.00  0.00     0.090 H 
ATOM     25  H   D1I d   1      32.274  23.312  27.786  0.00  0.00     0.122 H 
BRANCH  16  26
ATOM     26  O2' D1I d   1      33.922  24.418  25.997  0.00  0.00    -0.388 OA
ATOM     27  H   D1I d   1      34.184  24.495  25.077  0.00  0.00     0.210 HD
ENDBRANCH  16  26
BRANCH  17  28
ATOM     28  O3' D1I d   1      32.911  22.373  24.109  0.00  0.00    -0.390 OA
ATOM     29  H   D1I d   1      33.080  23.263  23.792  0.00  0.00     0.210 HD
ENDBRANCH  17  28
BRANCH  19  30
ATOM     30  O4' D1I d   1      31.198  20.460  25.205  0.00  0.00    -0.390 OA
ATOM     31  H   D1I d   1      30.421  20.992  25.390  0.00  0.00     0.210 HD
ENDBRANCH  19  30
BRANCH  21  32
ATOM     32  C6' D1I d   1      32.158  19.405  27.875  0.00  0.00     0.043 C 
ATOM     33  H   D1I d   1      31.211  18.946  27.591  0.00  0.00     0.078 H 
ATOM     34  H   D1I d   1      32.325  19.373  28.952  0.00  0.00     0.078 H 
BRANCH  32  35
ATOM     35  O6' D1I d   1      33.200  18.687  27.247  0.00  0.00    -0.398 OA
ATOM     36  H   D1I d   1      34.044  19.085  27.474  0.00  0.00     0.209 HD
ENDBRANCH  32  35
ENDBRANCH  21  32
ENDBRANCH   1  15
BRANCH  10  37
ATOM     37  C9  D1I d   1      38.627  25.982  31.818  0.00  0.00    -0.020 C 
ATOM     38  H   D1I d   1      39.431  25.889  31.087  0.00  0.00     0.043 H 
ATOM     39  H   D1I d   1      38.806  25.397  32.720  0.00  0.00     0.043 H 
BRANCH  37  40
ATOM     40  C10 D1I d   1      38.529  27.506  32.240  0.00  0.00    -0.060 C 
ATOM     41  H   D1I d   1      37.541  27.863  31.948  0.00  0.00     0.033 H 
ATOM     42  H   D1I d   1      39.347  28.034  31.750  0.00  0.00     0.033 H 
BRANCH  40  43
ATOM     43  C11 D1I d   1      38.675  27.741  33.775  0.00  0.00    -0.065 C 
ATOM     44  H   D1I d   1      37.702  27.549  34.227  0.00  0.00     0.033 H 
ATOM     45  H   D1I d   1      39.031  28.762  33.915  0.00  0.00     0.033 H 
BRANCH  43  46
ATOM     46  C12 D1I d   1      39.698  26.796  34.458  0.00  0.00    -0.069 C 
ATOM     47  H   D1I d   1      40.594  26.736  33.841  0.00  0.00     0.032 H 
ATOM     48  H   D1I d   1      39.250  25.809  34.571  0.00  0.00     0.032 H 
BRANCH  46  49
ATOM     49  C13 D1I d   1      40.080  27.338  35.849  0.00  0.00    -0.077 C 
ATOM     50  H   D1I d   1      40.524  28.328  35.742  0.00  0.00     0.027 H 
ATOM     51  H   D1I d   1      39.186  27.405  36.470  0.00  0.00     0.027 H 
ATOM     52  H   D1I d   1      40.798  26.664  36.315  0.00  0.00     0.027 H 
ENDBRANCH  46  49
ENDBRANCH  43  46
ENDBRANCH  40  43
ENDBRANCH  37  40
ENDBRANCH  10  37
TORSDOF 11
