REMARK  16 active torsions:
REMARK  status: ('A' for Active; 'I' for Inactive)
REMARK    1  A    between atoms: C6_4  and  N6_37 
REMARK    2  A    between atoms: CAZ_7  and  CBA_6 
REMARK    3  A    between atoms: CAZ_7  and  CBB_8 
REMARK    4  A    between atoms: CAZ_7  and  CBC_9 
REMARK    5  A    between atoms: CAY_10  and  CAZ_7 
REMARK    6  A    between atoms: NAU_16  and  CAV_15 
REMARK       I    between atoms: CAT_17  and  NAU_16 
REMARK       I    between atoms: NAS_19  and  CAT_17 
REMARK    7  A    between atoms: CAR_20  and  NAS_19 
REMARK    8  A    between atoms: CAQ_21  and  CAR_20 
REMARK    9  A    between atoms: CAP_22  and  CAQ_21 
REMARK   10  A    between atoms: NAN_23  and  CAP_22 
REMARK   11  A    between atoms: NAN_23  and  CAO_24 
REMARK   12  A    between atoms: CAM_25  and  NAN_23 
REMARK   13  A    between atoms: CAL_26  and  CAM_25 
REMARK   14  A    between atoms: CAJ_28  and  OAK_29 
REMARK   15  A    between atoms: CAH_30  and  OAI_31 
REMARK   16  A    between atoms: CAG_32  and  N9_33 
ROOT
ATOM      1  CAP 0QJ d   1      43.882  53.792   8.985  0.00  0.00     0.114 C 
ATOM      2  H   0QJ d   1      42.925  53.327   9.222  0.00  0.00     0.079 H 
ATOM      3  H   0QJ d   1      44.166  54.602   9.656  0.00  0.00     0.079 H 
ENDROOT
BRANCH   1   4
ATOM      4  CAQ 0QJ d   1      43.756  54.390   7.589  0.00  0.00    -0.025 C 
ATOM      5  H   0QJ d   1      43.920  55.465   7.662  0.00  0.00     0.037 H 
ATOM      6  H   0QJ d   1      44.491  53.909   6.944  0.00  0.00     0.037 H 
BRANCH   4   7
ATOM      7  CAR 0QJ d   1      42.363  54.156   6.988  0.00  0.00    -0.002 C 
ATOM      8  H   0QJ d   1      41.708  53.652   7.698  0.00  0.00     0.064 H 
ATOM      9  H   0QJ d   1      41.876  55.100   6.744  0.00  0.00     0.064 H 
BRANCH   7  10
ATOM     10  NAS 0QJ d   1      42.570  53.337   5.781  0.00  0.00    -0.343 N 
ATOM     11  CAT 0QJ d   1      43.443  53.653   4.807  0.00  0.00     0.320 C 
ATOM     12  NAU 0QJ d   1      43.564  52.754   3.816  0.00  0.00    -0.309 N 
ATOM     13  OBF 0QJ d   1      44.097  54.704   4.831  0.00  0.00    -0.247 OA
ATOM     14  H   0QJ d   1      43.044  51.878   3.870  0.00  0.00     0.170 HD
ATOM     15  H   0QJ d   1      42.021  52.483   5.678  0.00  0.00     0.164 HD
BRANCH  12  16
ATOM     16  CAV 0QJ d   1      44.362  52.986   2.748  0.00  0.00     0.036 A 
ATOM     17  CBE 0QJ d   1      44.580  54.275   2.217  0.00  0.00    -0.057 A 
ATOM     18  CBD 0QJ d   1      45.385  54.445   1.084  0.00  0.00    -0.074 A 
ATOM     19  H   0QJ d   1      44.120  55.142   2.691  0.00  0.00     0.086 H 
ATOM     20  CAY 0QJ d   1      46.002  53.337   0.464  0.00  0.00    -0.051 A 
ATOM     21  H   0QJ d   1      45.537  55.444   0.676  0.00  0.00     0.084 H 
ATOM     22  CAX 0QJ d   1      45.769  52.052   0.991  0.00  0.00    -0.074 A 
ATOM     23  CAW 0QJ d   1      44.958  51.882   2.117  0.00  0.00    -0.057 A 
ATOM     24  H   0QJ d   1      46.225  51.183   0.517  0.00  0.00     0.084 H 
ATOM     25  H   0QJ d   1      44.786  50.880   2.510  0.00  0.00     0.086 H 
BRANCH  20  26
ATOM     26  CAZ 0QJ d   1      46.808  53.489  -0.696  0.00  0.00    -0.024 C 
BRANCH  26  27
ATOM     27  CBA 0QJ d   1      48.174  52.837  -0.535  0.00  0.00    -0.066 C 
ATOM     28  H   0QJ d   1      48.046  51.772  -0.339  0.00  0.00     0.028 H 
ATOM     29  H   0QJ d   1      48.750  52.973  -1.450  0.00  0.00     0.028 H 
ATOM     30  H   0QJ d   1      48.700  53.300   0.299  0.00  0.00     0.028 H 
ENDBRANCH  26  27
BRANCH  26  31
ATOM     31  CBB 0QJ d   1      46.088  52.826  -1.869  0.00  0.00    -0.066 C 
ATOM     32  H   0QJ d   1      45.129  53.318  -2.030  0.00  0.00     0.028 H 
ATOM     33  H   0QJ d   1      46.700  52.916  -2.767  0.00  0.00     0.028 H 
ATOM     34  H   0QJ d   1      45.924  51.772  -1.644  0.00  0.00     0.028 H 
ENDBRANCH  26  31
BRANCH  26  35
ATOM     35  CBC 0QJ d   1      47.014  54.955  -1.057  0.00  0.00    -0.066 C 
ATOM     36  H   0QJ d   1      47.616  55.024  -1.963  0.00  0.00     0.028 H 
ATOM     37  H   0QJ d   1      46.046  55.426  -1.226  0.00  0.00     0.028 H 
ATOM     38  H   0QJ d   1      47.527  55.461  -0.239  0.00  0.00     0.028 H 
ENDBRANCH  26  35
ENDBRANCH  20  26
ENDBRANCH  12  16
ENDBRANCH   7  10
ENDBRANCH   4   7
ENDBRANCH   1   4
BRANCH   1  39
ATOM     39  NAN 0QJ d   1      44.926  52.735   9.108  0.00  0.00     0.086 N 
BRANCH  39  40
ATOM     40  CAO 0QJ d   1      45.980  52.702   8.089  0.00  0.00     0.095 C 
ATOM     41  H   0QJ d   1      45.530  52.551   7.108  0.00  0.00     0.071 H 
ATOM     42  H   0QJ d   1      46.523  53.647   8.099  0.00  0.00     0.071 H 
ATOM     43  H   0QJ d   1      46.667  51.884   8.305  0.00  0.00     0.071 H 
ENDBRANCH  39  40
BRANCH  39  44
ATOM     44  CAM 0QJ d   1      45.526  52.800  10.443  0.00  0.00     0.139 C 
ATOM     45  H   0QJ d   1      45.604  53.836  10.773  0.00  0.00     0.084 H 
ATOM     46  H   0QJ d   1      46.531  52.379  10.427  0.00  0.00     0.084 H 
BRANCH  44  47
ATOM     47  CAL 0QJ d   1      44.628  52.001  11.401  0.00  0.00     0.094 C 
ATOM     48  OBG 0QJ d   1      45.267  50.745  11.574  0.00  0.00    -0.354 OA
ATOM     49  CAG 0QJ d   1      44.915  50.320  12.873  0.00  0.00     0.139 C 
ATOM     50  CAH 0QJ d   1      45.149  51.540  13.695  0.00  0.00     0.105 C 
ATOM     51  H   0QJ d   1      43.907  49.954  13.069  0.00  0.00     0.122 H 
ATOM     52  CAJ 0QJ d   1      44.564  52.629  12.781  0.00  0.00     0.091 C 
ATOM     53  H   0QJ d   1      46.187  51.715  13.979  0.00  0.00     0.093 H 
ATOM     54  H   0QJ d   1      45.097  53.575  12.882  0.00  0.00     0.091 H 
ATOM     55  H   0QJ d   1      43.621  51.951  10.987  0.00  0.00     0.090 H 
BRANCH  49  56
ATOM     56  N9  0QJ d   1      45.887  49.243  13.110  0.00  0.00    -0.294 N 
ATOM     57  C4  0QJ d   1      45.474  47.978  13.191  0.00  0.00     0.167 A 
ATOM     58  C5  0QJ d   1      46.549  47.217  13.395  0.00  0.00     0.149 A 
ATOM     59  N3  0QJ d   1      44.234  47.436  13.112  0.00  0.00    -0.222 NA
ATOM     60  C6  0QJ d   1      46.404  45.892  13.531  0.00  0.00     0.155 A 
ATOM     61  N7  0QJ d   1      47.616  48.023  13.421  0.00  0.00    -0.236 NA
ATOM     62  N1  0QJ d   1      45.206  45.288  13.462  0.00  0.00    -0.222 NA
ATOM     63  C2  0QJ d   1      44.057  46.053  13.243  0.00  0.00     0.091 A 
ATOM     64  H   0QJ d   1      43.070  45.595  13.177  0.00  0.00     0.146 H 
ATOM     65  C8  0QJ d   1      47.209  49.274  13.239  0.00  0.00     0.071 A 
ATOM     66  H   0QJ d   1      47.842  50.161  13.202  0.00  0.00     0.144 H 
BRANCH  60  67
ATOM     67  N6  0QJ d   1      47.512  45.181  13.726  0.00  0.00    -0.382 N 
ATOM     68  H   0QJ d   1      48.418  45.649  13.766  0.00  0.00     0.157 HD
ATOM     69  H   0QJ d   1      47.456  44.169  13.835  0.00  0.00     0.157 HD
ENDBRANCH  60  67
ENDBRANCH  49  56
BRANCH  50  70
ATOM     70  OAI 0QJ d   1      44.418  51.445  14.939  0.00  0.00    -0.388 OA
ATOM     71  H   0QJ d   1      43.501  51.228  14.754  0.00  0.00     0.210 HD
ENDBRANCH  50  70
BRANCH  52  72
ATOM     72  OAK 0QJ d   1      43.183  52.861  13.085  0.00  0.00    -0.390 OA
ATOM     73  H   0QJ d   1      42.709  52.026  13.073  0.00  0.00     0.210 HD
ENDBRANCH  52  72
ENDBRANCH  44  47
ENDBRANCH  39  44
ENDBRANCH   1  39
TORSDOF 16
