REMARK  18 active torsions:
REMARK  status: ('A' for Active; 'I' for Inactive)
REMARK    1  A    between atoms: C6_4  and  NAJ_39 
REMARK    2  A    between atoms: CBH_6  and  CBI_5 
REMARK    3  A    between atoms: CBH_6  and  CBJ_7 
REMARK    4  A    between atoms: CBH_6  and  CBK_8 
REMARK    5  A    between atoms: CBE_9  and  CBH_6 
REMARK    6  A    between atoms: NAZ_15  and  CBB_14 
REMARK       I    between atoms: CAY_16  and  NAZ_15 
REMARK       I    between atoms: NAX_18  and  CAY_16 
REMARK    7  A    between atoms: CAW_19  and  NAX_18 
REMARK    8  A    between atoms: CAV_20  and  CAW_19 
REMARK    9  A    between atoms: CAT_21  and  CAV_20 
REMARK   10  A    between atoms: NAS_22  and  CAT_21 
REMARK   11  A    between atoms: NAS_22  and  CAU_23 
REMARK   12  A    between atoms: CAR_26  and  NAS_22 
REMARK   13  A    between atoms: CAU_23  and  CBM_24 
REMARK   14  A    between atoms: CAU_23  and  CBL_25 
REMARK   15  A    between atoms: CAN_27  and  CAR_26 
REMARK   16  A    between atoms: CAM_29  and  OAQ_30 
REMARK   17  A    between atoms: CAL_31  and  OAP_32 
REMARK   18  A    between atoms: CAK_33  and  NAG_34 
ROOT
ATOM      1  NAS 0QK d   1      44.380  52.162   9.356  0.00  0.00     0.095 N 
ENDROOT
BRANCH   1   2
ATOM      2  CAT 0QK d   1      43.356  53.210   9.083  0.00  0.00     0.115 C 
ATOM      3  H   0QK d   1      42.436  52.840   9.536  0.00  0.00     0.080 H 
ATOM      4  H   0QK d   1      43.780  54.136   9.470  0.00  0.00     0.080 H 
BRANCH   2   5
ATOM      5  CAV 0QK d   1      43.004  53.502   7.636  0.00  0.00    -0.025 C 
ATOM      6  H   0QK d   1      43.218  54.559   7.474  0.00  0.00     0.037 H 
ATOM      7  H   0QK d   1      43.582  52.803   7.032  0.00  0.00     0.037 H 
BRANCH   5   8
ATOM      8  CAW 0QK d   1      41.509  53.290   7.245  0.00  0.00    -0.002 C 
ATOM      9  H   0QK d   1      40.920  52.774   8.003  0.00  0.00     0.064 H 
ATOM     10  H   0QK d   1      40.940  54.215   7.144  0.00  0.00     0.064 H 
BRANCH   8  11
ATOM     11  NAX 0QK d   1      41.662  52.535   5.982  0.00  0.00    -0.343 N 
ATOM     12  CAY 0QK d   1      42.641  52.830   5.059  0.00  0.00     0.320 C 
ATOM     13  NAZ 0QK d   1      42.784  51.978   4.018  0.00  0.00    -0.309 N 
ATOM     14  OBA 0QK d   1      43.366  53.838   5.157  0.00  0.00    -0.247 OA
ATOM     15  H   0QK d   1      42.196  51.147   3.966  0.00  0.00     0.170 HD
ATOM     16  H   0QK d   1      41.019  51.768   5.787  0.00  0.00     0.164 HD
BRANCH  13  17
ATOM     17  CBB 0QK d   1      43.700  52.212   3.039  0.00  0.00     0.036 A 
ATOM     18  CBG 0QK d   1      44.446  51.137   2.514  0.00  0.00    -0.057 A 
ATOM     19  CBF 0QK d   1      45.385  51.301   1.487  0.00  0.00    -0.074 A 
ATOM     20  H   0QK d   1      44.286  50.139   2.923  0.00  0.00     0.086 H 
ATOM     21  CBE 0QK d   1      45.595  52.578   0.943  0.00  0.00    -0.051 A 
ATOM     22  H   0QK d   1      45.947  50.445   1.114  0.00  0.00     0.084 H 
ATOM     23  CBD 0QK d   1      44.848  53.660   1.463  0.00  0.00    -0.074 A 
ATOM     24  CBC 0QK d   1      43.913  53.483   2.490  0.00  0.00    -0.057 A 
ATOM     25  H   0QK d   1      45.004  54.658   1.054  0.00  0.00     0.084 H 
ATOM     26  H   0QK d   1      43.349  54.337   2.864  0.00  0.00     0.086 H 
BRANCH  21  27
ATOM     27  CBH 0QK d   1      46.534  52.809  -0.099  0.00  0.00    -0.024 C 
BRANCH  27  28
ATOM     28  CBI 0QK d   1      46.059  53.920  -1.025  0.00  0.00    -0.066 C 
ATOM     29  H   0QK d   1      45.925  54.837  -0.451  0.00  0.00     0.028 H 
ATOM     30  H   0QK d   1      46.802  54.084  -1.805  0.00  0.00     0.028 H 
ATOM     31  H   0QK d   1      45.111  53.632  -1.479  0.00  0.00     0.028 H 
ENDBRANCH  27  28
BRANCH  27  32
ATOM     32  CBJ 0QK d   1      47.867  53.233   0.529  0.00  0.00    -0.066 C 
ATOM     33  H   0QK d   1      48.264  52.411   1.125  0.00  0.00     0.028 H 
ATOM     34  H   0QK d   1      48.575  53.486  -0.260  0.00  0.00     0.028 H 
ATOM     35  H   0QK d   1      47.706  54.102   1.167  0.00  0.00     0.028 H 
ENDBRANCH  27  32
BRANCH  27  36
ATOM     36  CBK 0QK d   1      46.726  51.592  -0.999  0.00  0.00    -0.066 C 
ATOM     37  H   0QK d   1      47.429  51.837  -1.795  0.00  0.00     0.028 H 
ATOM     38  H   0QK d   1      47.118  50.764  -0.409  0.00  0.00     0.028 H 
ATOM     39  H   0QK d   1      45.768  51.309  -1.434  0.00  0.00     0.028 H 
ENDBRANCH  27  36
ENDBRANCH  21  27
ENDBRANCH  13  17
ENDBRANCH   8  11
ENDBRANCH   5   8
ENDBRANCH   2   5
ENDBRANCH   1   2
BRANCH   1  40
ATOM     40  CAU 0QK d   1      45.691  52.155   8.674  0.00  0.00     0.128 C 
ATOM     41  H   0QK d   1      45.474  52.310   7.617  0.00  0.00     0.087 H 
BRANCH  40  42
ATOM     42  CBM 0QK d   1      46.400  50.805   8.939  0.00  0.00    -0.047 C 
ATOM     43  H   0QK d   1      46.546  50.677  10.012  0.00  0.00     0.030 H 
ATOM     44  H   0QK d   1      45.785  49.991   8.555  0.00  0.00     0.030 H 
ATOM     45  H   0QK d   1      47.367  50.799   8.436  0.00  0.00     0.030 H 
ENDBRANCH  40  42
BRANCH  40  46
ATOM     46  CBL 0QK d   1      46.645  53.288   9.116  0.00  0.00    -0.047 C 
ATOM     47  H   0QK d   1      46.182  54.253   8.908  0.00  0.00     0.030 H 
ATOM     48  H   0QK d   1      46.841  53.200  10.185  0.00  0.00     0.030 H 
ATOM     49  H   0QK d   1      47.583  53.207   8.566  0.00  0.00     0.030 H 
ENDBRANCH  40  46
ENDBRANCH   1  40
BRANCH   1  50
ATOM     50  CAR 0QK d   1      44.642  52.265  10.805  0.00  0.00     0.140 C 
ATOM     51  H   0QK d   1      44.523  53.304  11.111  0.00  0.00     0.084 H 
ATOM     52  H   0QK d   1      45.655  51.916  11.005  0.00  0.00     0.084 H 
BRANCH  50  53
ATOM     53  CAN 0QK d   1      43.660  51.404  11.595  0.00  0.00     0.094 C 
ATOM     54  OAO 0QK d   1      44.209  50.082  11.555  0.00  0.00    -0.354 OA
ATOM     55  CAK 0QK d   1      44.059  49.550  12.875  0.00  0.00     0.138 C 
ATOM     56  CAL 0QK d   1      44.331  50.699  13.787  0.00  0.00     0.105 C 
ATOM     57  H   0QK d   1      43.077  49.125  13.083  0.00  0.00     0.122 H 
ATOM     58  CAM 0QK d   1      43.665  51.850  13.042  0.00  0.00     0.091 C 
ATOM     59  H   0QK d   1      45.383  50.884  14.005  0.00  0.00     0.093 H 
ATOM     60  H   0QK d   1      44.181  52.795  13.213  0.00  0.00     0.091 H 
ATOM     61  H   0QK d   1      42.649  51.467  11.193  0.00  0.00     0.090 H 
BRANCH  55  62
ATOM     62  NAG 0QK d   1      45.066  48.488  13.030  0.00  0.00    -0.311 N 
ATOM     63  C4  0QK d   1      44.663  47.218  13.113  0.00  0.00     0.147 A 
ATOM     64  C5  0QK d   1      45.752  46.461  13.245  0.00  0.00     0.057 A 
ATOM     65  N3  0QK d   1      43.426  46.682  13.094  0.00  0.00    -0.223 NA
ATOM     66  C6  0QK d   1      45.621  45.130  13.364  0.00  0.00     0.136 A 
ATOM     67  CAI 0QK d   1      46.818  47.278  13.227  0.00  0.00    -0.051 A 
ATOM     68  N1  0QK d   1      44.422  44.529  13.334  0.00  0.00    -0.224 NA
ATOM     69  C2  0QK d   1      43.267  45.305  13.198  0.00  0.00     0.091 A 
ATOM     70  H   0QK d   1      42.278  44.847  13.174  0.00  0.00     0.146 H 
ATOM     71  CAH 0QK d   1      46.402  48.539  13.094  0.00  0.00    -0.015 A 
ATOM     72  H   0QK d   1      47.858  46.961  13.308  0.00  0.00     0.087 H 
ATOM     73  H   0QK d   1      47.025  49.432  13.047  0.00  0.00     0.111 H 
BRANCH  66  74
ATOM     74  NAJ 0QK d   1      46.739  44.408  13.492  0.00  0.00    -0.383 N 
ATOM     75  H   0QK d   1      47.648  44.871  13.497  0.00  0.00     0.157 HD
ATOM     76  H   0QK d   1      46.683  43.394  13.585  0.00  0.00     0.157 HD
ENDBRANCH  66  74
ENDBRANCH  55  62
BRANCH  56  77
ATOM     77  OAP 0QK d   1      43.697  50.453  15.048  0.00  0.00    -0.388 OA
ATOM     78  H   0QK d   1      42.775  50.229  14.903  0.00  0.00     0.210 HD
ENDBRANCH  56  77
BRANCH  58  79
ATOM     79  OAQ 0QK d   1      42.321  51.998  13.460  0.00  0.00    -0.390 OA
ATOM     80  H   0QK d   1      41.866  51.157  13.374  0.00  0.00     0.210 HD
ENDBRANCH  58  79
ENDBRANCH  50  53
ENDBRANCH   1  50
TORSDOF 18
