REMARK  11 active torsions:
REMARK  status: ('A' for Active; 'I' for Inactive)
REMARK    1  A    between atoms: N1_1  and  C1'_12 
REMARK    2  A    between atoms: C5_7  and  C7_9 
REMARK    3  A    between atoms: C7_9  and  C8_10 
REMARK    4  A    between atoms: C8_10  and  C9_11 
REMARK    5  A    between atoms: C9_11  and  C10_13 
REMARK    6  A    between atoms: C10_13  and  C11_14 
REMARK    7  A    between atoms: C2'_15  and  O2'_16 
REMARK    8  A    between atoms: C3'_17  and  O3'_18 
REMARK    9  A    between atoms: C4'_19  and  O4'_20 
REMARK   10  A    between atoms: C5'_21  and  C6'_23 
REMARK   11  A    between atoms: C6'_23  and  O6'_24 
ROOT
ATOM      1  N1  D1J d   1      34.070  23.555  28.879  0.00  0.00    -0.278 N 
ATOM      2  C2  D1J d   1      33.347  24.425  29.775  0.00  0.00     0.331 A 
ATOM      3  O2  D1J d   1      32.106  24.528  29.721  0.00  0.00    -0.246 OA
ATOM      4  N3  D1J d   1      34.094  25.171  30.754  0.00  0.00    -0.274 N 
ATOM      5  C4  D1J d   1      35.507  25.042  30.835  0.00  0.00     0.269 A 
ATOM      6  O4  D1J d   1      36.111  25.682  31.698  0.00  0.00    -0.266 OA
ATOM      7  C5  D1J d   1      36.206  24.188  29.942  0.00  0.00     0.101 A 
ATOM      8  C6  D1J d   1      35.496  23.467  28.962  0.00  0.00     0.010 A 
ATOM      9  H1  D1J d   1      33.615  25.785  31.382  0.00  0.00     0.173 HD
ATOM     10  H2  D1J d   1      36.038  22.836  28.260  0.00  0.00     0.114 H 
ENDROOT
BRANCH   1  11
ATOM     11  C1' D1J d   1      33.318  22.799  27.838  0.00  0.00     0.141 C 
ATOM     12  C2' D1J d   1      33.773  23.084  26.354  0.00  0.00     0.105 C 
ATOM     13  C3' D1J d   1      32.709  22.452  25.368  0.00  0.00     0.091 C 
ATOM     14  H11 D1J d   1      34.732  22.575  26.179  0.00  0.00     0.093 H 
ATOM     15  C4' D1J d   1      32.377  21.013  25.807  0.00  0.00     0.089 C 
ATOM     16  H13 D1J d   1      31.790  23.047  25.471  0.00  0.00     0.091 H 
ATOM     17  C5' D1J d   1      32.151  20.863  27.363  0.00  0.00     0.088 C 
ATOM     18  H15 D1J d   1      33.239  20.383  25.541  0.00  0.00     0.091 H 
ATOM     19  O5' D1J d   1      33.272  21.392  28.056  0.00  0.00    -0.353 OA
ATOM     20  H17 D1J d   1      31.222  21.380  27.646  0.00  0.00     0.090 H 
ATOM     21  H6  D1J d   1      32.281  23.157  27.914  0.00  0.00     0.123 H 
BRANCH  12  22
ATOM     22  O2' D1J d   1      33.998  24.505  26.166  0.00  0.00    -0.388 OA
ATOM     23  H12 D1J d   1      34.271  24.666  25.270  0.00  0.00     0.210 HD
ENDBRANCH  12  22
BRANCH  13  24
ATOM     24  O3' D1J d   1      33.069  22.501  23.991  0.00  0.00    -0.390 OA
ATOM     25  H14 D1J d   1      33.184  23.406  23.727  0.00  0.00     0.210 HD
ENDBRANCH  13  24
BRANCH  15  26
ATOM     26  O4' D1J d   1      31.233  20.527  25.080  0.00  0.00    -0.390 OA
ATOM     27  H16 D1J d   1      30.486  21.088  25.255  0.00  0.00     0.210 HD
ENDBRANCH  15  26
BRANCH  17  28
ATOM     28  C6' D1J d   1      32.125  19.374  27.854  0.00  0.00     0.043 C 
ATOM     29  H18 D1J d   1      31.159  18.923  27.582  0.00  0.00     0.078 H 
ATOM     30  H19 D1J d   1      32.244  19.355  28.947  0.00  0.00     0.078 H 
BRANCH  28  31
ATOM     31  O6' D1J d   1      33.197  18.601  27.246  0.00  0.00    -0.398 OA
ATOM     32  H20 D1J d   1      34.034  18.984  27.481  0.00  0.00     0.209 HD
ENDBRANCH  28  31
ENDBRANCH  17  28
ENDBRANCH   1  11
BRANCH   7  33
ATOM     33  C7  D1J d   1      37.514  24.031  30.006  0.00  0.00    -0.060 C 
BRANCH  33  34
ATOM     34  C8  D1J d   1      38.832  23.861  30.036  0.00  0.00    -0.101 C 
BRANCH  34  35
ATOM     35  C9  D1J d   1      40.206  23.684  30.067  0.00  0.00    -0.009 C 
ATOM     36  H3  D1J d   1      40.636  24.696  30.092  0.00  0.00     0.051 H 
ATOM     37  H4  D1J d   1      40.465  23.198  29.115  0.00  0.00     0.051 H 
BRANCH  35  38
ATOM     38  C10 D1J d   1      40.881  22.964  31.053  0.00  0.00    -0.059 C 
ATOM     39  H5  D1J d   1      41.896  22.768  30.676  0.00  0.00     0.033 H 
ATOM     40  H7  D1J d   1      40.348  22.010  31.182  0.00  0.00     0.033 H 
BRANCH  38  41
ATOM     41  C11 D1J d   1      41.014  23.540  32.325  0.00  0.00    -0.076 C 
ATOM     42  H8  D1J d   1      41.566  22.852  32.983  0.00  0.00     0.027 H 
ATOM     43  H9  D1J d   1      40.017  23.730  32.748  0.00  0.00     0.027 H 
ATOM     44  H10 D1J d   1      41.565  24.488  32.242  0.00  0.00     0.027 H 
ENDBRANCH  38  41
ENDBRANCH  35  38
ENDBRANCH  34  35
ENDBRANCH  33  34
ENDBRANCH   7  33
TORSDOF 11
