REMARK  9 active torsions:
REMARK  status: ('A' for Active; 'I' for Inactive)
REMARK    1  A    between atoms: N1_1  and  C1'_12 
REMARK    2  A    between atoms: C8_10  and  C9_11 
REMARK    3  A    between atoms: C9_11  and  C10_13 
REMARK    4  A    between atoms: C10_13  and  C11_14 
REMARK    5  A    between atoms: C2'_15  and  O2'_16 
REMARK    6  A    between atoms: C3'_17  and  O3'_18 
REMARK    7  A    between atoms: C4'_19  and  O4'_20 
REMARK    8  A    between atoms: C5'_21  and  C6'_23 
REMARK    9  A    between atoms: C6'_23  and  O6'_24 
ROOT
ATOM      1  N1  D1K d   1      34.115  23.509  28.832  0.00  0.00    -0.279 N 
ATOM      2  C2  D1K d   1      33.493  24.161  29.863  0.00  0.00     0.326 C 
ATOM      3  O2  D1K d   1      32.266  24.282  29.948  0.00  0.00    -0.247 OA
ATOM      4  N3  D1K d   1      34.258  24.741  30.848  0.00  0.00    -0.311 N 
ATOM      5  C4  D1K d   1      35.571  24.210  30.989  0.00  0.00     0.140 C 
ATOM      6  C5  D1K d   1      36.226  23.881  29.778  0.00  0.00     0.009 C 
ATOM      7  O5  D1K d   1      36.388  25.184  31.514  0.00  0.00    -0.326 OA
ATOM      8  C6  D1K d   1      35.531  23.360  28.773  0.00  0.00    -0.003 C 
ATOM      9  C7  D1K d   1      37.534  23.908  30.098  0.00  0.00    -0.043 C 
ATOM     10  C8  D1K d   1      37.589  24.538  31.284  0.00  0.00     0.050 C 
ATOM     11  H1  D1K d   1      33.916  25.483  31.424  0.00  0.00     0.167 HD
ATOM     12  H2  D1K d   1      35.527  23.328  31.644  0.00  0.00     0.127 H 
ATOM     13  H3  D1K d   1      36.018  22.845  27.946  0.00  0.00     0.113 H 
ATOM     14  H4  D1K d   1      38.366  23.507  29.521  0.00  0.00     0.088 H 
ENDROOT
BRANCH   1  15
ATOM     15  C1' D1K d   1      33.251  22.911  27.798  0.00  0.00     0.141 C 
ATOM     16  C2' D1K d   1      33.742  23.132  26.388  0.00  0.00     0.105 C 
ATOM     17  C3' D1K d   1      32.653  22.541  25.443  0.00  0.00     0.091 C 
ATOM     18  H13 D1K d   1      34.675  22.570  26.236  0.00  0.00     0.093 H 
ATOM     19  C4' D1K d   1      32.380  21.080  25.826  0.00  0.00     0.089 C 
ATOM     20  H15 D1K d   1      31.727  23.123  25.558  0.00  0.00     0.091 H 
ATOM     21  C5' D1K d   1      32.141  20.921  27.400  0.00  0.00     0.088 C 
ATOM     22  H17 D1K d   1      33.247  20.465  25.544  0.00  0.00     0.091 H 
ATOM     23  O5' D1K d   1      33.219  21.470  28.129  0.00  0.00    -0.353 OA
ATOM     24  H19 D1K d   1      31.191  21.409  27.663  0.00  0.00     0.090 H 
ATOM     25  H7  D1K d   1      32.240  23.336  27.878  0.00  0.00     0.123 H 
BRANCH  16  26
ATOM     26  O2' D1K d   1      34.030  24.513  26.174  0.00  0.00    -0.388 OA
ATOM     27  H14 D1K d   1      34.338  24.637  25.284  0.00  0.00     0.210 HD
ENDBRANCH  16  26
BRANCH  17  28
ATOM     28  O3' D1K d   1      33.061  22.608  24.128  0.00  0.00    -0.390 OA
ATOM     29  H16 D1K d   1      33.215  23.515  23.891  0.00  0.00     0.210 HD
ENDBRANCH  17  28
BRANCH  19  30
ATOM     30  O4' D1K d   1      31.226  20.649  25.068  0.00  0.00    -0.390 OA
ATOM     31  H18 D1K d   1      30.482  21.198  25.287  0.00  0.00     0.210 HD
ENDBRANCH  19  30
BRANCH  21  32
ATOM     32  C6' D1K d   1      32.157  19.474  27.899  0.00  0.00     0.043 C 
ATOM     33  H20 D1K d   1      31.176  19.019  27.699  0.00  0.00     0.078 H 
ATOM     34  H21 D1K d   1      32.348  19.474  28.982  0.00  0.00     0.078 H 
BRANCH  32  35
ATOM     35  O6' D1K d   1      33.185  18.682  27.241  0.00  0.00    -0.398 OA
ATOM     36  H22 D1K d   1      34.037  19.065  27.413  0.00  0.00     0.209 HD
ENDBRANCH  32  35
ENDBRANCH  21  32
ENDBRANCH   1  15
BRANCH  10  37
ATOM     37  C9  D1K d   1      38.901  24.872  31.955  0.00  0.00    -0.021 C 
ATOM     38  H5  D1K d   1      38.708  25.640  32.718  0.00  0.00     0.043 H 
ATOM     39  H6  D1K d   1      39.582  25.276  31.192  0.00  0.00     0.043 H 
BRANCH  37  40
ATOM     40  C10 D1K d   1      39.596  23.693  32.634  0.00  0.00    -0.063 C 
ATOM     41  H8  D1K d   1      39.611  22.820  31.965  0.00  0.00     0.033 H 
ATOM     42  H9  D1K d   1      39.080  23.430  33.569  0.00  0.00     0.033 H 
BRANCH  40  43
ATOM     43  C11 D1K d   1      41.053  24.178  32.932  0.00  0.00    -0.076 C 
ATOM     44  H10 D1K d   1      41.614  23.371  33.425  0.00  0.00     0.027 H 
ATOM     45  H11 D1K d   1      41.019  25.057  33.592  0.00  0.00     0.027 H 
ATOM     46  H12 D1K d   1      41.550  24.447  31.988  0.00  0.00     0.027 H 
ENDBRANCH  40  43
ENDBRANCH  37  40
ENDBRANCH  10  37
TORSDOF 9
