REMARK  7 active torsions:
REMARK  status: ('A' for Active; 'I' for Inactive)
REMARK    1  A    between atoms: N1_1  and  C1'_11 
REMARK    2  A    between atoms: C5_7  and  C7_9 
REMARK    3  A    between atoms: C2'_12  and  O2'_13 
REMARK    4  A    between atoms: C3'_14  and  O3'_15 
REMARK    5  A    between atoms: C4'_16  and  O4'_17 
REMARK    6  A    between atoms: C5'_18  and  C6'_20 
REMARK    7  A    between atoms: C6'_20  and  O6'_21 
ROOT
ATOM      1  C7  D1M d   1      37.709  23.693  29.916  0.00  0.00    -0.071 C 
ATOM      2  C8  D1M d   1      38.877  23.561  30.059  0.00  0.00    -0.148 C 
ATOM      3  H3  D1M d   1      39.919  23.443  30.186  0.00  0.00     0.166 H 
ENDROOT
BRANCH   1   4
ATOM      4  C5  D1M d   1      36.293  23.901  29.807  0.00  0.00     0.100 A 
ATOM      5  C4  D1M d   1      35.673  24.807  30.700  0.00  0.00     0.269 A 
ATOM      6  N3  D1M d   1      34.319  25.037  30.686  0.00  0.00    -0.274 N 
ATOM      7  O4  D1M d   1      36.304  25.448  31.522  0.00  0.00    -0.266 OA
ATOM      8  C2  D1M d   1      33.494  24.363  29.765  0.00  0.00     0.331 A 
ATOM      9  H1  D1M d   1      33.917  25.686  31.332  0.00  0.00     0.173 HD
ATOM     10  N1  D1M d   1      34.097  23.508  28.807  0.00  0.00    -0.278 N 
ATOM     11  O2  D1M d   1      32.281  24.570  29.788  0.00  0.00    -0.246 OA
ATOM     12  C6  D1M d   1      35.509  23.279  28.838  0.00  0.00     0.010 A 
ATOM     13  H2  D1M d   1      35.970  22.619  28.105  0.00  0.00     0.114 H 
BRANCH  10  14
ATOM     14  C1' D1M d   1      33.213  22.851  27.851  0.00  0.00     0.141 C 
ATOM     15  C2' D1M d   1      33.698  23.181  26.343  0.00  0.00     0.105 C 
ATOM     16  C3' D1M d   1      32.653  22.576  25.422  0.00  0.00     0.091 C 
ATOM     17  H5  D1M d   1      34.664  22.689  26.156  0.00  0.00     0.093 H 
ATOM     18  C4' D1M d   1      32.464  21.092  25.856  0.00  0.00     0.089 C 
ATOM     19  H7  D1M d   1      31.702  23.120  25.524  0.00  0.00     0.091 H 
ATOM     20  C5' D1M d   1      32.231  20.862  27.418  0.00  0.00     0.088 C 
ATOM     21  H9  D1M d   1      33.360  20.528  25.558  0.00  0.00     0.091 H 
ATOM     22  O5' D1M d   1      33.281  21.431  28.141  0.00  0.00    -0.353 OA
ATOM     23  H11 D1M d   1      31.292  21.355  27.711  0.00  0.00     0.090 H 
ATOM     24  H4  D1M d   1      32.181  23.207  27.982  0.00  0.00     0.123 H 
BRANCH  15  25
ATOM     25  O2' D1M d   1      33.876  24.575  26.155  0.00  0.00    -0.388 OA
ATOM     26  H6  D1M d   1      34.160  24.739  25.264  0.00  0.00     0.210 HD
ENDBRANCH  15  25
BRANCH  16  27
ATOM     27  O3' D1M d   1      33.097  22.646  24.054  0.00  0.00    -0.390 OA
ATOM     28  H8  D1M d   1      33.236  23.555  23.814  0.00  0.00     0.210 HD
ENDBRANCH  16  27
BRANCH  18  29
ATOM     29  O4' D1M d   1      31.333  20.596  25.159  0.00  0.00    -0.390 OA
ATOM     30  H10 D1M d   1      30.570  21.113  25.388  0.00  0.00     0.210 HD
ENDBRANCH  18  29
BRANCH  20  31
ATOM     31  C6' D1M d   1      32.109  19.283  27.746  0.00  0.00     0.043 C 
ATOM     32  H12 D1M d   1      31.231  18.851  27.244  0.00  0.00     0.078 H 
ATOM     33  H13 D1M d   1      32.029  19.119  28.831  0.00  0.00     0.078 H 
BRANCH  31  34
ATOM     34  O6' D1M d   1      33.319  18.699  27.236  0.00  0.00    -0.398 OA
ATOM     35  H14 D1M d   1      34.067  19.090  27.672  0.00  0.00     0.209 HD
ENDBRANCH  31  34
ENDBRANCH  20  31
ENDBRANCH  10  14
ENDBRANCH   1   4
TORSDOF 7
