REMARK  11 active torsions:
REMARK  status: ('A' for Active; 'I' for Inactive)
REMARK    1  A    between atoms: O9_1  and  C23_2 
REMARK    2  A    between atoms: C22_3  and  O22_4 
REMARK    3  A    between atoms: C24_5  and  O61_6 
REMARK    4  A    between atoms: C25_7  and  C51_8 
REMARK    5  A    between atoms: C21_10  and  O8_11 
REMARK    6  A    between atoms: O8_11  and  C3_12 
REMARK    7  A    between atoms: C4_13  and  O2_14 
REMARK    8  A    between atoms: C2_15  and  C11_16 
REMARK    9  A    between atoms: C14_19  and  O5_20 
REMARK   10  A    between atoms: C7_26  and  O4_27 
REMARK   11  A    between atoms: C5_29  and  O3_31 
ROOT
ATOM      1  C3  AFE d   1      34.650   3.486   9.065  0.00  0.00     0.117 A 
ATOM      2  C4  AFE d   1      36.125   3.352   9.096  0.00  0.00     0.114 A 
ATOM      3  C2  AFE d   1      33.986   3.518  10.260  0.00  0.00     0.119 A 
ATOM      4  O1  AFE d   1      34.661   3.420  11.458  0.00  0.00    -0.333 OA
ATOM      5  C9  AFE d   1      36.022   3.296  11.542  0.00  0.00     0.088 A 
ATOM      6  C8  AFE d   1      36.618   3.214  12.889  0.00  0.00    -0.018 A 
ATOM      7  C7  AFE d   1      37.971   3.086  13.001  0.00  0.00     0.071 A 
ATOM      8  C6  AFE d   1      38.841   3.046  11.781  0.00  0.00    -0.018 A 
ATOM      9  C5  AFE d   1      38.260   3.133  10.541  0.00  0.00     0.084 A 
ATOM     10  C10 AFE d   1      36.783   3.260  10.419  0.00  0.00     0.066 A 
ATOM     11  H13 AFE d   1      34.052   4.616  10.258  0.00  0.00     0.102 H 
ATOM     12  H19 AFE d   1      35.992   3.255  13.773  0.00  0.00     0.092 H 
ATOM     13  H21 AFE d   1      39.916   2.950  11.877  0.00  0.00     0.092 H 
ENDROOT
BRANCH   1  14
ATOM     14  O8  AFE d   1      33.963   3.548   7.856  0.00  0.00    -0.316 OA
BRANCH  14  15
ATOM     15  C21 AFE d   1      34.364   4.558   6.987  0.00  0.00     0.164 C 
ATOM     16  C22 AFE d   1      33.403   4.539   5.829  0.00  0.00     0.110 C 
ATOM     17  C23 AFE d   1      32.064   5.063   6.241  0.00  0.00     0.092 C 
ATOM     18  H3  AFE d   1      33.286   3.500   5.487  0.00  0.00     0.094 H 
ATOM     19  C24 AFE d   1      32.230   6.395   6.869  0.00  0.00     0.087 C 
ATOM     20  H2  AFE d   1      31.607   4.368   6.961  0.00  0.00     0.091 H 
ATOM     21  C25 AFE d   1      33.191   6.272   8.009  0.00  0.00     0.065 C 
ATOM     22  H5  AFE d   1      32.624   7.105   6.127  0.00  0.00     0.091 H 
ATOM     23  O7  AFE d   1      34.418   5.812   7.564  0.00  0.00    -0.351 OA
ATOM     24  H7  AFE d   1      32.789   5.559   8.744  0.00  0.00     0.086 H 
ATOM     25  H11 AFE d   1      35.373   4.319   6.620  0.00  0.00     0.133 H 
BRANCH  16  26
ATOM     26  O22 AFE d   1      33.893   5.296   4.791  0.00  0.00    -0.388 OA
ATOM     27  H4  AFE d   1      33.294   5.248   4.055  0.00  0.00     0.210 HD
ENDBRANCH  16  26
BRANCH  17  28
ATOM     28  O9  AFE d   1      31.236   5.195   5.138  0.00  0.00    -0.390 OA
ATOM     29  H1  AFE d   1      31.628   5.800   4.519  0.00  0.00     0.210 HD
ENDBRANCH  17  28
BRANCH  19  30
ATOM     30  O61 AFE d   1      31.017   6.850   7.340  0.00  0.00    -0.390 OA
ATOM     31  H6  AFE d   1      30.404   6.919   6.618  0.00  0.00     0.210 HD
ENDBRANCH  19  30
BRANCH  21  32
ATOM     32  C51 AFE d   1      33.343   7.608   8.655  0.00  0.00    -0.050 C 
ATOM     33  H8  AFE d   1      34.048   7.531   9.496  0.00  0.00     0.031 H 
ATOM     34  H9  AFE d   1      32.365   7.949   9.027  0.00  0.00     0.031 H 
ATOM     35  H10 AFE d   1      33.728   8.329   7.919  0.00  0.00     0.031 H 
ENDBRANCH  21  32
ENDBRANCH  14  15
ENDBRANCH   1  14
BRANCH   2  36
ATOM     36  O2  AFE d   1      36.865   3.324   7.955  0.00  0.00    -0.357 OA
ATOM     37  H12 AFE d   1      37.784   3.234   8.177  0.00  0.00     0.217 HD
ENDBRANCH   2  36
BRANCH   3  38
ATOM     38  C11 AFE d   1      32.513   3.571  10.450  0.00  0.00    -0.022 A 
ATOM     39  C12 AFE d   1      31.642   2.972   9.409  0.00  0.00    -0.071 A 
ATOM     40  C13 AFE d   1      30.290   2.957   9.604  0.00  0.00    -0.050 A 
ATOM     41  H14 AFE d   1      32.072   2.552   8.507  0.00  0.00     0.084 H 
ATOM     42  C14 AFE d   1      29.719   3.495  10.872  0.00  0.00     0.065 A 
ATOM     43  H15 AFE d   1      29.635   2.555   8.840  0.00  0.00     0.087 H 
ATOM     44  C15 AFE d   1      30.531   4.001  11.857  0.00  0.00    -0.050 A 
ATOM     45  C16 AFE d   1      32.005   4.016  11.632  0.00  0.00    -0.071 A 
ATOM     46  H17 AFE d   1      30.109   4.382  12.780  0.00  0.00     0.087 H 
ATOM     47  H18 AFE d   1      32.670   4.380  12.407  0.00  0.00     0.084 H 
BRANCH  42  48
ATOM     48  O5  AFE d   1      28.360   3.467  11.073  0.00  0.00    -0.361 OA
ATOM     49  H16 AFE d   1      28.159   3.843  11.922  0.00  0.00     0.217 HD
ENDBRANCH  42  48
ENDBRANCH   3  38
BRANCH   9  50
ATOM     50  O3  AFE d   1      39.012   3.089   9.410  0.00  0.00    -0.360 OA
ATOM     51  H22 AFE d   1      38.881   3.888   8.912  0.00  0.00     0.217 HD
ENDBRANCH   9  50
BRANCH   7  52
ATOM     52  O4  AFE d   1      38.477   3.023  14.263  0.00  0.00    -0.361 OA
ATOM     53  H20 AFE d   1      39.422   2.935  14.220  0.00  0.00     0.217 HD
ENDBRANCH   7  52
TORSDOF 11
