REMARK  11 active torsions:
REMARK  status: ('A' for Active; 'I' for Inactive)
REMARK       I    between atoms: C16_2  and  N17_3 
REMARK    1  A    between atoms: C16_2  and  C15_19 
REMARK    2  A    between atoms: C20_12  and  C24_13 
REMARK    3  A    between atoms: C14_20  and  C13_21 
REMARK    4  A    between atoms: C10_22  and  O11_23 
REMARK    5  A    between atoms: O11_23  and  C12_24 
REMARK    6  A    between atoms: C07_25  and  O08_26 
REMARK    7  A    between atoms: O08_26  and  C09_27 
REMARK    8  A    between atoms: C05_29  and  C04_30 
REMARK    9  A    between atoms: C04_30  and  C03_31 
REMARK   10  A    between atoms: C34_34  and  N35_35 
REMARK   11  A    between atoms: C02_37  and  N01_38 
ROOT
ATOM      1  C15 34S d   1      21.043 -27.857  -0.790  0.00  0.00    -0.015 C 
ATOM      2  C14 34S d   1      20.398 -28.464  -1.833  0.00  0.00    -0.065 C 
ATOM      3  H15 34S d   1      20.467 -27.306  -0.048  0.00  0.00     0.092 H 
ATOM      4  H16 34S d   1      20.930 -29.174  -2.465  0.00  0.00     0.085 H 
ENDROOT
BRANCH   2   5
ATOM      5  C13 34S d   1      18.963 -28.150  -2.103  0.00  0.00     0.001 A 
ATOM      6  C10 34S d   1      18.328 -27.137  -1.393  0.00  0.00     0.111 A 
ATOM      7  C07 34S d   1      16.993 -26.843  -1.643  0.00  0.00     0.102 A 
ATOM      8  C06 34S d   1      16.292 -27.559  -2.600  0.00  0.00    -0.042 A 
ATOM      9  C05 34S d   1      16.923 -28.573  -3.310  0.00  0.00    -0.050 A 
ATOM     10  H23 34S d   1      15.251 -27.328  -2.795  0.00  0.00     0.088 H 
ATOM     11  C31 34S d   1      18.258 -28.866  -3.062  0.00  0.00    -0.064 A 
ATOM     12  H31 34S d   1      18.751 -29.655  -3.618  0.00  0.00     0.085 H 
BRANCH   6  13
ATOM     13  O11 34S d   1      19.025 -26.425  -0.440  0.00  0.00    -0.352 OA
BRANCH  13  14
ATOM     14  C12 34S d   1      19.007 -26.856   0.879  0.00  0.00     0.011 C 
ATOM     15  H17 34S d   1      19.611 -26.174   1.496  0.00  0.00     0.067 H 
ATOM     16  H18 34S d   1      19.425 -27.872   0.939  0.00  0.00     0.067 H 
ATOM     17  H19 34S d   1      17.971 -26.863   1.248  0.00  0.00     0.067 H 
ENDBRANCH  13  14
ENDBRANCH   6  13
BRANCH   7  18
ATOM     18  O08 34S d   1      16.366 -25.840  -0.941  0.00  0.00    -0.353 OA
BRANCH  18  19
ATOM     19  C09 34S d   1      15.079 -25.475  -1.289  0.00  0.00     0.010 C 
ATOM     20  H20 34S d   1      14.736 -24.665  -0.628  0.00  0.00     0.066 H 
ATOM     21  H21 34S d   1      14.411 -26.342  -1.183  0.00  0.00     0.066 H 
ATOM     22  H22 34S d   1      15.066 -25.128  -2.333  0.00  0.00     0.066 H 
ENDBRANCH  18  19
ENDBRANCH   7  18
BRANCH   9  23
ATOM     23  C04 34S d   1      16.164 -29.338  -4.340  0.00  0.00    -0.012 C 
ATOM     24  H24 34S d   1      16.524 -29.056  -5.340  0.00  0.00     0.047 H 
ATOM     25  H25 34S d   1      15.094 -29.099  -4.254  0.00  0.00     0.047 H 
BRANCH  23  26
ATOM     26  C03 34S d   1      16.359 -30.803  -4.142  0.00  0.00     0.010 A 
ATOM     27  C32 34S d   1      16.928 -31.298  -2.968  0.00  0.00     0.031 A 
ATOM     28  N33 34S d   1      17.087 -32.624  -2.829  0.00  0.00    -0.075 NA
ATOM     29  H26 34S d   1      17.237 -30.622  -2.179  0.00  0.00     0.116 H 
ATOM     30  C34 34S d   1      16.711 -33.471  -3.790  0.00  0.00     0.721 A 
ATOM     31  N36 34S d   1      16.164 -33.024  -4.921  0.00  0.00    -0.045 NA
ATOM     32  C02 34S d   1      15.974 -31.708  -5.130  0.00  0.00     0.148 A 
BRANCH  30  33
ATOM     33  N35 34S d   1      16.895 -34.876  -3.610  0.00  0.00    -0.231 N 
ATOM     34  H27 34S d   1      17.316 -35.233  -2.741  0.00  0.00     0.174 HD
ATOM     35  H28 34S d   1      16.606 -35.532  -4.350  0.00  0.00     0.174 HD
ENDBRANCH  30  33
BRANCH  32  36
ATOM     36  N01 34S d   1      15.392 -31.256  -6.336  0.00  0.00    -0.383 N 
ATOM     37  H29 34S d   1      15.112 -31.934  -7.059  0.00  0.00     0.157 HD
ATOM     38  H30 34S d   1      15.248 -30.248  -6.492  0.00  0.00     0.157 HD
ENDBRANCH  32  36
ENDBRANCH  23  26
ENDBRANCH   9  23
ENDBRANCH   2   5
BRANCH   1  39
ATOM     39  C16 34S d   1      22.525 -27.942  -0.659  0.00  0.00     0.268 C 
ATOM     40  O30 34S d   1      23.121 -27.150   0.053  0.00  0.00    -0.267 OA
ATOM     41  N17 34S d   1      23.252 -28.945  -1.360  0.00  0.00    -0.162 N 
ATOM     42  N18 34S d   1      22.596 -29.829  -2.153  0.00  0.00     0.014 N 
ATOM     43  C20 34S d   1      24.701 -29.020  -1.225  0.00  0.00     0.094 C 
ATOM     44  C19 34S d   1      23.333 -30.634  -3.048  0.00  0.00     0.127 C 
ATOM     45  H1  34S d   1      21.941 -29.298  -2.706  0.00  0.00     0.306 HD
ATOM     46  H2  34S d   1      22.092 -30.453  -1.543  0.00  0.00     0.306 HD
ATOM     47  C22 34S d   1      24.729 -30.278  -3.326  0.00  0.00    -0.022 A 
ATOM     48  H3  34S d   1      22.798 -30.624  -4.009  0.00  0.00     0.086 H 
ATOM     49  H4  34S d   1      23.334 -31.655  -2.640  0.00  0.00     0.086 H 
ATOM     50  C40 34S d   1      25.371 -30.756  -4.520  0.00  0.00    -0.075 A 
ATOM     51  C21 34S d   1      25.387 -29.519  -2.479  0.00  0.00    -0.021 A 
ATOM     52  C38 34S d   1      26.682 -30.417  -4.774  0.00  0.00    -0.082 A 
ATOM     53  H5  34S d   1      24.826 -31.381  -5.218  0.00  0.00     0.084 H 
ATOM     54  C37 34S d   1      27.370 -29.625  -3.891  0.00  0.00    -0.082 A 
ATOM     55  H6  34S d   1      27.170 -30.777  -5.673  0.00  0.00     0.083 H 
ATOM     56  C23 34S d   1      26.752 -29.166  -2.743  0.00  0.00    -0.074 A 
ATOM     57  H7  34S d   1      28.401 -29.358  -4.094  0.00  0.00     0.083 H 
ATOM     58  H8  34S d   1      27.297 -28.541  -2.045  0.00  0.00     0.084 H 
ATOM     59  H9  34S d   1      25.077 -28.006  -1.023  0.00  0.00     0.091 H 
BRANCH  43  60
ATOM     60  C24 34S d   1      25.030 -29.899  -0.034  0.00  0.00    -0.029 A 
ATOM     61  C25 34S d   1      25.598 -31.147  -0.231  0.00  0.00    -0.074 A 
ATOM     62  C26 34S d   1      25.898 -31.949   0.862  0.00  0.00    -0.082 A 
ATOM     63  H10 34S d   1      25.808 -31.496  -1.236  0.00  0.00     0.084 H 
ATOM     64  C27 34S d   1      25.628 -31.502   2.149  0.00  0.00    -0.083 A 
ATOM     65  H11 34S d   1      26.344 -32.925   0.711  0.00  0.00     0.083 H 
ATOM     66  C28 34S d   1      25.061 -30.253   2.345  0.00  0.00    -0.082 A 
ATOM     67  H12 34S d   1      25.861 -32.131   3.001  0.00  0.00     0.083 H 
ATOM     68  C29 34S d   1      24.761 -29.451   1.253  0.00  0.00    -0.074 A 
ATOM     69  H13 34S d   1      24.852 -29.903   3.349  0.00  0.00     0.083 H 
ATOM     70  H14 34S d   1      24.316 -28.474   1.405  0.00  0.00     0.084 H 
ENDBRANCH  43  60
ENDBRANCH   1  39
TORSDOF 11
