REMARK  13 active torsions:
REMARK  status: ('A' for Active; 'I' for Inactive)
REMARK       I    between atoms: C16_2  and  N17_3 
REMARK    1  A    between atoms: C16_2  and  C15_16 
REMARK    2  A    between atoms: C20_12  and  C11_13 
REMARK    3  A    between atoms: C11_13  and  C08_14 
REMARK    4  A    between atoms: C11_13  and  C01_15 
REMARK    5  A    between atoms: C14_17  and  C13_18 
REMARK    6  A    between atoms: C10_19  and  O11_20 
REMARK    7  A    between atoms: O11_20  and  C12_21 
REMARK    8  A    between atoms: C07_22  and  O08_23 
REMARK    9  A    between atoms: O08_23  and  C09_24 
REMARK   10  A    between atoms: C05_26  and  C04_27 
REMARK   11  A    between atoms: C04_27  and  C03_28 
REMARK   12  A    between atoms: C34_31  and  N35_32 
REMARK   13  A    between atoms: C02_34  and  N01_35 
ROOT
ATOM      1  C13 31I d   1      18.770 -28.304  -1.807  0.00  0.00     0.001 A 
ATOM      2  C10 31I d   1      18.005 -27.255  -1.312  0.00  0.00     0.111 A 
ATOM      3  C07 31I d   1      16.743 -26.983  -1.857  0.00  0.00     0.102 A 
ATOM      4  C06 31I d   1      16.250 -27.780  -2.908  0.00  0.00    -0.042 A 
ATOM      5  C05 31I d   1      17.012 -28.836  -3.402  0.00  0.00    -0.050 A 
ATOM      6  C31 31I d   1      18.275 -29.103  -2.858  0.00  0.00    -0.064 A 
ATOM      7  H22 31I d   1      15.275 -27.571  -3.334  0.00  0.00     0.088 H 
ATOM      8  H30 31I d   1      18.871 -29.922  -3.244  0.00  0.00     0.085 H 
ENDROOT
BRANCH   1   9
ATOM      9  C14 31I d   1      20.141 -28.584  -1.194  0.00  0.00    -0.065 C 
ATOM     10  C15 31I d   1      21.301 -28.549  -1.976  0.00  0.00    -0.015 C 
ATOM     11  H14 31I d   1      21.227 -28.518  -3.062  0.00  0.00     0.092 H 
ATOM     12  H15 31I d   1      20.217 -28.814  -0.132  0.00  0.00     0.085 H 
BRANCH  10  13
ATOM     13  C16 31I d   1      22.695 -28.555  -1.290  0.00  0.00     0.264 C 
ATOM     14  O30 31I d   1      22.978 -27.687  -0.453  0.00  0.00    -0.267 OA
ATOM     15  N17 31I d   1      23.707 -29.615  -1.637  0.00  0.00    -0.225 N 
ATOM     16  N18 31I d   1      23.407 -30.552  -2.534  0.00  0.00    -0.180 NA
ATOM     17  C20 31I d   1      24.998 -29.624  -1.002  0.00  0.00     0.067 C 
ATOM     18  C19 31I d   1      24.376 -31.214  -3.126  0.00  0.00     0.032 C 
ATOM     19  C25 31I d   1      25.767 -30.627  -3.167  0.00  0.00    -0.009 A 
ATOM     20  H1  31I d   1      24.177 -32.181  -3.585  0.00  0.00     0.118 H 
ATOM     21  C26 31I d   1      26.700 -30.858  -4.200  0.00  0.00    -0.071 A 
ATOM     22  C24 31I d   1      26.110 -29.798  -2.079  0.00  0.00    -0.021 A 
ATOM     23  C27 31I d   1      27.976 -30.262  -4.145  0.00  0.00    -0.082 A 
ATOM     24  H2  31I d   1      26.435 -31.494  -5.037  0.00  0.00     0.084 H 
ATOM     25  C28 31I d   1      28.323 -29.436  -3.062  0.00  0.00    -0.082 A 
ATOM     26  H3  31I d   1      28.691 -30.441  -4.940  0.00  0.00     0.083 H 
ATOM     27  C29 31I d   1      27.393 -29.203  -2.026  0.00  0.00    -0.074 A 
ATOM     28  H4  31I d   1      29.305 -28.978  -3.022  0.00  0.00     0.083 H 
ATOM     29  H5  31I d   1      27.662 -28.568  -1.190  0.00  0.00     0.084 H 
ATOM     30  H6  31I d   1      25.146 -28.656  -0.501  0.00  0.00     0.084 H 
BRANCH  17  31
ATOM     31  C11 31I d   1      25.085 -30.713   0.043  0.00  0.00    -0.035 C 
ATOM     32  H7  31I d   1      24.079 -30.930   0.432  0.00  0.00     0.042 H 
BRANCH  31  33
ATOM     33  C08 31I d   1      25.664 -31.950  -0.580  0.00  0.00    -0.071 C 
ATOM     34  H8  31I d   1      25.729 -32.746   0.177  0.00  0.00     0.028 H 
ATOM     35  H9  31I d   1      26.669 -31.729  -0.968  0.00  0.00     0.028 H 
ATOM     36  H10 31I d   1      25.017 -32.282  -1.406  0.00  0.00     0.028 H 
ENDBRANCH  31  33
BRANCH  31  37
ATOM     37  C01 31I d   1      25.984 -30.263   1.181  0.00  0.00    -0.071 C 
ATOM     38  H11 31I d   1      25.565 -29.356   1.642  0.00  0.00     0.028 H 
ATOM     39  H12 31I d   1      26.989 -30.045   0.790  0.00  0.00     0.028 H 
ATOM     40  H13 31I d   1      26.049 -31.061   1.935  0.00  0.00     0.028 H 
ENDBRANCH  31  37
ENDBRANCH  17  31
ENDBRANCH  10  13
ENDBRANCH   1   9
BRANCH   2  41
ATOM     41  O11 31I d   1      18.488 -26.485  -0.292  0.00  0.00    -0.352 OA
BRANCH  41  42
ATOM     42  C12 31I d   1      17.870 -25.312   0.006  0.00  0.00     0.011 C 
ATOM     43  H16 31I d   1      18.388 -24.828   0.847  0.00  0.00     0.067 H 
ATOM     44  H17 31I d   1      16.824 -25.509   0.285  0.00  0.00     0.067 H 
ATOM     45  H18 31I d   1      17.897 -24.650  -0.872  0.00  0.00     0.067 H 
ENDBRANCH  41  42
ENDBRANCH   2  41
BRANCH   3  46
ATOM     46  O08 31I d   1      15.979 -25.925  -1.356  0.00  0.00    -0.353 OA
BRANCH  46  47
ATOM     47  C09 31I d   1      14.655 -25.759  -1.776  0.00  0.00     0.010 C 
ATOM     48  H19 31I d   1      14.220 -24.880  -1.278  0.00  0.00     0.066 H 
ATOM     49  H20 31I d   1      14.072 -26.655  -1.515  0.00  0.00     0.066 H 
ATOM     50  H21 31I d   1      14.632 -25.611  -2.866  0.00  0.00     0.066 H 
ENDBRANCH  46  47
ENDBRANCH   3  46
BRANCH   5  51
ATOM     51  C04 31I d   1      16.451 -29.687  -4.555  0.00  0.00    -0.012 C 
ATOM     52  H23 31I d   1      17.042 -29.485  -5.460  0.00  0.00     0.047 H 
ATOM     53  H24 31I d   1      15.404 -29.397  -4.729  0.00  0.00     0.047 H 
BRANCH  51  54
ATOM     54  C03 31I d   1      16.501 -31.205  -4.260  0.00  0.00     0.010 A 
ATOM     55  C32 31I d   1      16.852 -31.660  -3.033  0.00  0.00     0.031 A 
ATOM     56  N33 31I d   1      16.892 -32.993  -2.790  0.00  0.00    -0.075 NA
ATOM     57  H25 31I d   1      17.101 -30.958  -2.245  0.00  0.00     0.116 H 
ATOM     58  C34 31I d   1      16.573 -33.893  -3.795  0.00  0.00     0.721 A 
ATOM     59  N36 31I d   1      16.223 -33.438  -5.022  0.00  0.00    -0.045 NA
ATOM     60  C02 31I d   1      16.180 -32.121  -5.269  0.00  0.00     0.148 A 
BRANCH  58  61
ATOM     61  N35 31I d   1      16.613 -35.316  -3.547  0.00  0.00    -0.231 N 
ATOM     62  H26 31I d   1      16.878 -35.669  -2.617  0.00  0.00     0.174 HD
ATOM     63  H27 31I d   1      16.376 -35.977  -4.301  0.00  0.00     0.174 HD
ENDBRANCH  58  61
BRANCH  60  64
ATOM     64  N01 31I d   1      15.809 -31.682  -6.559  0.00  0.00    -0.383 N 
ATOM     65  H28 31I d   1      15.576 -32.370  -7.290  0.00  0.00     0.157 HD
ATOM     66  H29 31I d   1      15.771 -30.674  -6.769  0.00  0.00     0.157 HD
ENDBRANCH  60  64
ENDBRANCH  51  54
ENDBRANCH   5  51
TORSDOF 13
