REMARK  3 active torsions:
REMARK  status: ('A' for Active; 'I' for Inactive)
REMARK    1  A    between atoms: C3_3  and  C14_16 
REMARK    2  A    between atoms: C5_5  and  C7_7 
REMARK    3  A    between atoms: C15_17  and  C16_18 
ROOT
ATOM      1  C1  0RA d   1      12.183  27.023   8.315  0.00  0.00    -0.081 A 
ATOM      2  C2  0RA d   1      11.661  27.675   9.408  0.00  0.00    -0.073 A 
ATOM      3  C3  0RA d   1      11.955  29.004   9.623  0.00  0.00    -0.035 A 
ATOM      4  C4  0RA d   1      12.772  29.677   8.738  0.00  0.00    -0.062 A 
ATOM      5  C5  0RA d   1      13.305  29.035   7.638  0.00  0.00    -0.024 A 
ATOM      6  C6  0RA d   1      12.998  27.705   7.440  0.00  0.00    -0.072 A 
ATOM      7  H1  0RA d   1      11.954  25.977   8.144  0.00  0.00     0.083 H 
ATOM      8  H2  0RA d   1      11.018  27.143  10.100  0.00  0.00     0.084 H 
ATOM      9  H3  0RA d   1      12.998  30.723   8.909  0.00  0.00     0.086 H 
ATOM     10  H4  0RA d   1      13.406  27.187   6.580  0.00  0.00     0.084 H 
ENDROOT
BRANCH   5  11
ATOM     11  C7  0RA d   1      14.152  29.724   6.690  0.00  0.00    -0.007 A 
ATOM     12  C8  0RA d   1      15.143  29.055   6.000  0.00  0.00    -0.057 A 
ATOM     13  C9  0RA d   1      15.877  29.802   5.093  0.00  0.00     0.012 A 
ATOM     14  H5  0RA d   1      15.337  28.000   6.160  0.00  0.00     0.086 H 
ATOM     15  C10 0RA d   1      16.948  29.528   4.205  0.00  0.00    -0.054 A 
ATOM     16  C12 0RA d   1      15.581  31.141   4.943  0.00  0.00     0.137 A 
ATOM     17  C11 0RA d   1      17.266  30.698   3.548  0.00  0.00    -0.020 A 
ATOM     18  H6  0RA d   1      17.434  28.563   4.066  0.00  0.00     0.087 H 
ATOM     19  N1  0RA d   1      16.425  31.668   4.007  0.00  0.00    -0.350 N 
ATOM     20  H7  0RA d   1      18.047  30.824   2.799  0.00  0.00     0.111 H 
ATOM     21  H8  0RA d   1      16.426  32.650   3.695  0.00  0.00     0.166 HD
ATOM     22  N2  0RA d   1      14.644  31.829   5.589  0.00  0.00    -0.242 NA
ATOM     23  C13 0RA d   1      13.962  31.065   6.445  0.00  0.00     0.015 A 
ATOM     24  H9  0RA d   1      13.174  31.553   7.007  0.00  0.00     0.116 H 
ENDBRANCH   5  11
BRANCH   3  25
ATOM     25  C14 0RA d   1      11.396  29.688  10.781  0.00  0.00    -0.067 C 
ATOM     26  C15 0RA d   1      10.087  29.543  11.014  0.00  0.00    -0.009 C 
ATOM     27  H11 0RA d   1       9.431  28.945  10.382  0.00  0.00     0.094 H 
ATOM     28  H10 0RA d   1      12.021  30.296  11.434  0.00  0.00     0.085 H 
BRANCH  26  29
ATOM     29  C16 0RA d   1       9.605  30.286  12.235  0.00  0.00     0.198 C 
ATOM     30  O1  0RA d   1       9.943  31.499  12.315  0.00  0.00    -0.645 OA
ATOM     31  O2  0RA d   1       8.904  29.596  13.025  0.00  0.00    -0.645 OA
ENDBRANCH  26  29
ENDBRANCH   3  25
TORSDOF 3
