REMARK  6 active torsions:
REMARK  status: ('A' for Active; 'I' for Inactive)
REMARK    1  A    between atoms: C2'_10  and  O2'_11 
REMARK    2  A    between atoms: C1'_12  and  N9_13 
REMARK    3  A    between atoms: C2_20  and  N2_21 
REMARK    4  A    between atoms: C2A_33  and  O2A_34 
REMARK    5  A    between atoms: C1A_35  and  N91_36 
REMARK    6  A    between atoms: C21_43  and  N21_44 
ROOT
ATOM      1  P1  C2E d   1      54.407  16.820  76.663  0.00  0.00     0.408 P 
ATOM      2  O2P C2E d   1      55.725  17.650  76.854  0.00  0.00    -0.624 OA
ATOM      3  O1P C2E d   1      54.733  15.354  76.406  0.00  0.00    -0.624 OA
ATOM      4  O5' C2E d   1      53.682  17.484  75.452  0.00  0.00    -0.287 OA
ATOM      5  C5' C2E d   1      53.249  18.808  75.550  0.00  0.00     0.058 C 
ATOM      6  C4' C2E d   1      52.335  19.272  74.534  0.00  0.00     0.090 C 
ATOM      7  O4' C2E d   1      52.991  19.228  73.167  0.00  0.00    -0.353 OA
ATOM      8  C3' C2E d   1      51.152  18.406  74.403  0.00  0.00     0.106 C 
ATOM      9  O3' C2E d   1      50.198  18.808  75.330  0.00  0.00    -0.279 OA
ATOM     10  C2' C2E d   1      50.735  18.647  73.027  0.00  0.00     0.106 C 
ATOM     11  C1' C2E d   1      52.024  18.730  72.294  0.00  0.00     0.140 C 
ATOM     12  P11 C2E d   1      49.222  17.699  75.980  0.00  0.00     0.408 P 
ATOM     13  O21 C2E d   1      48.101  18.449  76.647  0.00  0.00    -0.624 OA
ATOM     14  O11 C2E d   1      48.726  16.704  75.009  0.00  0.00    -0.624 OA
ATOM     15  O5A C2E d   1      49.988  16.925  77.115  0.00  0.00    -0.287 OA
ATOM     16  C5A C2E d   1      50.603  17.678  78.197  0.00  0.00     0.058 C 
ATOM     17  C4A C2E d   1      51.517  16.880  79.115  0.00  0.00     0.090 C 
ATOM     18  O4A C2E d   1      50.761  15.892  79.740  0.00  0.00    -0.353 OA
ATOM     19  C3A C2E d   1      52.491  16.154  78.356  0.00  0.00     0.106 C 
ATOM     20  O3A C2E d   1      53.596  17.051  78.003  0.00  0.00    -0.279 OA
ATOM     21  C2A C2E d   1      52.865  15.161  79.248  0.00  0.00     0.106 C 
ATOM     22  C1A C2E d   1      51.545  14.761  79.821  0.00  0.00     0.140 C 
ATOM     23  H1  C2E d   1      54.140  19.453  75.515  0.00  0.00     0.079 H 
ATOM     24  H2  C2E d   1      52.750  18.924  76.524  0.00  0.00     0.079 H 
ATOM     25  H3  C2E d   1      52.025  20.299  74.778  0.00  0.00     0.090 H 
ATOM     26  H4  C2E d   1      51.401  17.346  74.560  0.00  0.00     0.092 H 
ATOM     27  H5  C2E d   1      50.101  17.833  72.645  0.00  0.00     0.093 H 
ATOM     28  H7  C2E d   1      51.908  19.446  71.467  0.00  0.00     0.122 H 
ATOM     29  H12 C2E d   1      49.798  18.108  78.811  0.00  0.00     0.079 H 
ATOM     30  H13 C2E d   1      51.196  18.489  77.750  0.00  0.00     0.079 H 
ATOM     31  H14 C2E d   1      51.999  17.545  79.847  0.00  0.00     0.090 H 
ATOM     32  H15 C2E d   1      52.059  15.722  77.441  0.00  0.00     0.092 H 
ATOM     33  H16 C2E d   1      53.362  14.322  78.739  0.00  0.00     0.093 H 
ATOM     34  H18 C2E d   1      51.668  14.466  80.874  0.00  0.00     0.122 H 
ENDROOT
BRANCH  11  35
ATOM     35  N9  C2E d   1      52.409  17.398  71.692  0.00  0.00    -0.293 N 
ATOM     36  C8  C2E d   1      52.998  16.373  72.337  0.00  0.00     0.071 A 
ATOM     37  N7  C2E d   1      53.198  15.357  71.486  0.00  0.00    -0.235 NA
ATOM     38  H8  C2E d   1      53.271  16.370  73.391  0.00  0.00     0.144 H 
ATOM     39  C5  C2E d   1      52.714  15.728  70.278  0.00  0.00     0.159 A 
ATOM     40  C6  C2E d   1      52.629  15.137  69.015  0.00  0.00     0.226 A 
ATOM     41  C4  C2E d   1      52.227  17.022  70.416  0.00  0.00     0.185 A 
ATOM     42  O6  C2E d   1      53.074  13.895  68.778  0.00  0.00    -0.169 OA
ATOM     43  N1  C2E d   1      52.076  15.818  68.009  0.00  0.00    -0.164 N 
ATOM     44  C2  C2E d   1      51.620  17.067  68.190  0.00  0.00     0.702 A 
ATOM     45  H9  C2E d   1      52.000  15.391  67.108  0.00  0.00     0.186 HD
ATOM     46  N3  C2E d   1      51.685  17.666  69.377  0.00  0.00    -0.044 NA
BRANCH  44  47
ATOM     47  N2  C2E d   1      51.053  17.743  67.108  0.00  0.00    -0.233 N 
ATOM     48  H10 C2E d   1      50.698  18.702  67.229  0.00  0.00     0.174 HD
ATOM     49  H11 C2E d   1      50.990  17.282  66.189  0.00  0.00     0.174 HD
ENDBRANCH  44  47
ENDBRANCH  11  35
BRANCH  10  50
ATOM     50  O2' C2E d   1      50.061  19.875  72.940  0.00  0.00    -0.388 OA
ATOM     51  H6  C2E d   1      49.295  19.855  73.501  0.00  0.00     0.210 HD
ENDBRANCH  10  50
BRANCH  21  52
ATOM     52  O2A C2E d   1      53.695  15.671  80.248  0.00  0.00    -0.388 OA
ATOM     53  H17 C2E d   1      54.478  16.036  79.853  0.00  0.00     0.210 HD
ENDBRANCH  21  52
BRANCH  22  54
ATOM     54  N91 C2E d   1      50.953  13.640  79.089  0.00  0.00    -0.293 N 
ATOM     55  C81 C2E d   1      50.275  13.673  77.925  0.00  0.00     0.071 A 
ATOM     56  N71 C2E d   1      49.931  12.429  77.574  0.00  0.00    -0.235 NA
ATOM     57  H19 C2E d   1      50.043  14.573  77.358  0.00  0.00     0.144 H 
ATOM     58  C51 C2E d   1      50.394  11.584  78.524  0.00  0.00     0.159 A 
ATOM     59  C61 C2E d   1      50.355  10.205  78.719  0.00  0.00     0.226 A 
ATOM     60  C41 C2E d   1      51.054  12.356  79.473  0.00  0.00     0.185 A 
ATOM     61  O61 C2E d   1      49.739   9.356  77.835  0.00  0.00    -0.169 OA
ATOM     62  N11 C2E d   1      50.947   9.692  79.802  0.00  0.00    -0.164 N 
ATOM     63  C21 C2E d   1      51.551  10.501  80.687  0.00  0.00     0.702 A 
ATOM     64  H20 C2E d   1      50.940   8.704  79.953  0.00  0.00     0.186 HD
ATOM     65  N31 C2E d   1      51.628  11.816  80.551  0.00  0.00    -0.044 NA
BRANCH  63  66
ATOM     66  N21 C2E d   1      52.164   9.894  81.829  0.00  0.00    -0.233 N 
ATOM     67  H21 C2E d   1      52.638  10.480  82.531  0.00  0.00     0.174 HD
ATOM     68  H22 C2E d   1      52.131   8.871  81.948  0.00  0.00     0.174 HD
ENDBRANCH  63  66
ENDBRANCH  22  54
TORSDOF 6
