REMARK  7 active torsions:
REMARK  status: ('A' for Active; 'I' for Inactive)
REMARK    1  A    between atoms: C1_1  and  C2_2 
REMARK    2  A    between atoms: C2_2  and  N3_3 
REMARK       I    between atoms: N3_3  and  C4_4 
REMARK    3  A    between atoms: C4_4  and  C6_6 
REMARK    4  A    between atoms: C9_9  and  N24_24 
REMARK    5  A    between atoms: C10_10  and  C15_15 
REMARK    6  A    between atoms: C17_17  and  C21_21 
REMARK    7  A    between atoms: C27_27  and  C29_29 
ROOT
ATOM      1  C6  0R9 d   1      17.004  31.143   4.168  0.00  0.00     0.103 A 
ATOM      2  C7  0R9 d   1      16.772  30.042   4.968  0.00  0.00    -0.036 A 
ATOM      3  C8  0R9 d   1      15.543  30.216   5.657  0.00  0.00     0.042 A 
ATOM      4  C9  0R9 d   1      14.789  29.487   6.567  0.00  0.00     0.084 A 
ATOM      5  C10 0R9 d   1      13.594  30.023   7.024  0.00  0.00     0.023 A 
ATOM      6  C11 0R9 d   1      13.240  31.254   6.524  0.00  0.00     0.018 A 
ATOM      7  N12 0R9 d   1      13.917  32.004   5.649  0.00  0.00    -0.241 NA
ATOM      8  C13 0R9 d   1      15.054  31.439   5.250  0.00  0.00     0.140 A 
ATOM      9  N14 0R9 d   1      15.939  31.986   4.359  0.00  0.00    -0.336 N 
ATOM     10  H7  0R9 d   1      17.428  29.177   5.056  0.00  0.00     0.088 H 
ATOM     11  H8  0R9 d   1      12.302  31.664   6.881  0.00  0.00     0.116 H 
ATOM     12  H9  0R9 d   1      15.822  32.900   3.898  0.00  0.00     0.168 HD
ENDROOT
BRANCH   5  13
ATOM     13  C15 0R9 d   1      12.686  29.370   7.954  0.00  0.00    -0.004 A 
ATOM     14  C16 0R9 d   1      12.073  30.037   9.002  0.00  0.00    -0.053 A 
ATOM     15  C17 0R9 d   1      11.195  29.353   9.823  0.00  0.00     0.059 A 
ATOM     16  H10 0R9 d   1      12.280  31.087   9.177  0.00  0.00     0.086 H 
ATOM     17  C18 0R9 d   1      10.970  28.021   9.556  0.00  0.00     0.018 A 
ATOM     18  N19 0R9 d   1      11.533  27.332   8.562  0.00  0.00    -0.271 NA
ATOM     19  H11 0R9 d   1      10.282  27.491  10.204  0.00  0.00     0.116 H 
ATOM     20  C20 0R9 d   1      12.367  28.037   7.790  0.00  0.00     0.013 A 
ATOM     21  H12 0R9 d   1      12.834  27.515   6.962  0.00  0.00     0.116 H 
BRANCH  15  22
ATOM     22  C21 0R9 d   1      10.489  29.976  10.966  0.00  0.00     0.210 C 
ATOM     23  O22 0R9 d   1      10.602  31.220  11.135  0.00  0.00    -0.644 OA
ATOM     24  O23 0R9 d   1       9.804  29.196  11.687  0.00  0.00    -0.644 OA
ENDBRANCH  15  22
ENDBRANCH   5  13
BRANCH   4  25
ATOM     25  N24 0R9 d   1      15.248  28.252   7.021  0.00  0.00    -0.243 N 
ATOM     26  C25 0R9 d   1      15.564  27.172   6.246  0.00  0.00     0.007 A 
ATOM     27  C26 0R9 d   1      15.898  26.170   7.126  0.00  0.00    -0.032 A 
ATOM     28  H13 0R9 d   1      15.553  27.116   5.159  0.00  0.00     0.114 H 
ATOM     29  C27 0R9 d   1      15.754  26.751   8.408  0.00  0.00     0.162 A 
ATOM     30  H14 0R9 d   1      16.206  25.153   6.888  0.00  0.00     0.089 H 
ATOM     31  N28 0R9 d   1      15.358  28.023   8.340  0.00  0.00    -0.163 NA
BRANCH  29  32
ATOM     32  C29 0R9 d   1      15.980  26.131   9.718  0.00  0.00     0.436 C 
ATOM     33  F30 0R9 d   1      16.313  24.819   9.588  0.00  0.00    -0.165 F 
ATOM     34  F31 0R9 d   1      16.973  26.743  10.412  0.00  0.00    -0.165 F 
ATOM     35  F32 0R9 d   1      14.867  26.198  10.497  0.00  0.00    -0.165 F 
ENDBRANCH  29  32
ENDBRANCH   4  25
BRANCH   1  36
ATOM     36  C4  0R9 d   1      18.131  31.388   3.311  0.00  0.00     0.268 C 
ATOM     37  N3  0R9 d   1      18.021  32.505   2.523  0.00  0.00    -0.356 N 
ATOM     38  H6  0R9 d   1      17.172  33.033   2.509  0.00  0.00     0.162 HD
ATOM     39  O5  0R9 d   1      19.116  30.660   3.301  0.00  0.00    -0.266 OA
BRANCH  37  40
ATOM     40  C2  0R9 d   1      19.146  32.910   1.714  0.00  0.00    -0.008 C 
ATOM     41  H4  0R9 d   1      20.062  32.456   2.121  0.00  0.00     0.063 H 
ATOM     42  H5  0R9 d   1      18.990  32.560   0.683  0.00  0.00     0.063 H 
BRANCH  40  43
ATOM     43  C1  0R9 d   1      19.302  34.408   1.706  0.00  0.00    -0.061 C 
ATOM     44  H1  0R9 d   1      20.165  34.683   1.083  0.00  0.00     0.029 H 
ATOM     45  H2  0R9 d   1      19.463  34.765   2.734  0.00  0.00     0.029 H 
ATOM     46  H3  0R9 d   1      18.392  34.869   1.296  0.00  0.00     0.029 H 
ENDBRANCH  40  43
ENDBRANCH  37  40
ENDBRANCH   1  36
TORSDOF 7
