REMARK  4 active torsions:
REMARK  status: ('A' for Active; 'I' for Inactive)
REMARK    1  A    between atoms: N22_2  and  C18_4 
REMARK    2  A    between atoms: C17_5  and  O25_6 
REMARK    3  A    between atoms: C14_10  and  C13_11 
REMARK    4  A    between atoms: N7_18  and  C2_19 
ROOT
ATOM      1  C13 Z20 d   1     -40.883  -2.504  -2.273  0.00  0.00    -0.051 C 
ATOM      2  C11 Z20 d   1     -39.618  -2.660  -1.836  0.00  0.00     0.077 A 
ATOM      3  C10 Z20 d   1     -38.539  -3.289  -2.649  0.00  0.00     0.264 A 
ATOM      4  O21 Z20 d   1     -38.626  -3.747  -3.762  0.00  0.00    -0.267 OA
ATOM      5  N9  Z20 d   1     -37.236  -3.319  -1.942  0.00  0.00    -0.301 N 
ATOM      6  S12 Z20 d   1     -38.920  -2.155  -0.236  0.00  0.00    -0.046 SA
ATOM      7  C8  Z20 d   1     -37.265  -2.755  -0.644  0.00  0.00     0.174 A 
ATOM      8  N7  Z20 d   1     -36.346  -2.605   0.255  0.00  0.00    -0.223 NA
ATOM      9  H   Z20 d   1     -41.036  -2.751  -3.324  0.00  0.00     0.087 H 
ATOM     10  H   Z20 d   1     -36.391  -3.712  -2.356  0.00  0.00     0.171 HD
ENDROOT
BRANCH   1  11
ATOM     11  C14 Z20 d   1     -42.093  -2.054  -1.563  0.00  0.00    -0.032 A 
ATOM     12  C15 Z20 d   1     -43.230  -1.729  -2.320  0.00  0.00    -0.070 A 
ATOM     13  C16 Z20 d   1     -44.404  -1.314  -1.717  0.00  0.00    -0.048 A 
ATOM     14  H   Z20 d   1     -43.187  -1.805  -3.406  0.00  0.00     0.084 H 
ATOM     15  C17 Z20 d   1     -44.466  -1.219  -0.321  0.00  0.00     0.098 A 
ATOM     16  H   Z20 d   1     -45.274  -1.063  -2.324  0.00  0.00     0.087 H 
ATOM     17  C18 Z20 d   1     -43.330  -1.554   0.440  0.00  0.00     0.136 A 
ATOM     18  C19 Z20 d   1     -42.149  -1.973  -0.172  0.00  0.00    -0.038 A 
ATOM     19  H   Z20 d   1     -41.279  -2.234   0.430  0.00  0.00     0.088 H 
BRANCH  15  20
ATOM     20  O25 Z20 d   1     -45.570  -0.825   0.349  0.00  0.00    -0.358 OA
ATOM     21  H   Z20 d   1     -45.855  -1.529   0.936  0.00  0.00     0.217 HD
ENDBRANCH  15  20
BRANCH  17  22
ATOM     22  N22 Z20 d   1     -43.404  -1.461   1.949  0.00  0.00    -0.113 N 
ATOM     23  O24 Z20 d   1     -44.489  -1.292   2.476  0.00  0.00    -0.532 OA
ATOM     24  O23 Z20 d   1     -42.366  -1.575   2.573  0.00  0.00    -0.532 OA
ENDBRANCH  17  22
ENDBRANCH   1  11
BRANCH   8  25
ATOM     25  C2  Z20 d   1     -36.463  -2.030   1.573  0.00  0.00     0.081 A 
ATOM     26  C3  Z20 d   1     -35.980  -0.729   1.832  0.00  0.00     0.062 A 
ATOM     27 CL1  Z20 d   1     -35.305   0.217   0.583  0.00  0.00    -0.082 Cl
ATOM     28  C4  Z20 d   1     -36.051  -0.164   3.099  0.00  0.00    -0.060 A 
ATOM     29  C5  Z20 d   1     -36.603  -0.909   4.134  0.00  0.00    -0.081 A 
ATOM     30  H   Z20 d   1     -35.681   0.845   3.278  0.00  0.00     0.086 H 
ATOM     31  C6  Z20 d   1     -37.070  -2.203   3.898  0.00  0.00    -0.081 A 
ATOM     32  H   Z20 d   1     -36.672  -0.481   5.134  0.00  0.00     0.083 H 
ATOM     33  C1  Z20 d   1     -36.997  -2.777   2.629  0.00  0.00    -0.053 A 
ATOM     34  H   Z20 d   1     -37.499  -2.775   4.720  0.00  0.00     0.083 H 
ATOM     35  H   Z20 d   1     -37.351  -3.794   2.462  0.00  0.00     0.087 H 
ENDBRANCH   8  25
TORSDOF 4
