REMARK  6 active torsions:
REMARK  status: ('A' for Active; 'I' for Inactive)
REMARK    1  A    between atoms: C9_7  and  N8_8 
REMARK    2  A    between atoms: N8_8  and  C4_9 
REMARK    3  A    between atoms: C15_16  and  C16_17 
REMARK    4  A    between atoms: C19_19  and  O22_20 
REMARK    5  A    between atoms: C18_21  and  O23_23 
REMARK    6  A    between atoms: O23_23  and  C24_24 
ROOT
ATOM      1  O14 J19 d   1     -64.958 119.281   4.585  0.00  0.00    -0.265 OA
ATOM      2  C11 J19 d   1     -65.236 118.975   3.446  0.00  0.00     0.286 A 
ATOM      3  N10 J19 d   1     -64.518 117.892   2.813  0.00  0.00    -0.184 NA
ATOM      4  C12 J19 d   1     -66.289 119.630   2.591  0.00  0.00     0.079 A 
ATOM      5  S13 J19 d   1     -66.245 118.765   1.016  0.00  0.00    -0.046 SA
ATOM      6  C9  J19 d   1     -64.910 117.656   1.580  0.00  0.00     0.175 A 
ATOM      7  C15 J19 d   1     -67.127 120.658   2.891  0.00  0.00    -0.051 C 
ATOM      8  H   J19 d   1     -67.125 120.939   3.944  0.00  0.00     0.087 H 
ENDROOT
BRANCH   7   9
ATOM      9  C16 J19 d   1     -68.044 121.469   2.051  0.00  0.00    -0.032 A 
ATOM     10  C21 J19 d   1     -68.944 122.367   2.651  0.00  0.00    -0.070 A 
ATOM     11  C20 J19 d   1     -69.815 123.144   1.887  0.00  0.00    -0.047 A 
ATOM     12  H   J19 d   1     -68.962 122.458   3.737  0.00  0.00     0.084 H 
ATOM     13  C19 J19 d   1     -69.798 123.043   0.485  0.00  0.00     0.099 A 
ATOM     14  H   J19 d   1     -70.508 123.829   2.377  0.00  0.00     0.087 H 
ATOM     15  C18 J19 d   1     -68.901 122.150  -0.122  0.00  0.00     0.102 A 
ATOM     16  C17 J19 d   1     -68.044 121.384   0.654  0.00  0.00    -0.038 A 
ATOM     17  H   J19 d   1     -67.353 120.698   0.164  0.00  0.00     0.089 H 
BRANCH  13  18
ATOM     18  O22 J19 d   1     -70.643 123.800  -0.280  0.00  0.00    -0.358 OA
ATOM     19  H   J19 d   1     -70.495 123.603  -1.208  0.00  0.00     0.217 HD
ENDBRANCH  13  18
BRANCH  15  20
ATOM     20  O23 J19 d   1     -68.868 122.036  -1.490  0.00  0.00    -0.353 OA
BRANCH  20  21
ATOM     21  C24 J19 d   1     -68.087 120.967  -2.006  0.00  0.00     0.010 C 
ATOM     22  H   J19 d   1     -67.052 121.088  -1.686  0.00  0.00     0.066 H 
ATOM     23  H   J19 d   1     -68.477 120.020  -1.631  0.00  0.00     0.066 H 
ATOM     24  H   J19 d   1     -68.135 120.976  -3.095  0.00  0.00     0.066 H 
ENDBRANCH  20  21
ENDBRANCH  15  20
ENDBRANCH   7   9
BRANCH   6  25
ATOM     25  N8  J19 d   1     -64.421 116.699   0.722  0.00  0.00    -0.334 N 
ATOM     26  H   J19 d   1     -63.681 116.094   1.077  0.00  0.00     0.168 HD
BRANCH  25  27
ATOM     27  C4  J19 d   1     -64.852 116.475  -0.616  0.00  0.00     0.056 A 
ATOM     28  C3  J19 d   1     -64.482 117.312  -1.684  0.00  0.00    -0.056 A 
ATOM     29  C2  J19 d   1     -64.919 117.048  -2.976  0.00  0.00    -0.081 A 
ATOM     30  H   J19 d   1     -63.846 118.177  -1.496  0.00  0.00     0.087 H 
ATOM     31  C1  J19 d   1     -65.732 115.958  -3.259  0.00  0.00    -0.081 A 
ATOM     32  H   J19 d   1     -64.617 117.712  -3.786  0.00  0.00     0.083 H 
ATOM     33  C6  J19 d   1     -66.113 115.113  -2.229  0.00  0.00    -0.060 A 
ATOM     34  H   J19 d   1     -66.066 115.769  -4.279  0.00  0.00     0.083 H 
ATOM     35  C5  J19 d   1     -65.675 115.379  -0.938  0.00  0.00     0.060 A 
ATOM     36  H   J19 d   1     -66.749 114.250  -2.429  0.00  0.00     0.086 H 
ATOM     37 CL7  J19 d   1     -66.201 114.284   0.277  0.00  0.00    -0.082 Cl
ENDBRANCH  25  27
ENDBRANCH   6  25
TORSDOF 6
