REMARK  5 active torsions:
REMARK  status: ('A' for Active; 'I' for Inactive)
REMARK    1  A    between atoms: C15_4  and  N3_5 
REMARK    2  A    between atoms: N3_5  and  C18_6 
REMARK    3  A    between atoms: C18_6  and  C19_7 
REMARK    4  A    between atoms: C12_13  and  C11_14 
REMARK    5  A    between atoms: C11_14  and  C1_15 
ROOT
ATOM      1  O1  1RO d   1      -6.907  22.385 -21.506  0.00  0.00    -0.270 OA
ATOM      2  C13 1RO d   1      -6.823  21.291 -20.858  0.00  0.00     0.260 A 
ATOM      3  N2  1RO d   1      -5.821  21.203 -20.011  0.00  0.00    -0.189 NA
ATOM      4  C15 1RO d   1      -5.846  20.011 -19.405  0.00  0.00     0.166 A 
ATOM      5  S1  1RO d   1      -7.158  18.933 -19.851  0.00  0.00    -0.077 SA
ATOM      6  C12 1RO d   1      -7.756  20.139 -20.971  0.00  0.00     0.081 A 
ATOM      7  H7  1RO d   1      -8.424  20.561 -20.206  0.00  0.00     0.072 H 
ENDROOT
BRANCH   6   8
ATOM      8  C11 1RO d   1      -8.951  20.041 -21.865  0.00  0.00    -0.021 C 
ATOM      9  H8  1RO d   1      -9.829  19.866 -21.226  0.00  0.00     0.042 H 
ATOM     10  H9  1RO d   1      -8.800  19.174 -22.525  0.00  0.00     0.042 H 
BRANCH   8  11
ATOM     11  C1  1RO d   1      -9.256  21.220 -22.734  0.00  0.00    -0.056 A 
ATOM     12  C6  1RO d   1     -10.566  21.584 -23.073  0.00  0.00    -0.075 A 
ATOM     13  C5  1RO d   1     -10.817  22.703 -23.881  0.00  0.00    -0.054 A 
ATOM     14  H10 1RO d   1     -11.397  20.993 -22.706  0.00  0.00     0.084 H 
ATOM     15  C4  1RO d   1      -9.770  23.485 -24.376  0.00  0.00     0.066 A 
ATOM     16  H11 1RO d   1     -11.840  22.965 -24.125  0.00  0.00     0.087 H 
ATOM     17  N1  1RO d   1      -9.971  24.576 -25.160  0.00  0.00    -0.260 NA
ATOM     18  C3  1RO d   1      -8.382  23.105 -24.027  0.00  0.00    -0.007 A 
ATOM     19  C9  1RO d   1      -8.939  25.308 -25.614  0.00  0.00     0.003 A 
ATOM     20  C8  1RO d   1      -7.613  24.980 -25.307  0.00  0.00    -0.065 A 
ATOM     21  H12 1RO d   1      -9.139  26.175 -26.234  0.00  0.00     0.114 H 
ATOM     22  C7  1RO d   1      -7.323  23.872 -24.509  0.00  0.00    -0.069 A 
ATOM     23  H13 1RO d   1      -6.805  25.591 -25.692  0.00  0.00     0.085 H 
ATOM     24  H14 1RO d   1      -6.298  23.614 -24.270  0.00  0.00     0.085 H 
ATOM     25  C2  1RO d   1      -8.188  21.982 -23.230  0.00  0.00    -0.065 A 
ATOM     26  H15 1RO d   1      -7.175  21.685 -22.983  0.00  0.00     0.085 H 
ENDBRANCH   8  11
ENDBRANCH   6   8
BRANCH   4  27
ATOM     27  N3  1RO d   1      -4.833  19.823 -18.541  0.00  0.00    -0.364 N 
ATOM     28  H1  1RO d   1      -4.884  19.073 -17.837  0.00  0.00     0.162 HD
BRANCH  27  29
ATOM     29  C18 1RO d   1      -3.651  20.696 -18.608  0.00  0.00     0.024 C 
ATOM     30  H2  1RO d   1      -2.768  20.079 -18.386  0.00  0.00     0.072 H 
ATOM     31  H3  1RO d   1      -3.763  21.468 -17.832  0.00  0.00     0.072 H 
BRANCH  29  32
ATOM     32  C19 1RO d   1      -3.397  21.406 -19.933  0.00  0.00     0.000 A 
ATOM     33  C23 1RO d   1      -3.494  22.733 -20.353  0.00  0.00    -0.068 A 
ATOM     34  C22 1RO d   1      -3.156  22.922 -21.701  0.00  0.00    -0.076 A 
ATOM     35  H4  1RO d   1      -3.803  23.545 -19.696  0.00  0.00     0.085 H 
ATOM     36  C21 1RO d   1      -2.776  21.778 -22.403  0.00  0.00    -0.044 A 
ATOM     37  H5  1RO d   1      -3.188  23.904 -22.172  0.00  0.00     0.084 H 
ATOM     38  S2  1RO d   1      -2.871  20.459 -21.284  0.00  0.00    -0.105 SA
ATOM     39  H6  1RO d   1      -2.478  21.725 -23.449  0.00  0.00     0.095 H 
ENDBRANCH  29  32
ENDBRANCH  27  29
ENDBRANCH   4  27
TORSDOF 5
