REMARK  7 active torsions:
REMARK  status: ('A' for Active; 'I' for Inactive)
REMARK    1  A    between atoms: N2_23  and  C2_1 
REMARK    2  A    between atoms: C10_3  and  C11_4 
REMARK    3  A    between atoms: O6_17  and  C10_3 
REMARK    4  A    between atoms: C20_11  and  S23_26 
REMARK    5  A    between atoms: S23_26  and  N26_14 
REMARK    6  A    between atoms: C6_16  and  O6_17 
REMARK    7  A    between atoms: N2_23  and  C17_24 
ROOT
ATOM      1  C2  4SP d   1      10.840  27.048  25.136  0.00  0.00     0.731 A 
ATOM      2  C8  4SP d   1      13.601  23.994  23.426  0.00  0.00     0.066 A 
ATOM      3  N1  4SP d   1       9.936  26.323  24.420  0.00  0.00    -0.035 NA
ATOM      4  C6  4SP d   1      10.268  25.239  23.674  0.00  0.00     0.216 A 
ATOM      5  C5  4SP d   1      11.585  24.828  23.637  0.00  0.00     0.158 A 
ATOM      6  N7  4SP d   1      12.300  23.848  23.053  0.00  0.00    -0.236 NA
ATOM      7  N9  4SP d   1      13.758  25.066  24.254  0.00  0.00    -0.333 N 
ATOM      8  C4  4SP d   1      12.539  25.613  24.419  0.00  0.00     0.181 A 
ATOM      9  N3  4SP d   1      12.156  26.695  25.138  0.00  0.00    -0.042 NA
ATOM     10  H1  4SP d   1      14.411  23.340  23.105  0.00  0.00     0.143 H 
ATOM     11  H20 4SP d   1      14.640  25.394  24.673  0.00  0.00     0.168 HD
ENDROOT
BRANCH   4  12
ATOM     12  O6  4SP d   1       9.316  24.563  22.971  0.00  0.00    -0.332 OA
BRANCH  12  13
ATOM     13  C10 4SP d   1       8.046  25.175  22.785  0.00  0.00     0.031 C 
ATOM     14  H2  4SP d   1       7.555  25.299  23.762  0.00  0.00     0.075 H 
ATOM     15  H3  4SP d   1       8.182  26.160  22.316  0.00  0.00     0.075 H 
BRANCH  13  16
ATOM     16  C11 4SP d   1       7.178  24.310  21.893  0.00  0.00    -0.033 C 
ATOM     17  C12 4SP d   1       7.557  24.629  20.442  0.00  0.00    -0.060 C 
ATOM     18  C13 4SP d   1       6.545  24.085  19.436  0.00  0.00    -0.065 C 
ATOM     19  H5  4SP d   1       8.540  24.183  20.229  0.00  0.00     0.033 H 
ATOM     20  H6  4SP d   1       7.617  25.721  20.326  0.00  0.00     0.033 H 
ATOM     21  C14 4SP d   1       5.112  24.501  19.785  0.00  0.00    -0.065 C 
ATOM     22  H7  4SP d   1       6.605  22.987  19.430  0.00  0.00     0.033 H 
ATOM     23  H8  4SP d   1       6.794  24.471  18.437  0.00  0.00     0.033 H 
ATOM     24  C15 4SP d   1       4.736  24.076  21.204  0.00  0.00    -0.065 C 
ATOM     25  H9  4SP d   1       4.419  24.027  19.074  0.00  0.00     0.033 H 
ATOM     26  H10 4SP d   1       5.028  25.595  19.705  0.00  0.00     0.033 H 
ATOM     27  C16 4SP d   1       5.724  24.651  22.218  0.00  0.00    -0.060 C 
ATOM     28  H11 4SP d   1       4.750  22.978  21.268  0.00  0.00     0.033 H 
ATOM     29  H12 4SP d   1       3.725  24.444  21.436  0.00  0.00     0.033 H 
ATOM     30  H13 4SP d   1       5.615  25.745  22.232  0.00  0.00     0.033 H 
ATOM     31  H14 4SP d   1       5.482  24.246  23.212  0.00  0.00     0.033 H 
ATOM     32  H4  4SP d   1       7.358  23.243  22.093  0.00  0.00     0.043 H 
ENDBRANCH  13  16
ENDBRANCH  12  13
ENDBRANCH   4  12
BRANCH   1  33
ATOM     33  N2  4SP d   1      10.446  28.130  25.870  0.00  0.00    -0.188 N 
ATOM     34  H21 4SP d   1      11.092  28.426  26.615  0.00  0.00     0.184 HD
BRANCH  33  35
ATOM     35  C17 4SP d   1       9.304  28.871  25.743  0.00  0.00     0.049 A 
ATOM     36  C22 4SP d   1       8.569  28.933  24.562  0.00  0.00    -0.055 A 
ATOM     37  C21 4SP d   1       7.413  29.712  24.480  0.00  0.00    -0.058 A 
ATOM     38  H17 4SP d   1       8.898  28.370  23.696  0.00  0.00     0.087 H 
ATOM     39  C20 4SP d   1       6.966  30.457  25.573  0.00  0.00     0.079 A 
ATOM     40  H16 4SP d   1       6.853  29.739  23.552  0.00  0.00     0.086 H 
ATOM     41  C19 4SP d   1       7.707  30.403  26.756  0.00  0.00    -0.058 A 
ATOM     42  C18 4SP d   1       8.860  29.618  26.835  0.00  0.00    -0.055 A 
ATOM     43  H15 4SP d   1       7.385  30.974  27.619  0.00  0.00     0.086 H 
ATOM     44  H22 4SP d   1       9.421  29.589  27.762  0.00  0.00     0.087 H 
BRANCH  39  45
ATOM     45  S23 4SP d   1       5.631  31.359  25.452  0.00  0.00     0.256 S 
ATOM     46  O24 4SP d   1       5.855  32.403  24.425  0.00  0.00    -0.201 OA
ATOM     47  O25 4SP d   1       5.325  32.022  26.749  0.00  0.00    -0.201 OA
BRANCH  45  48
ATOM     48  N26 4SP d   1       4.441  30.505  25.051  0.00  0.00    -0.324 N 
ATOM     49  H18 4SP d   1       3.541  30.925  24.936  0.00  0.00     0.169 HD
ATOM     50  H19 4SP d   1       4.558  29.523  24.902  0.00  0.00     0.169 HD
ENDBRANCH  45  48
ENDBRANCH  39  45
ENDBRANCH  33  35
ENDBRANCH   1  33
TORSDOF 7
