REMARK  5 active torsions:
REMARK  status: ('A' for Active; 'I' for Inactive)
REMARK    1  A    between atoms: C15_4  and  N3_5 
REMARK    2  A    between atoms: N3_5  and  C18_6 
REMARK    3  A    between atoms: C18_6  and  C19_7 
REMARK    4  A    between atoms: C12_13  and  C11_14 
REMARK    5  A    between atoms: C11_14  and  C1_15 
ROOT
ATOM      1  O1  1RO d   1     -10.180 -24.629  22.573  0.00  0.00    -0.270 OA
ATOM      2  C13 1RO d   1     -10.294 -23.527  21.960  0.00  0.00     0.260 A 
ATOM      3  N2  1RO d   1      -9.342 -23.286  21.105  0.00  0.00    -0.189 NA
ATOM      4  C15 1RO d   1      -9.537 -22.111  20.527  0.00  0.00     0.166 A 
ATOM      5  S1  1RO d   1     -10.983 -21.238  21.016  0.00  0.00    -0.077 SA
ATOM      6  C12 1RO d   1     -11.384 -22.540  22.123  0.00  0.00     0.081 A 
ATOM      7  H7  1RO d   1     -12.005 -23.041  21.366  0.00  0.00     0.072 H 
ENDROOT
BRANCH   6   8
ATOM      8  C11 1RO d   1     -12.554 -22.634  23.051  0.00  0.00    -0.021 C 
ATOM      9  H8  1RO d   1     -13.465 -22.541  22.442  0.00  0.00     0.042 H 
ATOM     10  H9  1RO d   1     -12.490 -21.785  23.748  0.00  0.00     0.042 H 
BRANCH   8  11
ATOM     11  C1  1RO d   1     -12.690 -23.874  23.870  0.00  0.00    -0.056 A 
ATOM     12  C6  1RO d   1     -13.930 -24.284  24.358  0.00  0.00    -0.075 A 
ATOM     13  C5  1RO d   1     -14.071 -25.471  25.093  0.00  0.00    -0.054 A 
ATOM     14  H10 1RO d   1     -14.804 -23.673  24.166  0.00  0.00     0.084 H 
ATOM     15  C4  1RO d   1     -12.975 -26.290  25.344  0.00  0.00     0.066 A 
ATOM     16  H11 1RO d   1     -15.047 -25.753  25.470  0.00  0.00     0.087 H 
ATOM     17  N1  1RO d   1     -13.066 -27.443  26.050  0.00  0.00    -0.260 NA
ATOM     18  C3  1RO d   1     -11.658 -25.873  24.813  0.00  0.00    -0.007 A 
ATOM     19  C9  1RO d   1     -11.983 -28.209  26.270  0.00  0.00     0.003 A 
ATOM     20  C8  1RO d   1     -10.719 -27.847  25.785  0.00  0.00    -0.065 A 
ATOM     21  H12 1RO d   1     -12.090 -29.128  26.835  0.00  0.00     0.114 H 
ATOM     22  C7  1RO d   1     -10.545 -26.677  25.045  0.00  0.00    -0.069 A 
ATOM     23  H13 1RO d   1      -9.866 -28.484  25.987  0.00  0.00     0.085 H 
ATOM     24  H14 1RO d   1      -9.569 -26.401  24.661  0.00  0.00     0.085 H 
ATOM     25  C2  1RO d   1     -11.577 -24.683  24.109  0.00  0.00    -0.065 A 
ATOM     26  H15 1RO d   1     -10.612 -24.367  23.729  0.00  0.00     0.085 H 
ENDBRANCH   8  11
ENDBRANCH   6   8
BRANCH   4  27
ATOM     27  N3  1RO d   1      -8.562 -21.812  19.648  0.00  0.00    -0.364 N 
ATOM     28  H1  1RO d   1      -8.534 -20.890  19.189  0.00  0.00     0.162 HD
BRANCH  27  29
ATOM     29  C18 1RO d   1      -7.530 -22.832  19.353  0.00  0.00     0.024 C 
ATOM     30  H2  1RO d   1      -6.646 -22.313  18.953  0.00  0.00     0.072 H 
ATOM     31  H3  1RO d   1      -7.934 -23.511  18.588  0.00  0.00     0.072 H 
BRANCH  29  32
ATOM     32  C19 1RO d   1      -7.079 -23.679  20.541  0.00  0.00     0.000 A 
ATOM     33  C23 1RO d   1      -7.208 -25.025  20.882  0.00  0.00    -0.068 A 
ATOM     34  C22 1RO d   1      -6.635 -25.364  22.116  0.00  0.00    -0.076 A 
ATOM     35  H4  1RO d   1      -7.711 -25.751  20.244  0.00  0.00     0.085 H 
ATOM     36  C21 1RO d   1      -6.031 -24.324  22.817  0.00  0.00    -0.044 A 
ATOM     37  H5  1RO d   1      -6.661 -26.381  22.503  0.00  0.00     0.084 H 
ATOM     38  S2  1RO d   1      -6.225 -22.907  21.838  0.00  0.00    -0.105 SA
ATOM     39  H6  1RO d   1      -5.536 -24.388  23.785  0.00  0.00     0.095 H 
ENDBRANCH  29  32
ENDBRANCH  27  29
ENDBRANCH   4  27
TORSDOF 5
