REMARK  5 active torsions:
REMARK  status: ('A' for Active; 'I' for Inactive)
REMARK    1  A    between atoms: C15_4  and  N3_5 
REMARK    2  A    between atoms: N3_5  and  C18_6 
REMARK    3  A    between atoms: C18_6  and  C19_7 
REMARK    4  A    between atoms: C12_13  and  C11_14 
REMARK    5  A    between atoms: C11_14  and  C1_15 
ROOT
ATOM      1  O1  1RO d   1     -37.230  12.893  39.643  0.00  0.00    -0.265 OA
ATOM      2  C13 1RO d   1     -37.224  11.851  40.268  0.00  0.00     0.286 A 
ATOM      3  N2  1RO d   1     -37.753  11.921  41.435  0.00  0.00    -0.184 NA
ATOM      4  C15 1RO d   1     -37.681  10.734  41.959  0.00  0.00     0.171 A 
ATOM      5  S1  1RO d   1     -36.972   9.505  41.005  0.00  0.00    -0.047 SA
ATOM      6  C12 1RO d   1     -36.697  10.614  39.759  0.00  0.00     0.079 A 
ENDROOT
BRANCH   6   7
ATOM      7  C11 1RO d   1     -36.066  10.340  38.462  0.00  0.00    -0.051 C 
ATOM      8  H7  1RO d   1     -35.698   9.347  38.207  0.00  0.00     0.087 H 
BRANCH   7   9
ATOM      9  C1  1RO d   1     -35.953  11.460  37.527  0.00  0.00    -0.034 A 
ATOM     10  C6  1RO d   1     -36.107  11.250  36.184  0.00  0.00    -0.071 A 
ATOM     11  C5  1RO d   1     -36.021  12.267  35.259  0.00  0.00    -0.054 A 
ATOM     12  H8  1RO d   1     -36.304  10.243  35.834  0.00  0.00     0.084 H 
ATOM     13  C4  1RO d   1     -35.773  13.539  35.670  0.00  0.00     0.066 A 
ATOM     14  H9  1RO d   1     -36.151  12.053  34.204  0.00  0.00     0.087 H 
ATOM     15  N1  1RO d   1     -35.673  14.543  34.816  0.00  0.00    -0.260 NA
ATOM     16  C3  1RO d   1     -35.602  13.780  37.096  0.00  0.00    -0.007 A 
ATOM     17  C9  1RO d   1     -35.427  15.770  35.256  0.00  0.00     0.003 A 
ATOM     18  C8  1RO d   1     -35.270  16.054  36.591  0.00  0.00    -0.065 A 
ATOM     19  H10 1RO d   1     -35.347  16.577  34.537  0.00  0.00     0.114 H 
ATOM     20  C7  1RO d   1     -35.353  15.051  37.531  0.00  0.00    -0.069 A 
ATOM     21  H11 1RO d   1     -35.080  17.073  36.906  0.00  0.00     0.085 H 
ATOM     22  H12 1RO d   1     -35.224  15.264  38.586  0.00  0.00     0.085 H 
ATOM     23  C2  1RO d   1     -35.686  12.730  37.965  0.00  0.00    -0.061 A 
ATOM     24  H13 1RO d   1     -35.538  12.905  39.025  0.00  0.00     0.086 H 
ENDBRANCH   7   9
ENDBRANCH   6   7
BRANCH   4  25
ATOM     25  N3  1RO d   1     -38.177  10.669  43.178  0.00  0.00    -0.364 N 
ATOM     26  H1  1RO d   1     -38.514   9.774  43.560  0.00  0.00     0.162 HD
BRANCH  25  27
ATOM     27  C18 1RO d   1     -38.239  11.882  43.973  0.00  0.00     0.024 C 
ATOM     28  H2  1RO d   1     -37.749  11.673  44.935  0.00  0.00     0.072 H 
ATOM     29  H3  1RO d   1     -39.301  12.112  44.145  0.00  0.00     0.072 H 
BRANCH  27  30
ATOM     30  C19 1RO d   1     -37.594  13.117  43.392  0.00  0.00     0.000 A 
ATOM     31  C23 1RO d   1     -38.036  14.162  42.640  0.00  0.00    -0.068 A 
ATOM     32  C22 1RO d   1     -37.061  15.086  42.346  0.00  0.00    -0.076 A 
ATOM     33  H4  1RO d   1     -39.067  14.258  42.302  0.00  0.00     0.085 H 
ATOM     34  C21 1RO d   1     -35.802  14.855  42.839  0.00  0.00    -0.044 A 
ATOM     35  H5  1RO d   1     -37.280  15.967  41.745  0.00  0.00     0.084 H 
ATOM     36  S2  1RO d   1     -35.958  13.410  43.699  0.00  0.00    -0.105 SA
ATOM     37  H6  1RO d   1     -34.908  15.463  42.706  0.00  0.00     0.095 H 
ENDBRANCH  27  30
ENDBRANCH  25  27
ENDBRANCH   4  25
TORSDOF 5
