REMARK  5 active torsions:
REMARK  status: ('A' for Active; 'I' for Inactive)
REMARK    1  A    between atoms: C15_4  and  N3_5 
REMARK    2  A    between atoms: N3_5  and  C18_6 
REMARK    3  A    between atoms: C18_6  and  C19_7 
REMARK    4  A    between atoms: C12_13  and  C11_14 
REMARK    5  A    between atoms: C11_14  and  C1_15 
ROOT
ATOM      1  O1  1RO d   1       7.290  22.700  21.421  0.00  0.00    -0.265 OA
ATOM      2  C13 1RO d   1       7.152  21.616  20.757  0.00  0.00     0.286 A 
ATOM      3  N2  1RO d   1       6.113  21.545  19.950  0.00  0.00    -0.184 NA
ATOM      4  C15 1RO d   1       6.096  20.362  19.323  0.00  0.00     0.171 A 
ATOM      5  S1  1RO d   1       7.410  19.274  19.708  0.00  0.00    -0.047 SA
ATOM      6  C12 1RO d   1       8.071  20.452  20.810  0.00  0.00     0.079 A 
ENDROOT
BRANCH   6   7
ATOM      7  C11 1RO d   1       9.298  20.313  21.642  0.00  0.00    -0.051 C 
ATOM      8  H7  1RO d   1       9.909  19.412  21.625  0.00  0.00     0.087 H 
BRANCH   7   9
ATOM      9  C1  1RO d   1       9.637  21.483  22.499  0.00  0.00    -0.034 A 
ATOM     10  C6  1RO d   1      10.960  21.833  22.787  0.00  0.00    -0.071 A 
ATOM     11  C5  1RO d   1      11.250  22.947  23.586  0.00  0.00    -0.054 A 
ATOM     12  H8  1RO d   1      11.771  21.235  22.387  0.00  0.00     0.084 H 
ATOM     13  C4  1RO d   1      10.224  23.734  24.108  0.00  0.00     0.066 A 
ATOM     14  H9  1RO d   1      12.282  23.200  23.800  0.00  0.00     0.087 H 
ATOM     15  N1  1RO d   1      10.461  24.819  24.883  0.00  0.00    -0.260 NA
ATOM     16  C3  1RO d   1       8.820  23.366  23.808  0.00  0.00    -0.007 A 
ATOM     17  C9  1RO d   1       9.447  25.557  25.372  0.00  0.00     0.003 A 
ATOM     18  C8  1RO d   1       8.109  25.243  25.112  0.00  0.00    -0.065 A 
ATOM     19  H10 1RO d   1       9.674  26.421  25.986  0.00  0.00     0.114 H 
ATOM     20  C7  1RO d   1       7.784  24.140  24.322  0.00  0.00    -0.069 A 
ATOM     21  H11 1RO d   1       7.320  25.860  25.527  0.00  0.00     0.085 H 
ATOM     22  H12 1RO d   1       6.750  23.892  24.114  0.00  0.00     0.085 H 
ATOM     23  C2  1RO d   1       8.586  22.248  23.020  0.00  0.00    -0.061 A 
ATOM     24  H13 1RO d   1       7.564  21.959  22.802  0.00  0.00     0.086 H 
ENDBRANCH   7   9
ENDBRANCH   6   7
BRANCH   4  25
ATOM     25  N3  1RO d   1       5.056  20.175  18.493  0.00  0.00    -0.364 N 
ATOM     26  H1  1RO d   1       5.056  19.399  17.816  0.00  0.00     0.162 HD
BRANCH  25  27
ATOM     27  C18 1RO d   1       3.921  21.100  18.573  0.00  0.00     0.024 C 
ATOM     28  H2  1RO d   1       3.011  20.550  18.289  0.00  0.00     0.072 H 
ATOM     29  H3  1RO d   1       4.095  21.917  17.857  0.00  0.00     0.072 H 
BRANCH  27  30
ATOM     30  C19 1RO d   1       3.692  21.716  19.948  0.00  0.00     0.000 A 
ATOM     31  C23 1RO d   1       3.790  23.008  20.466  0.00  0.00    -0.068 A 
ATOM     32  C22 1RO d   1       3.482  23.088  21.833  0.00  0.00    -0.076 A 
ATOM     33  H4  1RO d   1       4.078  23.871  19.867  0.00  0.00     0.085 H 
ATOM     34  C21 1RO d   1       3.129  21.888  22.452  0.00  0.00    -0.044 A 
ATOM     35  H5  1RO d   1       3.516  24.030  22.378  0.00  0.00     0.084 H 
ATOM     36  S2  1RO d   1       3.209  20.660  21.230  0.00  0.00    -0.105 SA
ATOM     37  H6  1RO d   1       2.857  21.750  23.497  0.00  0.00     0.095 H 
ENDBRANCH  27  30
ENDBRANCH  25  27
ENDBRANCH   4  25
TORSDOF 5
