REMARK  5 active torsions:
REMARK  status: ('A' for Active; 'I' for Inactive)
REMARK    1  A    between atoms: C15_4  and  N3_5 
REMARK    2  A    between atoms: N3_5  and  C18_6 
REMARK    3  A    between atoms: C18_6  and  C19_7 
REMARK    4  A    between atoms: C12_13  and  C11_14 
REMARK    5  A    between atoms: C11_14  and  C1_15 
ROOT
ATOM      1  O1  1RO d   1      -7.151 -22.349  21.578  0.00  0.00    -0.270 OA
ATOM      2  C13 1RO d   1      -6.965 -21.273  20.929  0.00  0.00     0.260 A 
ATOM      3  N2  1RO d   1      -5.929 -21.222  20.092  0.00  0.00    -0.189 NA
ATOM      4  C15 1RO d   1      -5.893 -20.014  19.506  0.00  0.00     0.166 A 
ATOM      5  S1  1RO d   1      -7.171 -18.902  19.965  0.00  0.00    -0.077 SA
ATOM      6  C12 1RO d   1      -7.845 -20.089  21.048  0.00  0.00     0.081 A 
ATOM      7  H7  1RO d   1      -8.518 -20.469  20.265  0.00  0.00     0.072 H 
ENDROOT
BRANCH   6   8
ATOM      8  C11 1RO d   1      -9.051 -19.942  21.920  0.00  0.00    -0.021 C 
ATOM      9  H8  1RO d   1      -9.909 -19.717  21.270  0.00  0.00     0.042 H 
ATOM     10  H9  1RO d   1      -8.873 -19.095  22.599  0.00  0.00     0.042 H 
BRANCH   8  11
ATOM     11  C1  1RO d   1      -9.411 -21.127  22.755  0.00  0.00    -0.056 A 
ATOM     12  C6  1RO d   1     -10.734 -21.554  22.906  0.00  0.00    -0.075 A 
ATOM     13  C5  1RO d   1     -11.048 -22.680  23.683  0.00  0.00    -0.054 A 
ATOM     14  H10 1RO d   1     -11.530 -21.006  22.415  0.00  0.00     0.084 H 
ATOM     15  C4  1RO d   1     -10.041 -23.402  24.322  0.00  0.00     0.066 A 
ATOM     16  H11 1RO d   1     -12.081 -22.991  23.787  0.00  0.00     0.087 H 
ATOM     17  N1  1RO d   1     -10.294 -24.495  25.082  0.00  0.00    -0.260 NA
ATOM     18  C3  1RO d   1      -8.637 -22.955  24.162  0.00  0.00    -0.007 A 
ATOM     19  C9  1RO d   1      -9.295 -25.171  25.681  0.00  0.00     0.003 A 
ATOM     20  C8  1RO d   1      -7.960 -24.782  25.555  0.00  0.00    -0.065 A 
ATOM     21  H12 1RO d   1      -9.534 -26.043  26.279  0.00  0.00     0.114 H 
ATOM     22  C7  1RO d   1      -7.620 -23.665  24.791  0.00  0.00    -0.069 A 
ATOM     23  H13 1RO d   1      -7.183 -25.351  26.053  0.00  0.00     0.085 H 
ATOM     24  H14 1RO d   1      -6.585 -23.357  24.690  0.00  0.00     0.085 H 
ATOM     25  C2  1RO d   1      -8.382 -21.830  23.395  0.00  0.00    -0.065 A 
ATOM     26  H15 1RO d   1      -7.360 -21.485  23.287  0.00  0.00     0.085 H 
ENDBRANCH   8  11
ENDBRANCH   6   8
BRANCH   4  27
ATOM     27  N3  1RO d   1      -4.877 -19.797  18.645  0.00  0.00    -0.364 N 
ATOM     28  H1  1RO d   1      -4.975 -19.085  17.907  0.00  0.00     0.162 HD
BRANCH  27  29
ATOM     29  C18 1RO d   1      -3.632 -20.570  18.754  0.00  0.00     0.024 C 
ATOM     30  H2  1RO d   1      -2.790 -19.869  18.659  0.00  0.00     0.072 H 
ATOM     31  H3  1RO d   1      -3.607 -21.289  17.922  0.00  0.00     0.072 H 
BRANCH  29  32
ATOM     32  C19 1RO d   1      -3.449 -21.349  20.051  0.00  0.00     0.000 A 
ATOM     33  C23 1RO d   1      -3.557 -22.695  20.399  0.00  0.00    -0.068 A 
ATOM     34  C22 1RO d   1      -3.297 -22.952  21.756  0.00  0.00    -0.076 A 
ATOM     35  H4  1RO d   1      -3.819 -23.475  19.685  0.00  0.00     0.085 H 
ATOM     36  C21 1RO d   1      -2.970 -21.848  22.539  0.00  0.00    -0.044 A 
ATOM     37  H5  1RO d   1      -3.348 -23.957  22.172  0.00  0.00     0.084 H 
ATOM     38  S2  1RO d   1      -3.009 -20.478  21.481  0.00  0.00    -0.105 SA
ATOM     39  H6  1RO d   1      -2.737 -21.846  23.603  0.00  0.00     0.095 H 
ENDBRANCH  29  32
ENDBRANCH  27  29
ENDBRANCH   4  27
TORSDOF 5
