REMARK  8 active torsions:
REMARK  status: ('A' for Active; 'I' for Inactive)
REMARK    1  A    between atoms: C21_8  and  C23_6 
REMARK       I    between atoms: N2_25  and  C29_7 
REMARK       I    between atoms: N20_24  and  C21_8 
REMARK    2  A    between atoms: C17_18  and  C18_9 
REMARK       I    between atoms: C18_9  and  N20_24 
REMARK    3  A    between atoms: C4_22  and  C11_10 
REMARK       I    between atoms: C11_10  and  N13_23 
REMARK    4  A    between atoms: C5_20  and  C6_19 
REMARK    5  A    between atoms: C4_22  and  C5_20 
REMARK    6  A    between atoms: C3_21  and  C4_22 
REMARK    7  A    between atoms: C3_21  and  N2_25 
REMARK    8  A    between atoms: N2_25  and  O1_30 
ROOT
ATOM      1  C11 0S5 d   1      25.190  -5.304   4.757  0.00  0.00     0.226 C 
ATOM      2  C15 0S5 d   1      26.192  -8.770   4.405  0.00  0.00    -0.048 C 
ATOM      3  C16 0S5 d   1      24.819  -8.794   3.778  0.00  0.00    -0.036 C 
ATOM      4  C14 0S5 d   1      26.490  -7.393   4.955  0.00  0.00    -0.001 C 
ATOM      5  C17 0S5 d   1      24.310  -7.366   3.859  0.00  0.00     0.092 C 
ATOM      6  N13 0S5 d   1      25.278  -6.679   4.663  0.00  0.00    -0.338 N 
ATOM      7  O12 0S5 d   1      24.233  -4.709   4.295  0.00  0.00    -0.273 OA
ATOM      8  H11 0S5 d   1      26.944  -9.028   3.644  0.00  0.00     0.035 H 
ATOM      9  H12 0S5 d   1      26.231  -9.504   5.223  0.00  0.00     0.035 H 
ATOM     10  H13 0S5 d   1      24.154  -9.471   4.335  0.00  0.00     0.036 H 
ATOM     11  H14 0S5 d   1      24.881  -9.121   2.729  0.00  0.00     0.036 H 
ATOM     12  H19 0S5 d   1      27.353  -6.939   4.446  0.00  0.00     0.064 H 
ATOM     13  H20 0S5 d   1      26.680  -7.429   6.038  0.00  0.00     0.064 H 
ATOM     14  H21 0S5 d   1      24.208  -6.919   2.859  0.00  0.00     0.087 H 
ENDROOT
BRANCH   1  15
ATOM     15  C4  0S5 d   1      26.387  -4.678   5.384  0.00  0.00     0.042 C 
ATOM     16  H27 0S5 d   1      27.015  -5.455   5.844  0.00  0.00     0.057 H 
BRANCH  15  17
ATOM     17  C5  0S5 d   1      26.128  -3.558   6.433  0.00  0.00    -0.049 C 
ATOM     18  H23 0S5 d   1      27.079  -3.080   6.709  0.00  0.00     0.034 H 
ATOM     19  H24 0S5 d   1      25.447  -2.804   6.012  0.00  0.00     0.034 H 
BRANCH  17  20
ATOM     20  C6  0S5 d   1      25.503  -4.186   7.647  0.00  0.00    -0.053 C 
ATOM     21  C7  0S5 d   1      25.985  -5.432   8.278  0.00  0.00    -0.062 C 
ATOM     22  C8  0S5 d   1      25.037  -5.564   9.481  0.00  0.00    -0.065 C 
ATOM     23  H15 0S5 d   1      25.888  -6.290   7.596  0.00  0.00     0.033 H 
ATOM     24  H16 0S5 d   1      27.032  -5.338   8.602  0.00  0.00     0.033 H 
ATOM     25  C9  0S5 d   1      24.646  -4.152   9.890  0.00  0.00    -0.065 C 
ATOM     26  H7  0S5 d   1      24.142  -6.137   9.197  0.00  0.00     0.033 H 
ATOM     27  H8  0S5 d   1      25.549  -6.071  10.312  0.00  0.00     0.033 H 
ATOM     28  C10 0S5 d   1      25.194  -3.232   8.818  0.00  0.00    -0.062 C 
ATOM     29  H9  0S5 d   1      25.086  -3.903  10.867  0.00  0.00     0.033 H 
ATOM     30  H10 0S5 d   1      23.551  -4.061   9.947  0.00  0.00     0.033 H 
ATOM     31  H17 0S5 d   1      26.107  -2.726   9.164  0.00  0.00     0.033 H 
ATOM     32  H18 0S5 d   1      24.446  -2.480   8.525  0.00  0.00     0.033 H 
ATOM     33  H22 0S5 d   1      24.517  -4.473   7.253  0.00  0.00     0.040 H 
ENDBRANCH  17  20
ENDBRANCH  15  17
BRANCH  15  34
ATOM     34  C3  0S5 d   1      27.066  -4.040   4.194  0.00  0.00     0.034 C 
ATOM     35  H25 0S5 d   1      26.415  -3.245   3.802  0.00  0.00     0.069 H 
ATOM     36  H26 0S5 d   1      27.215  -4.808   3.420  0.00  0.00     0.069 H 
BRANCH  34  37
ATOM     37  N2  0S5 d   1      28.322  -3.477   4.520  0.00  0.00    -0.235 N 
ATOM     38  C29 0S5 d   1      28.582  -2.197   4.843  0.00  0.00     0.193 C 
ATOM     39  O30 0S5 d   1      29.721  -1.861   5.122  0.00  0.00    -0.281 OA
ATOM     40  H6  0S5 d   1      27.778  -1.463   4.855  0.00  0.00     0.183 H 
BRANCH  37  41
ATOM     41  O1  0S5 d   1      29.440  -4.317   4.669  0.00  0.00    -0.285 OA
ATOM     42  H29 0S5 d   1      30.202  -3.793   4.886  0.00  0.00     0.245 HD
ENDBRANCH  37  41
ENDBRANCH  34  37
ENDBRANCH  15  34
ENDBRANCH   1  15
BRANCH   5  43
ATOM     43  C18 0S5 d   1      23.005  -7.309   4.613  0.00  0.00     0.247 C 
ATOM     44  N20 0S5 d   1      21.950  -7.026   3.786  0.00  0.00    -0.292 N 
ATOM     45  C21 0S5 d   1      20.674  -6.849   4.243  0.00  0.00     0.258 C 
ATOM     46  H28 0S5 d   1      22.121  -6.945   2.804  0.00  0.00     0.172 HD
ATOM     47  O22 0S5 d   1      20.354  -6.678   5.407  0.00  0.00    -0.267 OA
ATOM     48  O19 0S5 d   1      22.924  -7.464   5.825  0.00  0.00    -0.271 OA
BRANCH  45  49
ATOM     49  C23 0S5 d   1      19.716  -6.723   3.147  0.00  0.00     0.032 A 
ATOM     50  C24 0S5 d   1      18.701  -5.812   3.338  0.00  0.00    -0.068 A 
ATOM     51  C25 0S5 d   1      17.787  -5.625   2.322  0.00  0.00    -0.082 A 
ATOM     52  H4  0S5 d   1      18.622  -5.255   4.265  0.00  0.00     0.085 H 
ATOM     53  C26 0S5 d   1      17.904  -6.380   1.169  0.00  0.00    -0.083 A 
ATOM     54  H2  0S5 d   1      16.990  -4.898   2.425  0.00  0.00     0.083 H 
ATOM     55  C27 0S5 d   1      18.920  -7.305   1.005  0.00  0.00    -0.082 A 
ATOM     56  H1  0S5 d   1      17.181  -6.244   0.373  0.00  0.00     0.083 H 
ATOM     57  C28 0S5 d   1      19.859  -7.488   1.996  0.00  0.00    -0.068 A 
ATOM     58  H3  0S5 d   1      18.977  -7.888   0.093  0.00  0.00     0.083 H 
ATOM     59  H5  0S5 d   1      20.672  -8.196   1.883  0.00  0.00     0.085 H 
ENDBRANCH  45  49
ENDBRANCH   5  43
TORSDOF 8
