REMARK WARNING: 32 MAX_TORS EXCEEDED!!!
REMARK  34 active torsions:
REMARK  status: ('A' for Active; 'I' for Inactive)
REMARK    1  A    between atoms: N_1  and  CA_2 
REMARK    2  A    between atoms: CA_2  and  C_3 
REMARK    3  A    between atoms: CA_2  and  CB_5 
REMARK       I    between atoms: C_3  and  N_9 
REMARK    4  A    between atoms: CB_5  and  CG_6 
REMARK       I    between atoms: CG_6  and  ND2_8 
REMARK    5  A    between atoms: N_9  and  CA_10 
REMARK    6  A    between atoms: CA_10  and  C_11 
REMARK    7  A    between atoms: CA_10  and  CB_13 
REMARK       I    between atoms: C_11  and  N_17 
REMARK    8  A    between atoms: CB_13  and  CG_14 
REMARK    9  A    between atoms: N_17  and  CA_18 
REMARK   10  A    between atoms: CA_18  and  C_19 
REMARK   11  A    between atoms: CA_18  and  CB_21 
REMARK       I    between atoms: C_19  and  N_31 
REMARK   12  A    between atoms: CB_21  and  CG_22 
REMARK   13  A    between atoms: N_31  and  CA_32 
REMARK   14  A    between atoms: CA_32  and  C_33 
REMARK   15  A    between atoms: CA_32  and  CB_35 
REMARK       I    between atoms: C_33  and  N_39 
REMARK   16  A    between atoms: CB_35  and  CG_36 
REMARK   17  A    between atoms: CG_36  and  CD1_37 
REMARK   18  A    between atoms: CG_36  and  CD2_38 
REMARK   19  A    between atoms: N_39  and  CA_40 
REMARK   20  A    between atoms: CA_40  and  C_41 
REMARK   21  A    between atoms: CA_40  and  CB_43 
REMARK       I    between atoms: C_41  and  N_47 
REMARK   22  A    between atoms: CB_43  and  CG_44 
REMARK   23  A    between atoms: CG_44  and  CD1_45 
REMARK   24  A    between atoms: CG_44  and  CD2_46 
REMARK   25  A    between atoms: CA_48  and  C_49 
REMARK       I    between atoms: C_49  and  N_54 
REMARK   26  A    between atoms: N_54  and  CA_55 
REMARK   27  A    between atoms: CA_55  and  C_56 
REMARK   28  A    between atoms: CA_55  and  CB_58 
REMARK       I    between atoms: C_56  and  N_60 
REMARK   29  A    between atoms: CB_58  and  OG_59 
REMARK   30  A    between atoms: N_60  and  CA_61 
REMARK   31  A    between atoms: CA_61  and  C_62 
REMARK   32  A    between atoms: CA_61  and  CB_64 
REMARK   33  A    between atoms: CB_64  and  CG_65 
REMARK   34  A    between atoms: CZ_70  and  OH_71 
ROOT
ATOM      1  CA  LEU d   1       5.160 -32.916  37.191  0.00  0.00     0.089 C 
ATOM      2  H24 LEU d   1       5.420 -33.953  37.451  0.00  0.00     0.087 H 
ENDROOT
BRANCH   1   3
ATOM      3  N   LEU d   1       5.456 -32.702  35.780  0.00  0.00    -0.346 N 
ATOM      4  C   TRP d   1       5.414 -33.694  34.893  0.00  0.00     0.241 C 
ATOM      5  O   TRP d   1       5.298 -34.872  35.213  0.00  0.00    -0.271 OA
ATOM      6  H23 LEU d   1       5.698 -31.783  35.469  0.00  0.00     0.163 HD
BRANCH   4   7
ATOM      7  CA  TRP d   1       5.475 -33.309  33.451  0.00  0.00     0.093 C 
ATOM      8  H14 TRP d   1       5.912 -32.304  33.355  0.00  0.00     0.088 H 
BRANCH   7   9
ATOM      9  N   TRP d   1       6.273 -34.247  32.677  0.00  0.00    -0.346 N 
ATOM     10  C   ASP d   1       7.241 -33.878  31.840  0.00  0.00     0.241 C 
ATOM     11  O   ASP d   1       7.558 -32.708  31.628  0.00  0.00    -0.271 OA
ATOM     12  H13 TRP d   1       6.084 -35.224  32.779  0.00  0.00     0.163 HD
BRANCH  10  13
ATOM     13  CA  ASP d   1       7.991 -35.014  31.155  0.00  0.00     0.098 C 
ATOM     14  H10 ASP d   1       7.430 -35.944  31.330  0.00  0.00     0.088 H 
BRANCH  13  15
ATOM     15  N   ASP d   1       8.111 -34.830  29.705  0.00  0.00    -0.345 N 
ATOM     16  C   ASN d   1       7.315 -35.454  28.828  0.00  0.00     0.249 C 
ATOM     17  O   ASN d   1       6.304 -36.088  29.159  0.00  0.00    -0.271 OA
ATOM     18  H9  ASP d   1       8.817 -34.213  29.357  0.00  0.00     0.163 HD
BRANCH  16  19
ATOM     19  CA  ASN d   1       7.682 -35.313  27.343  0.00  0.00     0.183 C 
ATOM     20  H4  ASN d   1       7.008 -34.557  26.914  0.00  0.00     0.099 H 
BRANCH  19  21
ATOM     21  N   ASN d   1       9.081 -34.832  27.127  0.00  0.00    -0.066 N 
ATOM     22  H1  ASN d   1       9.262 -34.760  26.138  0.00  0.00     0.275 HD
ATOM     23  H2  ASN d   1       9.728 -35.485  27.541  0.00  0.00     0.275 HD
ATOM     24  H3  ASN d   1       9.195 -33.927  27.557  0.00  0.00     0.275 HD
ENDBRANCH  19  21
BRANCH  19  25
ATOM     25  CB  ASN d   1       7.440 -36.639  26.585  0.00  0.00     0.044 C 
ATOM     26  H5  ASN d   1       7.566 -36.453  25.508  0.00  0.00     0.051 H 
ATOM     27  H6  ASN d   1       6.409 -36.970  26.781  0.00  0.00     0.051 H 
BRANCH  25  28
ATOM     28  CG  ASN d   1       8.396 -37.760  26.999  0.00  0.00     0.217 C 
ATOM     29  OD1 ASN d   1       9.231 -37.605  27.895  0.00  0.00    -0.274 OA
ATOM     30  ND2 ASN d   1       8.270 -38.904  26.338  0.00  0.00    -0.370 N 
ATOM     31  H7  ASN d   1       8.864 -39.677  26.559  0.00  0.00     0.159 HD
ATOM     32  H8  ASN d   1       7.581 -38.993  25.619  0.00  0.00     0.159 HD
ENDBRANCH  25  28
ENDBRANCH  19  25
ENDBRANCH  16  19
ENDBRANCH  13  15
BRANCH  13  33
ATOM     33  CB  ASP d   1       9.379 -35.157  31.787  0.00  0.00     0.043 C 
ATOM     34  H11 ASP d   1       9.291 -34.988  32.870  0.00  0.00     0.052 H 
ATOM     35  H12 ASP d   1      10.044 -34.398  31.350  0.00  0.00     0.052 H 
BRANCH  33  36
ATOM     36  CG  ASP d   1       9.991 -36.530  31.557  0.00  0.00     0.175 C 
ATOM     37  OD1 ASP d   1       9.792 -37.099  30.467  0.00  0.00    -0.648 OA
ATOM     38  OD2 ASP d   1      10.672 -37.046  32.473  0.00  0.00    -0.648 OA
ENDBRANCH  33  36
ENDBRANCH  13  33
ENDBRANCH  10  13
ENDBRANCH   7   9
BRANCH   7  39
ATOM     39  CB  TRP d   1       4.045 -33.302  32.942  0.00  0.00    -0.012 C 
ATOM     40  H15 TRP d   1       3.481 -32.555  33.520  0.00  0.00     0.044 H 
ATOM     41  H16 TRP d   1       3.616 -34.300  33.115  0.00  0.00     0.044 H 
BRANCH  39  42
ATOM     42  CG  TRP d   1       3.892 -32.977  31.490  0.00  0.00    -0.028 A 
ATOM     43  CD1 TRP d   1       3.938 -33.857  30.417  0.00  0.00    -0.015 A 
ATOM     44  NE1 TRP d   1       3.741 -33.193  29.231  0.00  0.00    -0.365 N 
ATOM     45  H17 TRP d   1       4.107 -34.929  30.504  0.00  0.00     0.112 H 
ATOM     46  CE2 TRP d   1       3.543 -31.876  29.449  0.00  0.00     0.042 A 
ATOM     47  H18 TRP d   1       3.744 -33.639  28.303  0.00  0.00     0.165 HD
ATOM     48  CD2 TRP d   1       3.624 -31.662  30.897  0.00  0.00    -0.002 A 
ATOM     49  CZ2 TRP d   1       3.305 -30.838  28.565  0.00  0.00    -0.056 A 
ATOM     50  CE3 TRP d   1       3.452 -30.380  31.399  0.00  0.00    -0.070 A 
ATOM     51  CZ3 TRP d   1       3.214 -29.343  30.502  0.00  0.00    -0.082 A 
ATOM     52  H19 TRP d   1       3.502 -30.191  32.465  0.00  0.00     0.084 H 
ATOM     53  CH2 TRP d   1       3.139 -29.570  29.115  0.00  0.00    -0.081 A 
ATOM     54  H21 TRP d   1       3.083 -28.336  30.881  0.00  0.00     0.083 H 
ATOM     55  H22 TRP d   1       2.946 -28.732  28.455  0.00  0.00     0.083 H 
ATOM     56  H20 TRP d   1       3.251 -31.005  27.495  0.00  0.00     0.086 H 
ENDBRANCH  39  42
ENDBRANCH   7  39
ENDBRANCH   4   7
ENDBRANCH   1   3
BRANCH   1  57
ATOM     57  C   LEU d   1       3.670 -32.700  37.455  0.00  0.00     0.241 C 
ATOM     58  O   LEU d   1       3.068 -31.721  36.985  0.00  0.00    -0.271 OA
ATOM     59  N   LEU d   1       3.087 -33.615  38.226  0.00  0.00    -0.346 N 
ATOM     60  H34 LEU d   1       3.652 -34.347  38.605  0.00  0.00     0.163 HD
BRANCH  59  61
ATOM     61  CA  LEU d   1       1.675 -33.602  38.543  0.00  0.00     0.090 C 
ATOM     62  H35 LEU d   1       1.193 -32.794  37.973  0.00  0.00     0.087 H 
BRANCH  61  63
ATOM     63  C   LEU d   1       1.461 -33.350  40.030  0.00  0.00     0.243 C 
ATOM     64  O   LEU d   1       1.444 -34.283  40.831  0.00  0.00    -0.271 OA
ATOM     65  N   PRO d   1       1.275 -32.080  40.409  0.00  0.00    -0.337 N 
ATOM     66  CA  PRO d   1       1.127 -31.751  41.803  0.00  0.00     0.091 C 
ATOM     67  CD  PRO d   1       1.060 -30.910  39.546  0.00  0.00    -0.001 C 
ATOM     68  CB  PRO d   1       1.274 -30.234  41.801  0.00  0.00    -0.036 C 
ATOM     69  H45 PRO d   1       1.924 -32.223  42.397  0.00  0.00     0.087 H 
ATOM     70  CG  PRO d   1       0.704 -29.824  40.503  0.00  0.00    -0.048 C 
ATOM     71  H46 PRO d   1       2.332 -29.943  41.873  0.00  0.00     0.036 H 
ATOM     72  H47 PRO d   1       0.713 -29.785  42.634  0.00  0.00     0.036 H 
ATOM     73  H48 PRO d   1       1.140 -28.868  40.178  0.00  0.00     0.035 H 
ATOM     74  H49 PRO d   1      -0.389 -29.722  40.579  0.00  0.00     0.035 H 
ATOM     75  H50 PRO d   1       0.239 -31.092  38.836  0.00  0.00     0.064 H 
ATOM     76  H51 PRO d   1       1.976 -30.659  38.991  0.00  0.00     0.064 H 
BRANCH  66  77
ATOM     77  C   PRO d   1      -0.214 -32.162  42.371  0.00  0.00     0.241 C 
ATOM     78  O   PRO d   1      -1.199 -32.250  41.643  0.00  0.00    -0.271 OA
ATOM     79  N   SER d   1      -0.238 -32.405  43.676  0.00  0.00    -0.344 N 
ATOM     80  H52 SER d   1       0.611 -32.303  44.195  0.00  0.00     0.163 HD
BRANCH  79  81
ATOM     81  CA  SER d   1      -1.446 -32.814  44.390  0.00  0.00     0.109 C 
ATOM     82  H53 SER d   1      -2.323 -32.494  43.809  0.00  0.00     0.090 H 
BRANCH  81  83
ATOM     83  C   SER d   1      -1.504 -32.156  45.770  0.00  0.00     0.243 C 
ATOM     84  O   SER d   1      -0.530 -31.535  46.218  0.00  0.00    -0.271 OA
ATOM     85  N   TYR d   1      -2.624 -32.370  46.461  0.00  0.00    -0.344 N 
ATOM     86  H57 TYR d   1      -3.226 -33.113  46.170  0.00  0.00     0.163 HD
BRANCH  85  87
ATOM     87  CA  TYR d   1      -3.018 -31.570  47.627  0.00  0.00     0.100 C 
ATOM     88  H58 TYR d   1      -2.486 -30.609  47.577  0.00  0.00     0.090 H 
BRANCH  87  89
ATOM     89  C   TYR d   1      -2.663 -32.244  48.960  0.00  0.00     0.197 C 
ATOM     90  O   TYR d   1      -1.496 -32.310  49.342  0.00  0.00    -0.646 OA
ATOM     91  OXT TYR d   1      -3.522 -32.732  49.701  0.00  0.00    -0.646 OA
ENDBRANCH  87  89
BRANCH  87  92
ATOM     92  CB  TYR d   1      -4.524 -31.302  47.578  0.00  0.00    -0.013 C 
ATOM     93  H59 TYR d   1      -4.779 -30.631  48.411  0.00  0.00     0.043 H 
ATOM     94  H60 TYR d   1      -5.046 -32.261  47.707  0.00  0.00     0.043 H 
BRANCH  92  95
ATOM     95  CG  TYR d   1      -5.018 -30.666  46.292  0.00  0.00    -0.056 A 
ATOM     96  CD1 TYR d   1      -5.016 -31.371  45.084  0.00  0.00    -0.074 A 
ATOM     97  CE1 TYR d   1      -5.472 -30.792  43.915  0.00  0.00    -0.051 A 
ATOM     98  H61 TYR d   1      -4.650 -32.391  45.064  0.00  0.00     0.084 H 
ATOM     99  CZ  TYR d   1      -5.951 -29.497  43.941  0.00  0.00     0.065 A 
ATOM    100  H63 TYR d   1      -5.454 -31.350  42.986  0.00  0.00     0.087 H 
ATOM    101  CE2 TYR d   1      -5.973 -28.779  45.121  0.00  0.00    -0.051 A 
ATOM    102  CD2 TYR d   1      -5.511 -29.363  46.287  0.00  0.00    -0.074 A 
ATOM    103  H64 TYR d   1      -6.350 -27.763  45.133  0.00  0.00     0.087 H 
ATOM    104  H62 TYR d   1      -5.533 -28.798  47.212  0.00  0.00     0.084 H 
BRANCH  99 105
ATOM    105  OH  TYR d   1      -6.417 -28.919  42.787  0.00  0.00    -0.361 OA
ATOM    106  H65 TYR d   1      -6.335 -29.536  42.069  0.00  0.00     0.217 HD
ENDBRANCH  99 105
ENDBRANCH  92  95
ENDBRANCH  87  92
ENDBRANCH  85  87
ENDBRANCH  81  83
BRANCH  81 107
ATOM    107  CB  SER d   1      -1.483 -34.331  44.540  0.00  0.00     0.044 C 
ATOM    108  H54 SER d   1      -0.605 -34.658  45.116  0.00  0.00     0.077 H 
ATOM    109  H55 SER d   1      -1.460 -34.793  43.542  0.00  0.00     0.077 H 
BRANCH 107 110
ATOM    110  OG  SER d   1      -2.660 -34.742  45.215  0.00  0.00    -0.398 OA
ATOM    111  H56 SER d   1      -2.662 -35.688  45.297  0.00  0.00     0.209 HD
ENDBRANCH 107 110
ENDBRANCH  81 107
ENDBRANCH  79  81
ENDBRANCH  66  77
ENDBRANCH  61  63
BRANCH  61 112
ATOM    112  CB  LEU d   1       1.036 -34.934  38.152  0.00  0.00    -0.035 C 
ATOM    113  H36 LEU d   1       0.156 -35.076  38.796  0.00  0.00     0.037 H 
ATOM    114  H37 LEU d   1       1.773 -35.724  38.359  0.00  0.00     0.037 H 
BRANCH 112 115
ATOM    115  CG  LEU d   1       0.577 -35.111  36.716  0.00  0.00    -0.059 C 
ATOM    116  H38 LEU d   1      -0.348 -34.532  36.580  0.00  0.00     0.038 H 
BRANCH 115 117
ATOM    117  CD1 LEU d   1       1.591 -34.600  35.712  0.00  0.00    -0.073 C 
ATOM    118  H39 LEU d   1       1.207 -34.753  34.693  0.00  0.00     0.028 H 
ATOM    119  H40 LEU d   1       2.537 -35.149  35.834  0.00  0.00     0.028 H 
ATOM    120  H41 LEU d   1       1.765 -33.527  35.881  0.00  0.00     0.028 H 
ENDBRANCH 115 117
BRANCH 115 121
ATOM    121  CD2 LEU d   1       0.264 -36.578  36.475  0.00  0.00    -0.073 C 
ATOM    122  H42 LEU d   1      -0.473 -36.922  37.216  0.00  0.00     0.028 H 
ATOM    123  H43 LEU d   1       1.186 -37.170  36.572  0.00  0.00     0.028 H 
ATOM    124  H44 LEU d   1      -0.148 -36.704  35.463  0.00  0.00     0.028 H 
ENDBRANCH 115 121
ENDBRANCH 112 115
ENDBRANCH  61 112
ENDBRANCH  59  61
ENDBRANCH   1  57
BRANCH   1 125
ATOM    125  CB  LEU d   1       5.984 -31.968  38.069  0.00  0.00    -0.035 C 
ATOM    126  H25 LEU d   1       5.606 -32.054  39.098  0.00  0.00     0.037 H 
ATOM    127  H26 LEU d   1       5.818 -30.945  37.701  0.00  0.00     0.037 H 
BRANCH 125 128
ATOM    128  CG  LEU d   1       7.499 -32.208  38.109  0.00  0.00    -0.059 C 
ATOM    129  H27 LEU d   1       7.971 -31.439  37.480  0.00  0.00     0.038 H 
BRANCH 128 130
ATOM    130  CD1 LEU d   1       8.067 -32.101  39.533  0.00  0.00    -0.073 C 
ATOM    131  H28 LEU d   1       9.152 -32.280  39.509  0.00  0.00     0.028 H 
ATOM    132  H29 LEU d   1       7.585 -32.851  40.177  0.00  0.00     0.028 H 
ATOM    133  H30 LEU d   1       7.870 -31.095  39.932  0.00  0.00     0.028 H 
ENDBRANCH 128 130
BRANCH 128 134
ATOM    134  CD2 LEU d   1       7.910 -33.590  37.584  0.00  0.00    -0.073 C 
ATOM    135  H31 LEU d   1       7.528 -33.722  36.561  0.00  0.00     0.028 H 
ATOM    136  H32 LEU d   1       7.490 -34.370  38.236  0.00  0.00     0.028 H 
ATOM    137  H33 LEU d   1       9.007 -33.669  37.578  0.00  0.00     0.028 H 
ENDBRANCH 128 134
ENDBRANCH 125 128
ENDBRANCH   1 125
TORSDOF 34
