REMARK  31 active torsions:
REMARK  status: ('A' for Active; 'I' for Inactive)
REMARK    1  A    between atoms: N_1  and  CA_2 
REMARK    2  A    between atoms: CA_2  and  C_3 
REMARK    3  A    between atoms: CA_2  and  CB_5 
REMARK       I    between atoms: C_3  and  N_6 
REMARK    4  A    between atoms: N_6  and  CA_7 
REMARK    5  A    between atoms: CA_7  and  C_8 
REMARK    6  A    between atoms: CA_7  and  CB_10 
REMARK       I    between atoms: C_8  and  N_15 
REMARK    7  A    between atoms: CB_10  and  CG_11 
REMARK    8  A    between atoms: CG_11  and  CD_12 
REMARK    9  A    between atoms: N_15  and  CA_16 
REMARK   10  A    between atoms: CA_16  and  C_17 
REMARK   11  A    between atoms: CA_16  and  CB_19 
REMARK       I    between atoms: C_17  and  N_22 
REMARK   12  A    between atoms: CB_19  and  OG1_20 
REMARK   13  A    between atoms: CB_19  and  CG2_21 
REMARK   14  A    between atoms: N_22  and  CA_23 
REMARK   15  A    between atoms: CA_23  and  C_24 
REMARK   16  A    between atoms: CA_23  and  CB_26 
REMARK       I    between atoms: C_24  and  N_33 
REMARK   17  A    between atoms: CB_26  and  CG_27 
REMARK   18  A    between atoms: N_33  and  CA_34 
REMARK   19  A    between atoms: CA_34  and  C_35 
REMARK   20  A    between atoms: CA_34  and  CB_37 
REMARK       I    between atoms: C_35  and  N_45 
REMARK   21  A    between atoms: CB_37  and  CG_38 
REMARK   22  A    between atoms: CZ_43  and  OH_44 
REMARK   23  A    between atoms: N_45  and  CA_46 
REMARK   24  A    between atoms: CA_46  and  C_47 
REMARK   25  A    between atoms: CA_46  and  CB_49 
REMARK       I    between atoms: C_47  and  N_52 
REMARK   26  A    between atoms: CB_49  and  CG1_50 
REMARK   27  A    between atoms: CB_49  and  CG2_51 
REMARK   28  A    between atoms: N_52  and  CA_53 
REMARK   29  A    between atoms: CA_53  and  C_54 
REMARK   30  A    between atoms: CA_53  and  CB_56 
REMARK   31  A    between atoms: CB_56  and  CG_57 
ROOT
ATOM      1  CA  PHE d   1      19.959  29.689  13.136  0.00  0.00     0.093 C 
ATOM      2  H22 PHE d   1      19.968  30.566  12.472  0.00  0.00     0.088 H 
ENDROOT
BRANCH   1   3
ATOM      3  N   PHE d   1      20.897  28.748  12.657  0.00  0.00    -0.346 N 
ATOM      4  C   THR d   1      21.904  29.197  11.950  0.00  0.00     0.243 C 
ATOM      5  O   THR d   1      21.966  30.364  11.555  0.00  0.00    -0.271 OA
ATOM      6  H21 PHE d   1      20.796  27.772  12.851  0.00  0.00     0.163 HD
BRANCH   4   7
ATOM      7  CA  THR d   1      22.937  28.174  11.582  0.00  0.00     0.113 C 
ATOM      8  H15 THR d   1      22.978  27.386  12.349  0.00  0.00     0.091 H 
BRANCH   7   9
ATOM      9  N   THR d   1      22.536  27.621  10.330  0.00  0.00    -0.344 N 
ATOM     10  C   GLU d   1      22.502  26.325  10.115  0.00  0.00     0.241 C 
ATOM     11  O   GLU d   1      22.483  25.463  11.004  0.00  0.00    -0.271 OA
ATOM     12  H14 THR d   1      22.272  28.240   9.591  0.00  0.00     0.163 HD
BRANCH  10  13
ATOM     13  CA  GLU d   1      22.473  25.989   8.663  0.00  0.00     0.090 C 
ATOM     14  H9  GLU d   1      22.828  26.878   8.122  0.00  0.00     0.087 H 
BRANCH  13  15
ATOM     15  N   GLU d   1      23.357  24.914   8.313  0.00  0.00    -0.346 N 
ATOM     16  C   ALA d   1      24.304  25.113   7.405  0.00  0.00     0.248 C 
ATOM     17  O   ALA d   1      24.428  26.186   6.796  0.00  0.00    -0.271 OA
ATOM     18  H8  GLU d   1      23.260  24.020   8.751  0.00  0.00     0.163 HD
BRANCH  16  19
ATOM     19  CA  ALA d   1      25.263  23.937   7.179  0.00  0.00     0.172 C 
ATOM     20  H4  ALA d   1      26.273  24.234   7.499  0.00  0.00     0.098 H 
BRANCH  19  21
ATOM     21  N   ALA d   1      24.811  22.787   7.998  0.00  0.00    -0.067 N 
ATOM     22  H1  ALA d   1      25.435  22.008   7.857  0.00  0.00     0.275 HD
ATOM     23  H2  ALA d   1      23.878  22.524   7.722  0.00  0.00     0.275 HD
ATOM     24  H3  ALA d   1      24.813  23.047   8.972  0.00  0.00     0.275 HD
ENDBRANCH  19  21
BRANCH  19  25
ATOM     25  CB  ALA d   1      25.313  23.542   5.714  0.00  0.00    -0.042 C 
ATOM     26  H5  ALA d   1      25.649  24.401   5.114  0.00  0.00     0.030 H 
ATOM     27  H6  ALA d   1      24.310  23.233   5.383  0.00  0.00     0.030 H 
ATOM     28  H7  ALA d   1      26.016  22.706   5.583  0.00  0.00     0.030 H 
ENDBRANCH  19  25
ENDBRANCH  16  19
ENDBRANCH  13  15
BRANCH  13  29
ATOM     29  CB  GLU d   1      21.059  25.725   8.205  0.00  0.00    -0.029 C 
ATOM     30  H10 GLU d   1      20.361  26.162   8.934  0.00  0.00     0.037 H 
ATOM     31  H11 GLU d   1      20.900  24.638   8.151  0.00  0.00     0.037 H 
BRANCH  29  32
ATOM     32  CG  GLU d   1      20.787  26.324   6.852  0.00  0.00     0.018 C 
ATOM     33  H12 GLU d   1      21.491  27.152   6.681  0.00  0.00     0.049 H 
ATOM     34  H13 GLU d   1      19.757  26.709   6.834  0.00  0.00     0.049 H 
BRANCH  32  35
ATOM     35  CD  GLU d   1      20.949  25.312   5.748  0.00  0.00     0.172 C 
ATOM     36  OE1 GLU d   1      21.396  24.182   6.052  0.00  0.00    -0.648 OA
ATOM     37  OE2 GLU d   1      20.646  25.651   4.580  0.00  0.00    -0.648 OA
ENDBRANCH  32  35
ENDBRANCH  29  32
ENDBRANCH  13  29
ENDBRANCH  10  13
ENDBRANCH   7   9
BRANCH   7  38
ATOM     38  CB  THR d   1      24.314  28.826  11.451  0.00  0.00     0.060 C 
ATOM     39  H16 THR d   1      24.257  29.630  10.703  0.00  0.00     0.086 H 
BRANCH  38  40
ATOM     40  OG1 THR d   1      25.259  27.839  11.005  0.00  0.00    -0.393 OA
ATOM     41  H17 THR d   1      26.117  28.238  10.922  0.00  0.00     0.210 HD
ENDBRANCH  38  40
BRANCH  38  42
ATOM     42  CG2 THR d   1      24.763  29.430  12.780  0.00  0.00    -0.050 C 
ATOM     43  H18 THR d   1      25.754  29.891  12.657  0.00  0.00     0.031 H 
ATOM     44  H19 THR d   1      24.819  28.639  13.542  0.00  0.00     0.031 H 
ATOM     45  H20 THR d   1      24.040  30.195  13.098  0.00  0.00     0.031 H 
ENDBRANCH  38  42
ENDBRANCH   7  38
ENDBRANCH   4   7
ENDBRANCH   1   3
BRANCH   1  46
ATOM     46  C   PHE d   1      20.480  30.166  14.509  0.00  0.00     0.241 C 
ATOM     47  O   PHE d   1      21.574  29.795  14.946  0.00  0.00    -0.271 OA
ATOM     48  N   TYR d   1      19.737  31.046  15.128  0.00  0.00    -0.346 N 
ATOM     49  H30 TYR d   1      18.744  30.944  15.061  0.00  0.00     0.163 HD
BRANCH  48  50
ATOM     50  CA  TYR d   1      20.250  32.168  15.911  0.00  0.00     0.093 C 
ATOM     51  H31 TYR d   1      20.004  32.013  16.972  0.00  0.00     0.088 H 
BRANCH  50  52
ATOM     52  C   TYR d   1      19.454  33.295  15.339  0.00  0.00     0.241 C 
ATOM     53  O   TYR d   1      19.518  33.611  14.133  0.00  0.00    -0.271 OA
ATOM     54  N   VAL d   1      18.549  33.758  16.167  0.00  0.00    -0.346 N 
ATOM     55  H39 VAL d   1      18.312  33.240  16.989  0.00  0.00     0.163 HD
BRANCH  54  56
ATOM     56  CA  VAL d   1      17.913  34.980  15.900  0.00  0.00     0.092 C 
ATOM     57  H40 VAL d   1      18.481  35.461  15.090  0.00  0.00     0.088 H 
BRANCH  56  58
ATOM     58  C   VAL d   1      18.035  35.903  17.099  0.00  0.00     0.241 C 
ATOM     59  O   VAL d   1      17.878  35.527  18.274  0.00  0.00    -0.271 OA
ATOM     60  N   ASP d   1      18.593  37.042  16.743  0.00  0.00    -0.344 N 
ATOM     61  H48 ASP d   1      19.055  37.065  15.857  0.00  0.00     0.163 HD
BRANCH  60  62
ATOM     62  CA  ASP d   1      18.597  38.251  17.512  0.00  0.00     0.105 C 
ATOM     63  H49 ASP d   1      19.213  38.138  18.416  0.00  0.00     0.090 H 
BRANCH  62  64
ATOM     64  C   ASP d   1      17.170  38.635  17.895  0.00  0.00     0.197 C 
ATOM     65  O   ASP d   1      16.407  39.162  17.042  0.00  0.00    -0.646 OA
ATOM     66  O   ASP d   1      16.755  38.425  19.066  0.00  0.00    -0.646 OA
ENDBRANCH  62  64
BRANCH  62  67
ATOM     67  CB  ASP d   1      19.174  39.313  16.589  0.00  0.00     0.044 C 
ATOM     68  H50 ASP d   1      18.355  39.964  16.248  0.00  0.00     0.053 H 
ATOM     69  H51 ASP d   1      19.630  38.813  15.722  0.00  0.00     0.053 H 
BRANCH  67  70
ATOM     70  CG  ASP d   1      20.211  40.160  17.250  0.00  0.00     0.175 C 
ATOM     71  OD1 ASP d   1      21.006  39.614  18.042  0.00  0.00    -0.648 OA
ATOM     72  OD2 ASP d   1      20.265  41.367  16.927  0.00  0.00    -0.648 OA
ENDBRANCH  67  70
ENDBRANCH  62  67
ENDBRANCH  60  62
ENDBRANCH  56  58
BRANCH  56  73
ATOM     73  CB  VAL d   1      16.486  34.783  15.342  0.00  0.00    -0.033 C 
ATOM     74  H41 VAL d   1      16.502  35.081  14.283  0.00  0.00     0.042 H 
BRANCH  73  75
ATOM     75  CG1 VAL d   1      16.085  33.311  15.389  0.00  0.00    -0.071 C 
ATOM     76  H42 VAL d   1      15.067  33.195  14.988  0.00  0.00     0.028 H 
ATOM     77  H43 VAL d   1      16.111  32.957  16.430  0.00  0.00     0.028 H 
ATOM     78  H44 VAL d   1      16.788  32.720  14.783  0.00  0.00     0.028 H 
ENDBRANCH  73  75
BRANCH  73  79
ATOM     79  CG2 VAL d   1      15.488  35.688  16.045  0.00  0.00    -0.071 C 
ATOM     80  H45 VAL d   1      15.829  36.732  15.978  0.00  0.00     0.028 H 
ATOM     81  H46 VAL d   1      15.409  35.395  17.102  0.00  0.00     0.028 H 
ATOM     82  H47 VAL d   1      14.504  35.593  15.563  0.00  0.00     0.028 H 
ENDBRANCH  73  79
ENDBRANCH  56  73
ENDBRANCH  54  56
ENDBRANCH  50  52
BRANCH  50  83
ATOM     83  CB  TYR d   1      21.768  32.480  15.825  0.00  0.00    -0.014 C 
ATOM     84  H32 TYR d   1      22.086  32.403  14.775  0.00  0.00     0.043 H 
ATOM     85  H33 TYR d   1      22.316  31.741  16.429  0.00  0.00     0.043 H 
BRANCH  83  86
ATOM     86  CG  TYR d   1      22.109  33.901  16.346  0.00  0.00    -0.056 A 
ATOM     87  CD1 TYR d   1      22.048  34.209  17.709  0.00  0.00    -0.074 A 
ATOM     88  CE1 TYR d   1      22.297  35.498  18.171  0.00  0.00    -0.051 A 
ATOM     89  H34 TYR d   1      21.802  33.428  18.420  0.00  0.00     0.084 H 
ATOM     90  CZ  TYR d   1      22.610  36.506  17.274  0.00  0.00     0.065 A 
ATOM     91  H36 TYR d   1      22.246  35.713  19.232  0.00  0.00     0.087 H 
ATOM     92  CE2 TYR d   1      22.681  36.230  15.927  0.00  0.00    -0.051 A 
ATOM     93  CD2 TYR d   1      22.421  34.939  15.466  0.00  0.00    -0.074 A 
ATOM     94  H37 TYR d   1      22.939  37.015  15.225  0.00  0.00     0.087 H 
ATOM     95  H35 TYR d   1      22.462  34.738  14.402  0.00  0.00     0.084 H 
BRANCH  90  96
ATOM     96  OH  TYR d   1      22.890  37.784  17.732  0.00  0.00    -0.361 OA
ATOM     97  H38 TYR d   1      22.285  38.400  17.337  0.00  0.00     0.217 HD
ENDBRANCH  90  96
ENDBRANCH  83  86
ENDBRANCH  50  83
ENDBRANCH  48  50
ENDBRANCH   1  46
BRANCH   1  98
ATOM     98  CB  PHE d   1      18.544  29.092  13.039  0.00  0.00    -0.014 C 
ATOM     99  H23 PHE d   1      17.813  29.914  13.038  0.00  0.00     0.043 H 
ATOM    100  H24 PHE d   1      18.371  28.449  13.915  0.00  0.00     0.043 H 
BRANCH  98 101
ATOM    101  CG  PHE d   1      18.348  28.260  11.774  0.00  0.00    -0.056 A 
ATOM    102  CD1 PHE d   1      18.295  28.862  10.516  0.00  0.00    -0.077 A 
ATOM    103  CE1 PHE d   1      18.184  28.095   9.357  0.00  0.00    -0.082 A 
ATOM    104  H25 PHE d   1      18.341  29.942  10.439  0.00  0.00     0.084 H 
ATOM    105  CZ  PHE d   1      18.163  26.714   9.444  0.00  0.00    -0.083 A 
ATOM    106  H27 PHE d   1      18.114  28.579   8.390  0.00  0.00     0.083 H 
ATOM    107  CE2 PHE d   1      18.257  26.106  10.682  0.00  0.00    -0.082 A 
ATOM    108  H29 PHE d   1      18.073  26.113   8.547  0.00  0.00     0.083 H 
ATOM    109  CD2 PHE d   1      18.368  26.874  11.831  0.00  0.00    -0.077 A 
ATOM    110  H28 PHE d   1      18.244  25.024  10.755  0.00  0.00     0.083 H 
ATOM    111  H26 PHE d   1      18.472  26.382  12.791  0.00  0.00     0.084 H 
ENDBRANCH  98 101
ENDBRANCH   1  98
TORSDOF 31
