REMARK  7 active torsions:
REMARK  status: ('A' for Active; 'I' for Inactive)
REMARK    1  A    between atoms: C25_2  and  C26_1 
REMARK    2  A    between atoms: N21_3  and  C25_2 
REMARK    3  A    between atoms: C31_9  and  C37_10 
REMARK    4  A    between atoms: C28_17  and  C23_18 
REMARK    5  A    between atoms: N14_26  and  C8_27 
REMARK    6  A    between atoms: C11_30  and  N3_33 
REMARK    7  A    between atoms: N6_37  and  C7_38 
ROOT
ATOM      1  N21 XR1 d   1      13.718  34.673 -15.044  0.00  0.00    -0.297 N 
ATOM      2  C22 XR1 d   1      12.335  34.777 -14.607  0.00  0.00     0.260 A 
ATOM      3  O27 XR1 d   1      11.407  34.894 -15.394  0.00  0.00    -0.267 OA
ATOM      4  C23 XR1 d   1      12.090  34.703 -13.106  0.00  0.00     0.045 A 
ATOM      5  C24 XR1 d   1      13.095  34.610 -12.207  0.00  0.00    -0.052 A 
ATOM      6  C19 XR1 d   1      14.499  34.540 -12.700  0.00  0.00     0.030 A 
ATOM      7  C20 XR1 d   1      15.637  34.427 -11.908  0.00  0.00     0.035 A 
ATOM      8  N15 XR1 d   1      16.921  34.358 -12.390  0.00  0.00    -0.074 NA
ATOM      9  C18 XR1 d   1      14.758  34.596 -14.086  0.00  0.00     0.163 A 
ATOM     10  N17 XR1 d   1      16.019  34.573 -14.591  0.00  0.00    -0.044 NA
ATOM     11  C16 XR1 d   1      17.038  34.438 -13.753  0.00  0.00     0.728 A 
ATOM     12  N14 XR1 d   1      18.208  34.354 -14.264  0.00  0.00    -0.188 N 
ATOM     13  H11 XR1 d   1      12.882  34.587 -11.139  0.00  0.00     0.086 H 
ATOM     14  H12 XR1 d   1      15.500  34.391 -10.833  0.00  0.00     0.117 H 
ATOM     15  H13 XR1 d   1      18.973  34.370 -13.574  0.00  0.00     0.184 HD
ENDROOT
BRANCH  12  16
ATOM     16  C8  XR1 d   1      18.609  34.251 -15.509  0.00  0.00     0.049 A 
ATOM     17  C13 XR1 d   1      17.934  33.550 -16.521  0.00  0.00    -0.054 A 
ATOM     18  C12 XR1 d   1      18.461  33.547 -17.845  0.00  0.00    -0.055 A 
ATOM     19  H14 XR1 d   1      17.018  33.015 -16.297  0.00  0.00     0.087 H 
ATOM     20  C11 XR1 d   1      19.643  34.238 -18.190  0.00  0.00     0.030 A 
ATOM     21  H15 XR1 d   1      17.935  32.994 -18.615  0.00  0.00     0.087 H 
ATOM     22  C10 XR1 d   1      20.317  34.912 -17.162  0.00  0.00    -0.055 A 
ATOM     23  C9  XR1 d   1      19.811  34.907 -15.855  0.00  0.00    -0.054 A 
ATOM     24  H16 XR1 d   1      21.237  35.442 -17.380  0.00  0.00     0.087 H 
ATOM     25  H17 XR1 d   1      20.363  35.426 -15.080  0.00  0.00     0.087 H 
BRANCH  20  26
ATOM     26  N3  XR1 d   1      20.090  34.315 -19.412  0.00  0.00    -0.378 N 
ATOM     27  C2  XR1 d   1      21.330  33.650 -19.871  0.00  0.00     0.018 C 
ATOM     28  C1  XR1 d   1      22.149  34.393 -20.964  0.00  0.00     0.098 C 
ATOM     29  H18 XR1 d   1      21.052  32.665 -20.273  0.00  0.00     0.066 H 
ATOM     30  H19 XR1 d   1      21.983  33.518 -18.995  0.00  0.00     0.066 H 
ATOM     31  N6  XR1 d   1      21.362  34.592 -22.197  0.00  0.00    -0.072 N 
ATOM     32  H28 XR1 d   1      23.043  33.799 -21.204  0.00  0.00     0.078 H 
ATOM     33  H29 XR1 d   1      22.455  35.375 -20.574  0.00  0.00     0.078 H 
ATOM     34  C5  XR1 d   1      20.184  35.412 -21.814  0.00  0.00     0.098 C 
ATOM     35  H24 XR1 d   1      21.078  33.711 -22.597  0.00  0.00     0.279 HD
ATOM     36  C4  XR1 d   1      19.364  34.898 -20.585  0.00  0.00     0.018 C 
ATOM     37  H22 XR1 d   1      20.541  36.426 -21.581  0.00  0.00     0.078 H 
ATOM     38  H23 XR1 d   1      19.506  35.452 -22.679  0.00  0.00     0.078 H 
ATOM     39  H20 XR1 d   1      18.780  35.751 -20.209  0.00  0.00     0.066 H 
ATOM     40  H21 XR1 d   1      18.680  34.121 -20.958  0.00  0.00     0.066 H 
BRANCH  31  41
ATOM     41  C7  XR1 d   1      22.173  35.343 -23.131  0.00  0.00     0.066 C 
ATOM     42  H25 XR1 d   1      23.049  34.743 -23.421  0.00  0.00     0.068 H 
ATOM     43  H26 XR1 d   1      22.509  36.277 -22.657  0.00  0.00     0.068 H 
ATOM     44  H27 XR1 d   1      21.578  35.579 -24.026  0.00  0.00     0.068 H 
ENDBRANCH  31  41
ENDBRANCH  20  26
ENDBRANCH  12  16
BRANCH   1  45
ATOM     45  C25 XR1 d   1      14.034  34.736 -16.471  0.00  0.00     0.001 C 
ATOM     46  H4  XR1 d   1      13.283  35.342 -16.998  0.00  0.00     0.064 H 
ATOM     47  H5  XR1 d   1      15.030  35.178 -16.618  0.00  0.00     0.064 H 
BRANCH  45  48
ATOM     48  C26 XR1 d   1      14.013  33.300 -16.995  0.00  0.00    -0.061 C 
ATOM     49  H1  XR1 d   1      14.246  33.298 -18.070  0.00  0.00     0.029 H 
ATOM     50  H2  XR1 d   1      13.015  32.866 -16.836  0.00  0.00     0.029 H 
ATOM     51  H3  XR1 d   1      14.763  32.702 -16.456  0.00  0.00     0.029 H 
ENDBRANCH  45  48
ENDBRANCH   1  45
BRANCH   4  52
ATOM     52  C28 XR1 d   1      10.777  34.730 -12.705  0.00  0.00     0.001 A 
ATOM     53  C33 XR1 d   1       9.994  35.914 -12.677  0.00  0.00     0.046 A 
ATOM     54 CL1  XR1 d   1      10.699  37.382 -13.110  0.00  0.00    -0.083 Cl
ATOM     55  C32 XR1 d   1       8.648  35.824 -12.247  0.00  0.00    -0.050 A 
ATOM     56  C31 XR1 d   1       8.066  34.577 -11.868  0.00  0.00    -0.016 A 
ATOM     57  H6  XR1 d   1       8.045  36.724 -12.205  0.00  0.00     0.087 H 
ATOM     58  C30 XR1 d   1       8.843  33.386 -11.942  0.00  0.00    -0.071 A 
ATOM     59  C29 XR1 d   1      10.178  33.468 -12.342  0.00  0.00    -0.070 A 
ATOM     60  H9  XR1 d   1       8.403  32.428 -11.691  0.00  0.00     0.084 H 
ATOM     61  H10 XR1 d   1      10.777  32.565 -12.381  0.00  0.00     0.085 H 
BRANCH  56  62
ATOM     62  C37 XR1 d   1       6.643  34.573 -11.358  0.00  0.00     0.034 A 
ATOM     63  C36 XR1 d   1       5.617  35.271 -11.998  0.00  0.00     0.020 A 
ATOM     64  N35 XR1 d   1       4.395  35.180 -11.412  0.00  0.00    -0.265 NA
ATOM     65  H7  XR1 d   1       5.785  35.849 -12.905  0.00  0.00     0.116 H 
ATOM     66  C34 XR1 d   1       4.424  34.448 -10.318  0.00  0.00     0.040 A 
ATOM     67  S38 XR1 d   1       5.971  33.808  -9.950  0.00  0.00    -0.081 SA
ATOM     68  H8  XR1 d   1       3.544  34.266  -9.702  0.00  0.00     0.126 H 
ENDBRANCH  56  62
ENDBRANCH   4  52
TORSDOF 7
