REMARK  30 active torsions:
REMARK  status: ('A' for Active; 'I' for Inactive)
REMARK    1  A    between atoms: N_1  and  CA_2 
REMARK    2  A    between atoms: CA_2  and  C_3 
REMARK    3  A    between atoms: CA_2  and  CB_5 
REMARK       I    between atoms: C_3  and  N_12 
REMARK    4  A    between atoms: CB_5  and  CG_6 
REMARK    5  A    between atoms: CG_6  and  CD_7 
REMARK    6  A    between atoms: CD_7  and  NE_8 
REMARK       I    between atoms: NE_8  and  CZ_9 
REMARK       I    between atoms: CZ_9  and  NH1_10 
REMARK    7  A    between atoms: N_12  and  CA_13 
REMARK    8  A    between atoms: CA_13  and  C_14 
REMARK    9  A    between atoms: CA_13  and  CB_16 
REMARK       I    between atoms: C_14  and  N_20 
REMARK   10  A    between atoms: CB_16  and  CG_17 
REMARK   11  A    between atoms: CG_17  and  CD1_18 
REMARK   12  A    between atoms: CG_17  and  CD2_19 
REMARK   13  A    between atoms: N_20  and  CA_21 
REMARK   14  A    between atoms: CA_21  and  C_22 
REMARK   15  A    between atoms: CA_21  and  CB_24 
REMARK       I    between atoms: C_22  and  N_26 
REMARK   16  A    between atoms: CB_24  and  OG_25 
REMARK   17  A    between atoms: N_26  and  CA_27 
REMARK   18  A    between atoms: CA_27  and  C_28 
REMARK   19  A    between atoms: CA_27  and  CB_30 
REMARK       I    between atoms: C_28  and  N_32 
REMARK   20  A    between atoms: CB_30  and  OG_31 
REMARK   21  A    between atoms: N_32  and  CA_33 
REMARK   22  A    between atoms: CA_33  and  C_34 
REMARK   23  A    between atoms: CA_33  and  CB_36 
REMARK       I    between atoms: C_34  and  N_40 
REMARK   24  A    between atoms: CB_36  and  CG_37 
REMARK       I    between atoms: CG_37  and  ND2_39 
REMARK   25  A    between atoms: N_40  and  CA_41 
REMARK   26  A    between atoms: CA_41  and  C_42 
REMARK   27  A    between atoms: CA_41  and  CB_44 
REMARK   28  A    between atoms: CB_44  and  CG_45 
REMARK   29  A    between atoms: CG_45  and  CD1_46 
REMARK   30  A    between atoms: CG_45  and  CD2_47 
ROOT
ATOM      1  CA  SER d   1     -33.844  13.599   1.376  0.00  0.00     0.109 C 
ATOM      2  H   SER d   1     -33.692  12.532   1.538  0.00  0.00     0.090 H 
ENDROOT
BRANCH   1   3
ATOM      3  N   SER d   1     -35.280  13.887   1.403  0.00  0.00    -0.344 N 
ATOM      4  C   LEU d   1     -36.206  12.966   1.143  0.00  0.00     0.241 C 
ATOM      5  O   LEU d   1     -35.936  11.790   0.888  0.00  0.00    -0.271 OA
ATOM      6  H   SER d   1     -35.584  14.834   1.631  0.00  0.00     0.163 HD
BRANCH   4   7
ATOM      7  CA  LEU d   1     -37.655  13.452   1.149  0.00  0.00     0.089 C 
ATOM      8  H   LEU d   1     -37.765  14.105   0.283  0.00  0.00     0.087 H 
BRANCH   7   9
ATOM      9  N   LEU d   1     -38.632  12.374   0.983  0.00  0.00    -0.346 N 
ATOM     10  C   ARG d   1     -39.290  12.166  -0.156  0.00  0.00     0.248 C 
ATOM     11  O   ARG d   1     -39.079  12.820  -1.181  0.00  0.00    -0.271 OA
ATOM     12  H   LEU d   1     -38.816  11.756   1.773  0.00  0.00     0.163 HD
BRANCH  10  13
ATOM     13  CA  ARG d   1     -40.331  11.032  -0.137  0.00  0.00     0.176 C 
ATOM     14  H   ARG d   1     -40.129  10.400  -1.002  0.00  0.00     0.099 H 
BRANCH  13  15
ATOM     15  N   ARG d   1     -40.205  10.218   1.070  0.00  0.00    -0.067 N 
ATOM     16  H   ARG d   1     -39.250   9.868   1.145  0.00  0.00     0.275 HD
ATOM     17  H   ARG d   1     -40.425  10.787   1.887  0.00  0.00     0.275 HD
ATOM     18  H   ARG d   1     -40.853   9.432   1.018  0.00  0.00     0.275 HD
ENDBRANCH  13  15
BRANCH  13  19
ATOM     19  CB  ARG d   1     -41.764  11.571  -0.272  0.00  0.00    -0.029 C 
ATOM     20  H   ARG d   1     -41.931  12.246   0.567  0.00  0.00     0.036 H 
ATOM     21  H   ARG d   1     -42.428  10.707  -0.297  0.00  0.00     0.036 H 
BRANCH  19  22
ATOM     22  CG  ARG d   1     -42.021  12.364  -1.537  0.00  0.00    -0.047 C 
ATOM     23  H   ARG d   1     -41.431  13.280  -1.497  0.00  0.00     0.035 H 
ATOM     24  H   ARG d   1     -43.088  12.580  -1.599  0.00  0.00     0.035 H 
BRANCH  22  25
ATOM     25  CD  ARG d   1     -41.614  11.581  -2.776  0.00  0.00     0.009 C 
ATOM     26  H   ARG d   1     -42.494  11.063  -3.157  0.00  0.00     0.064 H 
ATOM     27  H   ARG d   1     -40.822  10.887  -2.496  0.00  0.00     0.064 H 
BRANCH  25  28
ATOM     28  NE  ARG d   1     -41.105  12.455  -3.832  0.00  0.00    -0.227 N 
ATOM     29  CZ  ARG d   1     -39.818  12.744  -4.018  0.00  0.00     0.665 C 
ATOM     30  NH1 ARG d   1     -38.888  12.231  -3.223  0.00  0.00    -0.235 N 
ATOM     31  NH2 ARG d   1     -39.457  13.546  -5.008  0.00  0.00    -0.235 N 
ATOM     32  H   ARG d   1     -39.156  11.609  -2.460  0.00  0.00     0.174 HD
ATOM     33  H   ARG d   1     -37.905  12.459  -3.374  0.00  0.00     0.174 HD
ATOM     34  H   ARG d   1     -40.164  13.942  -5.627  0.00  0.00     0.174 HD
ATOM     35  H   ARG d   1     -38.472  13.768  -5.151  0.00  0.00     0.174 HD
ATOM     36  H   ARG d   1     -41.782  12.872  -4.470  0.00  0.00     0.177 HD
ENDBRANCH  25  28
ENDBRANCH  22  25
ENDBRANCH  19  22
ENDBRANCH  13  19
ENDBRANCH  10  13
ENDBRANCH   7   9
BRANCH   7  37
ATOM     37  CB  LEU d   1     -37.943  14.228   2.431  0.00  0.00    -0.035 C 
ATOM     38  H   LEU d   1     -37.142  14.959   2.543  0.00  0.00     0.037 H 
ATOM     39  H   LEU d   1     -38.012  13.495   3.234  0.00  0.00     0.037 H 
BRANCH  37  40
ATOM     40  CG  LEU d   1     -39.259  15.010   2.431  0.00  0.00    -0.059 C 
ATOM     41  H   LEU d   1     -39.892  14.614   1.637  0.00  0.00     0.038 H 
BRANCH  40  42
ATOM     42  CD1 LEU d   1     -39.993  14.824   3.748  0.00  0.00    -0.073 C 
ATOM     43  H   LEU d   1     -40.211  13.766   3.895  0.00  0.00     0.028 H 
ATOM     44  H   LEU d   1     -39.368  15.184   4.565  0.00  0.00     0.028 H 
ATOM     45  H   LEU d   1     -40.925  15.388   3.726  0.00  0.00     0.028 H 
ENDBRANCH  40  42
BRANCH  40  46
ATOM     46  CD2 LEU d   1     -39.018  16.490   2.131  0.00  0.00    -0.073 C 
ATOM     47  H   LEU d   1     -38.361  16.911   2.892  0.00  0.00     0.028 H 
ATOM     48  H   LEU d   1     -38.552  16.590   1.151  0.00  0.00     0.028 H 
ATOM     49  H   LEU d   1     -39.970  17.020   2.138  0.00  0.00     0.028 H 
ENDBRANCH  40  46
ENDBRANCH  37  40
ENDBRANCH   7  37
ENDBRANCH   4   7
ENDBRANCH   1   3
BRANCH   1  50
ATOM     50  C   SER d   1     -33.129  14.360   2.491  0.00  0.00     0.243 C 
ATOM     51  O   SER d   1     -33.358  15.550   2.674  0.00  0.00    -0.271 OA
ATOM     52  N   SER d   1     -32.264  13.687   3.237  0.00  0.00    -0.344 N 
ATOM     53  H   SER d   1     -32.075  12.706   3.032  0.00  0.00     0.163 HD
BRANCH  52  54
ATOM     54  CA  SER d   1     -31.579  14.340   4.352  0.00  0.00     0.109 C 
ATOM     55  H   SER d   1     -32.166  15.215   4.632  0.00  0.00     0.090 H 
BRANCH  54  56
ATOM     56  C   SER d   1     -30.191  14.867   3.950  0.00  0.00     0.243 C 
ATOM     57  O   SER d   1     -29.542  14.292   3.074  0.00  0.00    -0.271 OA
ATOM     58  N   ASN d   1     -29.767  15.983   4.552  0.00  0.00    -0.345 N 
ATOM     59  H   ASN d   1     -30.347  16.398   5.281  0.00  0.00     0.163 HD
BRANCH  58  60
ATOM     60  CA  ASN d   1     -28.491  16.637   4.201  0.00  0.00     0.097 C 
ATOM     61  H   ASN d   1     -28.275  16.261   3.201  0.00  0.00     0.088 H 
BRANCH  60  62
ATOM     62  C   ASN d   1     -27.288  16.260   5.080  0.00  0.00     0.241 C 
ATOM     63  O   ASN d   1     -27.370  16.271   6.308  0.00  0.00    -0.271 OA
ATOM     64  N   LEU d   1     -26.156  15.971   4.444  0.00  0.00    -0.345 N 
ATOM     65  H   LEU d   1     -26.115  16.073   3.430  0.00  0.00     0.163 HD
BRANCH  64  66
ATOM     66  CA  LEU d   1     -24.968  15.510   5.163  0.00  0.00     0.096 C 
ATOM     67  H   LEU d   1     -25.316  15.095   6.109  0.00  0.00     0.089 H 
BRANCH  66  68
ATOM     68  C   LEU d   1     -24.003  16.642   5.499  0.00  0.00     0.196 C 
ATOM     69  O   LEU d   1     -23.725  17.507   4.671  0.00  0.00    -0.646 OA
ATOM     70  OXT LEU d   1     -23.471  16.712   6.610  0.00  0.00    -0.646 OA
ENDBRANCH  66  68
BRANCH  66  71
ATOM     71  CB  LEU d   1     -24.241  14.420   4.355  0.00  0.00    -0.034 C 
ATOM     72  H   LEU d   1     -23.220  14.447   4.736  0.00  0.00     0.037 H 
ATOM     73  H   LEU d   1     -24.462  14.670   3.317  0.00  0.00     0.037 H 
BRANCH  71  74
ATOM     74  CG  LEU d   1     -24.645  12.934   4.475  0.00  0.00    -0.059 C 
ATOM     75  H   LEU d   1     -24.415  12.614   5.491  0.00  0.00     0.038 H 
BRANCH  74  76
ATOM     76  CD1 LEU d   1     -26.129  12.735   4.254  0.00  0.00    -0.073 C 
ATOM     77  H   LEU d   1     -26.685  13.303   5.000  0.00  0.00     0.028 H 
ATOM     78  H   LEU d   1     -26.396  13.083   3.256  0.00  0.00     0.028 H 
ATOM     79  H   LEU d   1     -26.370  11.676   4.347  0.00  0.00     0.028 H 
ENDBRANCH  74  76
BRANCH  74  80
ATOM     80  CD2 LEU d   1     -23.854  12.091   3.495  0.00  0.00    -0.073 C 
ATOM     81  H   LEU d   1     -24.054  12.433   2.479  0.00  0.00     0.028 H 
ATOM     82  H   LEU d   1     -22.790  12.189   3.710  0.00  0.00     0.028 H 
ATOM     83  H   LEU d   1     -24.151  11.047   3.593  0.00  0.00     0.028 H 
ENDBRANCH  74  80
ENDBRANCH  71  74
ENDBRANCH  66  71
ENDBRANCH  64  66
ENDBRANCH  60  62
BRANCH  60  84
ATOM     84  CB  ASN d   1     -28.636  18.161   4.213  0.00  0.00     0.036 C 
ATOM     85  H   ASN d   1     -27.636  18.588   4.143  0.00  0.00     0.051 H 
ATOM     86  H   ASN d   1     -29.158  18.435   5.130  0.00  0.00     0.051 H 
BRANCH  84  87
ATOM     87  CG  ASN d   1     -29.445  18.695   3.048  0.00  0.00     0.217 C 
ATOM     88  OD1 ASN d   1     -29.251  18.297   1.899  0.00  0.00    -0.274 OA
ATOM     89  ND2 ASN d   1     -30.347  19.622   3.342  0.00  0.00    -0.370 N 
ATOM     90  H   ASN d   1     -30.914  20.035   2.601  0.00  0.00     0.159 HD
ATOM     91  H   ASN d   1     -30.474  19.922   4.309  0.00  0.00     0.159 HD
ENDBRANCH  84  87
ENDBRANCH  60  84
ENDBRANCH  58  60
ENDBRANCH  54  56
BRANCH  54  92
ATOM     92  CB  SER d   1     -31.519  13.417   5.576  0.00  0.00     0.044 C 
ATOM     93  H   SER d   1     -30.860  13.868   6.318  0.00  0.00     0.077 H 
ATOM     94  H   SER d   1     -31.150  12.442   5.257  0.00  0.00     0.077 H 
BRANCH  92  95
ATOM     95  OG  SER d   1     -32.804  13.244   6.159  0.00  0.00    -0.398 OA
ATOM     96  H   SER d   1     -32.733  12.663   6.920  0.00  0.00     0.209 HD
ENDBRANCH  92  95
ENDBRANCH  54  92
ENDBRANCH  52  54
ENDBRANCH   1  50
BRANCH   1  97
ATOM     97  CB  SER d   1     -33.266  13.981   0.010  0.00  0.00     0.044 C 
ATOM     98  H   SER d   1     -33.757  14.894  -0.327  0.00  0.00     0.077 H 
ATOM     99  H   SER d   1     -33.436  13.153  -0.678  0.00  0.00     0.077 H 
BRANCH  97 100
ATOM    100  OG  SER d   1     -31.877  14.223   0.079  0.00  0.00    -0.398 OA
ATOM    101  H   SER d   1     -31.551  14.459  -0.792  0.00  0.00     0.209 HD
ENDBRANCH  97 100
ENDBRANCH   1  97
TORSDOF 30
