REMARK  25 active torsions:
REMARK  status: ('A' for Active; 'I' for Inactive)
REMARK    1  A    between atoms: N_1  and  CA_2 
REMARK    2  A    between atoms: CA_2  and  C_3 
REMARK    3  A    between atoms: CA_2  and  CB_5 
REMARK       I    between atoms: C_3  and  N_6 
REMARK    4  A    between atoms: N_6  and  CA_7 
REMARK    5  A    between atoms: CA_7  and  C_8 
REMARK    6  A    between atoms: CA_7  and  CB_10 
REMARK       I    between atoms: C_8  and  N_13 
REMARK    7  A    between atoms: CB_10  and  OG1_11 
REMARK    8  A    between atoms: CB_10  and  CG2_12 
REMARK    9  A    between atoms: N_13  and  CA_14 
REMARK   10  A    between atoms: CA_14  and  C_15 
REMARK   11  A    between atoms: CA_14  and  CB_17 
REMARK       I    between atoms: C_15  and  N_24 
REMARK   12  A    between atoms: CB_17  and  CG_18 
REMARK   13  A    between atoms: N_24  and  CA_25 
REMARK   14  A    between atoms: CA_25  and  C_26 
REMARK   15  A    between atoms: CA_25  and  CB_28 
REMARK       I    between atoms: C_26  and  N_36 
REMARK   16  A    between atoms: CB_28  and  CG_29 
REMARK   17  A    between atoms: CZ_34  and  OH_35 
REMARK   18  A    between atoms: N_36  and  CA_37 
REMARK   19  A    between atoms: CA_37  and  C_38 
REMARK   20  A    between atoms: CA_37  and  CB_40 
REMARK       I    between atoms: C_38  and  N_43 
REMARK   21  A    between atoms: CB_40  and  CG1_41 
REMARK   22  A    between atoms: CB_40  and  CG2_42 
REMARK   23  A    between atoms: N_43  and  CA_44 
REMARK   24  A    between atoms: CA_44  and  C_45 
REMARK   25  A    between atoms: CA_44  and  CB_47 
ROOT
ATOM      1  C   PHE d   1       5.708  -0.202  14.572  0.00  0.00     0.241 C 
ATOM      2  O   PHE d   1       5.067   0.333  15.478  0.00  0.00    -0.271 OA
ATOM      3  N   TYR d   1       6.288  -1.372  14.690  0.00  0.00    -0.346 N 
ATOM      4  H24 TYR d   1       7.075  -1.592  14.114  0.00  0.00     0.163 HD
ENDROOT
BRANCH   3   5
ATOM      5  CA  TYR d   1       5.809  -2.343  15.635  0.00  0.00     0.093 C 
ATOM      6  H25 TYR d   1       6.051  -2.023  16.659  0.00  0.00     0.088 H 
BRANCH   5   7
ATOM      7  C   TYR d   1       6.547  -3.627  15.303  0.00  0.00     0.241 C 
ATOM      8  O   TYR d   1       6.606  -4.067  14.146  0.00  0.00    -0.271 OA
ATOM      9  N   VAL d   1       7.136  -4.194  16.341  0.00  0.00    -0.346 N 
ATOM     10  H33 VAL d   1       6.909  -3.864  17.257  0.00  0.00     0.163 HD
BRANCH   9  11
ATOM     11  CA  VAL d   1       8.085  -5.260  16.213  0.00  0.00     0.092 C 
ATOM     12  H34 VAL d   1       7.920  -5.804  15.271  0.00  0.00     0.088 H 
BRANCH  11  13
ATOM     13  C   VAL d   1       7.905  -6.184  17.410  0.00  0.00     0.241 C 
ATOM     14  O   VAL d   1       8.417  -5.903  18.493  0.00  0.00    -0.271 OA
ATOM     15  N   ASP d   1       7.171  -7.272  17.208  0.00  0.00    -0.345 N 
ATOM     16  H42 ASP d   1       6.752  -7.407  16.310  0.00  0.00     0.163 HD
BRANCH  15  17
ATOM     17  CA  ASP d   1       6.950  -8.281  18.244  0.00  0.00     0.093 C 
ATOM     18  H43 ASP d   1       7.016  -7.790  19.226  0.00  0.00     0.089 H 
BRANCH  17  19
ATOM     19  C   ASP d   1       8.001  -9.392  18.187  0.00  0.00     0.196 C 
ATOM     20  O   ASP d   1       8.410  -9.829  17.078  0.00  0.00    -0.646 OA
ATOM     21  O   ASP d   1       8.460  -9.873  19.257  0.00  0.00    -0.646 OA
ENDBRANCH  17  19
BRANCH  17  22
ATOM     22  CB  ASP d   1       5.548  -8.888  18.088  0.00  0.00    -0.048 C 
ATOM     23  H44 ASP d   1       5.388  -9.646  18.869  0.00  0.00     0.030 H 
ATOM     24  H45 ASP d   1       5.460  -9.358  17.098  0.00  0.00     0.030 H 
ATOM     25  H46 ASP d   1       4.792  -8.095  18.186  0.00  0.00     0.030 H 
ENDBRANCH  17  22
ENDBRANCH  15  17
ENDBRANCH  11  13
BRANCH  11  26
ATOM     26  CB  VAL d   1       9.517  -4.711  16.265  0.00  0.00    -0.033 C 
ATOM     27  H35 VAL d   1       9.572  -3.975  17.081  0.00  0.00     0.042 H 
BRANCH  26  28
ATOM     28  CG1 VAL d   1      10.489  -5.836  16.584  0.00  0.00    -0.071 C 
ATOM     29  H36 VAL d   1      11.513  -5.436  16.620  0.00  0.00     0.028 H 
ATOM     30  H37 VAL d   1      10.424  -6.609  15.804  0.00  0.00     0.028 H 
ATOM     31  H38 VAL d   1      10.233  -6.277  17.559  0.00  0.00     0.028 H 
ENDBRANCH  26  28
BRANCH  26  32
ATOM     32  CG2 VAL d   1       9.874  -3.991  14.968  0.00  0.00    -0.071 C 
ATOM     33  H39 VAL d   1       9.145  -3.189  14.781  0.00  0.00     0.028 H 
ATOM     34  H40 VAL d   1       9.853  -4.707  14.133  0.00  0.00     0.028 H 
ATOM     35  H41 VAL d   1      10.881  -3.558  15.054  0.00  0.00     0.028 H 
ENDBRANCH  26  32
ENDBRANCH  11  26
ENDBRANCH   9  11
ENDBRANCH   5   7
BRANCH   5  36
ATOM     36  CB  TYR d   1       4.287  -2.534  15.519  0.00  0.00    -0.014 C 
ATOM     37  H26 TYR d   1       3.989  -2.358  14.475  0.00  0.00     0.043 H 
ATOM     38  H27 TYR d   1       3.790  -1.801  16.171  0.00  0.00     0.043 H 
BRANCH  36  39
ATOM     39  CG  TYR d   1       3.841  -3.919  15.921  0.00  0.00    -0.056 A 
ATOM     40  CD1 TYR d   1       3.739  -4.274  17.259  0.00  0.00    -0.074 A 
ATOM     41  CE1 TYR d   1       3.391  -5.555  17.633  0.00  0.00    -0.051 A 
ATOM     42  H28 TYR d   1       3.936  -3.531  18.023  0.00  0.00     0.084 H 
ATOM     43  CZ  TYR d   1       3.143  -6.503  16.661  0.00  0.00     0.065 A 
ATOM     44  H30 TYR d   1       3.313  -5.815  18.682  0.00  0.00     0.087 H 
ATOM     45  CE2 TYR d   1       3.245  -6.176  15.327  0.00  0.00    -0.051 A 
ATOM     46  CD2 TYR d   1       3.600  -4.894  14.965  0.00  0.00    -0.074 A 
ATOM     47  H31 TYR d   1       3.047  -6.922  14.566  0.00  0.00     0.087 H 
ATOM     48  H29 TYR d   1       3.692  -4.644  13.914  0.00  0.00     0.084 H 
BRANCH  43  49
ATOM     49  OH  TYR d   1       2.795  -7.784  17.020  0.00  0.00    -0.361 OA
ATOM     50  H32 TYR d   1       2.767  -7.850  17.967  0.00  0.00     0.217 HD
ENDBRANCH  43  49
ENDBRANCH  36  39
ENDBRANCH   5  36
ENDBRANCH   3   5
BRANCH   1  51
ATOM     51  CA  PHE d   1       5.879   0.434  13.208  0.00  0.00     0.093 C 
ATOM     52  H16 PHE d   1       5.974  -0.384  12.479  0.00  0.00     0.088 H 
BRANCH  51  53
ATOM     53  N   PHE d   1       4.706   1.223  12.813  0.00  0.00    -0.346 N 
ATOM     54  C   THR d   1       3.749   0.668  12.075  0.00  0.00     0.243 C 
ATOM     55  O   THR d   1       3.719  -0.546  11.826  0.00  0.00    -0.271 OA
ATOM     56  H15 PHE d   1       4.627   2.178  13.099  0.00  0.00     0.163 HD
BRANCH  54  57
ATOM     57  CA  THR d   1       2.641   1.593  11.559  0.00  0.00     0.113 C 
ATOM     58  H9  THR d   1       2.446   2.371  12.311  0.00  0.00     0.091 H 
BRANCH  57  59
ATOM     59  N   THR d   1       2.987   2.245  10.308  0.00  0.00    -0.344 N 
ATOM     60  C   GLU d   1       3.187   3.550  10.236  0.00  0.00     0.248 C 
ATOM     61  O   GLU d   1       3.060   4.303  11.190  0.00  0.00    -0.271 OA
ATOM     62  H8  THR d   1       3.076   1.692   9.479  0.00  0.00     0.163 HD
BRANCH  60  63
ATOM     63  CA  GLU d   1       3.655   4.068   8.893  0.00  0.00     0.172 C 
ATOM     64  H4  GLU d   1       4.088   3.238   8.316  0.00  0.00     0.098 H 
BRANCH  63  65
ATOM     65  N   GLU d   1       2.497   4.627   8.124  0.00  0.00    -0.067 N 
ATOM     66  H1  GLU d   1       2.820   4.969   7.232  0.00  0.00     0.275 HD
ATOM     67  H2  GLU d   1       2.082   5.384   8.644  0.00  0.00     0.275 HD
ATOM     68  H3  GLU d   1       1.810   3.904   7.978  0.00  0.00     0.275 HD
ENDBRANCH  63  65
BRANCH  63  69
ATOM     69  CB  GLU d   1       4.736   5.118   9.134  0.00  0.00    -0.042 C 
ATOM     70  H5  GLU d   1       5.565   4.668   9.700  0.00  0.00     0.030 H 
ATOM     71  H6  GLU d   1       4.312   5.955   9.708  0.00  0.00     0.030 H 
ATOM     72  H7  GLU d   1       5.110   5.488   8.168  0.00  0.00     0.030 H 
ENDBRANCH  63  69
ENDBRANCH  60  63
ENDBRANCH  57  59
BRANCH  57  73
ATOM     73  CB  THR d   1       1.395   0.735  11.382  0.00  0.00     0.060 C 
ATOM     74  H10 THR d   1       1.621  -0.092  10.693  0.00  0.00     0.086 H 
BRANCH  73  75
ATOM     75  OG1 THR d   1       0.344   1.534  10.817  0.00  0.00    -0.393 OA
ATOM     76  H11 THR d   1      -0.434   1.000  10.706  0.00  0.00     0.210 HD
ENDBRANCH  73  75
BRANCH  73  77
ATOM     77  CG2 THR d   1       0.990   0.158  12.716  0.00  0.00    -0.050 C 
ATOM     78  H12 THR d   1       0.090  -0.462  12.589  0.00  0.00     0.031 H 
ATOM     79  H13 THR d   1       0.776   0.976  13.419  0.00  0.00     0.031 H 
ATOM     80  H14 THR d   1       1.809  -0.461  13.112  0.00  0.00     0.031 H 
ENDBRANCH  73  77
ENDBRANCH  57  73
ENDBRANCH  54  57
ENDBRANCH  51  53
BRANCH  51  81
ATOM     81  CB  PHE d   1       7.165   1.243  13.142  0.00  0.00    -0.014 C 
ATOM     82  H17 PHE d   1       8.012   0.571  13.343  0.00  0.00     0.043 H 
ATOM     83  H18 PHE d   1       7.127   2.025  13.914  0.00  0.00     0.043 H 
BRANCH  81  84
ATOM     84  CG  PHE d   1       7.380   1.895  11.816  0.00  0.00    -0.056 A 
ATOM     85  CD1 PHE d   1       7.656   1.131  10.683  0.00  0.00    -0.077 A 
ATOM     86  CE1 PHE d   1       7.820   1.734   9.443  0.00  0.00    -0.082 A 
ATOM     87  H19 PHE d   1       7.744   0.054  10.771  0.00  0.00     0.084 H 
ATOM     88  CZ  PHE d   1       7.688   3.105   9.324  0.00  0.00    -0.083 A 
ATOM     89  H21 PHE d   1       8.051   1.132   8.572  0.00  0.00     0.083 H 
ATOM     90  CE2 PHE d   1       7.395   3.870  10.440  0.00  0.00    -0.082 A 
ATOM     91  H23 PHE d   1       7.814   3.580   8.358  0.00  0.00     0.083 H 
ATOM     92  CD2 PHE d   1       7.229   3.262  11.675  0.00  0.00    -0.077 A 
ATOM     93  H22 PHE d   1       7.295   4.946  10.348  0.00  0.00     0.083 H 
ATOM     94  H20 PHE d   1       6.978   3.865  12.540  0.00  0.00     0.084 H 
ENDBRANCH  81  84
ENDBRANCH  51  81
ENDBRANCH   1  51
TORSDOF 25
