REMARK WARNING: 32 MAX_TORS EXCEEDED!!!
REMARK  36 active torsions:
REMARK  status: ('A' for Active; 'I' for Inactive)
REMARK    1  A    between atoms: CA_2  and  C_3 
REMARK       I    between atoms: C_3  and  N_8 
REMARK    2  A    between atoms: N_8  and  CA_9 
REMARK    3  A    between atoms: CA_9  and  C_10 
REMARK    4  A    between atoms: CA_9  and  CB_12 
REMARK       I    between atoms: C_10  and  N_18 
REMARK    5  A    between atoms: CB_12  and  CG_13 
REMARK    6  A    between atoms: CA_19  and  C_20 
REMARK       I    between atoms: C_20  and  N_25 
REMARK    7  A    between atoms: N_25  and  CA_26 
REMARK    8  A    between atoms: CA_26  and  C_27 
REMARK    9  A    between atoms: CA_26  and  CB_29 
REMARK       I    between atoms: C_27  and  N_36 
REMARK   10  A    between atoms: CB_29  and  CG_30 
REMARK   11  A    between atoms: N_36  and  CA_37 
REMARK   12  A    between atoms: CA_37  and  C_38 
REMARK   13  A    between atoms: CA_37  and  CB_40 
REMARK       I    between atoms: C_38  and  N_46 
REMARK   14  A    between atoms: CB_40  and  CG_41 
REMARK   15  A    between atoms: N_46  and  CA_47 
REMARK   16  A    between atoms: CA_47  and  C_48 
REMARK   17  A    between atoms: CA_47  and  CB_49 
REMARK   18  A    between atoms: C_48  and  N_53 
REMARK   19  A    between atoms: CB_49  and  CG_50 
REMARK   20  A    between atoms: CG_50  and  CD1_51 
REMARK   21  A    between atoms: CG_50  and  CD2_52 
REMARK   22  A    between atoms: N_53  and  CA_54 
REMARK   23  A    between atoms: CA_54  and  C_55 
REMARK   24  A    between atoms: CA_54  and  CB_57 
REMARK       I    between atoms: C_55  and  N_60 
REMARK   25  A    between atoms: CB_57  and  CG1_58 
REMARK   26  A    between atoms: CB_57  and  CG2_59 
REMARK   27  A    between atoms: N_60  and  CA_61 
REMARK   28  A    between atoms: CA_61  and  C_62 
REMARK   29  A    between atoms: CA_61  and  CB_64 
REMARK       I    between atoms: C_62  and  N_68 
REMARK   30  A    between atoms: CB_64  and  CG1_65 
REMARK   31  A    between atoms: CB_64  and  CG2_66 
REMARK   32  A    between atoms: CG1_65  and  CD1_67 
REMARK   33  A    between atoms: N_68  and  CA_69 
REMARK   34  A    between atoms: CA_69  and  C_70 
REMARK   35  A    between atoms: CA_69  and  CB_72 
REMARK       I    between atoms: C_70  and  N_78 
REMARK   36  A    between atoms: CB_72  and  CG_73 
ROOT
ATOM      1  CA  HIS d   1      34.723  -9.553  -0.376  0.00  0.00     0.094 C 
ATOM      2  H34 HIS d   1      33.638  -9.689  -0.260  0.00  0.00     0.088 H 
ENDROOT
BRANCH   1   3
ATOM      3  N   HIS d   1      34.989  -8.305  -1.122  0.00  0.00    -0.346 N 
ATOM      4  C   PHE d   1      33.908  -7.698  -1.609  0.00  0.00     0.241 C 
ATOM      5  O   PHE d   1      32.878  -8.337  -1.469  0.00  0.00    -0.271 OA
ATOM      6  H33 HIS d   1      35.912  -7.943  -1.252  0.00  0.00     0.163 HD
BRANCH   4   7
ATOM      7  CA  PHE d   1      34.126  -6.416  -2.374  0.00  0.00     0.093 C 
ATOM      8  H25 PHE d   1      35.134  -6.457  -2.812  0.00  0.00     0.088 H 
BRANCH   7   9
ATOM      9  N   PHE d   1      33.150  -6.301  -3.473  0.00  0.00    -0.346 N 
ATOM     10  C   PRO d   1      33.501  -6.044  -4.727  0.00  0.00     0.241 C 
ATOM     11  O   PRO d   1      34.682  -5.910  -5.175  0.00  0.00    -0.271 OA
ATOM     12  H24 PHE d   1      32.180  -6.422  -3.264  0.00  0.00     0.163 HD
BRANCH  10  13
ATOM     13  CA  PRO d   1      32.340  -5.915  -5.677  0.00  0.00     0.091 A 
ATOM     14  N   PRO d   1      32.808  -5.525  -6.999  0.00  0.00    -0.337 N 
ATOM     15  C   HIS d   1      33.468  -4.367  -7.206  0.00  0.00     0.243 C 
ATOM     16  CD  PRO d   1      32.503  -6.469  -8.080  0.00  0.00    -0.001 A 
ATOM     17  O   HIS d   1      33.664  -3.593  -6.257  0.00  0.00    -0.271 OA
ATOM     18  CG  PRO d   1      31.744  -7.562  -7.399  0.00  0.00    -0.048 A 
ATOM     19  H22 PRO d   1      33.427  -6.858  -8.533  0.00  0.00     0.064 H 
ATOM     20  H23 PRO d   1      31.888  -5.990  -8.856  0.00  0.00     0.064 H 
ATOM     21  CB  PRO d   1      31.640  -7.235  -5.911  0.00  0.00    -0.036 A 
ATOM     22  H20 PRO d   1      30.736  -7.638  -7.832  0.00  0.00     0.035 H 
ATOM     23  H21 PRO d   1      32.273  -8.517  -7.532  0.00  0.00     0.035 H 
ATOM     24  H18 PRO d   1      30.583  -7.155  -5.619  0.00  0.00     0.036 H 
ATOM     25  H19 PRO d   1      32.125  -8.026  -5.319  0.00  0.00     0.036 H 
ATOM     26  H17 PRO d   1      31.632  -5.173  -5.280  0.00  0.00     0.087 H 
BRANCH  15  27
ATOM     27  CA  HIS d   1      33.961  -4.022  -8.628  0.00  0.00     0.094 C 
ATOM     28  H11 HIS d   1      34.428  -4.907  -9.085  0.00  0.00     0.088 H 
BRANCH  27  29
ATOM     29  N   HIS d   1      32.803  -3.576  -9.494  0.00  0.00    -0.346 N 
ATOM     30  C   PRO d   1      32.437  -4.211 -10.639  0.00  0.00     0.249 C 
ATOM     31  O   PRO d   1      33.061  -5.182 -11.168  0.00  0.00    -0.271 OA
ATOM     32  H10 HIS d   1      32.280  -2.773  -9.209  0.00  0.00     0.163 HD
BRANCH  30  33
ATOM     33  CA  PRO d   1      31.142  -3.693 -11.312  0.00  0.00     0.178 C 
ATOM     34  N   PRO d   1      31.093  -4.062 -12.754  0.00  0.00    -0.062 N 
ATOM     35  CD  PRO d   1      30.154  -5.151 -13.074  0.00  0.00     0.083 C 
ATOM     36  H1  PRO d   1      32.017  -4.349 -13.037  0.00  0.00     0.278 HD
ATOM     37  H2  PRO d   1      30.819  -3.246 -13.279  0.00  0.00     0.278 HD
ATOM     38  CG  PRO d   1      29.364  -5.331 -11.815  0.00  0.00    -0.040 C 
ATOM     39  H8  PRO d   1      30.697  -6.073 -13.330  0.00  0.00     0.075 H 
ATOM     40  H9  PRO d   1      29.498  -4.868 -13.910  0.00  0.00     0.075 H 
ATOM     41  CB  PRO d   1      29.978  -4.466 -10.711  0.00  0.00    -0.028 C 
ATOM     42  H6  PRO d   1      28.322  -5.024 -11.987  0.00  0.00     0.035 H 
ATOM     43  H7  PRO d   1      29.390  -6.388 -11.512  0.00  0.00     0.035 H 
ATOM     44  H4  PRO d   1      29.224  -3.765 -10.324  0.00  0.00     0.036 H 
ATOM     45  H5  PRO d   1      30.338  -5.106  -9.892  0.00  0.00     0.036 H 
ATOM     46  H3  PRO d   1      31.039  -2.607 -11.171  0.00  0.00     0.099 H 
ENDBRANCH  30  33
ENDBRANCH  27  29
BRANCH  27  47
ATOM     47  CB  HIS d   1      35.014  -2.897  -8.478  0.00  0.00     0.002 C 
ATOM     48  H12 HIS d   1      34.672  -2.207  -7.693  0.00  0.00     0.046 H 
ATOM     49  H13 HIS d   1      35.083  -2.359  -9.435  0.00  0.00     0.046 H 
BRANCH  47  50
ATOM     50  CG  HIS d   1      36.434  -3.403  -8.099  0.00  0.00     0.030 A 
ATOM     51  ND1 HIS d   1      36.672  -4.207  -6.976  0.00  0.00    -0.353 N 
ATOM     52  CE1 HIS d   1      37.972  -4.460  -6.911  0.00  0.00     0.063 A 
ATOM     53  H14 HIS d   1      35.959  -4.544  -6.314  0.00  0.00     0.166 HD
ATOM     54  NE2 HIS d   1      38.570  -3.869  -7.911  0.00  0.00    -0.254 NA
ATOM     55  H16 HIS d   1      38.462  -5.063  -6.148  0.00  0.00     0.143 H 
ATOM     56  CD2 HIS d   1      37.656  -3.203  -8.671  0.00  0.00     0.025 A 
ATOM     57  H15 HIS d   1      37.862  -2.620  -9.567  0.00  0.00     0.117 H 
ENDBRANCH  47  50
ENDBRANCH  27  47
ENDBRANCH  15  27
ENDBRANCH  10  13
ENDBRANCH   7   9
BRANCH   7  58
ATOM     58  CB  PHE d   1      34.056  -5.172  -1.484  0.00  0.00    -0.014 C 
ATOM     59  H26 PHE d   1      34.377  -5.448  -0.469  0.00  0.00     0.043 H 
ATOM     60  H27 PHE d   1      33.015  -4.818  -1.456  0.00  0.00     0.043 H 
BRANCH  58  61
ATOM     61  CG  PHE d   1      34.949  -4.029  -1.986  0.00  0.00    -0.056 A 
ATOM     62  CD1 PHE d   1      36.314  -4.018  -1.675  0.00  0.00    -0.077 A 
ATOM     63  CE1 PHE d   1      37.131  -2.977  -2.136  0.00  0.00    -0.082 A 
ATOM     64  H28 PHE d   1      36.739  -4.816  -1.077  0.00  0.00     0.084 H 
ATOM     65  CZ  PHE d   1      36.582  -1.947  -2.909  0.00  0.00    -0.083 A 
ATOM     66  H30 PHE d   1      38.188  -2.969  -1.894  0.00  0.00     0.083 H 
ATOM     67  CE2 PHE d   1      35.218  -1.957  -3.222  0.00  0.00    -0.082 A 
ATOM     68  H32 PHE d   1      37.214  -1.141  -3.265  0.00  0.00     0.083 H 
ATOM     69  CD2 PHE d   1      34.401  -2.998  -2.761  0.00  0.00    -0.077 A 
ATOM     70  H31 PHE d   1      34.794  -1.159  -3.821  0.00  0.00     0.083 H 
ATOM     71  H29 PHE d   1      33.345  -3.006  -3.004  0.00  0.00     0.084 H 
ENDBRANCH  58  61
ENDBRANCH   7  58
ENDBRANCH   4   7
ENDBRANCH   1   3
BRANCH   1  72
ATOM     72  C   HIS d   1      35.350  -9.438   0.992  0.00  0.00     0.241 C 
ATOM     73  O   HIS d   1      35.902 -10.429   1.491  0.00  0.00    -0.271 OA
ATOM     74  N   LAV d   1      35.325  -8.271   1.641  0.00  0.00    -0.353 N 
ATOM     75  H40 LAV d   1      34.713  -7.541   1.338  0.00  0.00     0.163 HD
BRANCH  74  76
ATOM     76  CA  LAV d   1      36.207  -8.063   2.810  0.00  0.00     0.035 C 
ATOM     77  H41 LAV d   1      37.118  -8.661   2.661  0.00  0.00     0.075 H 
BRANCH  76  78
ATOM     78  C   LAV d   1      35.532  -8.457   4.083  0.00  0.00     0.101 C 
ATOM     79  H42 LAV d   1      34.697  -7.764   4.266  0.00  0.00     0.078 H 
ATOM     80  H43 LAV d   1      36.260  -8.379   4.904  0.00  0.00     0.078 H 
BRANCH  78  81
ATOM     81  N   LAV d   1      34.997  -9.847   4.055  0.00  0.00    -0.060 N 
ATOM     82  H53 LAV d   1      35.412 -10.307   3.260  0.00  0.00     0.278 HD
ATOM     83  H54 LAV d   1      34.000  -9.777   3.921  0.00  0.00     0.278 HD
BRANCH  81  84
ATOM     84  CA  LAV d   1      35.221 -10.743   5.251  0.00  0.00     0.180 C 
ATOM     85  H55 LAV d   1      34.990 -10.200   6.179  0.00  0.00     0.100 H 
BRANCH  84  86
ATOM     86  C   LAV d   1      36.678 -11.212   5.244  0.00  0.00     0.249 C 
ATOM     87  O   LAV d   1      37.385 -11.094   4.232  0.00  0.00    -0.271 OA
ATOM     88  N   ILE d   1      37.140 -11.743   6.354  0.00  0.00    -0.346 N 
ATOM     89  H63 ILE d   1      36.542 -11.819   7.152  0.00  0.00     0.163 HD
BRANCH  88  90
ATOM     90  CA  ILE d   1      38.530 -12.228   6.435  0.00  0.00     0.092 C 
ATOM     91  H64 ILE d   1      39.139 -11.649   5.725  0.00  0.00     0.088 H 
BRANCH  90  92
ATOM     92  C   ILE d   1      38.606 -13.699   6.056  0.00  0.00     0.241 C 
ATOM     93  O   ILE d   1      37.597 -14.419   6.092  0.00  0.00    -0.271 OA
ATOM     94  N   HIS d   1      39.816 -14.084   5.711  0.00  0.00    -0.346 N 
ATOM     95  H74 HIS d   1      40.554 -13.409   5.735  0.00  0.00     0.163 HD
BRANCH  94  96
ATOM     96  CA  HIS d   1      40.136 -15.448   5.294  0.00  0.00     0.094 C 
ATOM     97  H75 HIS d   1      39.219 -15.938   4.935  0.00  0.00     0.088 H 
BRANCH  96  98
ATOM     98  C   HIS d   1      40.687 -16.230   6.464  0.00  0.00     0.238 C 
ATOM     99  O   HIS d   1      39.973 -17.012   7.110  0.00  0.00    -0.271 OA
ATOM    100  N   LYS d   1      41.940 -16.064   6.847  0.00  0.00    -0.368 N 
ATOM    101  H81 LYS d   1      42.299 -16.584   7.622  0.00  0.00     0.159 HD
ATOM    102  H82 LYS d   1      42.530 -15.418   6.362  0.00  0.00     0.159 HD
ENDBRANCH  96  98
BRANCH  96 103
ATOM    103  CB  HIS d   1      41.172 -15.414   4.149  0.00  0.00     0.002 C 
ATOM    104  H76 HIS d   1      42.169 -15.267   4.591  0.00  0.00     0.046 H 
ATOM    105  H77 HIS d   1      40.932 -14.564   3.493  0.00  0.00     0.046 H 
BRANCH 103 106
ATOM    106  CG  HIS d   1      41.210 -16.696   3.286  0.00  0.00     0.030 A 
ATOM    107  ND1 HIS d   1      42.413 -17.255   2.847  0.00  0.00    -0.353 N 
ATOM    108  CE1 HIS d   1      42.135 -18.325   2.121  0.00  0.00     0.063 A 
ATOM    109  H78 HIS d   1      43.356 -16.895   3.054  0.00  0.00     0.166 HD
ATOM    110  NE2 HIS d   1      40.837 -18.479   2.069  0.00  0.00    -0.254 NA
ATOM    111  H80 HIS d   1      42.868 -18.973   1.644  0.00  0.00     0.143 H 
ATOM    112  CD2 HIS d   1      40.226 -17.490   2.778  0.00  0.00     0.025 A 
ATOM    113  H79 HIS d   1      39.154 -17.358   2.913  0.00  0.00     0.117 H 
ENDBRANCH 103 106
ENDBRANCH  96 103
ENDBRANCH  94  96
ENDBRANCH  90  92
BRANCH  90 114
ATOM    114  CB  ILE d   1      39.106 -12.040   7.830  0.00  0.00    -0.030 C 
ATOM    115  H65 ILE d   1      39.156 -10.958   8.023  0.00  0.00     0.043 H 
BRANCH 114 116
ATOM    116  CG1 ILE d   1      40.515 -12.626   7.962  0.00  0.00    -0.063 C 
ATOM    117  H66 ILE d   1      41.216 -11.979   7.414  0.00  0.00     0.033 H 
ATOM    118  H67 ILE d   1      40.519 -13.632   7.517  0.00  0.00     0.033 H 
BRANCH 116 119
ATOM    119  CD1 ILE d   1      40.985 -12.734   9.414  0.00  0.00    -0.076 C 
ATOM    120  H71 ILE d   1      41.999 -13.160   9.441  0.00  0.00     0.027 H 
ATOM    121  H72 ILE d   1      40.299 -13.386   9.974  0.00  0.00     0.027 H 
ATOM    122  H73 ILE d   1      40.995 -11.734   9.871  0.00  0.00     0.027 H 
ENDBRANCH 116 119
ENDBRANCH 114 116
BRANCH 114 123
ATOM    123  CG2 ILE d   1      38.251 -12.688   8.921  0.00  0.00    -0.071 C 
ATOM    124  H68 ILE d   1      37.225 -12.295   8.864  0.00  0.00     0.028 H 
ATOM    125  H69 ILE d   1      38.678 -12.456   9.908  0.00  0.00     0.028 H 
ATOM    126  H70 ILE d   1      38.235 -13.778   8.775  0.00  0.00     0.028 H 
ENDBRANCH 114 123
ENDBRANCH  90 114
ENDBRANCH  88  90
ENDBRANCH  84  86
BRANCH  84 127
ATOM    127  CB  LAV d   1      34.345 -12.009   5.134  0.00  0.00    -0.025 C 
ATOM    128  H56 LAV d   1      33.337 -11.685   4.836  0.00  0.00     0.042 H 
BRANCH 127 129
ATOM    129  CG1 LAV d   1      34.872 -13.007   4.101  0.00  0.00    -0.071 C 
ATOM    130  H57 LAV d   1      34.208 -13.883   4.065  0.00  0.00     0.028 H 
ATOM    131  H58 LAV d   1      35.886 -13.327   4.384  0.00  0.00     0.028 H 
ATOM    132  H59 LAV d   1      34.902 -12.529   3.111  0.00  0.00     0.028 H 
ENDBRANCH 127 129
BRANCH 127 133
ATOM    133  CG2 LAV d   1      34.246 -12.796   6.444  0.00  0.00    -0.071 C 
ATOM    134  H60 LAV d   1      33.870 -12.137   7.240  0.00  0.00     0.028 H 
ATOM    135  H61 LAV d   1      35.241 -13.175   6.721  0.00  0.00     0.028 H 
ATOM    136  H62 LAV d   1      33.556 -13.642   6.312  0.00  0.00     0.028 H 
ENDBRANCH 127 133
ENDBRANCH  84 127
ENDBRANCH  81  84
ENDBRANCH  78  81
ENDBRANCH  76  78
BRANCH  76 137
ATOM    137  CB  LAV d   1      36.580  -6.622   3.056  0.00  0.00    -0.042 C 
ATOM    138  H44 LAV d   1      37.257  -6.580   3.922  0.00  0.00     0.036 H 
ATOM    139  H45 LAV d   1      35.663  -6.058   3.280  0.00  0.00     0.036 H 
BRANCH 137 140
ATOM    140  CG  LAV d   1      37.275  -5.963   1.865  0.00  0.00    -0.059 C 
ATOM    141  H46 LAV d   1      36.671  -6.177   0.971  0.00  0.00     0.038 H 
BRANCH 140 142
ATOM    142  CD1 LAV d   1      37.410  -4.447   2.018  0.00  0.00    -0.073 C 
ATOM    143  H47 LAV d   1      37.916  -4.033   1.133  0.00  0.00     0.028 H 
ATOM    144  H48 LAV d   1      38.001  -4.220   2.918  0.00  0.00     0.028 H 
ATOM    145  H49 LAV d   1      36.410  -3.998   2.113  0.00  0.00     0.028 H 
ENDBRANCH 140 142
BRANCH 140 146
ATOM    146  CD2 LAV d   1      38.695  -6.486   1.638  0.00  0.00    -0.073 C 
ATOM    147  H50 LAV d   1      38.668  -7.579   1.519  0.00  0.00     0.028 H 
ATOM    148  H51 LAV d   1      39.324  -6.226   2.502  0.00  0.00     0.028 H 
ATOM    149  H52 LAV d   1      39.113  -6.029   0.729  0.00  0.00     0.028 H 
ENDBRANCH 140 146
ENDBRANCH 137 140
ENDBRANCH  76 137
ENDBRANCH  74  76
ENDBRANCH   1  72
BRANCH   1 150
ATOM    150  CB  HIS d   1      35.287 -10.732  -1.175  0.00  0.00     0.002 C 
ATOM    151  H35 HIS d   1      34.867 -11.664  -0.768  0.00  0.00     0.046 H 
ATOM    152  H36 HIS d   1      36.381 -10.742  -1.059  0.00  0.00     0.046 H 
BRANCH 150 153
ATOM    153  CG  HIS d   1      34.956 -10.661  -2.668  0.00  0.00     0.030 A 
ATOM    154  ND1 HIS d   1      35.827 -10.207  -3.655  0.00  0.00    -0.353 N 
ATOM    155  CE1 HIS d   1      35.201 -10.290  -4.895  0.00  0.00     0.063 A 
ATOM    156  H37 HIS d   1      36.784  -9.864  -3.493  0.00  0.00     0.166 HD
ATOM    157  NE2 HIS d   1      33.910 -10.785  -4.665  0.00  0.00    -0.254 NA
ATOM    158  H39 HIS d   1      35.631 -10.022  -5.859  0.00  0.00     0.143 H 
ATOM    159  CD2 HIS d   1      33.763 -11.022  -3.314  0.00  0.00     0.025 A 
ATOM    160  H38 HIS d   1      32.873 -11.421  -2.831  0.00  0.00     0.117 H 
ENDBRANCH 150 153
ENDBRANCH   1 150
TORSDOF 36
