REMARK  8 active torsions:
REMARK  status: ('A' for Active; 'I' for Inactive)
REMARK    1  A    between atoms: N_1  and  C3_10 
REMARK    2  A    between atoms: C1_6  and  N5_15 
REMARK    3  A    between atoms: C2_8  and  N4_11 
REMARK    4  A    between atoms: N4_11  and  C4_12 
REMARK    5  A    between atoms: C4_12  and  C5_13 
REMARK    6  A    between atoms: C5_13  and  O_14 
REMARK    7  A    between atoms: N5_15  and  C6_16 
REMARK    8  A    between atoms: C6_16  and  C12_22 
ROOT
ATOM      1  N   OLO d   1     -16.170  11.595  40.331  0.00  0.00    -0.328 N 
ATOM      2  C   OLO d   1     -17.307  10.999  40.841  0.00  0.00     0.068 A 
ATOM      3  N1  OLO d   1     -18.201  11.687  41.646  0.00  0.00    -0.236 NA
ATOM      4  C3A OLO d   1     -17.558  12.910  41.668  0.00  0.00     0.150 A 
ATOM      5  C7A OLO d   1     -16.348  12.860  40.885  0.00  0.00     0.182 A 
ATOM      6  C1  OLO d   1     -17.931  14.124  42.339  0.00  0.00     0.176 A 
ATOM      7  N2  OLO d   1     -17.078  15.245  42.200  0.00  0.00    -0.043 NA
ATOM      8  C2  OLO d   1     -15.892  15.212  41.429  0.00  0.00     0.726 A 
ATOM      9  N3  OLO d   1     -15.521  14.021  40.770  0.00  0.00    -0.042 NA
ATOM     10  H1  OLO d   1     -17.507   9.955  40.603  0.00  0.00     0.143 H 
ENDROOT
BRANCH   6  11
ATOM     11  N5  OLO d   1     -19.157  14.148  43.131  0.00  0.00    -0.368 N 
ATOM     12  H11 OLO d   1     -19.689  13.267  43.096  0.00  0.00     0.161 HD
BRANCH  11  13
ATOM     13  C6  OLO d   1     -19.790  15.193  43.979  0.00  0.00     0.018 C 
ATOM     14  H12 OLO d   1     -19.959  14.748  44.971  0.00  0.00     0.071 H 
ATOM     15  H13 OLO d   1     -20.758  15.442  43.519  0.00  0.00     0.071 H 
BRANCH  13  16
ATOM     16  C12 OLO d   1     -19.045  16.506  44.197  0.00  0.00    -0.041 A 
ATOM     17  C11 OLO d   1     -19.405  17.695  43.507  0.00  0.00    -0.075 A 
ATOM     18  C10 OLO d   1     -18.688  18.898  43.749  0.00  0.00    -0.082 A 
ATOM     19  H18 OLO d   1     -20.225  17.684  42.798  0.00  0.00     0.084 H 
ATOM     20  C9  OLO d   1     -17.612  18.917  44.680  0.00  0.00    -0.083 A 
ATOM     21  H17 OLO d   1     -18.962  19.805  43.222  0.00  0.00     0.083 H 
ATOM     22  C8  OLO d   1     -17.248  17.732  45.373  0.00  0.00    -0.082 A 
ATOM     23  H16 OLO d   1     -17.069  19.838  44.861  0.00  0.00     0.083 H 
ATOM     24  C7  OLO d   1     -17.958  16.534  45.136  0.00  0.00    -0.075 A 
ATOM     25  H15 OLO d   1     -16.428  17.747  46.082  0.00  0.00     0.083 H 
ATOM     26  H14 OLO d   1     -17.681  15.630  45.666  0.00  0.00     0.084 H 
ENDBRANCH  13  16
ENDBRANCH  11  13
ENDBRANCH   6  11
BRANCH   8  27
ATOM     27  N4  OLO d   1     -15.064  16.399  41.321  0.00  0.00    -0.220 N 
ATOM     28  H5  OLO d   1     -14.072  16.233  41.098  0.00  0.00     0.177 HD
BRANCH  27  29
ATOM     29  C4  OLO d   1     -15.454  17.811  41.488  0.00  0.00     0.029 C 
ATOM     30  H6  OLO d   1     -16.337  17.857  42.143  0.00  0.00     0.068 H 
ATOM     31  H7  OLO d   1     -15.708  18.225  40.501  0.00  0.00     0.068 H 
BRANCH  29  32
ATOM     32  C5  OLO d   1     -14.339  18.663  42.106  0.00  0.00     0.032 C 
ATOM     33  H8  OLO d   1     -14.470  19.709  41.792  0.00  0.00     0.076 H 
ATOM     34  H9  OLO d   1     -13.366  18.293  41.751  0.00  0.00     0.076 H 
BRANCH  32  35
ATOM     35  O   OLO d   1     -14.372  18.596  43.526  0.00  0.00    -0.399 OA
ATOM     36  H10 OLO d   1     -13.673  19.131  43.883  0.00  0.00     0.209 HD
ENDBRANCH  32  35
ENDBRANCH  29  32
ENDBRANCH  27  29
ENDBRANCH   8  27
BRANCH   1  37
ATOM     37  C3  OLO d   1     -15.104  11.036  39.466  0.00  0.00    -0.012 C 
ATOM     38  H2  OLO d   1     -14.353  11.813  39.262  0.00  0.00     0.057 H 
ATOM     39  H3  OLO d   1     -15.543  10.693  38.518  0.00  0.00     0.057 H 
ATOM     40  H4  OLO d   1     -14.625  10.188  39.977  0.00  0.00     0.057 H 
ENDBRANCH   1  37
TORSDOF 8
