REMARK WARNING: 32 MAX_TORS EXCEEDED!!!
REMARK  54 active torsions:
REMARK  status: ('A' for Active; 'I' for Inactive)
REMARK    1  A    between atoms: N_1  and  CA_2 
REMARK    2  A    between atoms: CA_2  and  C_3 
REMARK    3  A    between atoms: CA_2  and  CB_5 
REMARK       I    between atoms: C_3  and  N_9 
REMARK    4  A    between atoms: CB_5  and  CG1_6 
REMARK    5  A    between atoms: CB_5  and  CG2_7 
REMARK    6  A    between atoms: CG1_6  and  CD1_8 
REMARK    7  A    between atoms: N_9  and  CA_10 
REMARK    8  A    between atoms: CA_10  and  C_11 
REMARK    9  A    between atoms: CA_10  and  CB_13 
REMARK       I    between atoms: C_11  and  N_17 
REMARK   10  A    between atoms: CB_13  and  CG_14 
REMARK       I    between atoms: CG_14  and  ND2_16 
REMARK   11  A    between atoms: CA_18  and  C_19 
REMARK       I    between atoms: C_19  and  N_24 
REMARK   12  A    between atoms: N_24  and  CA_25 
REMARK   13  A    between atoms: CA_25  and  C_26 
REMARK   14  A    between atoms: CA_25  and  CB_28 
REMARK       I    between atoms: C_26  and  N_31 
REMARK   15  A    between atoms: CB_28  and  OG1_29 
REMARK   16  A    between atoms: CB_28  and  CG2_30 
REMARK   17  A    between atoms: N_31  and  CA_32 
REMARK   18  A    between atoms: CA_32  and  C_33 
REMARK       I    between atoms: C_33  and  N_35 
REMARK   19  A    between atoms: N_35  and  CA_36 
REMARK   20  A    between atoms: CA_36  and  C_37 
REMARK   21  A    between atoms: CA_36  and  CB_39 
REMARK       I    between atoms: C_37  and  N_41 
REMARK   22  A    between atoms: CB_39  and  SG_40 
REMARK   23  A    between atoms: N_41  and  CA_42 
REMARK   24  A    between atoms: CA_42  and  C_43 
REMARK   25  A    between atoms: CA_42  and  CB_45 
REMARK       I    between atoms: C_43  and  N_46 
REMARK   26  A    between atoms: N_46  and  CA_47 
REMARK   27  A    between atoms: CA_47  and  C_48 
REMARK   28  A    between atoms: CA_47  and  CB_50 
REMARK       I    between atoms: C_48  and  N_57 
REMARK   29  A    between atoms: CB_50  and  CG_51 
REMARK   30  A    between atoms: CG_51  and  CD_52 
REMARK   31  A    between atoms: CD_52  and  NE_53 
REMARK       I    between atoms: NE_53  and  CZ_54 
REMARK       I    between atoms: CZ_54  and  NH1_55 
REMARK   32  A    between atoms: N_57  and  CA_58 
REMARK   33  A    between atoms: CA_58  and  C_59 
REMARK   34  A    between atoms: CA_58  and  CB_61 
REMARK       I    between atoms: C_59  and  N_63 
REMARK   35  A    between atoms: CB_61  and  OG_62 
REMARK   36  A    between atoms: N_63  and  CA_64 
REMARK   37  A    between atoms: CA_64  and  C_65 
REMARK   38  A    between atoms: CA_64  and  CB_67 
REMARK       I    between atoms: C_65  and  N_72 
REMARK   39  A    between atoms: CB_67  and  CG_68 
REMARK   40  A    between atoms: CG_68  and  CD_69 
REMARK   41  A    between atoms: CA_73  and  C_74 
REMARK       I    between atoms: C_74  and  N_79 
REMARK   42  A    between atoms: N_79  and  CA_80 
REMARK   43  A    between atoms: CA_80  and  C_81 
REMARK   44  A    between atoms: CA_80  and  CB_83 
REMARK       I    between atoms: C_81  and  N_88 
REMARK   45  A    between atoms: CB_83  and  CG_84 
REMARK   46  A    between atoms: CG_84  and  CD_85 
REMARK   47  A    between atoms: CD_85  and  CE_86 
REMARK   48  A    between atoms: CE_86  and  NZ_87 
REMARK   49  A    between atoms: N_88  and  CA_89 
REMARK   50  A    between atoms: CA_89  and  C_90 
REMARK   51  A    between atoms: CA_89  and  CB_92 
REMARK   52  A    between atoms: CB_92  and  CG1_93 
REMARK   53  A    between atoms: CB_92  and  CG2_94 
REMARK   54  A    between atoms: CG1_93  and  CD1_95 
ROOT
ATOM      1  CA  ARG d   1     -34.630   7.615 -31.503  0.00  0.00     0.089 C 
ATOM      2  H   ARG d   1     -35.544   7.954 -30.993  0.00  0.00     0.087 H 
ENDROOT
BRANCH   1   3
ATOM      3  N   ARG d   1     -34.081   8.766 -32.228  0.00  0.00    -0.346 N 
ATOM      4  C   ALA d   1     -33.897   9.919 -31.588  0.00  0.00     0.240 C 
ATOM      5  O   ALA d   1     -34.067  10.030 -30.369  0.00  0.00    -0.271 OA
ATOM      6  H   ARG d   1     -33.846   8.685 -33.197  0.00  0.00     0.163 HD
BRANCH   4   7
ATOM      7  CA  ALA d   1     -33.469  11.140 -32.424  0.00  0.00     0.086 C 
ATOM      8  H   ALA d   1     -33.026  11.870 -31.731  0.00  0.00     0.086 H 
BRANCH   7   9
ATOM      9  N   ALA d   1     -32.462  10.832 -33.428  0.00  0.00    -0.346 N 
ATOM     10  C   CYS d   1     -31.276  10.324 -33.098  0.00  0.00     0.241 C 
ATOM     11  O   CYS d   1     -30.964  10.042 -31.937  0.00  0.00    -0.271 OA
ATOM     12  H   ALA d   1     -32.666  11.006 -34.391  0.00  0.00     0.163 HD
BRANCH  10  13
ATOM     13  CA  CYS d   1     -30.292  10.122 -34.246  0.00  0.00     0.097 C 
ATOM     14  H   CYS d   1     -30.375  10.991 -34.915  0.00  0.00     0.088 H 
BRANCH  13  15
ATOM     15  N   CYS d   1     -28.905  10.071 -33.752  0.00  0.00    -0.346 N 
ATOM     16  C   GLY d   1     -27.895  10.440 -34.538  0.00  0.00     0.236 C 
ATOM     17  O   GLY d   1     -28.054  10.724 -35.726  0.00  0.00    -0.272 OA
ATOM     18  H   CYS d   1     -28.721   9.757 -32.821  0.00  0.00     0.163 HD
BRANCH  16  19
ATOM     19  CA  GLY d   1     -26.500  10.466 -33.926  0.00  0.00     0.069 C 
ATOM     20  H   GLY d   1     -25.991   9.532 -34.205  0.00  0.00     0.078 H 
ATOM     21  H   GLY d   1     -25.958  11.321 -34.356  0.00  0.00     0.078 H 
BRANCH  19  22
ATOM     22  N   GLY d   1     -26.447  10.587 -32.481  0.00  0.00    -0.350 N 
ATOM     23  C   THR d   1     -25.919   9.612 -31.743  0.00  0.00     0.243 C 
ATOM     24  O   THR d   1     -25.503   8.558 -32.228  0.00  0.00    -0.271 OA
ATOM     25  H   GLY d   1     -26.809  11.407 -32.037  0.00  0.00     0.163 HD
BRANCH  23  26
ATOM     26  CA  THR d   1     -25.865   9.834 -30.241  0.00  0.00     0.113 C 
ATOM     27  H   THR d   1     -24.891   9.477 -29.875  0.00  0.00     0.091 H 
BRANCH  26  28
ATOM     28  N   THR d   1     -25.975  11.245 -29.882  0.00  0.00    -0.344 N 
ATOM     29  C   PRO d   1     -24.956  12.076 -30.099  0.00  0.00     0.241 C 
ATOM     30  O   PRO d   1     -23.872  11.711 -30.573  0.00  0.00    -0.271 OA
ATOM     31  H   THR d   1     -26.819  11.589 -29.471  0.00  0.00     0.163 HD
BRANCH  29  32
ATOM     32  CA  PRO d   1     -25.145  13.540 -29.721  0.00  0.00     0.091 C 
ATOM     33  N   PRO d   1     -26.510  14.032 -29.962  0.00  0.00    -0.337 N 
ATOM     34  C   ASN d   1     -27.114  13.973 -31.165  0.00  0.00     0.243 C 
ATOM     35  CD  PRO d   1     -27.132  14.564 -28.735  0.00  0.00    -0.001 C 
ATOM     36  O   ASN d   1     -26.604  13.428 -32.147  0.00  0.00    -0.271 OA
ATOM     37  CG  PRO d   1     -25.977  14.719 -27.793  0.00  0.00    -0.048 C 
ATOM     38  H   PRO d   1     -27.874  13.859 -28.333  0.00  0.00     0.064 H 
ATOM     39  H   PRO d   1     -27.614  15.534 -28.928  0.00  0.00     0.064 H 
ATOM     40  CB  PRO d   1     -24.976  13.686 -28.201  0.00  0.00    -0.036 C 
ATOM     41  H   PRO d   1     -25.545  15.727 -27.880  0.00  0.00     0.035 H 
ATOM     42  H   PRO d   1     -26.303  14.548 -26.756  0.00  0.00     0.035 H 
ATOM     43  H   PRO d   1     -23.956  14.019 -27.956  0.00  0.00     0.036 H 
ATOM     44  H   PRO d   1     -25.181  12.730 -27.697  0.00  0.00     0.036 H 
ATOM     45  H   PRO d   1     -24.414  14.155 -30.266  0.00  0.00     0.087 H 
BRANCH  34  46
ATOM     46  CA  ASN d   1     -28.484  14.635 -31.283  0.00  0.00     0.097 C 
ATOM     47  H   ASN d   1     -28.767  15.033 -30.297  0.00  0.00     0.088 H 
BRANCH  46  48
ATOM     48  N   ASN d   1     -28.423  15.742 -32.231  0.00  0.00    -0.346 N 
ATOM     49  C   ILE d   1     -28.134  16.982 -31.840  0.00  0.00     0.249 C 
ATOM     50  O   ILE d   1     -27.982  17.297 -30.657  0.00  0.00    -0.271 OA
ATOM     51  H   ASN d   1     -28.603  15.566 -33.199  0.00  0.00     0.163 HD
BRANCH  49  52
ATOM     52  CA  ILE d   1     -28.001  18.033 -32.941  0.00  0.00     0.179 C 
ATOM     53  H   ILE d   1     -28.343  17.594 -33.890  0.00  0.00     0.099 H 
BRANCH  52  54
ATOM     54  N   ILE d   1     -28.830  19.207 -32.660  0.00  0.00    -0.066 N 
ATOM     55  H   ILE d   1     -29.794  18.925 -32.575  0.00  0.00     0.275 HD
ATOM     56  H   ILE d   1     -28.739  19.870 -33.413  0.00  0.00     0.275 HD
ATOM     57  H   ILE d   1     -28.527  19.634 -31.798  0.00  0.00     0.275 HD
ENDBRANCH  52  54
BRANCH  52  58
ATOM     58  CB  ILE d   1     -26.515  18.409 -33.081  0.00  0.00    -0.022 C 
ATOM     59  H   ILE d   1     -26.228  19.023 -32.214  0.00  0.00     0.043 H 
BRANCH  58  60
ATOM     60  CG1 ILE d   1     -26.286  19.225 -34.354  0.00  0.00    -0.063 C 
ATOM     61  H   ILE d   1     -26.881  20.148 -34.287  0.00  0.00     0.033 H 
ATOM     62  H   ILE d   1     -26.627  18.630 -35.214  0.00  0.00     0.033 H 
BRANCH  60  63
ATOM     63  CD1 ILE d   1     -24.838  19.604 -34.578  0.00  0.00    -0.076 C 
ATOM     64  H   ILE d   1     -24.751  20.186 -35.507  0.00  0.00     0.027 H 
ATOM     65  H   ILE d   1     -24.228  18.692 -34.658  0.00  0.00     0.027 H 
ATOM     66  H   ILE d   1     -24.482  20.209 -33.731  0.00  0.00     0.027 H 
ENDBRANCH  60  63
ENDBRANCH  58  60
BRANCH  58  67
ATOM     67  CG2 ILE d   1     -25.638  17.155 -33.101  0.00  0.00    -0.070 C 
ATOM     68  H   ILE d   1     -25.808  16.574 -32.183  0.00  0.00     0.028 H 
ATOM     69  H   ILE d   1     -24.579  17.449 -33.158  0.00  0.00     0.028 H 
ATOM     70  H   ILE d   1     -25.896  16.541 -33.977  0.00  0.00     0.028 H 
ENDBRANCH  58  67
ENDBRANCH  52  58
ENDBRANCH  49  52
ENDBRANCH  46  48
BRANCH  46  71
ATOM     71  CB  ASN d   1     -29.546  13.611 -31.718  0.00  0.00     0.036 C 
ATOM     72  H   ASN d   1     -29.470  12.726 -31.068  0.00  0.00     0.051 H 
ATOM     73  H   ASN d   1     -29.349  13.319 -32.760  0.00  0.00     0.051 H 
BRANCH  71  74
ATOM     74  CG  ASN d   1     -30.963  14.165 -31.626  0.00  0.00     0.217 C 
ATOM     75  OD1 ASN d   1     -31.357  14.718 -30.598  0.00  0.00    -0.274 OA
ATOM     76  ND2 ASN d   1     -31.729  14.038 -32.709  0.00  0.00    -0.370 N 
ATOM     77  H   ASN d   1     -32.667  14.385 -32.702  0.00  0.00     0.159 HD
ATOM     78  H   ASN d   1     -31.366  13.596 -33.529  0.00  0.00     0.159 HD
ENDBRANCH  71  74
ENDBRANCH  46  71
ENDBRANCH  34  46
ENDBRANCH  29  32
ENDBRANCH  26  28
BRANCH  26  79
ATOM     79  CB  THR d   1     -26.967   8.977 -29.595  0.00  0.00     0.060 C 
ATOM     80  H   THR d   1     -26.812   7.925 -29.876  0.00  0.00     0.086 H 
BRANCH  79  81
ATOM     81  OG1 THR d   1     -28.246   9.407 -30.083  0.00  0.00    -0.393 OA
ATOM     82  H   THR d   1     -28.379  10.320 -29.858  0.00  0.00     0.210 HD
ENDBRANCH  79  81
BRANCH  79  83
ATOM     83  CG2 THR d   1     -26.911   9.090 -28.076  0.00  0.00    -0.050 C 
ATOM     84  H   THR d   1     -27.705   8.471 -27.633  0.00  0.00     0.031 H 
ATOM     85  H   THR d   1     -27.056  10.140 -27.781  0.00  0.00     0.031 H 
ATOM     86  H   THR d   1     -25.931   8.741 -27.718  0.00  0.00     0.031 H 
ENDBRANCH  79  83
ENDBRANCH  26  79
ENDBRANCH  23  26
ENDBRANCH  19  22
ENDBRANCH  16  19
ENDBRANCH  13  15
BRANCH  13  87
ATOM     87  CB  CYS d   1     -30.647   8.869 -35.064  0.00  0.00     0.001 C 
ATOM     88  H   CYS d   1     -29.779   8.612 -35.690  0.00  0.00     0.052 H 
ATOM     89  H   CYS d   1     -31.504   9.113 -35.708  0.00  0.00     0.052 H 
BRANCH  87  90
ATOM     90  SG  CYS d   1     -31.086   7.395 -34.066  0.00  0.00    -0.180 SA
ATOM     91  H   CYS d   1     -30.307   7.146 -33.476  0.00  0.00     0.101 HD
ENDBRANCH  87  90
ENDBRANCH  13  87
ENDBRANCH  10  13
ENDBRANCH   7   9
BRANCH   7  92
ATOM     92  CB  ALA d   1     -34.689  11.795 -33.081  0.00  0.00    -0.049 C 
ATOM     93  H   ALA d   1     -35.442  12.022 -32.312  0.00  0.00     0.030 H 
ATOM     94  H   ALA d   1     -35.120  11.107 -33.823  0.00  0.00     0.030 H 
ATOM     95  H   ALA d   1     -34.381  12.726 -33.580  0.00  0.00     0.030 H 
ENDBRANCH   7  92
ENDBRANCH   4   7
ENDBRANCH   1   3
BRANCH   1  96
ATOM     96  C   ARG d   1     -33.661   7.121 -30.445  0.00  0.00     0.241 C 
ATOM     97  O   ARG d   1     -34.083   6.589 -29.423  0.00  0.00    -0.271 OA
ATOM     98  N   SER d   1     -32.365   7.310 -30.668  0.00  0.00    -0.344 N 
ATOM     99  H   SER d   1     -32.059   7.782 -31.494  0.00  0.00     0.163 HD
BRANCH  98 100
ATOM    100  CA  SER d   1     -31.389   6.820 -29.692  0.00  0.00     0.109 C 
ATOM    101  H   SER d   1     -31.841   5.929 -29.231  0.00  0.00     0.090 H 
BRANCH 100 102
ATOM    102  C   SER d   1     -31.105   7.799 -28.533  0.00  0.00     0.243 C 
ATOM    103  O   SER d   1     -30.267   7.508 -27.671  0.00  0.00    -0.271 OA
ATOM    104  N   GLU d   1     -31.805   8.939 -28.501  0.00  0.00    -0.346 N 
ATOM    105  H   GLU d   1     -32.382   9.177 -29.282  0.00  0.00     0.163 HD
BRANCH 104 106
ATOM    106  CA  GLU d   1     -31.750   9.856 -27.345  0.00  0.00     0.090 C 
ATOM    107  H   GLU d   1     -30.790   9.708 -26.830  0.00  0.00     0.087 H 
BRANCH 106 108
ATOM    108  C   GLU d   1     -32.892   9.584 -26.364  0.00  0.00     0.243 C 
ATOM    109  O   GLU d   1     -34.021   9.298 -26.784  0.00  0.00    -0.271 OA
ATOM    110  N   PRO d   1     -32.615   9.692 -25.050  0.00  0.00    -0.337 N 
ATOM    111  CA  PRO d   1     -33.690   9.534 -24.062  0.00  0.00     0.091 C 
ATOM    112  CD  PRO d   1     -31.313   9.988 -24.419  0.00  0.00    -0.001 C 
ATOM    113  CB  PRO d   1     -32.927   9.405 -22.738  0.00  0.00    -0.036 C 
ATOM    114  H   PRO d   1     -34.298   8.641 -24.267  0.00  0.00     0.087 H 
ATOM    115  CG  PRO d   1     -31.673  10.200 -22.951  0.00  0.00    -0.048 C 
ATOM    116  H   PRO d   1     -32.689   8.352 -22.527  0.00  0.00     0.036 H 
ATOM    117  H   PRO d   1     -33.516   9.822 -21.907  0.00  0.00     0.036 H 
ATOM    118  H   PRO d   1     -30.867   9.832 -22.299  0.00  0.00     0.035 H 
ATOM    119  H   PRO d   1     -31.852  11.266 -22.747  0.00  0.00     0.035 H 
ATOM    120  H   PRO d   1     -30.864  10.895 -24.849  0.00  0.00     0.064 H 
ATOM    121  H   PRO d   1     -30.618   9.144 -24.536  0.00  0.00     0.064 H 
BRANCH 111 122
ATOM    122  C   PRO d   1     -34.573  10.775 -24.036  0.00  0.00     0.241 C 
ATOM    123  O   PRO d   1     -34.080  11.872 -24.300  0.00  0.00    -0.271 OA
ATOM    124  N   LYS d   1     -35.856  10.606 -23.745  0.00  0.00    -0.346 N 
ATOM    125  H   LYS d   1     -36.207   9.681 -23.596  0.00  0.00     0.163 HD
BRANCH 124 126
ATOM    126  CA  LYS d   1     -36.763  11.738 -23.639  0.00  0.00     0.089 C 
ATOM    127  H   LYS d   1     -36.511  12.485 -24.406  0.00  0.00     0.087 H 
BRANCH 126 128
ATOM    128  C   LYS d   1     -36.598  12.342 -22.260  0.00  0.00     0.241 C 
ATOM    129  O   LYS d   1     -36.673  11.631 -21.259  0.00  0.00    -0.271 OA
ATOM    130  N   ILE d   1     -36.363  13.649 -22.219  0.00  0.00    -0.344 N 
ATOM    131  H   ILE d   1     -36.321  14.154 -23.081  0.00  0.00     0.163 HD
BRANCH 130 132
ATOM    132  CA  ILE d   1     -36.163  14.381 -20.969  0.00  0.00     0.099 C 
ATOM    133  H   ILE d   1     -35.938  13.665 -20.165  0.00  0.00     0.090 H 
BRANCH 132 134
ATOM    134  C   ILE d   1     -37.424  15.165 -20.621  0.00  0.00     0.197 C 
ATOM    135  O   ILE d   1     -37.847  16.022 -21.403  0.00  0.00    -0.646 OA
ATOM    136  O1  ILE d   1     -38.032  14.939 -19.540  0.00  0.00    -0.646 OA
ENDBRANCH 132 134
BRANCH 132 137
ATOM    137  CB  ILE d   1     -34.997  15.392 -21.100  0.00  0.00    -0.029 C 
ATOM    138  H   ILE d   1     -35.199  16.026 -21.976  0.00  0.00     0.043 H 
BRANCH 137 139
ATOM    139  CG1 ILE d   1     -33.661  14.679 -21.342  0.00  0.00    -0.063 C 
ATOM    140  H   ILE d   1     -32.855  15.423 -21.259  0.00  0.00     0.033 H 
ATOM    141  H   ILE d   1     -33.673  14.264 -22.361  0.00  0.00     0.033 H 
BRANCH 139 142
ATOM    142  CD1 ILE d   1     -33.358  13.536 -20.365  0.00  0.00    -0.076 C 
ATOM    143  H   ILE d   1     -32.385  13.088 -20.616  0.00  0.00     0.027 H 
ATOM    144  H   ILE d   1     -34.145  12.771 -20.440  0.00  0.00     0.027 H 
ATOM    145  H   ILE d   1     -33.327  13.930 -19.338  0.00  0.00     0.027 H 
ENDBRANCH 139 142
ENDBRANCH 137 139
BRANCH 137 146
ATOM    146  CG2 ILE d   1     -34.936  16.291 -19.885  0.00  0.00    -0.070 C 
ATOM    147  H   ILE d   1     -35.909  16.784 -19.744  0.00  0.00     0.028 H 
ATOM    148  H   ILE d   1     -34.157  17.054 -20.032  0.00  0.00     0.028 H 
ATOM    149  H   ILE d   1     -34.697  15.690 -18.995  0.00  0.00     0.028 H 
ENDBRANCH 137 146
ENDBRANCH 132 137
ENDBRANCH 130 132
ENDBRANCH 126 128
BRANCH 126 150
ATOM    150  CB  LYS d   1     -38.212  11.290 -23.827  0.00  0.00    -0.038 C 
ATOM    151  H   LYS d   1     -38.432  10.517 -23.076  0.00  0.00     0.036 H 
ATOM    152  H   LYS d   1     -38.310  10.861 -24.835  0.00  0.00     0.036 H 
BRANCH 150 153
ATOM    153  CG  LYS d   1     -39.246  12.403 -23.681  0.00  0.00    -0.061 C 
ATOM    154  H   LYS d   1     -39.120  13.122 -24.504  0.00  0.00     0.033 H 
ATOM    155  H   LYS d   1     -39.090  12.915 -22.720  0.00  0.00     0.033 H 
BRANCH 153 156
ATOM    156  CD  LYS d   1     -40.667  11.839 -23.723  0.00  0.00    -0.043 C 
ATOM    157  H   LYS d   1     -40.843  11.257 -22.806  0.00  0.00     0.035 H 
ATOM    158  H   LYS d   1     -40.759  11.180 -24.599  0.00  0.00     0.035 H 
BRANCH 156 159
ATOM    159  CE  LYS d   1     -41.732  12.937 -23.820  0.00  0.00     0.080 C 
ATOM    160  H   LYS d   1     -42.723  12.463 -23.884  0.00  0.00     0.075 H 
ATOM    161  H   LYS d   1     -41.548  13.527 -24.730  0.00  0.00     0.075 H 
BRANCH 159 162
ATOM    162  NZ  LYS d   1     -41.715  13.851 -22.647  0.00  0.00    -0.079 N 
ATOM    163  H   LYS d   1     -42.430  14.553 -22.757  0.00  0.00     0.274 HD
ATOM    164  H   LYS d   1     -40.814  14.297 -22.582  0.00  0.00     0.274 HD
ATOM    165  H   LYS d   1     -41.890  13.322 -21.807  0.00  0.00     0.274 HD
ENDBRANCH 159 162
ENDBRANCH 156 159
ENDBRANCH 153 156
ENDBRANCH 150 153
ENDBRANCH 126 150
ENDBRANCH 124 126
ENDBRANCH 111 122
ENDBRANCH 106 108
BRANCH 106 166
ATOM    166  CB  GLU d   1     -31.861  11.319 -27.793  0.00  0.00    -0.029 C 
ATOM    167  H   GLU d   1     -31.754  11.957 -26.903  0.00  0.00     0.037 H 
ATOM    168  H   GLU d   1     -32.859  11.466 -28.232  0.00  0.00     0.037 H 
BRANCH 166 169
ATOM    169  CG  GLU d   1     -30.835  11.760 -28.809  0.00  0.00     0.018 C 
ATOM    170  H   GLU d   1     -31.126  12.748 -29.197  0.00  0.00     0.049 H 
ATOM    171  H   GLU d   1     -30.821  11.032 -29.634  0.00  0.00     0.049 H 
BRANCH 169 172
ATOM    172  CD  GLU d   1     -29.433  11.860 -28.224  0.00  0.00     0.172 C 
ATOM    173  OE1 GLU d   1     -28.456  11.783 -29.003  0.00  0.00    -0.648 OA
ATOM    174  OE2 GLU d   1     -29.310  12.023 -26.989  0.00  0.00    -0.648 OA
ENDBRANCH 169 172
ENDBRANCH 166 169
ENDBRANCH 106 166
ENDBRANCH 104 106
ENDBRANCH 100 102
BRANCH 100 175
ATOM    175  CB  SER d   1     -30.099   6.349 -30.375  0.00  0.00     0.044 C 
ATOM    176  H   SER d   1     -30.327   5.477 -31.006  0.00  0.00     0.077 H 
ATOM    177  H   SER d   1     -29.370   6.062 -29.602  0.00  0.00     0.077 H 
BRANCH 175 178
ATOM    178  OG  SER d   1     -29.533   7.368 -31.186  0.00  0.00    -0.398 OA
ATOM    179  H   SER d   1     -29.328   8.123 -30.647  0.00  0.00     0.209 HD
ENDBRANCH 175 178
ENDBRANCH 100 175
ENDBRANCH  98 100
ENDBRANCH   1  96
BRANCH   1 180
ATOM    180  CB  ARG d   1     -35.020   6.461 -32.435  0.00  0.00    -0.036 C 
ATOM    181  H   ARG d   1     -34.101   5.980 -32.801  0.00  0.00     0.036 H 
ATOM    182  H   ARG d   1     -35.583   6.872 -33.286  0.00  0.00     0.036 H 
BRANCH 180 183
ATOM    183  CG  ARG d   1     -35.895   5.388 -31.736  0.00  0.00    -0.048 C 
ATOM    184  H   ARG d   1     -36.793   5.875 -31.328  0.00  0.00     0.035 H 
ATOM    185  H   ARG d   1     -35.316   4.940 -30.915  0.00  0.00     0.035 H 
BRANCH 183 186
ATOM    186  CD  ARG d   1     -36.333   4.272 -32.697  0.00  0.00     0.009 C 
ATOM    187  H   ARG d   1     -36.873   3.507 -32.119  0.00  0.00     0.064 H 
ATOM    188  H   ARG d   1     -35.433   3.826 -33.145  0.00  0.00     0.064 H 
BRANCH 186 189
ATOM    189  NE  ARG d   1     -37.208   4.738 -33.780  0.00  0.00    -0.227 N 
ATOM    190  CZ  ARG d   1     -38.535   4.712 -33.734  0.00  0.00     0.665 C 
ATOM    191  NH1 ARG d   1     -39.147   4.254 -32.649  0.00  0.00    -0.235 N 
ATOM    192  NH2 ARG d   1     -39.249   5.145 -34.766  0.00  0.00    -0.235 N 
ATOM    193  H   ARG d   1     -40.176   4.232 -32.609  0.00  0.00     0.174 HD
ATOM    194  H   ARG d   1     -38.593   3.921 -31.847  0.00  0.00     0.174 HD
ATOM    195  H   ARG d   1     -38.774   5.500 -35.608  0.00  0.00     0.174 HD
ATOM    196  H   ARG d   1     -40.278   5.125 -34.725  0.00  0.00     0.174 HD
ATOM    197  H   ARG d   1     -36.763   5.110 -34.632  0.00  0.00     0.177 HD
ENDBRANCH 186 189
ENDBRANCH 183 186
ENDBRANCH 180 183
ENDBRANCH   1 180
TORSDOF 54
