REMARK  8 active torsions:
REMARK  status: ('A' for Active; 'I' for Inactive)
REMARK    1  A    between atoms: C25_2  and  N3_31 
REMARK    2  A    between atoms: C23_4  and  N4_34 
REMARK    3  A    between atoms: C22_5  and  O6_32 
REMARK    4  A    between atoms: C21_6  and  C26_7 
REMARK    5  A    between atoms: C21_6  and  N2_8 
REMARK    6  A    between atoms: C8_23  and  O5_24 
REMARK    7  A    between atoms: O6_32  and  C27_33 
REMARK    8  A    between atoms: N4_34  and  C28_35 
ROOT
ATOM      1  O4  STU d   1       0.109 -10.395  27.079  0.00  0.00    -0.333 OA
ATOM      2  C25 STU d   1      -1.338 -10.187  27.206  0.00  0.00     0.115 C 
ATOM      3  C24 STU d   1      -2.175 -10.523  25.956  0.00  0.00     0.005 C 
ATOM      4  C23 STU d   1      -1.257 -10.875  24.853  0.00  0.00     0.134 C 
ATOM      5  C22 STU d   1      -0.264  -9.769  24.704  0.00  0.00     0.113 C 
ATOM      6  C21 STU d   1       0.695  -9.782  25.975  0.00  0.00     0.168 C 
ATOM      7  H1  STU d   1      -1.682 -10.887  27.981  0.00  0.00     0.118 H 
ATOM      8  H2  STU d   1      -2.780  -9.650  25.670  0.00  0.00     0.042 H 
ATOM      9  H3  STU d   1      -2.838 -11.374  26.172  0.00  0.00     0.042 H 
ATOM     10  H4  STU d   1      -0.732 -11.814  25.081  0.00  0.00     0.088 H 
ATOM     11  H5  STU d   1       0.338  -9.930  23.798  0.00  0.00     0.094 H 
ENDROOT
BRANCH   4  12
ATOM     12  N4  STU d   1      -2.048 -11.039  23.632  0.00  0.00    -0.072 N 
ATOM     13  H26 STU d   1      -1.444 -10.938  22.831  0.00  0.00     0.277 HD
ATOM     14  H27 STU d   1      -2.764 -10.330  23.604  0.00  0.00     0.277 HD
BRANCH  12  15
ATOM     15  C28 STU d   1      -2.675 -12.351  23.594  0.00  0.00     0.065 C 
ATOM     16  H28 STU d   1      -3.262 -12.450  22.669  0.00  0.00     0.067 H 
ATOM     17  H29 STU d   1      -3.338 -12.466  24.464  0.00  0.00     0.067 H 
ATOM     18  H30 STU d   1      -1.898 -13.130  23.620  0.00  0.00     0.067 H 
ENDBRANCH  12  15
ENDBRANCH   4  12
BRANCH   5  19
ATOM     19  O6  STU d   1      -0.963  -8.549  24.581  0.00  0.00    -0.384 OA
BRANCH  19  20
ATOM     20  C27 STU d   1      -0.572  -7.575  23.650  0.00  0.00     0.005 C 
ATOM     21  H23 STU d   1      -1.247  -6.709  23.720  0.00  0.00     0.066 H 
ATOM     22  H24 STU d   1      -0.621  -7.997  22.635  0.00  0.00     0.066 H 
ATOM     23  H25 STU d   1       0.458  -7.255  23.865  0.00  0.00     0.066 H 
ENDBRANCH  19  20
ENDBRANCH   5  19
BRANCH   2  24
ATOM     24  N3  STU d   1      -1.571  -8.853  27.720  0.00  0.00    -0.316 N 
ATOM     25  C19 STU d   1      -0.787  -7.699  27.590  0.00  0.00     0.077 A 
ATOM     26  C18 STU d   1       0.402  -7.487  26.914  0.00  0.00     0.077 A 
ATOM     27  C6  STU d   1      -1.445  -6.636  28.329  0.00  0.00     0.017 A 
ATOM     28  N2  STU d   1       1.158  -8.335  26.181  0.00  0.00    -0.308 N 
ATOM     29  C11 STU d   1       1.005  -6.167  26.922  0.00  0.00     0.014 A 
ATOM     30  C17 STU d   1       2.335  -7.606  25.651  0.00  0.00     0.049 A 
ATOM     31  C12 STU d   1       2.251  -6.278  26.104  0.00  0.00     0.004 A 
ATOM     32  C16 STU d   1       3.458  -7.958  24.830  0.00  0.00    -0.056 A 
ATOM     33  C13 STU d   1       3.216  -5.327  25.781  0.00  0.00    -0.070 A 
ATOM     34  C14 STU d   1       4.321  -5.697  24.976  0.00  0.00    -0.082 A 
ATOM     35  H12 STU d   1       3.122  -4.310  26.144  0.00  0.00     0.084 H 
ATOM     36  C15 STU d   1       4.430  -7.017  24.515  0.00  0.00    -0.081 A 
ATOM     37  H11 STU d   1       5.077  -4.965  24.718  0.00  0.00     0.083 H 
ATOM     38  H10 STU d   1       5.280  -7.306  23.907  0.00  0.00     0.083 H 
ATOM     39  H9  STU d   1       3.549  -8.970  24.451  0.00  0.00     0.087 H 
ATOM     40  C10 STU d   1       0.368  -5.060  27.666  0.00  0.00    -0.008 A 
ATOM     41  C7  STU d   1      -0.815  -5.283  28.351  0.00  0.00     0.020 A 
ATOM     42  C9  STU d   1       0.719  -3.671  27.868  0.00  0.00     0.110 A 
ATOM     43  C8  STU d   1      -1.171  -4.015  28.965  0.00  0.00     0.218 A 
ATOM     44  N1  STU d   1      -0.239  -3.107  28.635  0.00  0.00    -0.041 N 
ATOM     45  H17 STU d   1      -0.637  -4.277  29.890  0.00  0.00     0.137 H 
ATOM     46  H15 STU d   1      -0.674  -2.356  28.123  0.00  0.00     0.281 HD
ATOM     47  H16 STU d   1       0.181  -2.742  29.476  0.00  0.00     0.281 HD
ATOM     48  H13 STU d   1       0.773  -3.155  26.898  0.00  0.00     0.083 H 
ATOM     49  H14 STU d   1       1.692  -3.602  28.375  0.00  0.00     0.083 H 
ATOM     50  C5  STU d   1      -2.721  -7.257  28.942  0.00  0.00     0.004 A 
ATOM     51  C20 STU d   1      -2.760  -8.643  28.539  0.00  0.00     0.048 A 
ATOM     52  C4  STU d   1      -3.750  -6.733  29.753  0.00  0.00    -0.070 A 
ATOM     53  C1  STU d   1      -3.831  -9.488  28.959  0.00  0.00    -0.056 A 
ATOM     54  C2  STU d   1      -4.864  -8.954  29.777  0.00  0.00    -0.081 A 
ATOM     55  H19 STU d   1      -3.857 -10.529  28.657  0.00  0.00     0.087 H 
ATOM     56  C3  STU d   1      -4.829  -7.578  30.171  0.00  0.00    -0.082 A 
ATOM     57  H20 STU d   1      -5.679  -9.590  30.103  0.00  0.00     0.083 H 
ATOM     58  H21 STU d   1      -5.623  -7.173  30.789  0.00  0.00     0.083 H 
ATOM     59  H22 STU d   1      -3.724  -5.693  30.059  0.00  0.00     0.084 H 
BRANCH  43  60
ATOM     60  O5  STU d   1      -2.274  -3.776  29.717  0.00  0.00    -0.366 OA
ATOM     61  H18 STU d   1      -2.774  -4.579  29.807  0.00  0.00     0.212 HD
ENDBRANCH  43  60
ENDBRANCH   2  24
BRANCH   6  62
ATOM     62  C26 STU d   1       1.840 -10.738  25.671  0.00  0.00    -0.028 C 
ATOM     63  H6  STU d   1       2.403 -10.370  24.801  0.00  0.00     0.034 H 
ATOM     64  H7  STU d   1       1.435 -11.737  25.451  0.00  0.00     0.034 H 
ATOM     65  H8  STU d   1       2.509 -10.798  26.542  0.00  0.00     0.034 H 
ENDBRANCH   6  62
TORSDOF 8
