REMARK WARNING: 32 MAX_TORS EXCEEDED!!!
REMARK  57 active torsions:
REMARK  status: ('A' for Active; 'I' for Inactive)
REMARK    1  A    between atoms: N_1  and  CA_2 
REMARK    2  A    between atoms: CA_2  and  C_3 
REMARK    3  A    between atoms: CA_2  and  CB_5 
REMARK       I    between atoms: C_3  and  N_8 
REMARK    4  A    between atoms: CB_5  and  CG1_6 
REMARK    5  A    between atoms: CB_5  and  CG2_7 
REMARK    6  A    between atoms: N_8  and  CA_9 
REMARK    7  A    between atoms: CA_9  and  C_10 
REMARK    8  A    between atoms: CA_9  and  CB_12 
REMARK       I    between atoms: C_10  and  N_16 
REMARK    9  A    between atoms: CB_12  and  CG_13 
REMARK       I    between atoms: CG_13  and  ND2_15 
REMARK   10  A    between atoms: CA_17  and  C_18 
REMARK       I    between atoms: C_18  and  N_23 
REMARK   11  A    between atoms: N_23  and  CA_24 
REMARK   12  A    between atoms: CA_24  and  C_25 
REMARK   13  A    between atoms: CA_24  and  CB_27 
REMARK       I    between atoms: C_25  and  N_30 
REMARK   14  A    between atoms: CB_27  and  OG1_28 
REMARK   15  A    between atoms: CB_27  and  CG2_29 
REMARK   16  A    between atoms: N_30  and  CA_31 
REMARK   17  A    between atoms: CA_31  and  C_32 
REMARK       I    between atoms: C_32  and  N_34 
REMARK   18  A    between atoms: N_34  and  CA_35 
REMARK   19  A    between atoms: CA_35  and  C_36 
REMARK   20  A    between atoms: CA_35  and  CB_38 
REMARK       I    between atoms: C_36  and  N_40 
REMARK   21  A    between atoms: CB_38  and  SG_39 
REMARK   22  A    between atoms: N_40  and  CA_41 
REMARK   23  A    between atoms: CA_41  and  C_42 
REMARK   24  A    between atoms: CA_41  and  CB_44 
REMARK       I    between atoms: C_42  and  N_45 
REMARK   25  A    between atoms: N_45  and  CA_46 
REMARK   26  A    between atoms: CA_46  and  C_47 
REMARK   27  A    between atoms: CA_46  and  CB_49 
REMARK       I    between atoms: C_47  and  N_56 
REMARK   28  A    between atoms: CB_49  and  CG_50 
REMARK   29  A    between atoms: CG_50  and  CD_51 
REMARK   30  A    between atoms: CD_51  and  NE_52 
REMARK       I    between atoms: NE_52  and  CZ_53 
REMARK       I    between atoms: CZ_53  and  NH1_54 
REMARK   31  A    between atoms: N_56  and  CA_57 
REMARK   32  A    between atoms: CA_57  and  C_58 
REMARK   33  A    between atoms: CA_57  and  CB_60 
REMARK       I    between atoms: C_58  and  N_62 
REMARK   34  A    between atoms: CB_60  and  OG_61 
REMARK   35  A    between atoms: N_62  and  CA_63 
REMARK   36  A    between atoms: CA_63  and  C_64 
REMARK   37  A    between atoms: CA_63  and  CB_66 
REMARK       I    between atoms: C_64  and  N_71 
REMARK   38  A    between atoms: CB_66  and  CG_67 
REMARK   39  A    between atoms: CG_67  and  CD_68 
REMARK   40  A    between atoms: CA_72  and  C_73 
REMARK       I    between atoms: C_73  and  N_78 
REMARK   41  A    between atoms: N_78  and  CA_79 
REMARK   42  A    between atoms: CA_79  and  C_80 
REMARK   43  A    between atoms: CA_79  and  CB_82 
REMARK       I    between atoms: C_80  and  N_87 
REMARK   44  A    between atoms: CB_82  and  CG_83 
REMARK   45  A    between atoms: CG_83  and  CD_84 
REMARK   46  A    between atoms: CD_84  and  CE_85 
REMARK   47  A    between atoms: CE_85  and  NZ_86 
REMARK   48  A    between atoms: N_87  and  CA_88 
REMARK   49  A    between atoms: CA_88  and  C_89 
REMARK   50  A    between atoms: CA_88  and  CB_91 
REMARK       I    between atoms: C_89  and  N_95 
REMARK   51  A    between atoms: CB_91  and  CG_92 
REMARK   52  A    between atoms: CG_92  and  SD_93 
REMARK   53  A    between atoms: SD_93  and  CE_94 
REMARK   54  A    between atoms: N_95  and  CA_96 
REMARK   55  A    between atoms: CA_96  and  C_97 
REMARK   56  A    between atoms: CA_96  and  CB_99 
REMARK   57  A    between atoms: CB_99  and  OG_100 
ROOT
ATOM      1  CA  ARG d   1      -9.200  -3.223 -17.981  0.00  0.00     0.089 C 
ATOM      2  H   ARG d   1     -10.087  -2.931 -18.563  0.00  0.00     0.087 H 
ENDROOT
BRANCH   1   3
ATOM      3  N   ARG d   1      -9.271  -4.666 -17.811  0.00  0.00    -0.346 N 
ATOM      4  C   ALA d   1      -9.508  -5.423 -18.877  0.00  0.00     0.240 C 
ATOM      5  O   ALA d   1      -9.508  -4.954 -20.018  0.00  0.00    -0.271 OA
ATOM      6  H   ARG d   1      -9.144  -5.080 -16.910  0.00  0.00     0.163 HD
BRANCH   4   7
ATOM      7  CA  ALA d   1      -9.751  -6.914 -18.625  0.00  0.00     0.086 C 
ATOM      8  H   ALA d   1      -9.557  -7.436 -19.574  0.00  0.00     0.086 H 
BRANCH   7   9
ATOM      9  N   ALA d   1      -8.856  -7.495 -17.627  0.00  0.00    -0.346 N 
ATOM     10  C   CYS d   1      -7.537  -7.448 -17.796  0.00  0.00     0.241 C 
ATOM     11  O   CYS d   1      -7.004  -6.898 -18.753  0.00  0.00    -0.271 OA
ATOM     12  H   ALA d   1      -9.237  -7.931 -16.812  0.00  0.00     0.163 HD
BRANCH  10  13
ATOM     13  CA  CYS d   1      -6.703  -8.102 -16.709  0.00  0.00     0.097 C 
ATOM     14  H   CYS d   1      -7.177  -9.060 -16.448  0.00  0.00     0.088 H 
BRANCH  13  15
ATOM     15  N   CYS d   1      -5.364  -8.387 -17.214  0.00  0.00    -0.346 N 
ATOM     16  C   GLY d   1      -4.679  -9.420 -16.723  0.00  0.00     0.236 C 
ATOM     17  O   GLY d   1      -5.042 -10.021 -15.722  0.00  0.00    -0.272 OA
ATOM     18  H   CYS d   1      -4.962  -7.810 -17.925  0.00  0.00     0.163 HD
BRANCH  16  19
ATOM     19  CA  GLY d   1      -3.390  -9.824 -17.426  0.00  0.00     0.069 C 
ATOM     20  H   GLY d   1      -2.549  -9.439 -16.831  0.00  0.00     0.078 H 
ATOM     21  H   GLY d   1      -3.350 -10.923 -17.449  0.00  0.00     0.078 H 
BRANCH  19  22
ATOM     22  N   GLY d   1      -3.226  -9.346 -18.788  0.00  0.00    -0.350 N 
ATOM     23  C   THR d   1      -2.321  -8.424 -19.104  0.00  0.00     0.243 C 
ATOM     24  O   THR d   1      -1.634  -7.839 -18.261  0.00  0.00    -0.271 OA
ATOM     25  H   GLY d   1      -3.810  -9.721 -19.508  0.00  0.00     0.163 HD
BRANCH  23  26
ATOM     26  CA  THR d   1      -2.179  -8.087 -20.588  0.00  0.00     0.113 C 
ATOM     27  H   THR d   1      -1.107  -8.076 -20.833  0.00  0.00     0.091 H 
BRANCH  26  28
ATOM     28  N   THR d   1      -2.816  -9.082 -21.458  0.00  0.00    -0.344 N 
ATOM     29  C   PRO d   1      -2.252 -10.262 -21.712  0.00  0.00     0.241 C 
ATOM     30  O   PRO d   1      -1.178 -10.605 -21.227  0.00  0.00    -0.271 OA
ATOM     31  H   THR d   1      -3.700  -8.868 -21.873  0.00  0.00     0.163 HD
BRANCH  29  32
ATOM     32  CA  PRO d   1      -2.988 -11.234 -22.650  0.00  0.00     0.091 C 
ATOM     33  N   PRO d   1      -4.456 -11.155 -22.574  0.00  0.00    -0.337 N 
ATOM     34  C   ASN d   1      -5.108 -11.277 -21.407  0.00  0.00     0.243 C 
ATOM     35  CD  PRO d   1      -5.078 -11.020 -23.904  0.00  0.00    -0.001 C 
ATOM     36  O   ASN d   1      -4.540 -11.404 -20.332  0.00  0.00    -0.271 OA
ATOM     37  CG  PRO d   1      -3.939 -11.347 -24.847  0.00  0.00    -0.048 C 
ATOM     38  H   PRO d   1      -5.445  -9.996 -24.067  0.00  0.00     0.064 H 
ATOM     39  H   PRO d   1      -5.909 -11.731 -24.026  0.00  0.00     0.064 H 
ATOM     40  CB  PRO d   1      -2.698 -10.916 -24.118  0.00  0.00    -0.036 C 
ATOM     41  H   PRO d   1      -3.909 -12.426 -25.058  0.00  0.00     0.035 H 
ATOM     42  H   PRO d   1      -4.046 -10.792 -25.791  0.00  0.00     0.035 H 
ATOM     43  H   PRO d   1      -1.823 -11.480 -24.473  0.00  0.00     0.036 H 
ATOM     44  H   PRO d   1      -2.521  -9.839 -24.255  0.00  0.00     0.036 H 
ATOM     45  H   PRO d   1      -2.659 -12.256 -22.409  0.00  0.00     0.087 H 
BRANCH  34  46
ATOM     46  CA  ASN d   1      -6.621 -11.271 -21.459  0.00  0.00     0.097 C 
ATOM     47  H   ASN d   1      -6.955 -11.063 -22.486  0.00  0.00     0.088 H 
BRANCH  46  48
ATOM     48  N   ASN d   1      -7.094 -12.574 -21.048  0.00  0.00    -0.346 N 
ATOM     49  C   VAL d   1      -7.359 -13.527 -21.932  0.00  0.00     0.249 C 
ATOM     50  O   VAL d   1      -7.423 -13.324 -23.147  0.00  0.00    -0.271 OA
ATOM     51  H   ASN d   1      -7.224 -12.761 -20.074  0.00  0.00     0.163 HD
BRANCH  49  52
ATOM     52  CA  VAL d   1      -7.604 -14.906 -21.346  0.00  0.00     0.178 C 
ATOM     53  H   VAL d   1      -8.257 -14.806 -20.466  0.00  0.00     0.099 H 
BRANCH  52  54
ATOM     54  N   VAL d   1      -8.272 -15.774 -22.306  0.00  0.00    -0.066 N 
ATOM     55  H   VAL d   1      -9.150 -15.361 -22.578  0.00  0.00     0.275 HD
ATOM     56  H   VAL d   1      -8.440 -16.674 -21.885  0.00  0.00     0.275 HD
ATOM     57  H   VAL d   1      -7.688 -15.887 -23.120  0.00  0.00     0.275 HD
ENDBRANCH  52  54
BRANCH  52  58
ATOM     58  CB  VAL d   1      -6.249 -15.485 -20.890  0.00  0.00    -0.025 C 
ATOM     59  H   VAL d   1      -5.847 -14.835 -20.099  0.00  0.00     0.042 H 
BRANCH  58  60
ATOM     60  CG1 VAL d   1      -6.431 -16.874 -20.312  0.00  0.00    -0.071 C 
ATOM     61  H   VAL d   1      -5.455 -17.269 -19.993  0.00  0.00     0.028 H 
ATOM     62  H   VAL d   1      -6.862 -17.536 -21.077  0.00  0.00     0.028 H 
ATOM     63  H   VAL d   1      -7.107 -16.825 -19.446  0.00  0.00     0.028 H 
ENDBRANCH  58  60
BRANCH  58  64
ATOM     64  CG2 VAL d   1      -5.245 -15.501 -22.048  0.00  0.00    -0.071 C 
ATOM     65  H   VAL d   1      -5.131 -14.483 -22.449  0.00  0.00     0.028 H 
ATOM     66  H   VAL d   1      -5.611 -16.169 -22.842  0.00  0.00     0.028 H 
ATOM     67  H   VAL d   1      -4.272 -15.863 -21.685  0.00  0.00     0.028 H 
ENDBRANCH  58  64
ENDBRANCH  52  58
ENDBRANCH  49  52
ENDBRANCH  46  48
BRANCH  46  68
ATOM     68  CB  ASN d   1      -7.173 -10.200 -20.521  0.00  0.00     0.036 C 
ATOM     69  H   ASN d   1      -6.683  -9.242 -20.748  0.00  0.00     0.051 H 
ATOM     70  H   ASN d   1      -6.951 -10.488 -19.483  0.00  0.00     0.051 H 
BRANCH  68  71
ATOM     71  CG  ASN d   1      -8.659 -10.032 -20.670  0.00  0.00     0.217 C 
ATOM     72  OD1 ASN d   1      -9.155  -9.818 -21.778  0.00  0.00    -0.274 OA
ATOM     73  ND2 ASN d   1      -9.385 -10.160 -19.565  0.00  0.00    -0.370 N 
ATOM     74  H   ASN d   1     -10.379 -10.058 -19.605  0.00  0.00     0.159 HD
ATOM     75  H   ASN d   1      -8.938 -10.358 -18.693  0.00  0.00     0.159 HD
ENDBRANCH  68  71
ENDBRANCH  46  68
ENDBRANCH  34  46
ENDBRANCH  29  32
ENDBRANCH  26  28
BRANCH  26  76
ATOM     76  CB  THR d   1      -2.737  -6.678 -20.823  0.00  0.00     0.060 C 
ATOM     77  H   THR d   1      -2.191  -5.970 -20.182  0.00  0.00     0.086 H 
BRANCH  76  78
ATOM     78  OG1 THR d   1      -4.122  -6.657 -20.467  0.00  0.00    -0.393 OA
ATOM     79  H   THR d   1      -4.595  -7.282 -21.003  0.00  0.00     0.210 HD
ENDBRANCH  76  78
BRANCH  76  80
ATOM     80  CG2 THR d   1      -2.566  -6.249 -22.280  0.00  0.00    -0.050 C 
ATOM     81  H   THR d   1      -2.975  -5.237 -22.415  0.00  0.00     0.031 H 
ATOM     82  H   THR d   1      -3.103  -6.952 -22.934  0.00  0.00     0.031 H 
ATOM     83  H   THR d   1      -1.497  -6.250 -22.539  0.00  0.00     0.031 H 
ENDBRANCH  76  80
ENDBRANCH  26  76
ENDBRANCH  23  26
ENDBRANCH  19  22
ENDBRANCH  16  19
ENDBRANCH  13  15
BRANCH  13  84
ATOM     84  CB  CYS d   1      -6.661  -7.243 -15.434  0.00  0.00     0.001 C 
ATOM     85  H   CYS d   1      -5.878  -7.658 -14.782  0.00  0.00     0.052 H 
ATOM     86  H   CYS d   1      -7.639  -7.338 -14.939  0.00  0.00     0.052 H 
BRANCH  84  87
ATOM     87  SG  CYS d   1      -6.324  -5.487 -15.634  0.00  0.00    -0.180 SA
ATOM     88  H   CYS d   1      -5.423  -5.367 -16.070  0.00  0.00     0.101 HD
ENDBRANCH  84  87
ENDBRANCH  13  84
ENDBRANCH  10  13
ENDBRANCH   7   9
BRANCH   7  89
ATOM     89  CB  ALA d   1     -11.205  -7.167 -18.249  0.00  0.00    -0.049 C 
ATOM     90  H   ALA d   1     -11.863  -6.723 -19.011  0.00  0.00     0.030 H 
ATOM     91  H   ALA d   1     -11.416  -6.710 -17.271  0.00  0.00     0.030 H 
ATOM     92  H   ALA d   1     -11.386  -8.251 -18.194  0.00  0.00     0.030 H 
ENDBRANCH   7  89
ENDBRANCH   4   7
ENDBRANCH   1   3
BRANCH   1  93
ATOM     93  C   ARG d   1      -7.981  -2.766 -18.776  0.00  0.00     0.241 C 
ATOM     94  O   ARG d   1      -8.026  -1.746 -19.452  0.00  0.00    -0.271 OA
ATOM     95  N   SER d   1      -6.890  -3.531 -18.704  0.00  0.00    -0.344 N 
ATOM     96  H   SER d   1      -6.910  -4.357 -18.140  0.00  0.00     0.163 HD
BRANCH  95  97
ATOM     97  CA  SER d   1      -5.665  -3.191 -19.430  0.00  0.00     0.109 C 
ATOM     98  H   SER d   1      -5.628  -2.094 -19.496  0.00  0.00     0.090 H 
BRANCH  97  99
ATOM     99  C   SER d   1      -5.657  -3.726 -20.862  0.00  0.00     0.243 C 
ATOM    100  O   SER d   1      -4.712  -3.491 -21.607  0.00  0.00    -0.271 OA
ATOM    101  N   GLU d   1      -6.727  -4.406 -21.253  0.00  0.00    -0.346 N 
ATOM    102  H   GLU d   1      -7.483  -4.525 -20.610  0.00  0.00     0.163 HD
BRANCH 101 103
ATOM    103  CA  GLU d   1      -6.841  -4.986 -22.584  0.00  0.00     0.090 C 
ATOM    104  H   GLU d   1      -5.839  -5.176 -22.997  0.00  0.00     0.087 H 
BRANCH 103 105
ATOM    105  C   GLU d   1      -7.577  -3.993 -23.467  0.00  0.00     0.243 C 
ATOM    106  O   GLU d   1      -8.636  -3.499 -23.082  0.00  0.00    -0.271 OA
ATOM    107  N   PRO d   1      -7.022  -3.672 -24.644  0.00  0.00    -0.337 N 
ATOM    108  CA  PRO d   1      -7.726  -2.710 -25.499  0.00  0.00     0.091 C 
ATOM    109  CD  PRO d   1      -5.748  -4.117 -25.235  0.00  0.00    -0.001 C 
ATOM    110  CB  PRO d   1      -6.742  -2.464 -26.647  0.00  0.00    -0.036 C 
ATOM    111  H   PRO d   1      -7.938  -1.779 -24.953  0.00  0.00     0.087 H 
ATOM    112  CG  PRO d   1      -5.869  -3.669 -26.665  0.00  0.00    -0.048 C 
ATOM    113  H   PRO d   1      -6.147  -1.558 -26.460  0.00  0.00     0.036 H 
ATOM    114  H   PRO d   1      -7.279  -2.360 -27.602  0.00  0.00     0.036 H 
ATOM    115  H   PRO d   1      -4.878  -3.417 -27.071  0.00  0.00     0.035 H 
ATOM    116  H   PRO d   1      -6.325  -4.462 -27.276  0.00  0.00     0.035 H 
ATOM    117  H   PRO d   1      -5.641  -5.210 -25.170  0.00  0.00     0.064 H 
ATOM    118  H   PRO d   1      -4.892  -3.635 -24.740  0.00  0.00     0.064 H 
BRANCH 108 119
ATOM    119  C   PRO d   1      -9.031  -3.300 -26.032  0.00  0.00     0.241 C 
ATOM    120  O   PRO d   1      -9.091  -4.503 -26.299  0.00  0.00    -0.271 OA
ATOM    121  N   LYS d   1     -10.065  -2.474 -26.167  0.00  0.00    -0.346 N 
ATOM    122  H   LYS d   1      -9.953  -1.505 -25.945  0.00  0.00     0.163 HD
BRANCH 121 123
ATOM    123  CA  LYS d   1     -11.360  -2.958 -26.633  0.00  0.00     0.089 C 
ATOM    124  H   LYS d   1     -11.632  -3.844 -26.041  0.00  0.00     0.087 H 
BRANCH 123 125
ATOM    125  C   LYS d   1     -11.292  -3.354 -28.100  0.00  0.00     0.241 C 
ATOM    126  O   LYS d   1     -10.684  -2.655 -28.910  0.00  0.00    -0.271 OA
ATOM    127  N   MET d   1     -11.910  -4.483 -28.427  0.00  0.00    -0.346 N 
ATOM    128  H   MET d   1     -12.307  -5.048 -27.704  0.00  0.00     0.163 HD
BRANCH 127 129
ATOM    129  CA  MET d   1     -12.024  -4.920 -29.812  0.00  0.00     0.090 C 
ATOM    130  H   MET d   1     -11.083  -4.687 -30.331  0.00  0.00     0.087 H 
BRANCH 129 131
ATOM    131  C   MET d   1     -13.164  -4.195 -30.518  0.00  0.00     0.241 C 
ATOM    132  O   MET d   1     -14.140  -3.788 -29.878  0.00  0.00    -0.271 OA
ATOM    133  N   SER d   1     -13.038  -4.041 -31.837  0.00  0.00    -0.343 N 
ATOM    134  H   SER d   1     -12.217  -4.392 -32.288  0.00  0.00     0.163 HD
BRANCH 133 135
ATOM    135  CA  SER d   1     -14.062  -3.375 -32.647  0.00  0.00     0.116 C 
ATOM    136  H   SER d   1     -14.156  -2.340 -32.285  0.00  0.00     0.093 H 
BRANCH 135 137
ATOM    137  C   SER d   1     -15.428  -4.042 -32.518  0.00  0.00     0.198 C 
ATOM    138  O   SER d   1     -16.453  -3.365 -32.434  0.00  0.00    -0.646 OA
ATOM    139  O1  SER d   1     -15.508  -5.299 -32.497  0.00  0.00    -0.646 OA
ENDBRANCH 135 137
BRANCH 135 140
ATOM    140  CB  SER d   1     -13.639  -3.332 -34.122  0.00  0.00     0.045 C 
ATOM    141  H   SER d   1     -13.535  -4.361 -34.496  0.00  0.00     0.077 H 
ATOM    142  H   SER d   1     -12.673  -2.813 -34.204  0.00  0.00     0.077 H 
BRANCH 140 143
ATOM    143  OG  SER d   1     -14.600  -2.648 -34.908  0.00  0.00    -0.398 OA
ATOM    144  H   SER d   1     -14.315  -2.635 -35.814  0.00  0.00     0.209 HD
ENDBRANCH 140 143
ENDBRANCH 135 140
ENDBRANCH 133 135
ENDBRANCH 129 131
BRANCH 129 145
ATOM    145  CB  MET d   1     -12.260  -6.429 -29.872  0.00  0.00    -0.030 C 
ATOM    146  H   MET d   1     -12.333  -6.728 -30.928  0.00  0.00     0.037 H 
ATOM    147  H   MET d   1     -13.208  -6.654 -29.361  0.00  0.00     0.037 H 
BRANCH 145 148
ATOM    148  CG  MET d   1     -11.159  -7.241 -29.219  0.00  0.00    -0.021 C 
ATOM    149  H   MET d   1     -11.313  -8.304 -29.455  0.00  0.00     0.049 H 
ATOM    150  H   MET d   1     -11.207  -7.096 -28.130  0.00  0.00     0.049 H 
BRANCH 148 151
ATOM    151  SD  MET d   1      -9.528  -6.744 -29.802  0.00  0.00    -0.173 SA
BRANCH 151 152
ATOM    152  CE  MET d   1      -9.673  -7.116 -31.546  0.00  0.00    -0.035 C 
ATOM    153  H   MET d   1      -8.732  -6.861 -32.055  0.00  0.00     0.041 H 
ATOM    154  H   MET d   1     -10.495  -6.528 -31.979  0.00  0.00     0.041 H 
ATOM    155  H   MET d   1      -9.881  -8.188 -31.676  0.00  0.00     0.041 H 
ENDBRANCH 151 152
ENDBRANCH 148 151
ENDBRANCH 145 148
ENDBRANCH 129 145
ENDBRANCH 127 129
ENDBRANCH 123 125
BRANCH 123 156
ATOM    156  CB  LYS d   1     -12.442  -1.895 -26.446  0.00  0.00    -0.038 C 
ATOM    157  H   LYS d   1     -12.165  -1.013 -27.042  0.00  0.00     0.036 H 
ATOM    158  H   LYS d   1     -12.476  -1.622 -25.381  0.00  0.00     0.036 H 
BRANCH 156 159
ATOM    159  CG  LYS d   1     -13.841  -2.340 -26.871  0.00  0.00    -0.061 C 
ATOM    160  H   LYS d   1     -14.182  -3.141 -26.199  0.00  0.00     0.033 H 
ATOM    161  H   LYS d   1     -13.799  -2.720 -27.902  0.00  0.00     0.033 H 
BRANCH 159 162
ATOM    162  CD  LYS d   1     -14.828  -1.186 -26.808  0.00  0.00    -0.043 C 
ATOM    163  H   LYS d   1     -14.479  -0.381 -27.471  0.00  0.00     0.035 H 
ATOM    164  H   LYS d   1     -14.876  -0.814 -25.774  0.00  0.00     0.035 H 
BRANCH 162 165
ATOM    165  CE  LYS d   1     -16.219  -1.614 -27.243  0.00  0.00     0.080 C 
ATOM    166  H   LYS d   1     -16.892  -0.745 -27.200  0.00  0.00     0.075 H 
ATOM    167  H   LYS d   1     -16.584  -2.396 -26.561  0.00  0.00     0.075 H 
BRANCH 165 168
ATOM    168  NZ  LYS d   1     -16.204  -2.151 -28.637  0.00  0.00    -0.079 N 
ATOM    169  H   LYS d   1     -17.137  -2.427 -28.901  0.00  0.00     0.274 HD
ATOM    170  H   LYS d   1     -15.591  -2.950 -28.683  0.00  0.00     0.274 HD
ATOM    171  H   LYS d   1     -15.874  -1.438 -29.268  0.00  0.00     0.274 HD
ENDBRANCH 165 168
ENDBRANCH 162 165
ENDBRANCH 159 162
ENDBRANCH 156 159
ENDBRANCH 123 156
ENDBRANCH 121 123
ENDBRANCH 108 119
ENDBRANCH 103 105
BRANCH 103 172
ATOM    172  CB  GLU d   1      -7.613  -6.305 -22.496  0.00  0.00    -0.029 C 
ATOM    173  H   GLU d   1      -8.688  -6.075 -22.519  0.00  0.00     0.037 H 
ATOM    174  H   GLU d   1      -7.361  -6.787 -21.540  0.00  0.00     0.037 H 
BRANCH 172 175
ATOM    175  CG  GLU d   1      -7.316  -7.283 -23.609  0.00  0.00     0.018 C 
ATOM    176  H   GLU d   1      -7.536  -6.800 -24.573  0.00  0.00     0.049 H 
ATOM    177  H   GLU d   1      -7.960  -8.166 -23.486  0.00  0.00     0.049 H 
BRANCH 175 178
ATOM    178  CD  GLU d   1      -5.870  -7.731 -23.607  0.00  0.00     0.172 C 
ATOM    179  OE1 GLU d   1      -5.277  -7.796 -24.705  0.00  0.00    -0.648 OA
ATOM    180  OE2 GLU d   1      -5.328  -8.039 -22.517  0.00  0.00    -0.648 OA
ENDBRANCH 175 178
ENDBRANCH 172 175
ENDBRANCH 103 172
ENDBRANCH 101 103
ENDBRANCH  97  99
BRANCH  97 181
ATOM    181  CB  SER d   1      -4.411  -3.643 -18.670  0.00  0.00     0.044 C 
ATOM    182  H   SER d   1      -4.323  -3.049 -17.749  0.00  0.00     0.077 H 
ATOM    183  H   SER d   1      -3.530  -3.467 -19.305  0.00  0.00     0.077 H 
BRANCH 181 184
ATOM    184  OG  SER d   1      -4.454  -5.007 -18.325  0.00  0.00    -0.398 OA
ATOM    185  H   SER d   1      -4.523  -5.530 -19.115  0.00  0.00     0.209 HD
ENDBRANCH 181 184
ENDBRANCH  97 181
ENDBRANCH  95  97
ENDBRANCH   1  93
BRANCH   1 186
ATOM    186  CB  ARG d   1      -9.278  -2.490 -16.645  0.00  0.00    -0.036 C 
ATOM    187  H   ARG d   1      -8.335  -2.642 -16.099  0.00  0.00     0.036 H 
ATOM    188  H   ARG d   1     -10.112  -2.903 -16.059  0.00  0.00     0.036 H 
BRANCH 186 189
ATOM    189  CG  ARG d   1      -9.502  -0.993 -16.838  0.00  0.00    -0.048 C 
ATOM    190  H   ARG d   1     -10.431  -0.850 -17.409  0.00  0.00     0.035 H 
ATOM    191  H   ARG d   1      -8.655  -0.584 -17.407  0.00  0.00     0.035 H 
BRANCH 189 192
ATOM    192  CD  ARG d   1      -9.617  -0.232 -15.532  0.00  0.00     0.009 C 
ATOM    193  H   ARG d   1      -9.715   0.840 -15.758  0.00  0.00     0.064 H 
ATOM    194  H   ARG d   1      -8.702  -0.401 -14.945  0.00  0.00     0.064 H 
BRANCH 192 195
ATOM    195  NE  ARG d   1     -10.770  -0.648 -14.730  0.00  0.00    -0.227 N 
ATOM    196  CZ  ARG d   1     -11.959  -0.052 -14.723  0.00  0.00     0.665 C 
ATOM    197  NH1 ARG d   1     -12.174   1.001 -15.496  0.00  0.00    -0.235 N 
ATOM    198  NH2 ARG d   1     -12.922  -0.523 -13.941  0.00  0.00    -0.235 N 
ATOM    199  H   ARG d   1     -13.094   1.464 -15.492  0.00  0.00     0.174 HD
ATOM    200  H   ARG d   1     -11.421   1.358 -16.102  0.00  0.00     0.174 HD
ATOM    201  H   ARG d   1     -12.745  -1.343 -13.343  0.00  0.00     0.174 HD
ATOM    202  H   ARG d   1     -13.846  -0.069 -13.932  0.00  0.00     0.174 HD
ATOM    203  H   ARG d   1     -10.650  -1.470 -14.121  0.00  0.00     0.177 HD
ENDBRANCH 192 195
ENDBRANCH 189 192
ENDBRANCH 186 189
ENDBRANCH   1 186
TORSDOF 57
