REMARK WARNING: 32 MAX_TORS EXCEEDED!!!
REMARK  44 active torsions:
REMARK  status: ('A' for Active; 'I' for Inactive)
REMARK    1  A    between atoms: N_1  and  CA_2 
REMARK    2  A    between atoms: CA_2  and  C_3 
REMARK    3  A    between atoms: CA_2  and  CB_5 
REMARK       I    between atoms: C_3  and  N_6 
REMARK    4  A    between atoms: N_6  and  CA_7 
REMARK    5  A    between atoms: CA_7  and  C_8 
REMARK    6  A    between atoms: CA_7  and  CB_10 
REMARK       I    between atoms: C_8  and  N_14 
REMARK    7  A    between atoms: CB_10  and  CG_11 
REMARK       I    between atoms: CG_11  and  ND2_13 
REMARK    8  A    between atoms: CA_15  and  C_16 
REMARK       I    between atoms: C_16  and  N_21 
REMARK    9  A    between atoms: N_21  and  CA_22 
REMARK   10  A    between atoms: CA_22  and  C_23 
REMARK   11  A    between atoms: CA_22  and  CB_25 
REMARK       I    between atoms: C_23  and  N_31 
REMARK   12  A    between atoms: CB_25  and  CG_26 
REMARK   13  A    between atoms: N_31  and  CA_32 
REMARK   14  A    between atoms: CA_32  and  C_33 
REMARK       I    between atoms: C_33  and  N_35 
REMARK   15  A    between atoms: N_35  and  CA_36 
REMARK   16  A    between atoms: CA_36  and  C_37 
REMARK   17  A    between atoms: CA_36  and  CB_39 
REMARK       I    between atoms: C_37  and  N_40 
REMARK   18  A    between atoms: N_40  and  CA_41 
REMARK   19  A    between atoms: CA_41  and  C_42 
REMARK   20  A    between atoms: CA_41  and  CB_44 
REMARK       I    between atoms: C_42  and  N_45 
REMARK   21  A    between atoms: N_45  and  CA_46 
REMARK   22  A    between atoms: CA_46  and  C_47 
REMARK   23  A    between atoms: CA_46  and  CB_49 
REMARK       I    between atoms: C_47  and  N_56 
REMARK   24  A    between atoms: CB_49  and  CG_50 
REMARK   25  A    between atoms: CG_50  and  CD_51 
REMARK   26  A    between atoms: CD_51  and  NE_52 
REMARK       I    between atoms: NE_52  and  CZ_53 
REMARK       I    between atoms: CZ_53  and  NH1_54 
REMARK   27  A    between atoms: N_56  and  CA_57 
REMARK   28  A    between atoms: CA_57  and  C_58 
REMARK   29  A    between atoms: CA_57  and  CB_60 
REMARK       I    between atoms: C_58  and  N_61 
REMARK   30  A    between atoms: N_61  and  CA_62 
REMARK   31  A    between atoms: CA_62  and  C_63 
REMARK   32  A    between atoms: CA_62  and  CB_65 
REMARK       I    between atoms: C_63  and  N_70 
REMARK   33  A    between atoms: CB_65  and  CG_66 
REMARK   34  A    between atoms: CG_66  and  CD_67 
REMARK   35  A    between atoms: N_70  and  CA_71 
REMARK   36  A    between atoms: CA_71  and  C_72 
REMARK   37  A    between atoms: CA_71  and  CB_74 
REMARK       I    between atoms: C_72  and  N_77 
REMARK   38  A    between atoms: CB_74  and  CG1_75 
REMARK   39  A    between atoms: CB_74  and  CG2_76 
REMARK   40  A    between atoms: N_77  and  CA_78 
REMARK   41  A    between atoms: CA_78  and  C_79 
REMARK   42  A    between atoms: CA_78  and  CB_81 
REMARK   43  A    between atoms: CB_81  and  CG_82 
REMARK   44  A    between atoms: CZ_87  and  OH_88 
ROOT
ATOM      1  C   ALA d   1      35.468  -9.877  31.509  0.00  0.00     0.240 C 
ATOM      2  O   ALA d   1      35.229 -10.012  30.303  0.00  0.00    -0.271 OA
ATOM      3  N   ARG d   1      35.284  -8.720  32.138  0.00  0.00    -0.346 N 
ATOM      4  H   ARG d   1      35.501  -8.630  33.110  0.00  0.00     0.163 HD
ENDROOT
BRANCH   3   5
ATOM      5  CA  ARG d   1      34.761  -7.583  31.387  0.00  0.00     0.089 C 
ATOM      6  H   ARG d   1      33.847  -7.923  30.877  0.00  0.00     0.087 H 
BRANCH   5   7
ATOM      7  C   ARG d   1      35.746  -7.128  30.300  0.00  0.00     0.241 C 
ATOM      8  O   ARG d   1      35.342  -6.516  29.322  0.00  0.00    -0.271 OA
ATOM      9  N   ALA d   1      37.026  -7.467  30.457  0.00  0.00    -0.346 N 
ATOM     10  H   ALA d   1      37.289  -8.021  31.247  0.00  0.00     0.163 HD
BRANCH   9  11
ATOM     11  CA  ALA d   1      38.055  -7.050  29.505  0.00  0.00     0.086 C 
ATOM     12  H   ALA d   1      37.747  -6.078  29.093  0.00  0.00     0.086 H 
BRANCH  11  13
ATOM     13  C   ALA d   1      38.200  -8.020  28.328  0.00  0.00     0.240 C 
ATOM     14  O   ALA d   1      39.085  -7.850  27.487  0.00  0.00    -0.271 OA
ATOM     15  N   GLU d   1      37.323  -9.020  28.265  0.00  0.00    -0.346 N 
ATOM     16  H   GLU d   1      36.623  -9.099  28.975  0.00  0.00     0.163 HD
BRANCH  15  17
ATOM     17  CA  GLU d   1      37.356 -10.008  27.183  0.00  0.00     0.090 C 
ATOM     18  H   GLU d   1      38.243  -9.819  26.561  0.00  0.00     0.087 H 
BRANCH  17  19
ATOM     19  C   GLU d   1      36.108  -9.930  26.317  0.00  0.00     0.241 C 
ATOM     20  O   GLU d   1      35.067  -9.455  26.760  0.00  0.00    -0.271 OA
ATOM     21  N   VAL d   1      36.213 -10.423  25.085  0.00  0.00    -0.346 N 
ATOM     22  H   VAL d   1      37.119 -10.633  24.716  0.00  0.00     0.163 HD
BRANCH  21  23
ATOM     23  CA  VAL d   1      35.030 -10.664  24.260  0.00  0.00     0.092 C 
ATOM     24  H   VAL d   1      34.297  -9.863  24.437  0.00  0.00     0.088 H 
BRANCH  23  25
ATOM     25  C   VAL d   1      34.423 -12.001  24.677  0.00  0.00     0.241 C 
ATOM     26  O   VAL d   1      35.140 -12.875  25.167  0.00  0.00    -0.271 OA
ATOM     27  N   TYR d   1      33.111 -12.167  24.511  0.00  0.00    -0.344 N 
ATOM     28  H   TYR d   1      32.567 -11.433  24.104  0.00  0.00     0.163 HD
BRANCH  27  29
ATOM     29  CA  TYR d   1      32.456 -13.419  24.920  0.00  0.00     0.100 C 
ATOM     30  H   TYR d   1      33.197 -13.996  25.493  0.00  0.00     0.090 H 
BRANCH  29  31
ATOM     31  C   TYR d   1      32.034 -14.292  23.730  0.00  0.00     0.197 C 
ATOM     32  O   TYR d   1      31.016 -14.039  23.086  0.00  0.00    -0.646 OA
ATOM     33  O1  TYR d   1      32.741 -15.284  23.407  0.00  0.00    -0.646 OA
ENDBRANCH  29  31
BRANCH  29  34
ATOM     34  CB  TYR d   1      31.267 -13.143  25.857  0.00  0.00    -0.013 C 
ATOM     35  H   TYR d   1      30.583 -12.448  25.348  0.00  0.00     0.043 H 
ATOM     36  H   TYR d   1      31.654 -12.672  26.773  0.00  0.00     0.043 H 
BRANCH  34  37
ATOM     37  CG  TYR d   1      30.476 -14.378  26.257  0.00  0.00    -0.056 A 
ATOM     38  CD1 TYR d   1      31.052 -15.381  27.028  0.00  0.00    -0.074 A 
ATOM     39  CE1 TYR d   1      30.331 -16.507  27.390  0.00  0.00    -0.051 A 
ATOM     40  H   TYR d   1      32.082 -15.280  27.351  0.00  0.00     0.084 H 
ATOM     41  CZ  TYR d   1      29.016 -16.632  26.986  0.00  0.00     0.065 A 
ATOM     42  H   TYR d   1      30.795 -17.284  27.986  0.00  0.00     0.087 H 
ATOM     43  CE2 TYR d   1      28.421 -15.647  26.228  0.00  0.00    -0.051 A 
ATOM     44  CD2 TYR d   1      29.151 -14.530  25.868  0.00  0.00    -0.074 A 
ATOM     45  H   TYR d   1      27.388 -15.748  25.916  0.00  0.00     0.087 H 
ATOM     46  H   TYR d   1      28.680 -13.758  25.270  0.00  0.00     0.084 H 
BRANCH  41  47
ATOM     47  OH  TYR d   1      28.285 -17.746  27.337  0.00  0.00    -0.361 OA
ATOM     48  H   TYR d   1      28.828 -18.329  27.855  0.00  0.00     0.217 HD
ENDBRANCH  41  47
ENDBRANCH  34  37
ENDBRANCH  29  34
ENDBRANCH  27  29
ENDBRANCH  23  25
BRANCH  23  49
ATOM     49  CB  VAL d   1      35.392 -10.674  22.779  0.00  0.00    -0.033 C 
ATOM     50  H   VAL d   1      34.477 -10.815  22.184  0.00  0.00     0.042 H 
BRANCH  49  51
ATOM     51  CG1 VAL d   1      36.029  -9.361  22.416  0.00  0.00    -0.071 C 
ATOM     52  H   VAL d   1      36.292  -9.364  21.348  0.00  0.00     0.028 H 
ATOM     53  H   VAL d   1      36.939  -9.216  23.017  0.00  0.00     0.028 H 
ATOM     54  H   VAL d   1      35.322  -8.543  22.617  0.00  0.00     0.028 H 
ENDBRANCH  49  51
BRANCH  49  55
ATOM     55  CG2 VAL d   1      36.366 -11.802  22.474  0.00  0.00    -0.071 C 
ATOM     56  H   VAL d   1      35.905 -12.765  22.738  0.00  0.00     0.028 H 
ATOM     57  H   VAL d   1      37.285 -11.662  23.062  0.00  0.00     0.028 H 
ATOM     58  H   VAL d   1      36.612 -11.794  21.402  0.00  0.00     0.028 H 
ENDBRANCH  49  55
ENDBRANCH  23  49
ENDBRANCH  21  23
ENDBRANCH  17  19
BRANCH  17  59
ATOM     59  CB  GLU d   1      37.422 -11.428  27.752  0.00  0.00    -0.029 C 
ATOM     60  H   GLU d   1      37.702 -12.108  26.934  0.00  0.00     0.037 H 
ATOM     61  H   GLU d   1      36.420 -11.692  28.122  0.00  0.00     0.037 H 
BRANCH  59  62
ATOM     62  CG  GLU d   1      38.408 -11.631  28.887  0.00  0.00     0.018 C 
ATOM     63  H   GLU d   1      38.218 -12.613  29.345  0.00  0.00     0.049 H 
ATOM     64  H   GLU d   1      38.248 -10.841  29.635  0.00  0.00     0.049 H 
BRANCH  62  65
ATOM     65  CD  GLU d   1      39.853 -11.582  28.434  0.00  0.00     0.172 C 
ATOM     66  OE1 GLU d   1      40.109 -11.484  27.207  0.00  0.00    -0.648 OA
ATOM     67  OE2 GLU d   1      40.737 -11.651  29.316  0.00  0.00    -0.648 OA
ENDBRANCH  62  65
ENDBRANCH  59  62
ENDBRANCH  17  59
ENDBRANCH  15  17
ENDBRANCH  11  13
BRANCH  11  68
ATOM     68  CB  ALA d   1      39.389  -6.853  30.211  0.00  0.00    -0.049 C 
ATOM     69  H   ALA d   1      40.148  -6.540  29.479  0.00  0.00     0.030 H 
ATOM     70  H   ALA d   1      39.699  -7.799  30.680  0.00  0.00     0.030 H 
ATOM     71  H   ALA d   1      39.284  -6.078  30.984  0.00  0.00     0.030 H 
ENDBRANCH  11  68
ENDBRANCH   9  11
ENDBRANCH   5   7
BRANCH   5  72
ATOM     72  CB  ARG d   1      34.359  -6.425  32.311  0.00  0.00    -0.036 C 
ATOM     73  H   ARG d   1      35.271  -5.953  32.706  0.00  0.00     0.036 H 
ATOM     74  H   ARG d   1      33.763  -6.826  33.144  0.00  0.00     0.036 H 
BRANCH  72  75
ATOM     75  CG  ARG d   1      33.534  -5.367  31.577  0.00  0.00    -0.048 C 
ATOM     76  H   ARG d   1      32.618  -5.836  31.189  0.00  0.00     0.035 H 
ATOM     77  H   ARG d   1      34.127  -4.972  30.739  0.00  0.00     0.035 H 
BRANCH  75  78
ATOM     78  CD  ARG d   1      33.151  -4.225  32.486  0.00  0.00     0.009 C 
ATOM     79  H   ARG d   1      32.612  -3.467  31.898  0.00  0.00     0.064 H 
ATOM     80  H   ARG d   1      34.066  -3.781  32.905  0.00  0.00     0.064 H 
BRANCH  78  81
ATOM     81  NE  ARG d   1      32.297  -4.666  33.581  0.00  0.00    -0.227 N 
ATOM     82  CZ  ARG d   1      30.969  -4.640  33.545  0.00  0.00     0.665 C 
ATOM     83  NH1 ARG d   1      30.347  -4.200  32.462  0.00  0.00    -0.235 N 
ATOM     84  NH2 ARG d   1      30.263  -5.052  34.595  0.00  0.00    -0.235 N 
ATOM     85  H   ARG d   1      29.318  -4.179  32.432  0.00  0.00     0.174 HD
ATOM     86  H   ARG d   1      30.892  -3.879  31.649  0.00  0.00     0.174 HD
ATOM     87  H   ARG d   1      30.746  -5.394  35.438  0.00  0.00     0.174 HD
ATOM     88  H   ARG d   1      29.234  -5.029  34.565  0.00  0.00     0.174 HD
ATOM     89  H   ARG d   1      32.751  -5.020  34.435  0.00  0.00     0.177 HD
ENDBRANCH  78  81
ENDBRANCH  75  78
ENDBRANCH  72  75
ENDBRANCH   5  72
ENDBRANCH   3   5
BRANCH   1  90
ATOM     90  CA  ALA d   1      35.977 -11.056  32.341  0.00  0.00     0.086 C 
ATOM     91  H   ALA d   1      36.412 -11.781  31.638  0.00  0.00     0.086 H 
BRANCH  90  92
ATOM     92  N   ALA d   1      37.025 -10.700  33.290  0.00  0.00    -0.346 N 
ATOM     93  C   ALA d   1      38.132 -10.075  32.905  0.00  0.00     0.240 C 
ATOM     94  O   ALA d   1      38.316  -9.684  31.763  0.00  0.00    -0.271 OA
ATOM     95  H   ALA d   1      36.907 -10.932  34.255  0.00  0.00     0.163 HD
BRANCH  93  96
ATOM     96  CA  ALA d   1      39.175  -9.828  33.972  0.00  0.00     0.086 C 
ATOM     97  H   ALA d   1      39.057 -10.585  34.761  0.00  0.00     0.086 H 
BRANCH  96  98
ATOM     98  N   ALA d   1      40.523  -9.949  33.408  0.00  0.00    -0.347 N 
ATOM     99  C   GLY d   1      41.541 -10.331  34.171  0.00  0.00     0.236 C 
ATOM    100  O   GLY d   1      41.406 -10.607  35.360  0.00  0.00    -0.272 OA
ATOM    101  H   ALA d   1      40.677  -9.742  32.442  0.00  0.00     0.163 HD
BRANCH  99 102
ATOM    102  CA  GLY d   1      42.917 -10.401  33.526  0.00  0.00     0.069 C 
ATOM    103  H   GLY d   1      43.446  -9.469  33.775  0.00  0.00     0.078 H 
ATOM    104  H   GLY d   1      43.448 -11.254  33.973  0.00  0.00     0.078 H 
BRANCH 102 105
ATOM    105  N   GLY d   1      42.973 -10.561  32.084  0.00  0.00    -0.351 N 
ATOM    106  C   HIS d   1      43.129  -9.516  31.271  0.00  0.00     0.241 C 
ATOM    107  O   HIS d   1      43.048  -8.345  31.648  0.00  0.00    -0.271 OA
ATOM    108  H   GLY d   1      42.893 -11.477  31.691  0.00  0.00     0.163 HD
BRANCH 106 109
ATOM    109  CA  HIS d   1      43.409  -9.829  29.809  0.00  0.00     0.094 C 
ATOM    110  H   HIS d   1      44.443  -9.519  29.598  0.00  0.00     0.088 H 
BRANCH 109 111
ATOM    111  N   HIS d   1      43.309 -11.248  29.499  0.00  0.00    -0.346 N 
ATOM    112  C   PRO d   1      44.383 -12.033  29.495  0.00  0.00     0.241 C 
ATOM    113  O   PRO d   1      45.523 -11.633  29.749  0.00  0.00    -0.271 OA
ATOM    114  H   HIS d   1      42.415 -11.641  29.285  0.00  0.00     0.163 HD
BRANCH 112 115
ATOM    115  CA  PRO d   1      44.165 -13.496  29.144  0.00  0.00     0.091 C 
ATOM    116  N   PRO d   1      42.886 -14.020  29.639  0.00  0.00    -0.337 N 
ATOM    117  C   ASN d   1      42.506 -14.001  30.929  0.00  0.00     0.243 C 
ATOM    118  CD  PRO d   1      42.074 -14.599  28.555  0.00  0.00    -0.001 C 
ATOM    119  O   ASN d   1      43.166 -13.456  31.811  0.00  0.00    -0.271 OA
ATOM    120  CG  PRO d   1      43.046 -14.715  27.432  0.00  0.00    -0.048 C 
ATOM    121  H   PRO d   1      41.239 -13.934  28.288  0.00  0.00     0.064 H 
ATOM    122  H   PRO d   1      41.680 -15.586  28.840  0.00  0.00     0.064 H 
ATOM    123  CB  PRO d   1      44.032 -13.635  27.627  0.00  0.00    -0.036 C 
ATOM    124  H   PRO d   1      43.544 -15.695  27.459  0.00  0.00     0.035 H 
ATOM    125  H   PRO d   1      42.531 -14.591  26.468  0.00  0.00     0.035 H 
ATOM    126  H   PRO d   1      44.998 -13.907  27.177  0.00  0.00     0.036 H 
ATOM    127  H   PRO d   1      43.671 -12.696  27.182  0.00  0.00     0.036 H 
ATOM    128  H   PRO d   1      45.004 -14.094  29.530  0.00  0.00     0.087 H 
BRANCH 117 129
ATOM    129  CA  ASN d   1      41.187 -14.691  31.268  0.00  0.00     0.097 C 
ATOM    130  H   ASN d   1      40.822 -15.185  30.355  0.00  0.00     0.088 H 
BRANCH 129 131
ATOM    131  N   ASN d   1      41.342 -15.714  32.298  0.00  0.00    -0.346 N 
ATOM    132  C   LEU d   1      41.879 -16.900  32.024  0.00  0.00     0.248 C 
ATOM    133  O   LEU d   1      42.308 -17.195  30.908  0.00  0.00    -0.271 OA
ATOM    134  H   ASN d   1      41.038 -15.519  33.230  0.00  0.00     0.163 HD
BRANCH 132 135
ATOM    135  CA  LEU d   1      41.954 -17.900  33.178  0.00  0.00     0.172 C 
ATOM    136  H   LEU d   1      41.702 -17.368  34.107  0.00  0.00     0.098 H 
BRANCH 135 137
ATOM    137  N   LEU d   1      40.997 -18.992  33.008  0.00  0.00    -0.067 N 
ATOM    138  H   LEU d   1      41.074 -19.630  33.785  0.00  0.00     0.275 HD
ATOM    139  H   LEU d   1      41.195 -19.482  32.150  0.00  0.00     0.275 HD
ATOM    140  H   LEU d   1      40.062 -18.617  32.973  0.00  0.00     0.275 HD
ENDBRANCH 135 137
BRANCH 135 141
ATOM    141  CB  LEU d   1      43.363 -18.448  33.310  0.00  0.00    -0.042 C 
ATOM    142  H   LEU d   1      44.070 -17.615  33.437  0.00  0.00     0.030 H 
ATOM    143  H   LEU d   1      43.623 -19.014  32.403  0.00  0.00     0.030 H 
ATOM    144  H   LEU d   1      43.418 -19.112  34.185  0.00  0.00     0.030 H 
ENDBRANCH 135 141
ENDBRANCH 132 135
ENDBRANCH 129 131
BRANCH 129 145
ATOM    145  CB  ASN d   1      40.142 -13.657  31.703  0.00  0.00     0.036 C 
ATOM    146  H   ASN d   1      40.240 -12.767  31.064  0.00  0.00     0.051 H 
ATOM    147  H   ASN d   1      40.335 -13.380  32.750  0.00  0.00     0.051 H 
BRANCH 145 148
ATOM    148  CG  ASN d   1      38.718 -14.182  31.593  0.00  0.00     0.217 C 
ATOM    149  OD1 ASN d   1      38.315 -14.710  30.551  0.00  0.00    -0.274 OA
ATOM    150  ND2 ASN d   1      37.954 -14.051  32.672  0.00  0.00    -0.370 N 
ATOM    151  H   ASN d   1      37.009 -14.378  32.658  0.00  0.00     0.159 HD
ATOM    152  H   ASN d   1      38.324 -13.626  33.498  0.00  0.00     0.159 HD
ENDBRANCH 145 148
ENDBRANCH 129 145
ENDBRANCH 117 129
ENDBRANCH 112 115
ENDBRANCH 109 111
BRANCH 109 153
ATOM    153  CB  HIS d   1      42.479  -9.015  28.907  0.00  0.00     0.004 C 
ATOM    154  H   HIS d   1      42.570  -7.953  29.180  0.00  0.00     0.046 H 
ATOM    155  H   HIS d   1      41.445  -9.350  29.078  0.00  0.00     0.046 H 
BRANCH 153 156
ATOM    156  CG  HIS d   1      42.789  -9.159  27.455  0.00  0.00     0.053 A 
ATOM    157  ND1 HIS d   1      42.221 -10.135  26.666  0.00  0.00    -0.247 NA
ATOM    158  CE1 HIS d   1      42.690 -10.029  25.435  0.00  0.00     0.064 A 
ATOM    159  NE2 HIS d   1      43.543  -9.021  25.401  0.00  0.00    -0.359 N 
ATOM    160  H   HIS d   1      42.419 -10.664  24.593  0.00  0.00     0.143 H 
ATOM    161  CD2 HIS d   1      43.629  -8.464  26.652  0.00  0.00     0.002 A 
ATOM    162  H   HIS d   1      44.061  -8.704  24.569  0.00  0.00     0.166 HD
ATOM    163  H   HIS d   1      44.255  -7.622  26.944  0.00  0.00     0.114 H 
ENDBRANCH 153 156
ENDBRANCH 109 153
ENDBRANCH 106 109
ENDBRANCH 102 105
ENDBRANCH  99 102
ENDBRANCH  96  98
BRANCH  96 164
ATOM    164  CB  ALA d   1      38.974  -8.444  34.588  0.00  0.00    -0.049 C 
ATOM    165  H   ALA d   1      37.959  -8.372  35.005  0.00  0.00     0.030 H 
ATOM    166  H   ALA d   1      39.107  -7.675  33.813  0.00  0.00     0.030 H 
ATOM    167  H   ALA d   1      39.711  -8.289  35.389  0.00  0.00     0.030 H 
ENDBRANCH  96 164
ENDBRANCH  93  96
ENDBRANCH  90  92
BRANCH  90 168
ATOM    168  CB  ALA d   1      34.822 -11.745  33.062  0.00  0.00    -0.049 C 
ATOM    169  H   ALA d   1      34.040 -12.007  32.334  0.00  0.00     0.030 H 
ATOM    170  H   ALA d   1      34.405 -11.065  33.819  0.00  0.00     0.030 H 
ATOM    171  H   ALA d   1      35.189 -12.659  33.552  0.00  0.00     0.030 H 
ENDBRANCH  90 168
ENDBRANCH   1  90
TORSDOF 44
