REMARK  26 active torsions:
REMARK  status: ('A' for Active; 'I' for Inactive)
REMARK    1  A    between atoms: N_1  and  CA_2 
REMARK    2  A    between atoms: CA_2  and  C_3 
REMARK       I    between atoms: C_3  and  N_5 
REMARK    3  A    between atoms: N_5  and  CA_6 
REMARK    4  A    between atoms: CA_6  and  C_7 
REMARK    5  A    between atoms: CA_6  and  CB_9 
REMARK       I    between atoms: C_7  and  N_11 
REMARK    6  A    between atoms: CB_9  and  SG_10 
REMARK    7  A    between atoms: N_11  and  CA_12 
REMARK    8  A    between atoms: CA_12  and  C_13 
REMARK    9  A    between atoms: CA_12  and  CB_15 
REMARK       I    between atoms: C_13  and  N_16 
REMARK   10  A    between atoms: N_16  and  CA_17 
REMARK   11  A    between atoms: CA_17  and  C_18 
REMARK   12  A    between atoms: CA_17  and  CB_20 
REMARK       I    between atoms: C_18  and  N_27 
REMARK   13  A    between atoms: CB_20  and  CG_21 
REMARK   14  A    between atoms: CG_21  and  CD_22 
REMARK   15  A    between atoms: CD_22  and  NE_23 
REMARK       I    between atoms: NE_23  and  CZ_24 
REMARK       I    between atoms: CZ_24  and  NH1_25 
REMARK   16  A    between atoms: N_27  and  CA_28 
REMARK   17  A    between atoms: CA_28  and  C_29 
REMARK   18  A    between atoms: CA_28  and  CB_31 
REMARK       I    between atoms: C_29  and  N_33 
REMARK   19  A    between atoms: CB_31  and  OG_32 
REMARK   20  A    between atoms: N_33  and  CA_34 
REMARK   21  A    between atoms: CA_34  and  C_35 
REMARK   22  A    between atoms: CA_34  and  CB_37 
REMARK       I    between atoms: C_35  and  N_42 
REMARK   23  A    between atoms: CB_37  and  CG_38 
REMARK   24  A    between atoms: CG_38  and  CD_39 
REMARK   25  A    between atoms: N_42  and  CA_43 
REMARK   26  A    between atoms: CA_43  and  C_44 
ROOT
ATOM      1  CA  ARG d   1     -15.174 -26.592  -6.980  0.00  0.00     0.089 C 
ATOM      2  H   ARG d   1     -15.650 -26.793  -6.009  0.00  0.00     0.087 H 
ENDROOT
BRANCH   1   3
ATOM      3  N   ARG d   1     -13.808 -27.115  -6.887  0.00  0.00    -0.346 N 
ATOM      4  C   ALA d   1     -13.622 -28.361  -6.465  0.00  0.00     0.240 C 
ATOM      5  O   ALA d   1     -14.568 -29.116  -6.206  0.00  0.00    -0.271 OA
ATOM      6  H   ARG d   1     -13.027 -26.542  -7.138  0.00  0.00     0.163 HD
BRANCH   4   7
ATOM      7  CA  ALA d   1     -12.181 -28.850  -6.323  0.00  0.00     0.086 C 
ATOM      8  H   ALA d   1     -12.210 -29.950  -6.340  0.00  0.00     0.086 H 
BRANCH   7   9
ATOM      9  N   ALA d   1     -11.328 -28.424  -7.423  0.00  0.00    -0.346 N 
ATOM     10  C   CYS d   1     -11.634 -28.731  -8.679  0.00  0.00     0.241 C 
ATOM     11  O   CYS d   1     -12.672 -29.308  -8.995  0.00  0.00    -0.271 OA
ATOM     12  H   ALA d   1     -10.502 -27.894  -7.231  0.00  0.00     0.163 HD
BRANCH  10  13
ATOM     13  CA  CYS d   1     -10.620 -28.324  -9.740  0.00  0.00     0.097 C 
ATOM     14  H   CYS d   1      -9.614 -28.524  -9.342  0.00  0.00     0.088 H 
BRANCH  13  15
ATOM     15  N   CYS d   1     -10.788 -29.123 -10.954  0.00  0.00    -0.346 N 
ATOM     16  C   GLY d   1      -9.733 -29.429 -11.708  0.00  0.00     0.243 C 
ATOM     17  O   GLY d   1      -8.603 -29.003 -11.466  0.00  0.00    -0.272 OA
ATOM     18  H   CYS d   1     -11.698 -29.441 -11.219  0.00  0.00     0.163 HD
BRANCH  16  19
ATOM     19  CA  GLY d   1      -9.974 -30.337 -12.901  0.00  0.00     0.152 C 
ATOM     20  H   GLY d   1     -10.166 -29.713 -13.787  0.00  0.00     0.090 H 
ATOM     21  H   GLY d   1      -9.073 -30.946 -13.070  0.00  0.00     0.090 H 
BRANCH  19  22
ATOM     22  N   GLY d   1     -11.108 -31.226 -12.700  0.00  0.00    -0.071 N 
ATOM     23  H   GLY d   1     -11.228 -31.807 -13.515  0.00  0.00     0.274 HD
ATOM     24  H   GLY d   1     -11.942 -30.679 -12.551  0.00  0.00     0.274 HD
ATOM     25  H   GLY d   1     -10.940 -31.808 -11.894  0.00  0.00     0.274 HD
ENDBRANCH  19  22
ENDBRANCH  16  19
ENDBRANCH  13  15
BRANCH  13  26
ATOM     26  CB  CYS d   1     -10.717 -26.817 -10.038  0.00  0.00     0.001 C 
ATOM     27  H   CYS d   1     -10.114 -26.610 -10.934  0.00  0.00     0.052 H 
ATOM     28  H   CYS d   1     -10.296 -26.274  -9.179  0.00  0.00     0.052 H 
BRANCH  26  29
ATOM     29  SG  CYS d   1     -12.383 -26.186 -10.331  0.00  0.00    -0.180 SA
ATOM     30  H   CYS d   1     -12.338 -25.196 -10.516  0.00  0.00     0.101 HD
ENDBRANCH  26  29
ENDBRANCH  13  26
ENDBRANCH  10  13
ENDBRANCH   7   9
BRANCH   7  31
ATOM     31  CB  ALA d   1     -11.586 -28.430  -4.993  0.00  0.00    -0.049 C 
ATOM     32  H   ALA d   1     -12.244 -28.761  -4.176  0.00  0.00     0.030 H 
ATOM     33  H   ALA d   1     -11.488 -27.335  -4.965  0.00  0.00     0.030 H 
ATOM     34  H   ALA d   1     -10.594 -28.890  -4.873  0.00  0.00     0.030 H 
ENDBRANCH   7  31
ENDBRANCH   4   7
ENDBRANCH   1   3
BRANCH   1  35
ATOM     35  C   ARG d   1     -16.040 -27.287  -8.044  0.00  0.00     0.241 C 
ATOM     36  O   ARG d   1     -17.229 -27.538  -7.817  0.00  0.00    -0.271 OA
ATOM     37  N   SER d   1     -15.458 -27.592  -9.202  0.00  0.00    -0.344 N 
ATOM     38  H   SER d   1     -14.491 -27.380  -9.340  0.00  0.00     0.163 HD
BRANCH  37  39
ATOM     39  CA  SER d   1     -16.216 -28.232 -10.272  0.00  0.00     0.109 C 
ATOM     40  H   SER d   1     -17.207 -27.757 -10.311  0.00  0.00     0.090 H 
BRANCH  39  41
ATOM     41  C   SER d   1     -16.419 -29.718  -9.995  0.00  0.00     0.243 C 
ATOM     42  O   SER d   1     -17.267 -30.361 -10.614  0.00  0.00    -0.271 OA
ATOM     43  N   GLU d   1     -15.649 -30.255  -9.057  0.00  0.00    -0.346 N 
ATOM     44  H   GLU d   1     -14.952 -29.691  -8.614  0.00  0.00     0.163 HD
BRANCH  43  45
ATOM     45  CA  GLU d   1     -15.797 -31.654  -8.657  0.00  0.00     0.090 C 
ATOM     46  H   GLU d   1     -15.993 -32.254  -9.558  0.00  0.00     0.087 H 
BRANCH  45  47
ATOM     47  C   GLU d   1     -16.969 -31.808  -7.699  0.00  0.00     0.240 C 
ATOM     48  O   GLU d   1     -17.678 -32.816  -7.730  0.00  0.00    -0.271 OA
ATOM     49  N   GLY d   1     -17.167 -30.801  -6.853  0.00  0.00    -0.349 N 
ATOM     50  H   GLY d   1     -16.573 -29.998  -6.906  0.00  0.00     0.163 HD
BRANCH  49  51
ATOM     51  CA  GLY d   1     -18.219 -30.833  -5.856  0.00  0.00     0.075 C 
ATOM     52  H   GLY d   1     -19.184 -30.956  -6.369  0.00  0.00     0.080 H 
ATOM     53  H   GLY d   1     -18.213 -29.878  -5.310  0.00  0.00     0.080 H 
BRANCH  51  54
ATOM     54  C   GLY d   1     -18.058 -31.959  -4.857  0.00  0.00     0.191 C 
ATOM     55  O   GLY d   1     -16.947 -32.301  -4.466  0.00  0.00    -0.647 OA
ATOM     56  O1  GLY d   1     -19.080 -32.553  -4.421  0.00  0.00    -0.647 OA
ENDBRANCH  51  54
ENDBRANCH  49  51
ENDBRANCH  45  47
BRANCH  45  57
ATOM     57  CB  GLU d   1     -14.526 -32.181  -7.984  0.00  0.00    -0.029 C 
ATOM     58  H   GLU d   1     -14.786 -33.089  -7.420  0.00  0.00     0.037 H 
ATOM     59  H   GLU d   1     -14.159 -31.410  -7.290  0.00  0.00     0.037 H 
BRANCH  57  60
ATOM     60  CG  GLU d   1     -13.404 -32.526  -8.948  0.00  0.00     0.018 C 
ATOM     61  H   GLU d   1     -12.520 -32.827  -8.366  0.00  0.00     0.049 H 
ATOM     62  H   GLU d   1     -13.165 -31.633  -9.543  0.00  0.00     0.049 H 
BRANCH  60  63
ATOM     63  CD  GLU d   1     -13.770 -33.658  -9.896  0.00  0.00     0.172 C 
ATOM     64  OE1 GLU d   1     -14.050 -34.778  -9.412  0.00  0.00    -0.648 OA
ATOM     65  OE2 GLU d   1     -13.779 -33.424 -11.124  0.00  0.00    -0.648 OA
ENDBRANCH  60  63
ENDBRANCH  57  60
ENDBRANCH  45  57
ENDBRANCH  43  45
ENDBRANCH  39  41
BRANCH  39  66
ATOM     66  CB  SER d   1     -15.540 -28.025 -11.632  0.00  0.00     0.044 C 
ATOM     67  H   SER d   1     -15.432 -26.946 -11.816  0.00  0.00     0.077 H 
ATOM     68  H   SER d   1     -16.171 -28.470 -12.416  0.00  0.00     0.077 H 
BRANCH  66  69
ATOM     69  OG  SER d   1     -14.254 -28.632 -11.675  0.00  0.00    -0.398 OA
ATOM     70  H   SER d   1     -13.702 -28.249 -11.004  0.00  0.00     0.209 HD
ENDBRANCH  66  69
ENDBRANCH  39  66
ENDBRANCH  37  39
ENDBRANCH   1  35
BRANCH   1  71
ATOM     71  CB  ARG d   1     -15.181 -25.070  -7.177  0.00  0.00    -0.036 C 
ATOM     72  H   ARG d   1     -14.755 -24.841  -8.165  0.00  0.00     0.036 H 
ATOM     73  H   ARG d   1     -14.559 -24.611  -6.394  0.00  0.00     0.036 H 
BRANCH  71  74
ATOM     74  CG  ARG d   1     -16.586 -24.470  -7.100  0.00  0.00    -0.048 C 
ATOM     75  H   ARG d   1     -17.015 -24.707  -6.115  0.00  0.00     0.035 H 
ATOM     76  H   ARG d   1     -17.205 -24.923  -7.889  0.00  0.00     0.035 H 
BRANCH  74  77
ATOM     77  CD  ARG d   1     -16.596 -22.951  -7.284  0.00  0.00     0.009 C 
ATOM     78  H   ARG d   1     -17.627 -22.587  -7.162  0.00  0.00     0.064 H 
ATOM     79  H   ARG d   1     -16.242 -22.716  -8.299  0.00  0.00     0.064 H 
BRANCH  77  80
ATOM     80  NE  ARG d   1     -15.737 -22.263  -6.316  0.00  0.00    -0.227 N 
ATOM     81  CZ  ARG d   1     -16.145 -21.761  -5.152  0.00  0.00     0.665 C 
ATOM     82  NH1 ARG d   1     -17.421 -21.858  -4.772  0.00  0.00    -0.235 N 
ATOM     83  NH2 ARG d   1     -15.272 -21.152  -4.361  0.00  0.00    -0.235 N 
ATOM     84  H   ARG d   1     -17.721 -21.465  -3.869  0.00  0.00     0.174 HD
ATOM     85  H   ARG d   1     -18.106 -22.326  -5.382  0.00  0.00     0.174 HD
ATOM     86  H   ARG d   1     -14.286 -21.073  -4.647  0.00  0.00     0.174 HD
ATOM     87  H   ARG d   1     -15.580 -20.758  -3.461  0.00  0.00     0.174 HD
ATOM     88  H   ARG d   1     -14.740 -22.160  -6.555  0.00  0.00     0.177 HD
ENDBRANCH  77  80
ENDBRANCH  74  77
ENDBRANCH  71  74
ENDBRANCH   1  71
TORSDOF 26
