REMARK WARNING: 32 MAX_TORS EXCEEDED!!!
REMARK  57 active torsions:
REMARK  status: ('A' for Active; 'I' for Inactive)
REMARK    1  A    between atoms: N_1  and  CA_2 
REMARK    2  A    between atoms: CA_2  and  C_3 
REMARK    3  A    between atoms: CA_2  and  CB_5 
REMARK       I    between atoms: C_3  and  N_10 
REMARK    4  A    between atoms: CB_5  and  CG_6 
REMARK    5  A    between atoms: CG_6  and  CD_7 
REMARK    6  A    between atoms: CA_11  and  C_12 
REMARK       I    between atoms: C_12  and  N_17 
REMARK    7  A    between atoms: CA_18  and  C_19 
REMARK       I    between atoms: C_19  and  N_24 
REMARK    8  A    between atoms: N_24  and  CA_25 
REMARK    9  A    between atoms: CA_25  and  C_26 
REMARK   10  A    between atoms: CA_25  and  CB_28 
REMARK       I    between atoms: C_26  and  N_32 
REMARK   11  A    between atoms: CB_28  and  CG_29 
REMARK   12  A    between atoms: CG_29  and  CD1_30 
REMARK   13  A    between atoms: CG_29  and  CD2_31 
REMARK   14  A    between atoms: N_32  and  CA_33 
REMARK   15  A    between atoms: CA_33  and  C_34 
REMARK   16  A    between atoms: CA_33  and  CB_36 
REMARK       I    between atoms: C_34  and  N_40 
REMARK   17  A    between atoms: CB_36  and  CG_37 
REMARK       I    between atoms: CG_37  and  ND2_39 
REMARK   18  A    between atoms: CA_41  and  C_42 
REMARK       I    between atoms: C_42  and  N_47 
REMARK   19  A    between atoms: N_47  and  CA_48 
REMARK   20  A    between atoms: CA_48  and  C_49 
REMARK   21  A    between atoms: CA_48  and  CB_51 
REMARK       I    between atoms: C_49  and  N_57 
REMARK   22  A    between atoms: CB_51  and  CG_52 
REMARK   23  A    between atoms: N_57  and  CA_58 
REMARK   24  A    between atoms: CA_58  and  C_59 
REMARK       I    between atoms: C_59  and  N_61 
REMARK   25  A    between atoms: N_61  and  CA_62 
REMARK   26  A    between atoms: CA_62  and  C_63 
REMARK   27  A    between atoms: CA_62  and  CB_65 
REMARK       I    between atoms: C_63  and  N_67 
REMARK   28  A    between atoms: CB_65  and  OG_66 
REMARK   29  A    between atoms: N_67  and  CA_68 
REMARK   30  A    between atoms: CA_68  and  C_69 
REMARK   31  A    between atoms: CA_68  and  CB_71 
REMARK       I    between atoms: C_69  and  N_72 
REMARK   32  A    between atoms: N_72  and  CA_73 
REMARK   33  A    between atoms: CA_73  and  C_74 
REMARK   34  A    between atoms: CA_73  and  CB_76 
REMARK       I    between atoms: C_74  and  N_83 
REMARK   35  A    between atoms: CB_76  and  CG_77 
REMARK   36  A    between atoms: CG_77  and  CD_78 
REMARK   37  A    between atoms: CD_78  and  NE_79 
REMARK       I    between atoms: NE_79  and  CZ_80 
REMARK       I    between atoms: CZ_80  and  NH1_81 
REMARK   38  A    between atoms: N_83  and  CA_84 
REMARK   39  A    between atoms: CA_84  and  C_85 
REMARK   40  A    between atoms: CA_84  and  CB_87 
REMARK       I    between atoms: C_85  and  N_88 
REMARK   41  A    between atoms: N_88  and  CA_89 
REMARK   42  A    between atoms: CA_89  and  C_90 
REMARK   43  A    between atoms: CA_89  and  CB_92 
REMARK       I    between atoms: C_90  and  N_97 
REMARK   44  A    between atoms: CB_92  and  CG_93 
REMARK   45  A    between atoms: CG_93  and  CD_94 
REMARK   46  A    between atoms: N_97  and  CA_98 
REMARK   47  A    between atoms: CA_98  and  C_99 
REMARK   48  A    between atoms: CA_98  and  CB_101 
REMARK       I    between atoms: C_99  and  N_104 
REMARK   49  A    between atoms: CB_101  and  CG1_102 
REMARK   50  A    between atoms: CB_101  and  CG2_103 
REMARK   51  A    between atoms: N_104  and  CA_105 
REMARK   52  A    between atoms: CA_105  and  C_106 
REMARK   53  A    between atoms: CA_105  and  CB_108 
REMARK       I    between atoms: C_106  and  N_114 
REMARK   54  A    between atoms: CB_108  and  CG_109 
REMARK   55  A    between atoms: N_114  and  CA_115 
REMARK   56  A    between atoms: CA_115  and  C_116 
REMARK   57  A    between atoms: CA_115  and  CB_118 
ROOT
ATOM      1  C   GLY d   1      -3.951  -6.175  11.131  0.00  0.00     0.236 C 
ATOM      2  O   GLY d   1      -3.536  -5.711  12.182  0.00  0.00    -0.272 OA
ATOM      3  N   SER d   1      -3.684  -5.612   9.957  0.00  0.00    -0.344 N 
ATOM      4  H   SER d   1      -3.998  -6.043   9.111  0.00  0.00     0.163 HD
ENDROOT
BRANCH   1   5
ATOM      5  CA  GLY d   1      -4.805  -7.421  11.149  0.00  0.00     0.069 C 
ATOM      6  H   GLY d   1      -5.056  -7.714  10.119  0.00  0.00     0.078 H 
ATOM      7  H   GLY d   1      -4.258  -8.239  11.640  0.00  0.00     0.078 H 
BRANCH   5   8
ATOM      8  N   GLY d   1      -6.028  -7.132  11.891  0.00  0.00    -0.351 N 
ATOM      9  C   HIS d   1      -6.320  -7.766  13.026  0.00  0.00     0.241 C 
ATOM     10  O   HIS d   1      -5.591  -8.622  13.527  0.00  0.00    -0.271 OA
ATOM     11  H   GLY d   1      -6.661  -6.442  11.540  0.00  0.00     0.163 HD
BRANCH   9  12
ATOM     12  CA  HIS d   1      -7.640  -7.398  13.691  0.00  0.00     0.094 C 
ATOM     13  H   HIS d   1      -8.266  -6.855  12.968  0.00  0.00     0.088 H 
BRANCH  12  14
ATOM     14  N   HIS d   1      -8.323  -8.617  14.081  0.00  0.00    -0.346 N 
ATOM     15  C   PRO d   1      -8.757  -9.445  13.141  0.00  0.00     0.241 C 
ATOM     16  O   PRO d   1      -8.596  -9.226  11.930  0.00  0.00    -0.271 OA
ATOM     17  H   HIS d   1      -8.465  -8.830  15.048  0.00  0.00     0.163 HD
BRANCH  15  18
ATOM     18  CA  PRO d   1      -9.503 -10.687  13.605  0.00  0.00     0.091 C 
ATOM     19  N   PRO d   1     -10.777 -10.783  12.884  0.00  0.00    -0.337 N 
ATOM     20  C   ASN d   1     -11.639  -9.763  12.877  0.00  0.00     0.243 C 
ATOM     21  CD  PRO d   1     -10.888 -12.031  12.107  0.00  0.00    -0.001 C 
ATOM     22  O   ASN d   1     -11.426  -8.713  13.470  0.00  0.00    -0.271 OA
ATOM     23  CG  PRO d   1      -9.833 -12.911  12.726  0.00  0.00    -0.048 C 
ATOM     24  H   PRO d   1     -10.679 -11.853  11.042  0.00  0.00     0.064 H 
ATOM     25  H   PRO d   1     -11.888 -12.477  12.215  0.00  0.00     0.064 H 
ATOM     26  CB  PRO d   1      -8.747 -11.945  13.151  0.00  0.00    -0.036 C 
ATOM     27  H   PRO d   1     -10.236 -13.452  13.595  0.00  0.00     0.035 H 
ATOM     28  H   PRO d   1      -9.447 -13.633  11.992  0.00  0.00     0.035 H 
ATOM     29  H   PRO d   1      -8.157 -12.364  13.980  0.00  0.00     0.036 H 
ATOM     30  H   PRO d   1      -8.081 -11.714  12.307  0.00  0.00     0.036 H 
ATOM     31  H   PRO d   1      -9.648 -10.668  14.695  0.00  0.00     0.087 H 
BRANCH  20  32
ATOM     32  CA  ASN d   1     -12.915  -9.944  12.091  0.00  0.00     0.097 C 
ATOM     33  H   ASN d   1     -12.710 -10.494  11.161  0.00  0.00     0.088 H 
BRANCH  32  34
ATOM     34  N   ASN d   1     -13.865 -10.687  12.893  0.00  0.00    -0.346 N 
ATOM     35  C   LEU d   1     -14.457 -11.791  12.444  0.00  0.00     0.241 C 
ATOM     36  O   LEU d   1     -14.246 -12.267  11.331  0.00  0.00    -0.271 OA
ATOM     37  H   ASN d   1     -14.083 -10.360  13.813  0.00  0.00     0.163 HD
BRANCH  35  38
ATOM     38  CA  LEU d   1     -15.455 -12.444  13.383  0.00  0.00     0.089 C 
ATOM     39  H   LEU d   1     -15.502 -13.517  13.146  0.00  0.00     0.087 H 
BRANCH  38  40
ATOM     40  N   LEU d   1     -15.072 -12.312  14.784  0.00  0.00    -0.346 N 
ATOM     41  C   PRO d   1     -13.947 -12.860  15.246  0.00  0.00     0.241 C 
ATOM     42  O   PRO d   1     -13.161 -13.501  14.535  0.00  0.00    -0.271 OA
ATOM     43  H   LEU d   1     -15.663 -11.802  15.409  0.00  0.00     0.163 HD
BRANCH  41  44
ATOM     44  CA  PRO d   1     -13.640 -12.685  16.737  0.00  0.00     0.091 C 
ATOM     45  N   PRO d   1     -12.955 -13.861  17.293  0.00  0.00    -0.337 N 
ATOM     46  C   PRO d   1     -13.487 -15.094  17.215  0.00  0.00     0.243 C 
ATOM     47  CD  PRO d   1     -11.706 -13.501  17.993  0.00  0.00    -0.001 C 
ATOM     48  O   PRO d   1     -14.618 -15.321  16.766  0.00  0.00    -0.271 OA
ATOM     49  CG  PRO d   1     -11.301 -12.221  17.331  0.00  0.00    -0.048 C 
ATOM     50  H   PRO d   1     -10.938 -14.277  17.855  0.00  0.00     0.064 H 
ATOM     51  H   PRO d   1     -11.885 -13.350  19.068  0.00  0.00     0.064 H 
ATOM     52  CB  PRO d   1     -12.622 -11.550  16.944  0.00  0.00    -0.036 C 
ATOM     53  H   PRO d   1     -10.733 -11.587  18.027  0.00  0.00     0.035 H 
ATOM     54  H   PRO d   1     -10.691 -12.422  16.438  0.00  0.00     0.035 H 
ATOM     55  H   PRO d   1     -12.958 -10.879  17.748  0.00  0.00     0.036 H 
ATOM     56  H   PRO d   1     -12.499 -10.975  16.014  0.00  0.00     0.036 H 
ATOM     57  H   PRO d   1     -14.574 -12.483  17.282  0.00  0.00     0.087 H 
BRANCH  46  58
ATOM     58  CA  PRO d   1     -12.640 -16.258  17.732  0.00  0.00     0.092 C 
ATOM     59  N   PRO d   1     -13.494 -17.380  18.135  0.00  0.00    -0.337 N 
ATOM     60  C   GLU d   1     -14.201 -17.264  19.272  0.00  0.00     0.251 C 
ATOM     61  CD  PRO d   1     -13.313 -18.559  17.269  0.00  0.00    -0.001 C 
ATOM     62  O   GLU d   1     -14.085 -16.298  20.027  0.00  0.00    -0.271 OA
ATOM     63  CG  PRO d   1     -11.932 -18.353  16.720  0.00  0.00    -0.048 C 
ATOM     64  H   PRO d   1     -14.062 -18.579  16.463  0.00  0.00     0.064 H 
ATOM     65  H   PRO d   1     -13.374 -19.491  17.849  0.00  0.00     0.064 H 
ATOM     66  CB  PRO d   1     -11.792 -16.846  16.593  0.00  0.00    -0.036 C 
ATOM     67  H   PRO d   1     -11.176 -18.757  17.409  0.00  0.00     0.035 H 
ATOM     68  H   PRO d   1     -11.828 -18.837  15.738  0.00  0.00     0.035 H 
ATOM     69  H   PRO d   1     -10.739 -16.547  16.703  0.00  0.00     0.036 H 
ATOM     70  H   PRO d   1     -12.169 -16.506  15.617  0.00  0.00     0.036 H 
ATOM     71  H   PRO d   1     -12.008 -15.919  18.566  0.00  0.00     0.087 H 
BRANCH  60  72
ATOM     72  CA  GLU d   1     -15.151 -18.408  19.624  0.00  0.00     0.176 C 
ATOM     73  H   GLU d   1     -14.730 -19.340  19.219  0.00  0.00     0.099 H 
BRANCH  72  74
ATOM     74  N   GLU d   1     -15.271 -18.553  21.077  0.00  0.00    -0.066 N 
ATOM     75  H   GLU d   1     -15.901 -19.311  21.288  0.00  0.00     0.275 HD
ATOM     76  H   GLU d   1     -15.631 -17.698  21.471  0.00  0.00     0.275 HD
ATOM     77  H   GLU d   1     -14.364 -18.750  21.471  0.00  0.00     0.275 HD
ENDBRANCH  72  74
BRANCH  72  78
ATOM     78  CB  GLU d   1     -16.532 -18.189  18.987  0.00  0.00    -0.021 C 
ATOM     79  H   GLU d   1     -16.390 -17.977  17.917  0.00  0.00     0.037 H 
ATOM     80  H   GLU d   1     -17.004 -17.323  19.473  0.00  0.00     0.037 H 
BRANCH  78  81
ATOM     81  CG  GLU d   1     -17.475 -19.391  19.120  0.00  0.00     0.018 C 
ATOM     82  H   GLU d   1     -18.410 -19.054  19.592  0.00  0.00     0.049 H 
ATOM     83  H   GLU d   1     -16.993 -20.146  19.759  0.00  0.00     0.049 H 
BRANCH  81  84
ATOM     84  CD  GLU d   1     -17.811 -20.031  17.779  0.00  0.00     0.172 C 
ATOM     85  OE1 GLU d   1     -17.891 -19.296  16.770  0.00  0.00    -0.648 OA
ATOM     86  OE2 GLU d   1     -17.982 -21.270  17.733  0.00  0.00    -0.648 OA
ENDBRANCH  81  84
ENDBRANCH  78  81
ENDBRANCH  72  78
ENDBRANCH  60  72
ENDBRANCH  46  58
ENDBRANCH  41  44
ENDBRANCH  38  40
BRANCH  38  87
ATOM     87  CB  LEU d   1     -16.831 -11.828  13.129  0.00  0.00    -0.035 C 
ATOM     88  H   LEU d   1     -16.863 -11.505  12.078  0.00  0.00     0.037 H 
ATOM     89  H   LEU d   1     -16.930 -10.951  13.785  0.00  0.00     0.037 H 
BRANCH  87  90
ATOM     90  CG  LEU d   1     -18.032 -12.724  13.373  0.00  0.00    -0.059 C 
ATOM     91  H   LEU d   1     -18.291 -12.681  14.441  0.00  0.00     0.038 H 
BRANCH  90  92
ATOM     92  CD1 LEU d   1     -19.205 -12.204  12.573  0.00  0.00    -0.073 C 
ATOM     93  H   LEU d   1     -20.080 -12.848  12.744  0.00  0.00     0.028 H 
ATOM     94  H   LEU d   1     -18.950 -12.209  11.503  0.00  0.00     0.028 H 
ATOM     95  H   LEU d   1     -19.438 -11.177  12.890  0.00  0.00     0.028 H 
ENDBRANCH  90  92
BRANCH  90  96
ATOM     96  CD2 LEU d   1     -17.715 -14.177  13.018  0.00  0.00    -0.073 C 
ATOM     97  H   LEU d   1     -16.859 -14.522  13.617  0.00  0.00     0.028 H 
ATOM     98  H   LEU d   1     -17.467 -14.248  11.949  0.00  0.00     0.028 H 
ATOM     99  H   LEU d   1     -18.591 -14.807  13.233  0.00  0.00     0.028 H 
ENDBRANCH  90  96
ENDBRANCH  87  90
ENDBRANCH  38  87
ENDBRANCH  35  38
ENDBRANCH  32  34
BRANCH  32 100
ATOM    100  CB  ASN d   1     -13.462  -8.557  11.760  0.00  0.00     0.036 C 
ATOM    101  H   ASN d   1     -12.708  -8.013  11.172  0.00  0.00     0.051 H 
ATOM    102  H   ASN d   1     -13.652  -8.020  12.701  0.00  0.00     0.051 H 
BRANCH 100 103
ATOM    103  CG  ASN d   1     -14.748  -8.610  10.966  0.00  0.00     0.217 C 
ATOM    104  OD1 ASN d   1     -14.822  -9.269   9.932  0.00  0.00    -0.274 OA
ATOM    105  ND2 ASN d   1     -15.777  -7.932  11.461  0.00  0.00    -0.370 N 
ATOM    106  H   ASN d   1     -16.653  -7.931  10.979  0.00  0.00     0.159 HD
ATOM    107  H   ASN d   1     -15.676  -7.423  12.316  0.00  0.00     0.159 HD
ENDBRANCH 100 103
ENDBRANCH  32 100
ENDBRANCH  20  32
ENDBRANCH  15  18
ENDBRANCH  12  14
BRANCH  12 108
ATOM    108  CB  HIS d   1      -7.396  -6.496  14.893  0.00  0.00     0.004 C 
ATOM    109  H   HIS d   1      -6.572  -6.919  15.486  0.00  0.00     0.046 H 
ATOM    110  H   HIS d   1      -8.311  -6.471  15.503  0.00  0.00     0.046 H 
BRANCH 108 111
ATOM    111  CG  HIS d   1      -7.039  -5.095  14.517  0.00  0.00     0.053 A 
ATOM    112  ND1 HIS d   1      -7.858  -4.015  14.774  0.00  0.00    -0.247 NA
ATOM    113  CE1 HIS d   1      -7.289  -2.913  14.321  0.00  0.00     0.064 A 
ATOM    114  NE2 HIS d   1      -6.127  -3.241  13.776  0.00  0.00    -0.359 N 
ATOM    115  H   HIS d   1      -7.703  -1.908  14.384  0.00  0.00     0.143 H 
ATOM    116  CD2 HIS d   1      -5.948  -4.595  13.885  0.00  0.00     0.002 A 
ATOM    117  H   HIS d   1      -5.464  -2.584  13.340  0.00  0.00     0.166 HD
ATOM    118  H   HIS d   1      -5.090  -5.164  13.530  0.00  0.00     0.114 H 
ENDBRANCH 108 111
ENDBRANCH  12 108
ENDBRANCH   9  12
ENDBRANCH   5   8
ENDBRANCH   1   5
BRANCH   3 119
ATOM    119  CA  SER d   1      -2.930  -4.363   9.907  0.00  0.00     0.109 C 
ATOM    120  H   SER d   1      -3.066  -3.821  10.854  0.00  0.00     0.090 H 
BRANCH 119 121
ATOM    121  C   SER d   1      -3.472  -3.536   8.772  0.00  0.00     0.243 C 
ATOM    122  O   SER d   1      -3.977  -4.085   7.787  0.00  0.00    -0.271 OA
ATOM    123  N   ALA d   1      -3.322  -2.225   8.889  0.00  0.00    -0.346 N 
ATOM    124  H   ALA d   1      -2.766  -1.864   9.637  0.00  0.00     0.163 HD
BRANCH 123 125
ATOM    125  CA  ALA d   1      -3.942  -1.301   7.962  0.00  0.00     0.086 C 
ATOM    126  H   ALA d   1      -5.031  -1.450   8.007  0.00  0.00     0.086 H 
BRANCH 125 127
ATOM    127  C   ALA d   1      -3.497  -1.570   6.530  0.00  0.00     0.240 C 
ATOM    128  O   ALA d   1      -4.290  -1.440   5.585  0.00  0.00    -0.271 OA
ATOM    129  N   ARG d   1      -2.231  -1.931   6.338  0.00  0.00    -0.346 N 
ATOM    130  H   ARG d   1      -1.610  -2.056   7.112  0.00  0.00     0.163 HD
BRANCH 129 131
ATOM    131  CA  ARG d   1      -1.770  -2.140   4.963  0.00  0.00     0.089 C 
ATOM    132  H   ARG d   1      -2.028  -1.222   4.414  0.00  0.00     0.087 H 
BRANCH 131 133
ATOM    133  C   ARG d   1      -2.461  -3.283   4.244  0.00  0.00     0.241 C 
ATOM    134  O   ARG d   1      -2.559  -3.289   3.021  0.00  0.00    -0.271 OA
ATOM    135  N   ALA d   1      -2.959  -4.241   5.011  0.00  0.00    -0.346 N 
ATOM    136  H   ALA d   1      -2.898  -4.146   6.005  0.00  0.00     0.163 HD
BRANCH 135 137
ATOM    137  CA  ALA d   1      -3.591  -5.427   4.456  0.00  0.00     0.086 C 
ATOM    138  H   ALA d   1      -3.140  -5.620   3.471  0.00  0.00     0.086 H 
BRANCH 137 139
ATOM    139  C   ALA d   1      -5.091  -5.228   4.247  0.00  0.00     0.240 C 
ATOM    140  O   ALA d   1      -5.782  -6.130   3.743  0.00  0.00    -0.271 OA
ATOM    141  N   GLU d   1      -5.598  -4.048   4.615  0.00  0.00    -0.346 N 
ATOM    142  H   GLU d   1      -4.986  -3.359   5.003  0.00  0.00     0.163 HD
BRANCH 141 143
ATOM    143  CA  GLU d   1      -7.020  -3.729   4.469  0.00  0.00     0.090 C 
ATOM    144  H   GLU d   1      -7.560  -4.639   4.169  0.00  0.00     0.087 H 
BRANCH 143 145
ATOM    145  C   GLU d   1      -7.205  -2.662   3.392  0.00  0.00     0.241 C 
ATOM    146  O   GLU d   1      -6.252  -1.959   3.046  0.00  0.00    -0.271 OA
ATOM    147  N   VAL d   1      -8.417  -2.540   2.851  0.00  0.00    -0.346 N 
ATOM    148  H   VAL d   1      -9.137  -3.193   3.086  0.00  0.00     0.163 HD
BRANCH 147 149
ATOM    149  CA  VAL d   1      -8.696  -1.446   1.908  0.00  0.00     0.092 C 
ATOM    150  H   VAL d   1      -7.745  -1.203   1.411  0.00  0.00     0.088 H 
BRANCH 149 151
ATOM    151  C   VAL d   1      -9.198  -0.175   2.603  0.00  0.00     0.241 C 
ATOM    152  O   VAL d   1     -10.271  -0.175   3.219  0.00  0.00    -0.271 OA
ATOM    153  N   HIS d   1      -8.429   0.912   2.506  0.00  0.00    -0.346 N 
ATOM    154  H   HIS d   1      -7.532   0.845   2.070  0.00  0.00     0.163 HD
BRANCH 153 155
ATOM    155  CA  HIS d   1      -8.883   2.203   3.031  0.00  0.00     0.094 C 
ATOM    156  H   HIS d   1      -9.506   2.019   3.919  0.00  0.00     0.088 H 
BRANCH 155 157
ATOM    157  C   HIS d   1      -9.730   2.924   1.981  0.00  0.00     0.241 C 
ATOM    158  O   HIS d   1      -9.294   3.117   0.848  0.00  0.00    -0.271 OA
ATOM    159  N   LEU d   1     -10.945   3.315   2.351  0.00  0.00    -0.345 N 
ATOM    160  H   LEU d   1     -11.264   3.123   3.279  0.00  0.00     0.163 HD
BRANCH 159 161
ATOM    161  CA  LEU d   1     -11.823   4.025   1.416  0.00  0.00     0.093 C 
ATOM    162  H   LEU d   1     -11.831   3.470   0.467  0.00  0.00     0.089 H 
BRANCH 161 163
ATOM    163  C   LEU d   1     -11.313   5.436   1.135  0.00  0.00     0.196 C 
ATOM    164  O   LEU d   1     -10.990   6.179   2.063  0.00  0.00    -0.646 OA
ATOM    165  O1  LEU d   1     -11.222   5.843  -0.054  0.00  0.00    -0.646 OA
ENDBRANCH 161 163
BRANCH 161 166
ATOM    166  CB  LEU d   1     -13.240   4.071   1.950  0.00  0.00    -0.048 C 
ATOM    167  H   LEU d   1     -13.883   4.607   1.236  0.00  0.00     0.030 H 
ATOM    168  H   LEU d   1     -13.251   4.594   2.917  0.00  0.00     0.030 H 
ATOM    169  H   LEU d   1     -13.615   3.046   2.084  0.00  0.00     0.030 H 
ENDBRANCH 161 166
ENDBRANCH 159 161
ENDBRANCH 155 157
BRANCH 155 170
ATOM    170  CB  HIS d   1      -7.695   3.074   3.446  0.00  0.00     0.004 C 
ATOM    171  H   HIS d   1      -7.051   3.223   2.567  0.00  0.00     0.046 H 
ATOM    172  H   HIS d   1      -7.132   2.543   4.227  0.00  0.00     0.046 H 
BRANCH 170 173
ATOM    173  CG  HIS d   1      -8.085   4.413   3.976  0.00  0.00     0.053 A 
ATOM    174  ND1 HIS d   1      -8.672   4.589   5.212  0.00  0.00    -0.247 NA
ATOM    175  CE1 HIS d   1      -8.911   5.876   5.405  0.00  0.00     0.064 A 
ATOM    176  NE2 HIS d   1      -8.500   6.540   4.338  0.00  0.00    -0.359 N 
ATOM    177  H   HIS d   1      -9.368   6.314   6.291  0.00  0.00     0.143 H 
ATOM    178  CD2 HIS d   1      -7.978   5.652   3.430  0.00  0.00     0.002 A 
ATOM    179  H   HIS d   1      -8.562   7.560   4.209  0.00  0.00     0.166 HD
ATOM    180  H   HIS d   1      -7.557   5.895   2.455  0.00  0.00     0.114 H 
ENDBRANCH 170 173
ENDBRANCH 155 170
ENDBRANCH 153 155
ENDBRANCH 149 151
BRANCH 149 181
ATOM    181  CB  VAL d   1      -9.709  -1.838   0.815  0.00  0.00    -0.033 C 
ATOM    182  H   VAL d   1     -10.665  -2.090   1.297  0.00  0.00     0.042 H 
BRANCH 181 183
ATOM    183  CG1 VAL d   1      -9.936  -0.656  -0.141  0.00  0.00    -0.071 C 
ATOM    184  H   VAL d   1     -10.660  -0.946  -0.917  0.00  0.00     0.028 H 
ATOM    185  H   VAL d   1      -8.982  -0.379  -0.614  0.00  0.00     0.028 H 
ATOM    186  H   VAL d   1     -10.328   0.203   0.424  0.00  0.00     0.028 H 
ENDBRANCH 181 183
BRANCH 181 187
ATOM    187  CG2 VAL d   1      -9.219  -3.059   0.041  0.00  0.00    -0.071 C 
ATOM    188  H   VAL d   1      -9.061  -3.896   0.738  0.00  0.00     0.028 H 
ATOM    189  H   VAL d   1      -8.271  -2.818  -0.463  0.00  0.00     0.028 H 
ATOM    190  H   VAL d   1      -9.971  -3.344  -0.709  0.00  0.00     0.028 H 
ENDBRANCH 181 187
ENDBRANCH 149 181
ENDBRANCH 147 149
ENDBRANCH 143 145
BRANCH 143 191
ATOM    191  CB  GLU d   1      -7.597  -3.224   5.802  0.00  0.00    -0.029 C 
ATOM    192  H   GLU d   1      -8.686  -3.126   5.685  0.00  0.00     0.037 H 
ATOM    193  H   GLU d   1      -7.160  -2.236   6.009  0.00  0.00     0.037 H 
BRANCH 191 194
ATOM    194  CG  GLU d   1      -7.329  -4.128   7.022  0.00  0.00     0.018 C 
ATOM    195  H   GLU d   1      -7.462  -3.529   7.935  0.00  0.00     0.049 H 
ATOM    196  H   GLU d   1      -6.291  -4.488   6.967  0.00  0.00     0.049 H 
BRANCH 194 197
ATOM    197  CD  GLU d   1      -8.256  -5.338   7.099  0.00  0.00     0.172 C 
ATOM    198  OE1 GLU d   1      -9.241  -5.399   6.329  0.00  0.00    -0.648 OA
ATOM    199  OE2 GLU d   1      -7.998  -6.223   7.946  0.00  0.00    -0.648 OA
ENDBRANCH 194 197
ENDBRANCH 191 194
ENDBRANCH 143 191
ENDBRANCH 141 143
ENDBRANCH 137 139
BRANCH 137 200
ATOM    200  CB  ALA d   1      -3.314  -6.634   5.345  0.00  0.00    -0.049 C 
ATOM    201  H   ALA d   1      -3.797  -7.524   4.915  0.00  0.00     0.030 H 
ATOM    202  H   ALA d   1      -3.717  -6.448   6.351  0.00  0.00     0.030 H 
ATOM    203  H   ALA d   1      -2.229  -6.801   5.410  0.00  0.00     0.030 H 
ENDBRANCH 137 200
ENDBRANCH 135 137
ENDBRANCH 131 133
BRANCH 131 204
ATOM    204  CB  ARG d   1      -0.260  -2.303   4.862  0.00  0.00    -0.036 C 
ATOM    205  H   ARG d   1       0.018  -3.323   5.166  0.00  0.00     0.036 H 
ATOM    206  H   ARG d   1       0.230  -1.576   5.526  0.00  0.00     0.036 H 
BRANCH 204 207
ATOM    207  CG  ARG d   1       0.198  -2.060   3.414  0.00  0.00    -0.048 C 
ATOM    208  H   ARG d   1      -0.122  -1.054   3.107  0.00  0.00     0.035 H 
ATOM    209  H   ARG d   1      -0.275  -2.810   2.763  0.00  0.00     0.035 H 
BRANCH 207 210
ATOM    210  CD  ARG d   1       1.660  -2.158   3.263  0.00  0.00     0.009 C 
ATOM    211  H   ARG d   1       1.911  -2.078   2.195  0.00  0.00     0.064 H 
ATOM    212  H   ARG d   1       1.990  -3.135   3.645  0.00  0.00     0.064 H 
BRANCH 210 213
ATOM    213  NE  ARG d   1       2.366  -1.108   3.991  0.00  0.00    -0.227 N 
ATOM    214  CZ  ARG d   1       2.782   0.027   3.443  0.00  0.00     0.665 C 
ATOM    215  NH1 ARG d   1       2.516   0.295   2.163  0.00  0.00    -0.235 N 
ATOM    216  NH2 ARG d   1       3.443   0.901   4.183  0.00  0.00    -0.235 N 
ATOM    217  H   ARG d   1       2.841   1.177   1.743  0.00  0.00     0.174 HD
ATOM    218  H   ARG d   1       1.985  -0.381   1.595  0.00  0.00     0.174 HD
ATOM    219  H   ARG d   1       3.646   0.690   5.170  0.00  0.00     0.174 HD
ATOM    220  H   ARG d   1       3.755   1.792   3.772  0.00  0.00     0.174 HD
ATOM    221  H   ARG d   1       2.553  -1.257   4.993  0.00  0.00     0.177 HD
ENDBRANCH 210 213
ENDBRANCH 207 210
ENDBRANCH 204 207
ENDBRANCH 131 204
ENDBRANCH 129 131
ENDBRANCH 125 127
BRANCH 125 222
ATOM    222  CB  ALA d   1      -3.646   0.121   8.385  0.00  0.00    -0.049 C 
ATOM    223  H   ALA d   1      -4.118   0.820   7.679  0.00  0.00     0.030 H 
ATOM    224  H   ALA d   1      -2.558   0.283   8.389  0.00  0.00     0.030 H 
ATOM    225  H   ALA d   1      -4.046   0.294   9.395  0.00  0.00     0.030 H 
ENDBRANCH 125 222
ENDBRANCH 123 125
ENDBRANCH 119 121
BRANCH 119 226
ATOM    226  CB  SER d   1      -1.450  -4.614   9.696  0.00  0.00     0.044 C 
ATOM    227  H   SER d   1      -1.080  -5.270  10.498  0.00  0.00     0.077 H 
ATOM    228  H   SER d   1      -0.915  -3.653   9.732  0.00  0.00     0.077 H 
BRANCH 226 229
ATOM    229  OG  SER d   1      -1.208  -5.221   8.466  0.00  0.00    -0.398 OA
ATOM    230  H   SER d   1      -0.275  -5.365   8.363  0.00  0.00     0.209 HD
ENDBRANCH 226 229
ENDBRANCH 119 226
ENDBRANCH   3 119
TORSDOF 57
