REMARK  4 active torsions:
REMARK  status: ('A' for Active; 'I' for Inactive)
REMARK    1  A    between atoms: C1_1  and  N1_14 
REMARK    2  A    between atoms: C5_5  and  C7_8 
REMARK       I    between atoms: C7_8  and  N6_15 
REMARK    3  A    between atoms: N6_15  and  C8_16 
REMARK    4  A    between atoms: C8_16  and  C9_17 
ROOT
ATOM      1  C1  0RB d   1     -24.116   8.985  -6.572  0.00  0.00     0.680 A 
ATOM      2  C2  0RB d   1     -22.885   9.071  -8.594  0.00  0.00     0.292 A 
ATOM      3  C3  0RB d   1     -23.311  10.433  -8.821  0.00  0.00     0.171 A 
ATOM      4  C4  0RB d   1     -24.231  10.953  -7.809  0.00  0.00     0.178 A 
ATOM      5  C5  0RB d   1     -24.326  12.901  -9.098  0.00  0.00     0.144 A 
ATOM      6  C6  0RB d   1     -23.456  12.386 -10.085  0.00  0.00     0.036 A 
ATOM      7  N5  0RB d   1     -22.957  11.138  -9.934  0.00  0.00    -0.249 NA
ATOM      8  O1  0RB d   1     -22.129   8.515  -9.420  0.00  0.00    -0.265 OA
ATOM      9  N2  0RB d   1     -23.319   8.452  -7.493  0.00  0.00    -0.154 N 
ATOM     10  N4  0RB d   1     -24.660  12.203  -8.006  0.00  0.00    -0.221 NA
ATOM     11  N3  0RB d   1     -24.548  10.235  -6.720  0.00  0.00    -0.172 N 
ATOM     12  H1  0RB d   1     -23.192  12.982 -10.951  0.00  0.00     0.118 H 
ATOM     13  H2  0RB d   1     -23.019   7.509  -7.349  0.00  0.00     0.187 HD
ATOM     14  H3  0RB d   1     -25.135  10.658  -5.987  0.00  0.00     0.186 HD
ENDROOT
BRANCH   5  15
ATOM     15  C7  0RB d   1     -24.957  14.235  -9.264  0.00  0.00     0.272 C 
ATOM     16  O2  0RB d   1     -25.697  14.675  -8.397  0.00  0.00    -0.266 OA
ATOM     17  N6  0RB d   1     -24.840  14.777 -10.483  0.00  0.00    -0.350 N 
ATOM     18  H6  0RB d   1     -24.151  14.384 -11.093  0.00  0.00     0.163 HD
BRANCH  17  19
ATOM     19  C8  0RB d   1     -25.620  15.877 -10.993  0.00  0.00     0.038 C 
ATOM     20  H7  0RB d   1     -25.237  16.143 -11.989  0.00  0.00     0.073 H 
ATOM     21  H8  0RB d   1     -25.500  16.733 -10.313  0.00  0.00     0.073 H 
BRANCH  19  22
ATOM     22  C9  0RB d   1     -27.085  15.569 -11.114  0.00  0.00     0.093 A 
ATOM     23  N9  0RB d   1     -27.714  14.390 -10.833  0.00  0.00    -0.159 NA
ATOM     24  N8  0RB d   1     -29.081  14.570 -11.053  0.00  0.00    -0.197 N 
ATOM     25  N7  0RB d   1     -29.251  15.898 -11.454  0.00  0.00    -0.168 NA
ATOM     26  H9  0RB d   1     -29.820  13.862 -10.941  0.00  0.00     0.212 HD
ATOM     27  C10 0RB d   1     -28.045  16.497 -11.490  0.00  0.00     0.050 A 
ATOM     28  H10 0RB d   1     -27.856  17.533 -11.767  0.00  0.00     0.120 H 
ENDBRANCH  19  22
ENDBRANCH  17  19
ENDBRANCH   5  15
BRANCH   1  29
ATOM     29  N1  0RB d   1     -24.463   8.206  -5.499  0.00  0.00    -0.234 N 
ATOM     30  H4  0RB d   1     -24.105   7.243  -5.425  0.00  0.00     0.174 HD
ATOM     31  H5  0RB d   1     -25.081   8.584  -4.767  0.00  0.00     0.174 HD
ENDBRANCH   1  29
TORSDOF 4
