REMARK  16 active torsions:
REMARK  status: ('A' for Active; 'I' for Inactive)
REMARK    1  A    between atoms: C_1  and  CH3_3 
REMARK       I    between atoms: C_1  and  N_4 
REMARK    2  A    between atoms: N_4  and  CA_5 
REMARK    3  A    between atoms: CA_5  and  C_6 
REMARK    4  A    between atoms: CA_5  and  CB_8 
REMARK       I    between atoms: C_6  and  N_9 
REMARK    5  A    between atoms: CA_10  and  C_11 
REMARK       I    between atoms: C_11  and  N_16 
REMARK    6  A    between atoms: N_16  and  CA_17 
REMARK    7  A    between atoms: CA_17  and  C_18 
REMARK    8  A    between atoms: CA_17  and  CB_20 
REMARK    9  A    between atoms: C_18  and  O_19 
REMARK   10  A    between atoms: C_18  and  C1_23 
REMARK   11  A    between atoms: CB_20  and  CG1_21 
REMARK   12  A    between atoms: CB_20  and  CG2_22 
REMARK   13  A    between atoms: C1_23  and  C2_26 
REMARK       I    between atoms: C2_26  and  N1_28 
REMARK   14  A    between atoms: N1_28  and  C3_29 
REMARK   15  A    between atoms: C3_29  and  C4_30 
REMARK   16  A    between atoms: C4_30  and  C5_31 
ROOT
ATOM      1  CA  VAI d   1     -10.108  23.663  37.089  0.00  0.00     0.046 C 
ATOM      2  H17 VAI d   1     -10.422  23.427  36.061  0.00  0.00     0.077 H 
ENDROOT
BRANCH   1   3
ATOM      3  N   VAI d   1     -10.581  22.631  38.001  0.00  0.00    -0.352 N 
ATOM      4  C   PRO d   1     -10.815  21.350  37.769  0.00  0.00     0.241 C 
ATOM      5  O   PRO d   1     -10.729  20.813  36.650  0.00  0.00    -0.271 OA
ATOM      6  H16 VAI d   1     -10.754  22.935  38.938  0.00  0.00     0.163 HD
BRANCH   4   7
ATOM      7  CA  PRO d   1     -11.267  20.548  38.952  0.00  0.00     0.091 A 
ATOM      8  N   PRO d   1     -12.535  19.937  38.585  0.00  0.00    -0.337 N 
ATOM      9  C   ALA d   1     -13.552  20.637  38.064  0.00  0.00     0.243 C 
ATOM     10  CD  PRO d   1     -12.403  18.500  38.426  0.00  0.00    -0.001 A 
ATOM     11  O   ALA d   1     -13.530  21.872  38.000  0.00  0.00    -0.271 OA
ATOM     12  CG  PRO d   1     -10.960  18.136  38.777  0.00  0.00    -0.048 A 
ATOM     13  H14 PRO d   1     -12.621  18.214  37.386  0.00  0.00     0.064 H 
ATOM     14  H15 PRO d   1     -13.098  17.981  39.103  0.00  0.00     0.064 H 
ATOM     15  CB  PRO d   1     -10.270  19.458  39.144  0.00  0.00    -0.036 A 
ATOM     16  H12 PRO d   1     -10.937  17.443  39.631  0.00  0.00     0.035 H 
ATOM     17  H13 PRO d   1     -10.462  17.671  37.913  0.00  0.00     0.035 H 
ATOM     18  H10 PRO d   1      -9.939  19.431  40.193  0.00  0.00     0.036 H 
ATOM     19  H11 PRO d   1      -9.401  19.623  38.490  0.00  0.00     0.036 H 
ATOM     20  H9  PRO d   1     -11.364  21.170  39.854  0.00  0.00     0.087 H 
BRANCH   9  21
ATOM     21  CA  ALA d   1     -14.823  19.843  37.709  0.00  0.00     0.086 C 
ATOM     22  H5  ALA d   1     -14.550  18.852  37.319  0.00  0.00     0.086 H 
BRANCH  21  23
ATOM     23  N   ALA d   1     -15.632  19.719  38.906  0.00  0.00    -0.348 N 
ATOM     24  C   ACE d   1     -15.714  18.565  39.585  0.00  0.00     0.214 C 
ATOM     25  O   ACE d   1     -15.139  17.492  39.235  0.00  0.00    -0.274 OA
ATOM     26  H4  ALA d   1     -16.142  20.514  39.234  0.00  0.00     0.163 HD
BRANCH  24  27
ATOM     27  CH3 ACE d   1     -16.638  18.653  40.801  0.00  0.00    -0.003 C 
ATOM     28  H1  ACE d   1     -17.015  19.681  40.901  0.00  0.00     0.040 H 
ATOM     29  H2  ACE d   1     -16.079  18.378  41.707  0.00  0.00     0.040 H 
ATOM     30  H3  ACE d   1     -17.485  17.963  40.669  0.00  0.00     0.040 H 
ENDBRANCH  24  27
ENDBRANCH  21  23
BRANCH  21  31
ATOM     31  CB  ALA d   1     -15.656  20.591  36.698  0.00  0.00    -0.049 C 
ATOM     32  H6  ALA d   1     -15.082  20.711  35.767  0.00  0.00     0.030 H 
ATOM     33  H7  ALA d   1     -15.916  21.582  37.099  0.00  0.00     0.030 H 
ATOM     34  H8  ALA d   1     -16.577  20.026  36.491  0.00  0.00     0.030 H 
ENDBRANCH  21  31
ENDBRANCH   9  21
ENDBRANCH   4   7
ENDBRANCH   1   3
BRANCH   1  35
ATOM     35  C   VAI d   1      -8.548  23.755  37.125  0.00  0.00     0.127 C 
ATOM     36  H18 VAI d   1      -8.177  23.627  38.153  0.00  0.00     0.096 H 
BRANCH  35  37
ATOM     37  O   VAI d   1      -8.116  24.953  36.563  0.00  0.00    -0.387 OA
ATOM     38  H19 VAI d   1      -8.480  25.681  37.053  0.00  0.00     0.210 HD
ENDBRANCH  35  37
BRANCH  35  39
ATOM     39  C1  FPA d   1      -7.972  22.728  36.177  0.00  0.00     0.349 C 
ATOM     40  F1  FPA d   1      -7.934  21.498  36.529  0.00  0.00    -0.193 F 
ATOM     41  F2  FPA d   1      -8.672  22.581  35.132  0.00  0.00    -0.193 F 
BRANCH  39  42
ATOM     42  C2  FPA d   1      -6.766  22.956  35.389  0.00  0.00     0.293 C 
ATOM     43  O1  FPA d   1      -5.914  22.069  35.478  0.00  0.00    -0.267 OA
ATOM     44  N1  PEA d   1      -7.074  23.435  34.179  0.00  0.00    -0.356 N 
ATOM     45  H27 PEA d   1      -8.002  23.763  34.002  0.00  0.00     0.162 HD
BRANCH  44  46
ATOM     46  C3  PEA d   1      -6.085  23.487  33.118  0.00  0.00    -0.001 C 
ATOM     47  H28 PEA d   1      -5.396  22.633  33.192  0.00  0.00     0.064 H 
ATOM     48  H29 PEA d   1      -5.513  24.425  33.171  0.00  0.00     0.064 H 
BRANCH  46  49
ATOM     49  C4  PEA d   1      -6.873  23.421  31.832  0.00  0.00    -0.026 C 
ATOM     50  H30 PEA d   1      -7.764  24.055  31.952  0.00  0.00     0.042 H 
ATOM     51  H31 PEA d   1      -7.183  22.376  31.682  0.00  0.00     0.042 H 
BRANCH  49  52
ATOM     52  C5  PEA d   1      -6.146  23.876  30.568  0.00  0.00    -0.057 A 
ATOM     53  C6  PEA d   1      -6.750  24.857  29.743  0.00  0.00    -0.077 A 
ATOM     54  C7  PEA d   1      -6.117  25.259  28.552  0.00  0.00    -0.082 A 
ATOM     55  H32 PEA d   1      -7.698  25.297  30.029  0.00  0.00     0.084 H 
ATOM     56  C8  PEA d   1      -4.841  24.724  28.255  0.00  0.00    -0.083 A 
ATOM     57  H33 PEA d   1      -6.595  25.961  27.879  0.00  0.00     0.083 H 
ATOM     58  C9  PEA d   1      -4.211  23.760  29.091  0.00  0.00    -0.082 A 
ATOM     59  H34 PEA d   1      -4.327  25.059  27.362  0.00  0.00     0.083 H 
ATOM     60  C10 PEA d   1      -4.892  23.288  30.233  0.00  0.00    -0.077 A 
ATOM     61  H35 PEA d   1      -3.219  23.392  28.853  0.00  0.00     0.083 H 
ATOM     62  H36 PEA d   1      -4.471  22.496  30.842  0.00  0.00     0.084 H 
ENDBRANCH  49  52
ENDBRANCH  46  49
ENDBRANCH  44  46
ENDBRANCH  39  42
ENDBRANCH  35  39
ENDBRANCH   1  35
BRANCH   1  63
ATOM     63  CB  VAI d   1     -10.778  24.955  37.542  0.00  0.00    -0.039 C 
ATOM     64  H20 VAI d   1     -10.328  25.817  37.028  0.00  0.00     0.042 H 
BRANCH  63  65
ATOM     65  CG1 VAI d   1     -12.196  24.775  37.131  0.00  0.00    -0.071 C 
ATOM     66  H21 VAI d   1     -12.776  25.665  37.416  0.00  0.00     0.028 H 
ATOM     67  H22 VAI d   1     -12.614  23.889  37.632  0.00  0.00     0.028 H 
ATOM     68  H23 VAI d   1     -12.247  24.637  36.041  0.00  0.00     0.028 H 
ENDBRANCH  63  65
BRANCH  63  69
ATOM     69  CG2 VAI d   1     -10.696  25.177  39.045  0.00  0.00    -0.071 C 
ATOM     70  H24 VAI d   1      -9.644  25.309  39.339  0.00  0.00     0.028 H 
ATOM     71  H25 VAI d   1     -11.116  24.305  39.568  0.00  0.00     0.028 H 
ATOM     72  H26 VAI d   1     -11.268  26.077  39.314  0.00  0.00     0.028 H 
ENDBRANCH  63  69
ENDBRANCH   1  63
TORSDOF 16
