REMARK  6 active torsions:
REMARK  status: ('A' for Active; 'I' for Inactive)
REMARK    1  A    between atoms: C1_1  and  C2_4 
REMARK    2  A    between atoms: C2_4  and  C3_5 
REMARK    3  A    between atoms: C3_5  and  O7_6 
REMARK    4  A    between atoms: C3_5  and  C4_7 
REMARK    5  A    between atoms: C3_5  and  C6_11 
REMARK    6  A    between atoms: C4_7  and  C5_8 
ROOT
ATOM      1  C3  CIT d   1     -20.134 -25.502 -29.533  0.00  0.00     0.164 C 
ENDROOT
BRANCH   1   2
ATOM      2  C2  CIT d   1     -18.891 -26.317 -29.892  0.00  0.00     0.054 C 
ATOM      3  H1  CIT d   1     -18.096 -25.637 -30.230  0.00  0.00     0.054 H 
ATOM      4  H2  CIT d   1     -18.549 -26.869 -29.004  0.00  0.00     0.054 H 
BRANCH   2   5
ATOM      5  C1  CIT d   1     -19.210 -27.295 -30.993  0.00  0.00     0.176 C 
ATOM      6  O1  CIT d   1     -20.297 -27.820 -31.056  0.00  0.00    -0.648 OA
ATOM      7  O2  CIT d   1     -18.266 -27.606 -31.885  0.00  0.00    -0.648 OA
ENDBRANCH   2   5
ENDBRANCH   1   2
BRANCH   1   8
ATOM      8  O7  CIT d   1     -21.129 -26.386 -29.007  0.00  0.00    -0.378 OA
ATOM      9  H3  CIT d   1     -21.349 -27.038 -29.661  0.00  0.00     0.211 HD
ENDBRANCH   1   8
BRANCH   1  10
ATOM     10  C4  CIT d   1     -19.722 -24.471 -28.482  0.00  0.00     0.054 C 
ATOM     11  H4  CIT d   1     -18.935 -23.830 -28.907  0.00  0.00     0.054 H 
ATOM     12  H5  CIT d   1     -19.327 -25.003 -27.604  0.00  0.00     0.054 H 
BRANCH  10  13
ATOM     13  C5  CIT d   1     -20.867 -23.599 -28.042  0.00  0.00     0.176 C 
ATOM     14  O3  CIT d   1     -21.991 -23.769 -28.445  0.00  0.00    -0.648 OA
ATOM     15  O4  CIT d   1     -20.595 -22.557 -27.262  0.00  0.00    -0.648 OA
ENDBRANCH  10  13
ENDBRANCH   1  10
BRANCH   1  16
ATOM     16  C6  CIT d   1     -20.644 -24.798 -30.764  0.00  0.00     0.210 C 
ATOM     17  O5  CIT d   1     -21.759 -25.006 -31.179  0.00  0.00    -0.646 OA
ATOM     18  O6  CIT d   1     -19.875 -23.883 -31.371  0.00  0.00    -0.646 OA
ENDBRANCH   1  16
TORSDOF 6
