REMARK  5 active torsions:
REMARK  status: ('A' for Active; 'I' for Inactive)
REMARK    1  A    between atoms: C2'_10  and  O2'_11 
REMARK    2  A    between atoms: C1'_12  and  N9_13 
REMARK    3  A    between atoms: C2A_33  and  O2A_34 
REMARK    4  A    between atoms: C1A_35  and  N91_36 
REMARK    5  A    between atoms: C21_43  and  N21_44 
ROOT
ATOM      1  P1  C2E d   1      16.509   2.342  14.058  0.00  0.00     0.408 P 
ATOM      2  O2P C2E d   1      17.830   1.695  14.322  0.00  0.00    -0.624 OA
ATOM      3  O1P C2E d   1      16.157   3.585  14.856  0.00  0.00    -0.624 OA
ATOM      4  O5' C2E d   1      15.425   1.200  14.275  0.00  0.00    -0.287 OA
ATOM      5  C5' C2E d   1      15.665  -0.158  13.895  0.00  0.00     0.058 C 
ATOM      6  C4' C2E d   1      14.344  -0.885  14.087  0.00  0.00     0.090 C 
ATOM      7  O4' C2E d   1      14.130  -1.051  15.513  0.00  0.00    -0.353 OA
ATOM      8  C3' C2E d   1      13.133  -0.106  13.579  0.00  0.00     0.106 C 
ATOM      9  O3' C2E d   1      12.753  -0.417  12.235  0.00  0.00    -0.279 OA
ATOM     10  C2' C2E d   1      12.023  -0.599  14.491  0.00  0.00     0.106 C 
ATOM     11  C1' C2E d   1      12.735  -0.840  15.797  0.00  0.00     0.140 C 
ATOM     12  P11 C2E d   1      12.003   0.668  11.310  0.00  0.00     0.408 P 
ATOM     13  O21 C2E d   1      11.885  -0.006   9.957  0.00  0.00    -0.624 OA
ATOM     14  O11 C2E d   1      10.737   1.149  11.992  0.00  0.00    -0.624 OA
ATOM     15  O5A C2E d   1      13.022   1.902  11.207  0.00  0.00    -0.287 OA
ATOM     16  C5A C2E d   1      14.181   1.801  10.378  0.00  0.00     0.058 C 
ATOM     17  C4A C2E d   1      15.020   3.058  10.519  0.00  0.00     0.090 C 
ATOM     18  O4A C2E d   1      14.287   4.184  10.060  0.00  0.00    -0.353 OA
ATOM     19  C3A C2E d   1      15.333   3.428  11.963  0.00  0.00     0.106 C 
ATOM     20  O3A C2E d   1      16.438   2.711  12.490  0.00  0.00    -0.279 OA
ATOM     21  C2A C2E d   1      15.562   4.924  11.926  0.00  0.00     0.106 C 
ATOM     22  C1A C2E d   1      14.553   5.326  10.877  0.00  0.00     0.140 C 
ATOM     23  H1  C2E d   1      16.442  -0.602  14.534  0.00  0.00     0.079 H 
ATOM     24  H2  C2E d   1      15.981  -0.211  12.843  0.00  0.00     0.079 H 
ATOM     25  H3  C2E d   1      14.393  -1.861  13.583  0.00  0.00     0.090 H 
ATOM     26  H4  C2E d   1      13.299   0.977  13.676  0.00  0.00     0.092 H 
ATOM     27  H5  C2E d   1      11.230   0.157  14.594  0.00  0.00     0.093 H 
ATOM     28  H7  C2E d   1      12.313  -1.715  16.313  0.00  0.00     0.122 H 
ATOM     29  H12 C2E d   1      13.871   1.683   9.329  0.00  0.00     0.079 H 
ATOM     30  H13 C2E d   1      14.775   0.928  10.685  0.00  0.00     0.079 H 
ATOM     31  H14 C2E d   1      15.951   2.931   9.947  0.00  0.00     0.090 H 
ATOM     32  H15 C2E d   1      14.459   3.208  12.594  0.00  0.00     0.092 H 
ATOM     33  H16 C2E d   1      15.380   5.401  12.900  0.00  0.00     0.093 H 
ATOM     34  H18 C2E d   1      14.944   6.156  10.271  0.00  0.00     0.122 H 
ENDROOT
BRANCH  11  35
ATOM     35  N9  C2E d   1      12.578   0.377  16.632  0.00  0.00    -0.293 N 
ATOM     36  C8  C2E d   1      13.529   1.282  16.919  0.00  0.00     0.071 A 
ATOM     37  N7  C2E d   1      13.041   2.254  17.715  0.00  0.00    -0.235 NA
ATOM     38  H8  C2E d   1      14.555   1.236  16.557  0.00  0.00     0.144 H 
ATOM     39  C5  C2E d   1      11.747   1.968  17.946  0.00  0.00     0.159 A 
ATOM     40  C6  C2E d   1      10.665   2.610  18.715  0.00  0.00     0.226 A 
ATOM     41  C4  C2E d   1      11.427   0.736  17.212  0.00  0.00     0.185 A 
ATOM     42  O6  C2E d   1      10.936   3.755  19.401  0.00  0.00    -0.169 OA
ATOM     43  N1  C2E d   1       9.457   2.017  18.707  0.00  0.00    -0.164 N 
ATOM     44  C2  C2E d   1       9.202   0.860  18.005  0.00  0.00     0.702 A 
ATOM     45  H9  C2E d   1       8.715   2.433  19.232  0.00  0.00     0.186 HD
ATOM     46  N2  C2E d   1       7.959   0.336  18.039  0.00  0.00    -0.233 N 
ATOM     47  N3  C2E d   1      10.164   0.205  17.277  0.00  0.00    -0.044 NA
ATOM     48  H10 C2E d   1       7.750  -0.529  17.520  0.00  0.00     0.174 HD
ATOM     49  H11 C2E d   1       7.219   0.801  18.584  0.00  0.00     0.174 HD
ENDBRANCH  11  35
BRANCH  10  50
ATOM     50  O2' C2E d   1      11.464  -1.833  14.027  0.00  0.00    -0.388 OA
ATOM     51  H6  C2E d   1      12.144  -2.496  13.998  0.00  0.00     0.210 HD
ENDBRANCH  10  50
BRANCH  21  52
ATOM     52  O2A C2E d   1      16.881   5.235  11.444  0.00  0.00    -0.388 OA
ATOM     53  H17 C2E d   1      17.528   4.843  12.019  0.00  0.00     0.210 HD
ENDBRANCH  21  52
BRANCH  22  54
ATOM     54  N91 C2E d   1      13.272   5.719  11.527  0.00  0.00    -0.293 N 
ATOM     55  C81 C2E d   1      12.133   4.999  11.638  0.00  0.00     0.071 A 
ATOM     56  N71 C2E d   1      11.178   5.709  12.282  0.00  0.00    -0.235 NA
ATOM     57  H19 C2E d   1      12.002   3.986  11.261  0.00  0.00     0.144 H 
ATOM     58  C51 C2E d   1      11.714   6.908  12.571  0.00  0.00     0.159 A 
ATOM     59  C61 C2E d   1      11.285   8.157  13.228  0.00  0.00     0.226 A 
ATOM     60  C41 C2E d   1      13.090   6.900  12.062  0.00  0.00     0.185 A 
ATOM     61  O61 C2E d   1      10.037   8.313  13.741  0.00  0.00    -0.169 OA
ATOM     62  N11 C2E d   1      12.168   9.160  13.341  0.00  0.00    -0.164 N 
ATOM     63  C21 C2E d   1      13.420   9.086  12.838  0.00  0.00     0.702 A 
ATOM     64  H20 C2E d   1      11.889   9.995  13.816  0.00  0.00     0.186 HD
ATOM     65  N31 C2E d   1      13.895   7.980  12.219  0.00  0.00    -0.044 NA
BRANCH  63  66
ATOM     66  N21 C2E d   1      14.235  10.164  12.970  0.00  0.00    -0.233 N 
ATOM     67  H21 C2E d   1      15.194  10.133  12.595  0.00  0.00     0.174 HD
ATOM     68  H22 C2E d   1      13.894  11.012  13.445  0.00  0.00     0.174 HD
ENDBRANCH  63  66
ENDBRANCH  22  54
TORSDOF 5
