REMARK  16 active torsions:
REMARK  status: ('A' for Active; 'I' for Inactive)
REMARK    1  A    between atoms: C6_2  and  C5_3 
REMARK       I    between atoms: C6_2  and  N7_4 
REMARK    2  A    between atoms: N7_4  and  C8_5 
REMARK    3  A    between atoms: C8_5  and  C13_6 
REMARK    4  A    between atoms: C8_5  and  C9_13 
REMARK    5  A    between atoms: C13_6  and  C22_7 
REMARK    6  A    between atoms: C9_13  and  O1_14 
REMARK    7  A    between atoms: C9_13  and  C10_15 
REMARK    8  A    between atoms: C10_15  and  N11_16 
REMARK    9  A    between atoms: N11_16  and  C12_17 
REMARK   10  A    between atoms: C2_21  and  C3_22 
REMARK   11  A    between atoms: C2_21  and  C4_23 
REMARK   12  A    between atoms: N19_26  and  C28_28 
REMARK   13  A    between atoms: C28_28  and  C29_29 
REMARK   14  A    between atoms: C29_29  and  C30_30 
REMARK   15  A    between atoms: C29_29  and  C31_31 
REMARK   16  A    between atoms: C29_29  and  C32_32 
ROOT
ATOM      1  C12 996 d   1       4.665   6.796 -16.989  0.00  0.00     0.131 C 
ATOM      2  C17 996 d   1       5.610   7.327 -18.023  0.00  0.00     0.016 A 
ATOM      3  C16 996 d   1       6.988   7.718 -17.773  0.00  0.00     0.065 A 
ATOM      4  C14 996 d   1       7.605   7.598 -16.391  0.00  0.00    -0.016 C 
ATOM      5  C2  996 d   1       6.466   7.567 -15.338  0.00  0.00    -0.040 C 
ATOM      6  C15 996 d   1       5.560   6.381 -15.752  0.00  0.00    -0.028 C 
ATOM      7  N20 996 d   1       7.531   8.147 -18.950  0.00  0.00    -0.177 NA
ATOM      8  N19 996 d   1       6.491   8.031 -19.892  0.00  0.00    -0.279 N 
ATOM      9  C18 996 d   1       5.299   7.544 -19.385  0.00  0.00     0.009 A 
ATOM     10  H19 996 d   1       3.947   7.580 -16.705  0.00  0.00     0.092 H 
ATOM     11  H20 996 d   1       8.260   8.461 -16.202  0.00  0.00     0.043 H 
ATOM     12  H21 996 d   1       8.193   6.670 -16.328  0.00  0.00     0.043 H 
ATOM     13  H28 996 d   1       6.188   5.521 -16.028  0.00  0.00     0.037 H 
ATOM     14  H29 996 d   1       4.911   6.105 -14.908  0.00  0.00     0.037 H 
ATOM     15  H30 996 d   1       4.358   7.371 -19.905  0.00  0.00     0.115 H 
ENDROOT
BRANCH   1  16
ATOM     16  N11 996 d   1       3.938   5.615 -17.435  0.00  0.00    -0.064 N 
ATOM     17  H17 996 d   1       3.370   5.297 -16.666  0.00  0.00     0.278 HD
ATOM     18  H18 996 d   1       3.343   5.893 -18.200  0.00  0.00     0.278 HD
BRANCH  16  19
ATOM     19  C10 996 d   1       4.738   4.489 -17.886  0.00  0.00     0.108 C 
ATOM     20  H15 996 d   1       5.672   4.855 -18.337  0.00  0.00     0.079 H 
ATOM     21  H16 996 d   1       4.974   3.837 -17.032  0.00  0.00     0.079 H 
BRANCH  19  22
ATOM     22  C9  996 d   1       3.928   3.697 -18.938  0.00  0.00     0.078 C 
ATOM     23  H13 996 d   1       3.023   3.270 -18.480  0.00  0.00     0.088 H 
BRANCH  22  24
ATOM     24  C8  996 d   1       4.818   2.550 -19.494  0.00  0.00     0.042 C 
ATOM     25  H5  996 d   1       5.715   2.986 -19.957  0.00  0.00     0.077 H 
BRANCH  24  26
ATOM     26  N7  996 d   1       5.214   1.671 -18.353  0.00  0.00    -0.354 N 
ATOM     27  C6  996 d   1       6.450   1.556 -17.896  0.00  0.00     0.214 C 
ATOM     28  O21 996 d   1       7.404   2.246 -18.346  0.00  0.00    -0.274 OA
ATOM     29  H4  996 d   1       4.498   1.135 -17.906  0.00  0.00     0.162 HD
BRANCH  27  30
ATOM     30  C5  996 d   1       6.608   0.534 -16.748  0.00  0.00    -0.003 C 
ATOM     31  H1  996 d   1       5.636   0.063 -16.540  0.00  0.00     0.040 H 
ATOM     32  H2  996 d   1       6.967   1.050 -15.845  0.00  0.00     0.040 H 
ATOM     33  H3  996 d   1       7.334  -0.238 -17.042  0.00  0.00     0.040 H 
ENDBRANCH  27  30
ENDBRANCH  24  26
BRANCH  24  34
ATOM     34  C13 996 d   1       4.093   1.695 -20.528  0.00  0.00    -0.020 C 
ATOM     35  H6  996 d   1       3.850   2.325 -21.396  0.00  0.00     0.043 H 
ATOM     36  H7  996 d   1       3.164   1.314 -20.079  0.00  0.00     0.043 H 
BRANCH  34  37
ATOM     37  C22 996 d   1       4.937   0.493 -21.011  0.00  0.00    -0.056 A 
ATOM     38  C23 996 d   1       6.321   0.569 -21.233  0.00  0.00    -0.077 A 
ATOM     39  C24 996 d   1       7.022  -0.621 -21.620  0.00  0.00    -0.082 A 
ATOM     40  H8  996 d   1       6.849   1.508 -21.114  0.00  0.00     0.084 H 
ATOM     41  C25 996 d   1       6.318  -1.820 -21.830  0.00  0.00    -0.083 A 
ATOM     42  H9  996 d   1       8.098  -0.596 -21.751  0.00  0.00     0.083 H 
ATOM     43  C26 996 d   1       4.954  -1.868 -21.580  0.00  0.00    -0.082 A 
ATOM     44  H10 996 d   1       6.838  -2.702 -22.185  0.00  0.00     0.083 H 
ATOM     45  C27 996 d   1       4.236  -0.712 -21.199  0.00  0.00    -0.077 A 
ATOM     46  H11 996 d   1       4.429  -2.811 -21.679  0.00  0.00     0.083 H 
ATOM     47  H12 996 d   1       3.163  -0.753 -21.054  0.00  0.00     0.084 H 
ENDBRANCH  34  37
ENDBRANCH  24  34
ENDBRANCH  22  24
BRANCH  22  48
ATOM     48  O1  996 d   1       3.553   4.633 -19.989  0.00  0.00    -0.392 OA
ATOM     49  H14 996 d   1       3.067   4.173 -20.663  0.00  0.00     0.210 HD
ENDBRANCH  22  48
ENDBRANCH  19  22
ENDBRANCH  16  19
ENDBRANCH   1  16
BRANCH   5  50
ATOM     50  C3  996 d   1       5.828   8.949 -15.161  0.00  0.00    -0.069 C 
ATOM     51  H22 996 d   1       5.027   8.889 -14.409  0.00  0.00     0.028 H 
ATOM     52  H23 996 d   1       5.407   9.284 -16.120  0.00  0.00     0.028 H 
ATOM     53  H24 996 d   1       6.592   9.666 -14.826  0.00  0.00     0.028 H 
ENDBRANCH   5  50
BRANCH   5  54
ATOM     54  C4  996 d   1       7.165   7.205 -14.009  0.00  0.00    -0.069 C 
ATOM     55  H25 996 d   1       7.636   6.215 -14.100  0.00  0.00     0.028 H 
ATOM     56  H26 996 d   1       6.422   7.184 -13.198  0.00  0.00     0.028 H 
ATOM     57  H27 996 d   1       7.935   7.958 -13.783  0.00  0.00     0.028 H 
ENDBRANCH   5  54
BRANCH   8  58
ATOM     58  C28 996 d   1       6.877   8.454 -21.227  0.00  0.00     0.022 C 
ATOM     59  H31 996 d   1       6.380   7.794 -21.953  0.00  0.00     0.068 H 
ATOM     60  H32 996 d   1       7.968   8.345 -21.320  0.00  0.00     0.068 H 
BRANCH  58  61
ATOM     61  C29 996 d   1       6.512   9.898 -21.567  0.00  0.00    -0.033 C 
BRANCH  61  62
ATOM     62  C30 996 d   1       5.019  10.198 -21.301  0.00  0.00    -0.068 C 
ATOM     63  H33 996 d   1       4.804  11.245 -21.559  0.00  0.00     0.028 H 
ATOM     64  H34 996 d   1       4.795  10.029 -20.237  0.00  0.00     0.028 H 
ATOM     65  H35 996 d   1       4.396   9.533 -21.917  0.00  0.00     0.028 H 
ENDBRANCH  61  62
BRANCH  61  66
ATOM     66  C31 996 d   1       7.399  10.877 -20.731  0.00  0.00    -0.068 C 
ATOM     67  H36 996 d   1       8.461  10.663 -20.921  0.00  0.00     0.028 H 
ATOM     68  H37 996 d   1       7.184  10.743 -19.661  0.00  0.00     0.028 H 
ATOM     69  H38 996 d   1       7.176  11.914 -21.023  0.00  0.00     0.028 H 
ENDBRANCH  61  66
BRANCH  61  70
ATOM     70  C32 996 d   1       6.776  10.077 -23.057  0.00  0.00    -0.068 C 
ATOM     71  H39 996 d   1       6.144   9.381 -23.628  0.00  0.00     0.028 H 
ATOM     72  H40 996 d   1       7.835   9.869 -23.269  0.00  0.00     0.028 H 
ATOM     73  H41 996 d   1       6.540  11.111 -23.350  0.00  0.00     0.028 H 
ENDBRANCH  61  70
ENDBRANCH  58  61
ENDBRANCH   8  58
TORSDOF 16
