REMARK WARNING: 32 MAX_TORS EXCEEDED!!!
REMARK  39 active torsions:
REMARK  status: ('A' for Active; 'I' for Inactive)
REMARK    1  A    between atoms: N_1  and  CA_2 
REMARK    2  A    between atoms: CA_2  and  C_3 
REMARK    3  A    between atoms: CA_2  and  CB_5 
REMARK       I    between atoms: C_3  and  N_6 
REMARK    4  A    between atoms: N_6  and  CA_7 
REMARK    5  A    between atoms: CA_7  and  C_8 
REMARK    6  A    between atoms: CA_7  and  CB_10 
REMARK       I    between atoms: C_8  and  N_13 
REMARK    7  A    between atoms: CB_10  and  OG1_11 
REMARK    8  A    between atoms: CB_10  and  CG2_12 
REMARK    9  A    between atoms: N_13  and  CA_14 
REMARK   10  A    between atoms: CA_14  and  C_15 
REMARK       I    between atoms: C_15  and  N_17 
REMARK   11  A    between atoms: N_17  and  CA_18 
REMARK   12  A    between atoms: CA_18  and  C_19 
REMARK   13  A    between atoms: CA_18  and  CB_21 
REMARK       I    between atoms: C_19  and  N_23 
REMARK   14  A    between atoms: CB_21  and  OG_22 
REMARK   15  A    between atoms: N_23  and  CA_24 
REMARK   16  A    between atoms: CA_24  and  C_25 
REMARK   17  A    between atoms: CA_24  and  CB_27 
REMARK       I    between atoms: C_25  and  N_28 
REMARK   18  A    between atoms: N_28  and  CA_29 
REMARK   19  A    between atoms: CA_29  and  C_30 
REMARK   20  A    between atoms: CA_29  and  CB_32 
REMARK       I    between atoms: C_30  and  N_39 
REMARK   21  A    between atoms: CB_32  and  CG_33 
REMARK   22  A    between atoms: CG_33  and  CD_34 
REMARK   23  A    between atoms: CD_34  and  NE_35 
REMARK       I    between atoms: NE_35  and  CZ_36 
REMARK       I    between atoms: CZ_36  and  NH1_37 
REMARK   24  A    between atoms: N_39  and  CA_40 
REMARK   25  A    between atoms: CA_40  and  C_41 
REMARK   26  A    between atoms: CA_40  and  CB_43 
REMARK       I    between atoms: C_41  and  N_45 
REMARK   27  A    between atoms: CB_43  and  OG_44 
REMARK   28  A    between atoms: N_45  and  CA_46 
REMARK   29  A    between atoms: CA_46  and  C_47 
REMARK   30  A    between atoms: CA_46  and  CB_49 
REMARK       I    between atoms: C_47  and  N_54 
REMARK   31  A    between atoms: CB_49  and  CG_50 
REMARK   32  A    between atoms: CG_50  and  CD_51 
REMARK   33  A    between atoms: N_54  and  CA_55 
REMARK   34  A    between atoms: CA_55  and  C_56 
REMARK       I    between atoms: C_56  and  N_58 
REMARK   35  A    between atoms: N_58  and  CA_59 
REMARK   36  A    between atoms: CA_59  and  C_60 
REMARK   37  A    between atoms: CA_59  and  CB_62 
REMARK   38  A    between atoms: CB_62  and  CG_63 
REMARK   39  A    between atoms: CZ_68  and  OH_69 
ROOT
ATOM      1  CA  ARG d   1     -15.217 -26.563  -7.035  0.00  0.00     0.089 C 
ATOM      2  H   ARG d   1     -15.702 -26.774  -6.070  0.00  0.00     0.087 H 
ENDROOT
BRANCH   1   3
ATOM      3  N   ARG d   1     -13.850 -27.061  -6.940  0.00  0.00    -0.346 N 
ATOM      4  C   ALA d   1     -13.650 -28.309  -6.531  0.00  0.00     0.240 C 
ATOM      5  O   ALA d   1     -14.591 -29.066  -6.280  0.00  0.00    -0.271 OA
ATOM      6  H   ARG d   1     -13.077 -26.474  -7.178  0.00  0.00     0.163 HD
BRANCH   4   7
ATOM      7  CA  ALA d   1     -12.203 -28.800  -6.412  0.00  0.00     0.086 C 
ATOM      8  H   ALA d   1     -12.229 -29.900  -6.404  0.00  0.00     0.086 H 
BRANCH   7   9
ATOM      9  N   ALA d   1     -11.397 -28.389  -7.552  0.00  0.00    -0.346 N 
ATOM     10  C   SER d   1     -11.749 -28.742  -8.784  0.00  0.00     0.243 C 
ATOM     11  O   SER d   1     -12.751 -29.416  -9.027  0.00  0.00    -0.271 OA
ATOM     12  H   ALA d   1     -10.575 -27.839  -7.408  0.00  0.00     0.163 HD
BRANCH  10  13
ATOM     13  CA  SER d   1     -10.853 -28.263  -9.912  0.00  0.00     0.109 C 
ATOM     14  H   SER d   1      -9.811 -28.273  -9.559  0.00  0.00     0.090 H 
BRANCH  13  15
ATOM     15  N   SER d   1     -10.946 -29.162 -11.070  0.00  0.00    -0.344 N 
ATOM     16  C   GLY d   1      -9.859 -29.468 -11.767  0.00  0.00     0.236 C 
ATOM     17  O   GLY d   1      -8.800 -28.885 -11.596  0.00  0.00    -0.272 OA
ATOM     18  H   SER d   1     -11.831 -29.545 -11.334  0.00  0.00     0.163 HD
BRANCH  16  19
ATOM     19  CA  GLY d   1      -9.964 -30.544 -12.837  0.00  0.00     0.069 C 
ATOM     20  H   GLY d   1      -9.996 -30.038 -13.813  0.00  0.00     0.078 H 
ATOM     21  H   GLY d   1      -9.056 -31.162 -12.774  0.00  0.00     0.078 H 
BRANCH  19  22
ATOM     22  N   GLY d   1     -11.106 -31.438 -12.771  0.00  0.00    -0.350 N 
ATOM     23  C   THR d   1     -12.073 -31.376 -13.687  0.00  0.00     0.243 C 
ATOM     24  O   THR d   1     -12.135 -30.489 -14.535  0.00  0.00    -0.271 OA
ATOM     25  H   GLY d   1     -11.168 -32.107 -12.031  0.00  0.00     0.163 HD
BRANCH  23  26
ATOM     26  CA  THR d   1     -13.142 -32.458 -13.633  0.00  0.00     0.113 C 
ATOM     27  H   THR d   1     -13.369 -32.788 -14.657  0.00  0.00     0.091 H 
BRANCH  26  28
ATOM     28  N   THR d   1     -12.667 -33.616 -12.880  0.00  0.00    -0.344 N 
ATOM     29  C   GLN d   1     -11.921 -34.551 -13.462  0.00  0.00     0.248 C 
ATOM     30  O   GLN d   1     -11.700 -34.565 -14.672  0.00  0.00    -0.271 OA
ATOM     31  H   THR d   1     -12.906 -33.707 -11.913  0.00  0.00     0.163 HD
BRANCH  29  32
ATOM     32  CA  GLN d   1     -11.348 -35.637 -12.554  0.00  0.00     0.172 C 
ATOM     33  H   GLN d   1     -10.362 -35.921 -12.951  0.00  0.00     0.098 H 
BRANCH  32  34
ATOM     34  N   GLN d   1     -11.156 -35.159 -11.185  0.00  0.00    -0.067 N 
ATOM     35  H   GLN d   1     -10.778 -35.903 -10.619  0.00  0.00     0.275 HD
ATOM     36  H   GLN d   1     -12.042 -34.865 -10.805  0.00  0.00     0.275 HD
ATOM     37  H   GLN d   1     -10.516 -34.380 -11.188  0.00  0.00     0.275 HD
ENDBRANCH  32  34
BRANCH  32  38
ATOM     38  CB  GLN d   1     -12.237 -36.874 -12.573  0.00  0.00    -0.042 C 
ATOM     39  H   GLN d   1     -12.368 -37.216 -13.610  0.00  0.00     0.030 H 
ATOM     40  H   GLN d   1     -13.218 -36.627 -12.142  0.00  0.00     0.030 H 
ATOM     41  H   GLN d   1     -11.767 -37.673 -11.980  0.00  0.00     0.030 H 
ENDBRANCH  32  38
ENDBRANCH  29  32
ENDBRANCH  26  28
BRANCH  26  42
ATOM     42  CB  THR d   1     -14.411 -31.835 -13.027  0.00  0.00     0.060 C 
ATOM     43  H   THR d   1     -14.719 -30.981 -13.649  0.00  0.00     0.086 H 
BRANCH  42  44
ATOM     44  OG1 THR d   1     -14.123 -31.365 -11.702  0.00  0.00    -0.393 OA
ATOM     45  H   THR d   1     -13.838 -32.094 -11.164  0.00  0.00     0.210 HD
ENDBRANCH  42  44
BRANCH  42  46
ATOM     46  CG2 THR d   1     -15.554 -32.852 -12.994  0.00  0.00    -0.050 C 
ATOM     47  H   THR d   1     -16.449 -32.384 -12.557  0.00  0.00     0.031 H 
ATOM     48  H   THR d   1     -15.258 -33.717 -12.383  0.00  0.00     0.031 H 
ATOM     49  H   THR d   1     -15.777 -33.186 -14.018  0.00  0.00     0.031 H 
ENDBRANCH  42  46
ENDBRANCH  26  42
ENDBRANCH  23  26
ENDBRANCH  19  22
ENDBRANCH  16  19
ENDBRANCH  13  15
BRANCH  13  50
ATOM     50  CB  SER d   1     -11.222 -26.825 -10.270  0.00  0.00     0.044 C 
ATOM     51  H   SER d   1     -10.762 -26.566 -11.235  0.00  0.00     0.077 H 
ATOM     52  H   SER d   1     -10.840 -26.151  -9.489  0.00  0.00     0.077 H 
BRANCH  50  53
ATOM     53  OG  SER d   1     -12.632 -26.669 -10.370  0.00  0.00    -0.398 OA
ATOM     54  H   SER d   1     -12.966 -27.247 -11.046  0.00  0.00     0.209 HD
ENDBRANCH  50  53
ENDBRANCH  13  50
ENDBRANCH  10  13
ENDBRANCH   7   9
BRANCH   7  55
ATOM     55  CB  ALA d   1     -11.558 -28.341  -5.097  0.00  0.00    -0.049 C 
ATOM     56  H   ALA d   1     -12.183 -28.662  -4.250  0.00  0.00     0.030 H 
ATOM     57  H   ALA d   1     -11.472 -27.244  -5.094  0.00  0.00     0.030 H 
ATOM     58  H   ALA d   1     -10.557 -28.788  -5.004  0.00  0.00     0.030 H 
ENDBRANCH   7  55
ENDBRANCH   4   7
ENDBRANCH   1   3
BRANCH   1  59
ATOM     59  C   ARG d   1     -16.039 -27.267  -8.118  0.00  0.00     0.241 C 
ATOM     60  O   ARG d   1     -17.219 -27.541  -7.918  0.00  0.00    -0.271 OA
ATOM     61  N   SER d   1     -15.438 -27.557  -9.267  0.00  0.00    -0.344 N 
ATOM     62  H   SER d   1     -14.473 -27.336  -9.405  0.00  0.00     0.163 HD
BRANCH  61  63
ATOM     63  CA  SER d   1     -16.212 -28.206 -10.328  0.00  0.00     0.109 C 
ATOM     64  H   SER d   1     -17.203 -27.730 -10.342  0.00  0.00     0.090 H 
BRANCH  63  65
ATOM     65  C   SER d   1     -16.431 -29.694 -10.060  0.00  0.00     0.243 C 
ATOM     66  O   SER d   1     -17.277 -30.325 -10.704  0.00  0.00    -0.271 OA
ATOM     67  N   GLU d   1     -15.689 -30.252  -9.104  0.00  0.00    -0.346 N 
ATOM     68  H   GLU d   1     -15.005 -29.699  -8.628  0.00  0.00     0.163 HD
BRANCH  67  69
ATOM     69  CA  GLU d   1     -15.856 -31.662  -8.737  0.00  0.00     0.090 C 
ATOM     70  H   GLU d   1     -16.009 -32.239  -9.661  0.00  0.00     0.087 H 
BRANCH  69  71
ATOM     71  C   GLU d   1     -17.068 -31.872  -7.835  0.00  0.00     0.240 C 
ATOM     72  O   GLU d   1     -17.726 -32.915  -7.896  0.00  0.00    -0.271 OA
ATOM     73  N   GLY d   1     -17.365 -30.886  -6.993  0.00  0.00    -0.351 N 
ATOM     74  H   GLY d   1     -16.814 -30.052  -6.995  0.00  0.00     0.163 HD
BRANCH  73  75
ATOM     75  CA  GLY d   1     -18.478 -31.007  -6.073  0.00  0.00     0.069 C 
ATOM     76  H   GLY d   1     -19.277 -31.576  -6.571  0.00  0.00     0.078 H 
ATOM     77  H   GLY d   1     -18.841 -29.996  -5.836  0.00  0.00     0.078 H 
BRANCH  75  78
ATOM     78  C   GLY d   1     -18.137 -31.705  -4.774  0.00  0.00     0.236 C 
ATOM     79  O   GLY d   1     -17.052 -32.278  -4.625  0.00  0.00    -0.272 OA
ATOM     80  N   TYR d   1     -19.081 -31.651  -3.837  0.00  0.00    -0.345 N 
ATOM     81  H   TYR d   1     -19.944 -31.196  -4.056  0.00  0.00     0.163 HD
BRANCH  80  82
ATOM     82  CA  TYR d   1     -18.916 -32.225  -2.503  0.00  0.00     0.100 C 
ATOM     83  H   TYR d   1     -18.082 -31.707  -2.006  0.00  0.00     0.090 H 
BRANCH  82  84
ATOM     84  C   TYR d   1     -18.578 -33.713  -2.571  0.00  0.00     0.197 C 
ATOM     85  O   TYR d   1     -19.227 -34.472  -3.291  0.00  0.00    -0.646 OA
ATOM     86  O1  TYR d   1     -17.625 -34.168  -1.883  0.00  0.00    -0.646 OA
ENDBRANCH  82  84
BRANCH  82  87
ATOM     87  CB  TYR d   1     -20.188 -32.001  -1.675  0.00  0.00    -0.013 C 
ATOM     88  H   TYR d   1     -21.037 -32.436  -2.223  0.00  0.00     0.043 H 
ATOM     89  H   TYR d   1     -20.340 -30.917  -1.563  0.00  0.00     0.043 H 
BRANCH  87  90
ATOM     90  CG  TYR d   1     -20.148 -32.621  -0.290  0.00  0.00    -0.056 A 
ATOM     91  CD1 TYR d   1     -19.684 -31.901   0.806  0.00  0.00    -0.074 A 
ATOM     92  CE1 TYR d   1     -19.646 -32.466   2.068  0.00  0.00    -0.051 A 
ATOM     93  H   TYR d   1     -19.346 -30.880   0.669  0.00  0.00     0.084 H 
ATOM     94  CZ  TYR d   1     -20.071 -33.765   2.244  0.00  0.00     0.065 A 
ATOM     95  H   TYR d   1     -19.284 -31.891   2.913  0.00  0.00     0.087 H 
ATOM     96  CE2 TYR d   1     -20.532 -34.505   1.173  0.00  0.00    -0.051 A 
ATOM     97  CD2 TYR d   1     -20.572 -33.930  -0.082  0.00  0.00    -0.074 A 
ATOM     98  H   TYR d   1     -20.860 -35.528   1.316  0.00  0.00     0.087 H 
ATOM     99  H   TYR d   1     -20.941 -34.509  -0.921  0.00  0.00     0.084 H 
BRANCH  94 100
ATOM    100  OH  TYR d   1     -20.033 -34.332   3.498  0.00  0.00    -0.361 OA
ATOM    101  H   TYR d   1     -19.694 -33.699   4.120  0.00  0.00     0.217 HD
ENDBRANCH  94 100
ENDBRANCH  87  90
ENDBRANCH  82  87
ENDBRANCH  80  82
ENDBRANCH  75  78
ENDBRANCH  73  75
ENDBRANCH  69  71
BRANCH  69 102
ATOM    102  CB  GLU d   1     -14.605 -32.193  -8.034  0.00  0.00    -0.029 C 
ATOM    103  H   GLU d   1     -14.621 -31.843  -6.991  0.00  0.00     0.037 H 
ATOM    104  H   GLU d   1     -13.722 -31.782  -8.545  0.00  0.00     0.037 H 
BRANCH 102 105
ATOM    105  CG  GLU d   1     -14.486 -33.716  -8.025  0.00  0.00     0.018 C 
ATOM    106  H   GLU d   1     -15.465 -34.142  -7.761  0.00  0.00     0.049 H 
ATOM    107  H   GLU d   1     -13.744 -34.005  -7.266  0.00  0.00     0.049 H 
BRANCH 105 108
ATOM    108  CD  GLU d   1     -14.053 -34.290  -9.371  0.00  0.00     0.172 C 
ATOM    109  OE1 GLU d   1     -13.971 -35.531  -9.483  0.00  0.00    -0.648 OA
ATOM    110  OE2 GLU d   1     -13.795 -33.507 -10.309  0.00  0.00    -0.648 OA
ENDBRANCH 105 108
ENDBRANCH 102 105
ENDBRANCH  69 102
ENDBRANCH  67  69
ENDBRANCH  63  65
BRANCH  63 111
ATOM    111  CB  SER d   1     -15.579 -27.981 -11.705  0.00  0.00     0.044 C 
ATOM    112  H   SER d   1     -15.551 -26.901 -11.910  0.00  0.00     0.077 H 
ATOM    113  H   SER d   1     -16.196 -28.483 -12.465  0.00  0.00     0.077 H 
BRANCH 111 114
ATOM    114  OG  SER d   1     -14.258 -28.495 -11.775  0.00  0.00    -0.398 OA
ATOM    115  H   SER d   1     -13.716 -28.063 -11.125  0.00  0.00     0.209 HD
ENDBRANCH 111 114
ENDBRANCH  63 111
ENDBRANCH  61  63
ENDBRANCH   1  59
BRANCH   1 116
ATOM    116  CB  ARG d   1     -15.255 -25.052  -7.246  0.00  0.00    -0.036 C 
ATOM    117  H   ARG d   1     -14.902 -24.827  -8.263  0.00  0.00     0.036 H 
ATOM    118  H   ARG d   1     -14.588 -24.575  -6.513  0.00  0.00     0.036 H 
BRANCH 116 119
ATOM    119  CG  ARG d   1     -16.664 -24.481  -7.076  0.00  0.00    -0.048 C 
ATOM    120  H   ARG d   1     -17.012 -24.695  -6.055  0.00  0.00     0.035 H 
ATOM    121  H   ARG d   1     -17.333 -24.968  -7.801  0.00  0.00     0.035 H 
BRANCH 119 122
ATOM    122  CD  ARG d   1     -16.709 -22.986  -7.301  0.00  0.00     0.009 C 
ATOM    123  H   ARG d   1     -17.744 -22.639  -7.164  0.00  0.00     0.064 H 
ATOM    124  H   ARG d   1     -16.384 -22.774  -8.330  0.00  0.00     0.064 H 
BRANCH 122 125
ATOM    125  NE  ARG d   1     -15.844 -22.257  -6.376  0.00  0.00    -0.227 N 
ATOM    126  CZ  ARG d   1     -16.252 -21.750  -5.215  0.00  0.00     0.665 C 
ATOM    127  NH1 ARG d   1     -17.515 -21.888  -4.825  0.00  0.00    -0.235 N 
ATOM    128  NH2 ARG d   1     -15.394 -21.090  -4.443  0.00  0.00    -0.235 N 
ATOM    129  H   ARG d   1     -17.822 -21.492  -3.925  0.00  0.00     0.174 HD
ATOM    130  H   ARG d   1     -18.187 -22.390  -5.423  0.00  0.00     0.174 HD
ATOM    131  H   ARG d   1     -14.414 -20.980  -4.740  0.00  0.00     0.174 HD
ATOM    132  H   ARG d   1     -15.710 -20.689  -3.548  0.00  0.00     0.174 HD
ATOM    133  H   ARG d   1     -14.857 -22.127  -6.639  0.00  0.00     0.177 HD
ENDBRANCH 122 125
ENDBRANCH 119 122
ENDBRANCH 116 119
ENDBRANCH   1 116
TORSDOF 39
