REMARK  16 active torsions:
REMARK  status: ('A' for Active; 'I' for Inactive)
REMARK    1  A    between atoms: C6_2  and  C5_3 
REMARK       I    between atoms: C6_2  and  N7_4 
REMARK    2  A    between atoms: N7_4  and  C8_5 
REMARK    3  A    between atoms: C8_5  and  C13_6 
REMARK    4  A    between atoms: C8_5  and  C9_13 
REMARK    5  A    between atoms: C13_6  and  C22_7 
REMARK    6  A    between atoms: C9_13  and  O1_14 
REMARK    7  A    between atoms: C9_13  and  C10_15 
REMARK    8  A    between atoms: C10_15  and  N11_16 
REMARK    9  A    between atoms: N11_16  and  C12_17 
REMARK   10  A    between atoms: C2_19  and  C4_20 
REMARK   11  A    between atoms: C2_19  and  C3_21 
REMARK   12  A    between atoms: C19_24  and  C28_28 
REMARK   13  A    between atoms: C28_28  and  C29_29 
REMARK   14  A    between atoms: C29_29  and  C32_30 
REMARK   15  A    between atoms: C29_29  and  C31_31 
REMARK   16  A    between atoms: C29_29  and  C30_32 
ROOT
ATOM      1  C12 916 d   1       4.587   6.928 -17.011  0.00  0.00     0.133 C 
ATOM      2  C15 916 d   1       5.323   6.548 -15.714  0.00  0.00    -0.006 C 
ATOM      3  C2  916 d   1       6.322   7.645 -15.247  0.00  0.00     0.063 C 
ATOM      4  C17 916 d   1       5.625   7.414 -17.944  0.00  0.00     0.014 A 
ATOM      5  C18 916 d   1       5.372   7.535 -19.372  0.00  0.00    -0.059 A 
ATOM      6  C19 916 d   1       6.585   7.997 -19.991  0.00  0.00    -0.013 A 
ATOM      7  S20 916 d   1       7.913   8.231 -18.837  0.00  0.00    -0.070 SA
ATOM      8  C16 916 d   1       6.970   7.788 -17.531  0.00  0.00     0.119 A 
ATOM      9  O14 916 d   1       7.376   7.763 -16.229  0.00  0.00    -0.333 OA
ATOM     10  H19 916 d   1       3.828   7.704 -16.833  0.00  0.00     0.092 H 
ATOM     11  H20 916 d   1       5.880   5.615 -15.886  0.00  0.00     0.041 H 
ATOM     12  H21 916 d   1       4.578   6.389 -14.920  0.00  0.00     0.041 H 
ATOM     13  H28 916 d   1       4.434   7.316 -19.880  0.00  0.00     0.086 H 
ENDROOT
BRANCH   1  14
ATOM     14  N11 916 d   1       3.955   5.685 -17.526  0.00  0.00    -0.064 N 
ATOM     15  H17 916 d   1       3.380   5.317 -16.784  0.00  0.00     0.278 HD
ATOM     16  H18 916 d   1       3.371   5.951 -18.303  0.00  0.00     0.278 HD
BRANCH  14  17
ATOM     17  C10 916 d   1       4.801   4.605 -17.982  0.00  0.00     0.108 C 
ATOM     18  H15 916 d   1       5.712   5.014 -18.443  0.00  0.00     0.079 H 
ATOM     19  H16 916 d   1       5.076   3.963 -17.132  0.00  0.00     0.079 H 
BRANCH  17  20
ATOM     20  C9  916 d   1       4.020   3.791 -19.014  0.00  0.00     0.078 C 
ATOM     21  H13 916 d   1       3.125   3.353 -18.549  0.00  0.00     0.088 H 
BRANCH  20  22
ATOM     22  C8  916 d   1       4.917   2.649 -19.563  0.00  0.00     0.042 C 
ATOM     23  H5  916 d   1       5.846   3.061 -19.984  0.00  0.00     0.077 H 
BRANCH  22  24
ATOM     24  N7  916 d   1       5.180   1.699 -18.433  0.00  0.00    -0.354 N 
ATOM     25  C6  916 d   1       6.418   1.632 -17.890  0.00  0.00     0.214 C 
ATOM     26  O21 916 d   1       7.334   2.322 -18.308  0.00  0.00    -0.274 OA
ATOM     27  H4  916 d   1       4.445   1.118 -18.083  0.00  0.00     0.162 HD
BRANCH  25  28
ATOM     28  C5  916 d   1       6.700   0.636 -16.763  0.00  0.00    -0.003 C 
ATOM     29  H1  916 d   1       5.774   0.100 -16.508  0.00  0.00     0.040 H 
ATOM     30  H2  916 d   1       7.066   1.177 -15.878  0.00  0.00     0.040 H 
ATOM     31  H3  916 d   1       7.462  -0.085 -17.093  0.00  0.00     0.040 H 
ENDBRANCH  25  28
ENDBRANCH  22  24
BRANCH  22  32
ATOM     32  C13 916 d   1       4.188   1.790 -20.578  0.00  0.00    -0.020 C 
ATOM     33  H6  916 d   1       3.934   2.419 -21.444  0.00  0.00     0.043 H 
ATOM     34  H7  916 d   1       3.264   1.415 -20.113  0.00  0.00     0.043 H 
BRANCH  32  35
ATOM     35  C22 916 d   1       4.993   0.597 -21.073  0.00  0.00    -0.056 A 
ATOM     36  C27 916 d   1       4.329  -0.626 -21.278  0.00  0.00    -0.077 A 
ATOM     37  C26 916 d   1       5.065  -1.731 -21.744  0.00  0.00    -0.082 A 
ATOM     38  H8  916 d   1       3.267  -0.716 -21.080  0.00  0.00     0.084 H 
ATOM     39  C25 916 d   1       6.444  -1.653 -21.975  0.00  0.00    -0.083 A 
ATOM     40  H9  916 d   1       4.551  -2.667 -21.929  0.00  0.00     0.083 H 
ATOM     41  C24 916 d   1       7.107  -0.438 -21.728  0.00  0.00    -0.082 A 
ATOM     42  H10 916 d   1       6.991  -2.515 -22.338  0.00  0.00     0.083 H 
ATOM     43  C23 916 d   1       6.385   0.694 -21.293  0.00  0.00    -0.077 A 
ATOM     44  H11 916 d   1       8.179  -0.370 -21.872  0.00  0.00     0.083 H 
ATOM     45  H12 916 d   1       6.897   1.635 -21.128  0.00  0.00     0.084 H 
ENDBRANCH  32  35
ENDBRANCH  22  32
ENDBRANCH  20  22
BRANCH  20  46
ATOM     46  O1  916 d   1       3.626   4.701 -20.054  0.00  0.00    -0.392 OA
ATOM     47  H14 916 d   1       3.138   4.229 -20.718  0.00  0.00     0.210 HD
ENDBRANCH  20  46
ENDBRANCH  17  20
ENDBRANCH  14  17
ENDBRANCH   1  14
BRANCH   3  48
ATOM     48  C4  916 d   1       6.970   7.125 -13.951  0.00  0.00    -0.047 C 
ATOM     49  H22 916 d   1       7.689   7.868 -13.577  0.00  0.00     0.031 H 
ATOM     50  H23 916 d   1       7.493   6.179 -14.156  0.00  0.00     0.031 H 
ATOM     51  H24 916 d   1       6.191   6.956 -13.194  0.00  0.00     0.031 H 
ENDBRANCH   3  48
BRANCH   3  52
ATOM     52  C3  916 d   1       5.611   9.015 -15.102  0.00  0.00    -0.047 C 
ATOM     53  H25 916 d   1       5.179   9.308 -16.070  0.00  0.00     0.031 H 
ATOM     54  H26 916 d   1       6.339   9.774 -14.780  0.00  0.00     0.031 H 
ATOM     55  H27 916 d   1       4.810   8.935 -14.352  0.00  0.00     0.031 H 
ENDBRANCH   3  52
BRANCH   6  56
ATOM     56  C28 916 d   1       6.886   8.302 -21.446  0.00  0.00    -0.029 C 
ATOM     57  H29 916 d   1       6.294   7.621 -22.076  0.00  0.00     0.042 H 
ATOM     58  H30 916 d   1       7.957   8.129 -21.625  0.00  0.00     0.042 H 
BRANCH  56  59
ATOM     59  C29 916 d   1       6.553   9.744 -21.842  0.00  0.00    -0.047 C 
BRANCH  59  60
ATOM     60  C32 916 d   1       7.415  10.782 -21.087  0.00  0.00    -0.069 C 
ATOM     61  H31 916 d   1       7.134  11.796 -21.409  0.00  0.00     0.028 H 
ATOM     62  H32 916 d   1       8.478  10.608 -21.310  0.00  0.00     0.028 H 
ATOM     63  H33 916 d   1       7.246  10.681 -20.005  0.00  0.00     0.028 H 
ENDBRANCH  59  60
BRANCH  59  64
ATOM     64  C31 916 d   1       5.102  10.061 -21.522  0.00  0.00    -0.069 C 
ATOM     65  H34 916 d   1       4.447   9.345 -22.040  0.00  0.00     0.028 H 
ATOM     66  H35 916 d   1       4.867  11.082 -21.858  0.00  0.00     0.028 H 
ATOM     67  H36 916 d   1       4.941   9.986 -20.436  0.00  0.00     0.028 H 
ENDBRANCH  59  64
BRANCH  59  68
ATOM     68  C30 916 d   1       6.754   9.956 -23.337  0.00  0.00    -0.069 C 
ATOM     69  H37 916 d   1       7.798   9.734 -23.602  0.00  0.00     0.028 H 
ATOM     70  H38 916 d   1       6.525  11.001 -23.593  0.00  0.00     0.028 H 
ATOM     71  H39 916 d   1       6.084   9.286 -23.896  0.00  0.00     0.028 H 
ENDBRANCH  59  68
ENDBRANCH  56  59
ENDBRANCH   6  56
TORSDOF 16
