REMARK  20 active torsions:
REMARK  status: ('A' for Active; 'I' for Inactive)
REMARK    1  A    between atoms: C_1  and  CH3_3 
REMARK       I    between atoms: C_1  and  N_4 
REMARK    2  A    between atoms: N_4  and  CA_5 
REMARK    3  A    between atoms: CA_5  and  C_6 
REMARK    4  A    between atoms: CA_5  and  CB_8 
REMARK       I    between atoms: C_6  and  N_11 
REMARK    5  A    between atoms: CB_8  and  CG1_9 
REMARK    6  A    between atoms: CB_8  and  CG2_10 
REMARK    7  A    between atoms: N_11  and  CA_12 
REMARK    8  A    between atoms: CA_12  and  C_13 
REMARK    9  A    between atoms: CA_12  and  CB_15 
REMARK       I    between atoms: C_13  and  N_18 
REMARK   10  A    between atoms: CB_15  and  CG1_16 
REMARK   11  A    between atoms: CB_15  and  CG2_17 
REMARK   12  A    between atoms: N_18  and  CA_19 
REMARK   13  A    between atoms: CA_19  and  CB_20 
REMARK   14  A    between atoms: CA_19  and  CH_24 
REMARK   15  A    between atoms: CB_20  and  CG_21 
REMARK   16  A    between atoms: CG_21  and  CD1_22 
REMARK   17  A    between atoms: CG_21  and  CD2_23 
REMARK   18  A    between atoms: CH_24  and  OH_25 
REMARK   19  A    between atoms: CH_24  and  CM_26 
REMARK   20  A    between atoms: CM_26  and  C_27 
ROOT
ATOM      1  CA  VAL d   1      -9.388   5.248   4.234  0.00  0.00     0.092 C 
ATOM      2  H   VAL d   1      -9.125   4.527   3.460  0.00  0.00     0.088 H 
ENDROOT
BRANCH   1   3
ATOM      3  N   VAL d   1      -8.296   5.382   5.196  0.00  0.00    -0.346 N 
ATOM      4  C   VAL d   1      -7.141   4.759   5.032  0.00  0.00     0.241 C 
ATOM      5  O   VAL d   1      -6.928   3.997   4.092  0.00  0.00    -0.271 OA
ATOM      6  H   VAL d   1      -8.428   5.973   6.017  0.00  0.00     0.163 HD
BRANCH   4   7
ATOM      7  CA  VAL d   1      -6.088   4.997   6.109  0.00  0.00     0.092 C 
ATOM      8  H   VAL d   1      -6.392   5.805   6.775  0.00  0.00     0.088 H 
BRANCH   7   9
ATOM      9  N   VAL d   1      -5.940   3.774   6.886  0.00  0.00    -0.348 N 
ATOM     10  C   ACE d   1      -5.776   3.708   8.203  0.00  0.00     0.214 C 
ATOM     11  O   ACE d   1      -5.992   4.673   8.933  0.00  0.00    -0.274 OA
ATOM     12  H   VAL d   1      -5.964   2.892   6.375  0.00  0.00     0.163 HD
BRANCH  10  13
ATOM     13  CH3 ACE d   1      -5.748   2.303   8.738  0.00  0.00    -0.003 C 
ATOM     14  H   ACE d   1      -4.968   2.219   9.495  0.00  0.00     0.040 H 
ATOM     15  H   ACE d   1      -6.715   2.065   9.182  0.00  0.00     0.040 H 
ATOM     16  H   ACE d   1      -5.541   1.609   7.923  0.00  0.00     0.040 H 
ENDBRANCH  10  13
ENDBRANCH   7   9
BRANCH   7  17
ATOM     17  CB  VAL d   1      -4.747   5.411   5.443  0.00  0.00    -0.033 C 
ATOM     18  H   VAL d   1      -4.384   4.560   4.867  0.00  0.00     0.042 H 
BRANCH  17  19
ATOM     19  CG1 VAL d   1      -4.950   6.579   4.485  0.00  0.00    -0.071 C 
ATOM     20  H   VAL d   1      -5.285   7.452   5.045  0.00  0.00     0.028 H 
ATOM     21  H   VAL d   1      -4.008   6.806   3.986  0.00  0.00     0.028 H 
ATOM     22  H   VAL d   1      -5.701   6.311   3.742  0.00  0.00     0.028 H 
ENDBRANCH  17  19
BRANCH  17  23
ATOM     23  CG2 VAL d   1      -3.700   5.755   6.496  0.00  0.00    -0.071 C 
ATOM     24  H   VAL d   1      -2.753   5.978   6.005  0.00  0.00     0.028 H 
ATOM     25  H   VAL d   1      -4.030   6.625   7.064  0.00  0.00     0.028 H 
ATOM     26  H   VAL d   1      -3.571   4.907   7.169  0.00  0.00     0.028 H 
ENDBRANCH  17  23
ENDBRANCH   7  17
ENDBRANCH   4   7
ENDBRANCH   1   3
BRANCH   1  27
ATOM     27  C   VAL d   1      -9.641   6.617   3.616  0.00  0.00     0.241 C 
ATOM     28  O   VAL d   1      -9.459   7.621   4.298  0.00  0.00    -0.271 OA
ATOM     29  N   STA d   1      -9.716   6.581   2.272  0.00  0.00    -0.352 N 
ATOM     30  H   STA d   1      -9.585   5.705   1.767  0.00  0.00     0.163 HD
BRANCH  29  31
ATOM     31  CA  STA d   1      -9.988   7.822   1.552  0.00  0.00     0.037 C 
ATOM     32  H   STA d   1      -9.280   8.590   1.865  0.00  0.00     0.076 H 
BRANCH  31  33
ATOM     33  CB  STA d   1      -9.792   7.645   0.051  0.00  0.00    -0.041 C 
ATOM     34  H   STA d   1     -10.310   8.456  -0.460  0.00  0.00     0.036 H 
ATOM     35  H   STA d   1     -10.187   6.670  -0.234  0.00  0.00     0.036 H 
BRANCH  33  36
ATOM     36  CG  STA d   1      -8.314   7.697  -0.338  0.00  0.00    -0.059 C 
ATOM     37  H   STA d   1      -7.825   6.874   0.183  0.00  0.00     0.038 H 
BRANCH  36  38
ATOM     38  CD1 STA d   1      -7.651   8.997   0.101  0.00  0.00    -0.073 C 
ATOM     39  H   STA d   1      -8.157   9.839  -0.371  0.00  0.00     0.028 H 
ATOM     40  H   STA d   1      -7.721   9.091   1.185  0.00  0.00     0.028 H 
ATOM     41  H   STA d   1      -6.603   8.988  -0.197  0.00  0.00     0.028 H 
ENDBRANCH  36  38
BRANCH  36  42
ATOM     42  CD2 STA d   1      -8.139   7.516  -1.840  0.00  0.00    -0.073 C 
ATOM     43  H   STA d   1      -8.546   6.550  -2.138  0.00  0.00     0.028 H 
ATOM     44  H   STA d   1      -8.668   8.312  -2.365  0.00  0.00     0.028 H 
ATOM     45  H   STA d   1      -7.079   7.557  -2.088  0.00  0.00     0.028 H 
ENDBRANCH  36  42
ENDBRANCH  33  36
ENDBRANCH  31  33
BRANCH  31  46
ATOM     46  CH  STA d   1     -11.409   8.284   1.891  0.00  0.00     0.062 C 
ATOM     47  H   STA d   1     -11.465   8.376   2.976  0.00  0.00     0.086 H 
BRANCH  46  48
ATOM     48  OH  STA d   1     -11.672   9.546   1.310  0.00  0.00    -0.393 OA
ATOM     49  H   STA d   1     -11.045  10.190   1.649  0.00  0.00     0.210 HD
ENDBRANCH  46  48
BRANCH  46  50
ATOM     50  CM  STA d   1     -12.472   7.263   1.481  0.00  0.00     0.022 C 
ATOM     51  H   STA d   1     -12.194   6.277   1.852  0.00  0.00     0.049 H 
ATOM     52  H   STA d   1     -12.547   7.229   0.394  0.00  0.00     0.049 H 
BRANCH  50  53
ATOM     53  C   STA d   1     -13.805   7.670   2.069  0.00  0.00     0.151 C 
ATOM     54  O   STA d   1     -14.228   7.422   3.386  0.00  0.00    -0.177 OA
ATOM     55  N   ALA d   1     -14.621   7.834   1.035  0.00  0.00    -0.381 N 
ATOM     56  H   ALA d   1     -15.631   7.783   1.169  0.00  0.00     0.158 HD
ATOM     57  H   ALA d   1     -14.238   8.011   0.106  0.00  0.00     0.158 HD
ENDBRANCH  50  53
ENDBRANCH  46  50
ENDBRANCH  31  46
ENDBRANCH  29  31
ENDBRANCH   1  27
BRANCH   1  58
ATOM     58  CB  VAL d   1     -10.656   4.752   4.948  0.00  0.00    -0.033 C 
ATOM     59  H   VAL d   1     -10.919   5.468   5.727  0.00  0.00     0.042 H 
BRANCH  58  60
ATOM     60  CG1 VAL d   1     -11.856   4.674   3.984  0.00  0.00    -0.071 C 
ATOM     61  H   VAL d   1     -12.056   5.664   3.574  0.00  0.00     0.028 H 
ATOM     62  H   VAL d   1     -11.625   3.983   3.173  0.00  0.00     0.028 H 
ATOM     63  H   VAL d   1     -12.733   4.319   4.526  0.00  0.00     0.028 H 
ENDBRANCH  58  60
BRANCH  58  64
ATOM     64  CG2 VAL d   1     -10.381   3.402   5.580  0.00  0.00    -0.071 C 
ATOM     65  H   VAL d   1     -10.097   2.691   4.805  0.00  0.00     0.028 H 
ATOM     66  H   VAL d   1      -9.570   3.499   6.302  0.00  0.00     0.028 H 
ATOM     67  H   VAL d   1     -11.280   3.050   6.087  0.00  0.00     0.028 H 
ENDBRANCH  58  64
ENDBRANCH   1  58
TORSDOF 20
