REMARK  10 active torsions:
REMARK  status: ('A' for Active; 'I' for Inactive)
REMARK    1  A    between atoms: C1_1  and  C16_16 
REMARK    2  A    between atoms: C1_1  and  C17_17 
REMARK    3  A    between atoms: C5_5  and  C18_18 
REMARK    4  A    between atoms: C6_6  and  C7_7 
REMARK    5  A    between atoms: C8_8  and  C9_9 
REMARK    6  A    between atoms: C9_9  and  C19_19 
REMARK    7  A    between atoms: C10_10  and  C11_11 
REMARK    8  A    between atoms: C12_12  and  C13_13 
REMARK    9  A    between atoms: C13_13  and  C20_20 
REMARK   10  A    between atoms: C14_14  and  C15_15 
ROOT
ATOM      1  C7  RET d   1      -5.501   2.417   3.736  0.00  0.00    -0.075 C 
ATOM      2  C8  RET d   1      -5.646   1.428   2.859  0.00  0.00    -0.077 C 
ATOM      3  H   RET d   1      -4.679   3.124   3.628  0.00  0.00     0.084 H 
ATOM      4  H   RET d   1      -6.468   0.721   2.967  0.00  0.00     0.084 H 
ENDROOT
BRANCH   1   5
ATOM      5  C6  RET d   1      -6.452   2.557   4.854  0.00  0.00    -0.048 C 
ATOM      6  C1  RET d   1      -7.105   1.313   5.406  0.00  0.00    -0.020 C 
ATOM      7  C2  RET d   1      -8.372   1.682   6.158  0.00  0.00    -0.054 C 
ATOM      8  C3  RET d   1      -8.053   2.755   7.185  0.00  0.00    -0.061 C 
ATOM      9  H   RET d   1      -8.766   0.800   6.663  0.00  0.00     0.034 H 
ATOM     10  H   RET d   1      -9.116   2.059   5.456  0.00  0.00     0.034 H 
ATOM     11  C4  RET d   1      -7.652   4.042   6.479  0.00  0.00    -0.044 C 
ATOM     12  H   RET d   1      -7.229   2.418   7.814  0.00  0.00     0.033 H 
ATOM     13  H   RET d   1      -8.935   2.940   7.798  0.00  0.00     0.033 H 
ATOM     14  C5  RET d   1      -6.696   3.779   5.336  0.00  0.00    -0.077 C 
ATOM     15  H   RET d   1      -7.154   4.689   7.201  0.00  0.00     0.039 H 
ATOM     16  H   RET d   1      -8.551   4.506   6.074  0.00  0.00     0.039 H 
BRANCH   6  17
ATOM     17  C16 RET d   1      -7.435   0.383   4.246  0.00  0.00    -0.065 C 
ATOM     18  H   RET d   1      -6.521   0.144   3.703  0.00  0.00     0.028 H 
ATOM     19  H   RET d   1      -7.880  -0.534   4.632  0.00  0.00     0.028 H 
ATOM     20  H   RET d   1      -8.139   0.876   3.576  0.00  0.00     0.028 H 
ENDBRANCH   6  17
BRANCH   6  21
ATOM     21  C17 RET d   1      -6.120   0.634   6.351  0.00  0.00    -0.065 C 
ATOM     22  H   RET d   1      -6.564  -0.283   6.739  0.00  0.00     0.028 H 
ATOM     23  H   RET d   1      -5.205   0.395   5.809  0.00  0.00     0.028 H 
ATOM     24  H   RET d   1      -5.889   1.306   7.178  0.00  0.00     0.028 H 
ENDBRANCH   6  21
BRANCH  14  25
ATOM     25  C18 RET d   1      -5.991   4.947   4.712  0.00  0.00    -0.054 C 
ATOM     26  H   RET d   1      -4.914   4.816   4.814  0.00  0.00     0.033 H 
ATOM     27  H   RET d   1      -6.253   5.006   3.656  0.00  0.00     0.033 H 
ATOM     28  H   RET d   1      -6.296   5.865   5.215  0.00  0.00     0.033 H 
ENDBRANCH  14  25
ENDBRANCH   1   5
BRANCH   2  29
ATOM     29  C9  RET d   1      -4.695   1.288   1.741  0.00  0.00    -0.062 C 
ATOM     30  C10 RET d   1      -3.969   0.168   1.615  0.00  0.00    -0.077 C 
ATOM     31  H   RET d   1      -4.082  -0.639   2.339  0.00  0.00     0.084 H 
BRANCH  30  32
ATOM     32  C11 RET d   1      -3.027   0.029   0.508  0.00  0.00    -0.082 C 
ATOM     33  C12 RET d   1      -2.337  -1.098   0.359  0.00  0.00    -0.077 C 
ATOM     34  H   RET d   1      -2.475  -1.919   1.063  0.00  0.00     0.084 H 
ATOM     35  H   RET d   1      -2.889   0.849  -0.197  0.00  0.00     0.083 H 
BRANCH  33  36
ATOM     36  C13 RET d   1      -1.385  -1.238  -0.759  0.00  0.00    -0.066 C 
ATOM     37  C14 RET d   1      -0.642  -2.347  -0.871  0.00  0.00    -0.101 C 
ATOM     38  H   RET d   1      -0.740  -3.146  -0.136  0.00  0.00     0.077 H 
BRANCH  37  39
ATOM     39  C15 RET d   1       0.300  -2.485  -1.979  0.00  0.00    -0.059 C 
ATOM     40  H   RET d   1      -0.242  -2.433  -2.923  0.00  0.00     0.032 H 
ATOM     41  H   RET d   1       1.032  -1.679  -1.934  0.00  0.00     0.032 H 
ATOM     42  H   RET d   1       0.810  -3.446  -1.903  0.00  0.00     0.032 H 
ENDBRANCH  37  39
BRANCH  36  43
ATOM     43  C20 RET d   1      -1.250  -0.139  -1.771  0.00  0.00    -0.051 C 
ATOM     44  H   RET d   1      -0.224   0.229  -1.771  0.00  0.00     0.033 H 
ATOM     45  H   RET d   1      -1.499  -0.525  -2.760  0.00  0.00     0.033 H 
ATOM     46  H   RET d   1      -1.929   0.674  -1.515  0.00  0.00     0.033 H 
ENDBRANCH  36  43
ENDBRANCH  33  36
ENDBRANCH  30  32
BRANCH  29  47
ATOM     47  C19 RET d   1      -4.539   2.398   0.744  0.00  0.00    -0.051 C 
ATOM     48  H   RET d   1      -3.507   2.749   0.752  0.00  0.00     0.033 H 
ATOM     49  H   RET d   1      -4.791   2.030  -0.250  0.00  0.00     0.033 H 
ATOM     50  H   RET d   1      -5.206   3.219   1.009  0.00  0.00     0.033 H 
ENDBRANCH  29  47
ENDBRANCH   2  29
TORSDOF 10
