REMARK  9 active torsions:
REMARK  status: ('A' for Active; 'I' for Inactive)
REMARK       I    between atoms: C9_2  and  N3_3 
REMARK       I    between atoms: C9_2  and  N4_14 
REMARK    1  A    between atoms: N3_3  and  C8_4 
REMARK    2  A    between atoms: C2_6  and  C3_7 
REMARK    3  A    between atoms: C3_7  and  C6_8 
REMARK    4  A    between atoms: C3_7  and  C5_9 
REMARK    5  A    between atoms: C3_7  and  C4_10 
REMARK    6  A    between atoms: N1_12  and  C1_13 
REMARK    7  A    between atoms: N4_14  and  C10_15 
REMARK    8  A    between atoms: C13_18  and  O2_21 
REMARK    9  A    between atoms: O2_21  and  C14_22 
ROOT
ATOM      1  O1  N61 d   1     -12.923  12.282 -26.466  0.00  0.00    -0.247 OA
ATOM      2  C9  N61 d   1     -13.896  11.529 -26.550  0.00  0.00     0.326 C 
ATOM      3  N3  N61 d   1     -14.922  11.517 -25.502  0.00  0.00    -0.293 N 
ATOM      4  N4  N61 d   1     -14.102  10.616 -27.659  0.00  0.00    -0.309 N 
ATOM      5  H1  N61 d   1     -15.693  10.885 -25.578  0.00  0.00     0.172 HD
ATOM      6  H15 N61 d   1     -14.928  10.053 -27.631  0.00  0.00     0.170 HD
ENDROOT
BRANCH   3   7
ATOM      7  C8  N61 d   1     -14.839  12.420 -24.336  0.00  0.00     0.129 A 
ATOM      8  C7  N61 d   1     -14.426  13.738 -24.355  0.00  0.00    -0.013 A 
ATOM      9  C2  N61 d   1     -14.528  14.217 -23.014  0.00  0.00     0.066 A 
ATOM     10  H2  N61 d   1     -14.088  14.302 -25.224  0.00  0.00     0.092 H 
ATOM     11  N2  N61 d   1     -14.983  13.216 -22.259  0.00  0.00    -0.175 NA
ATOM     12  N1  N61 d   1     -15.192  12.099 -23.059  0.00  0.00    -0.258 N 
BRANCH   9  13
ATOM     13  C3  N61 d   1     -14.172  15.635 -22.533  0.00  0.00    -0.005 C 
BRANCH  13  14
ATOM     14  C6  N61 d   1     -12.749  15.967 -22.943  0.00  0.00    -0.064 C 
ATOM     15  H3  N61 d   1     -12.495  16.980 -22.599  0.00  0.00     0.028 H 
ATOM     16  H4  N61 d   1     -12.662  15.919 -24.038  0.00  0.00     0.028 H 
ATOM     17  H5  N61 d   1     -12.058  15.242 -22.489  0.00  0.00     0.028 H 
ENDBRANCH  13  14
BRANCH  13  18
ATOM     18  C5  N61 d   1     -14.321  15.703 -21.062  0.00  0.00    -0.064 C 
ATOM     19  H6  N61 d   1     -15.358  15.459 -20.787  0.00  0.00     0.028 H 
ATOM     20  H7  N61 d   1     -14.079  16.718 -20.715  0.00  0.00     0.028 H 
ATOM     21  H8  N61 d   1     -13.637  14.982 -20.590  0.00  0.00     0.028 H 
ENDBRANCH  13  18
BRANCH  13  22
ATOM     22  C4  N61 d   1     -15.115  16.608 -23.173  0.00  0.00    -0.064 C 
ATOM     23  H9  N61 d   1     -15.006  16.559 -24.267  0.00  0.00     0.028 H 
ATOM     24  H10 N61 d   1     -14.883  17.626 -22.826  0.00  0.00     0.028 H 
ATOM     25  H11 N61 d   1     -16.149  16.353 -22.896  0.00  0.00     0.028 H 
ENDBRANCH  13  22
ENDBRANCH   9  13
BRANCH  12  26
ATOM     26  C1  N61 d   1     -15.687  10.786 -22.626  0.00  0.00     0.004 C 
ATOM     27  H12 N61 d   1     -15.893  10.810 -21.546  0.00  0.00     0.059 H 
ATOM     28  H13 N61 d   1     -14.927  10.020 -22.837  0.00  0.00     0.059 H 
ATOM     29  H14 N61 d   1     -16.612  10.545 -23.171  0.00  0.00     0.059 H 
ENDBRANCH  12  26
ENDBRANCH   3   7
BRANCH   4  30
ATOM     30  C10 N61 d   1     -13.228  10.438 -28.806  0.00  0.00     0.036 A 
ATOM     31  C20 N61 d   1     -11.899  10.761 -28.819  0.00  0.00    -0.054 A 
ATOM     32  C19 N61 d   1     -11.132  10.551 -29.995  0.00  0.00    -0.048 A 
ATOM     33  H16 N61 d   1     -11.432  11.177 -27.933  0.00  0.00     0.087 H 
ATOM     34  C13 N61 d   1     -11.739  10.021 -31.139  0.00  0.00     0.076 A 
ATOM     35  H17 N61 d   1     -10.077  10.801 -30.007  0.00  0.00     0.087 H 
ATOM     36  C12 N61 d   1     -13.066   9.691 -31.117  0.00  0.00    -0.048 A 
ATOM     37  C11 N61 d   1     -13.826   9.902 -29.953  0.00  0.00    -0.054 A 
ATOM     38  H18 N61 d   1     -13.533   9.266 -31.998  0.00  0.00     0.087 H 
ATOM     39  H19 N61 d   1     -14.880   9.649 -29.944  0.00  0.00     0.087 H 
BRANCH  34  40
ATOM     40  O2  N61 d   1     -11.029   9.782 -32.291  0.00  0.00    -0.311 OA
BRANCH  40  41
ATOM     41  C14 N61 d   1     -10.700  10.922 -33.025  0.00  0.00     0.078 A 
ATOM     42  C18 N61 d   1      -9.604  10.861 -33.904  0.00  0.00    -0.033 A 
ATOM     43  C17 N61 d   1      -9.275  11.960 -34.629  0.00  0.00     0.004 A 
ATOM     44  H20 N61 d   1      -9.029   9.947 -34.001  0.00  0.00     0.090 H 
ATOM     45  N5  N61 d   1      -9.999  13.113 -34.509  0.00  0.00    -0.273 NA
ATOM     46  H21 N61 d   1      -8.431  11.923 -35.309  0.00  0.00     0.114 H 
ATOM     47  C16 N61 d   1     -11.068  13.203 -33.663  0.00  0.00     0.004 A 
ATOM     48  C15 N61 d   1     -11.434  12.134 -32.924  0.00  0.00    -0.033 A 
ATOM     49  H22 N61 d   1     -11.622  14.132 -33.585  0.00  0.00     0.114 H 
ATOM     50  H23 N61 d   1     -12.285  12.200 -32.256  0.00  0.00     0.090 H 
ENDBRANCH  40  41
ENDBRANCH  34  40
ENDBRANCH   4  30
TORSDOF 9
