REMARK  5 active torsions:
REMARK  status: ('A' for Active; 'I' for Inactive)
REMARK    1  A    between atoms: C1_2  and  C13_3 
REMARK       I    between atoms: C1_2  and  N1_15 
REMARK    2  A    between atoms: C16_5  and  N4_6 
REMARK    3  A    between atoms: N1_15  and  C2_16 
REMARK    4  A    between atoms: C5_19  and  O2_22 
REMARK    5  A    between atoms: O2_22  and  C6_23 
ROOT
ATOM      1  O1  0RX d   1     -13.393  12.382 -26.574  0.00  0.00    -0.267 OA
ATOM      2  C1  0RX d   1     -14.236  11.521 -26.406  0.00  0.00     0.256 C 
ATOM      3  N1  0RX d   1     -14.559  10.618 -27.333  0.00  0.00    -0.323 N 
ATOM      4  H12 0RX d   1     -15.370  10.055 -27.178  0.00  0.00     0.169 HD
ENDROOT
BRANCH   2   5
ATOM      5  C13 0RX d   1     -14.940  11.495 -25.083  0.00  0.00     0.037 A 
ATOM      6  C21 0RX d   1     -15.241  10.292 -24.470  0.00  0.00    -0.024 A 
ATOM      7  C16 0RX d   1     -15.889  10.303 -23.241  0.00  0.00     0.126 A 
ATOM      8  H1  0RX d   1     -14.975   9.353 -24.942  0.00  0.00     0.090 H 
ATOM      9  N3  0RX d   1     -16.224  11.467 -22.644  0.00  0.00    -0.243 NA
ATOM     10  C15 0RX d   1     -15.948  12.638 -23.225  0.00  0.00     0.005 A 
ATOM     11  C14 0RX d   1     -15.299  12.679 -24.456  0.00  0.00    -0.051 A 
ATOM     12  H10 0RX d   1     -16.231  13.562 -22.735  0.00  0.00     0.114 H 
ATOM     13  H11 0RX d   1     -15.075  13.632 -24.922  0.00  0.00     0.087 H 
BRANCH   7  14
ATOM     14  N4  0RX d   1     -16.168   9.087 -22.613  0.00  0.00    -0.362 N 
ATOM     15  C20 0RX d   1     -16.439   9.065 -21.181  0.00  0.00     0.016 C 
ATOM     16  C19 0RX d   1     -17.431   7.936 -20.934  0.00  0.00     0.034 C 
ATOM     17  H2  0RX d   1     -16.872  10.025 -20.863  0.00  0.00     0.067 H 
ATOM     18  H3  0RX d   1     -15.509   8.880 -20.623  0.00  0.00     0.067 H 
ATOM     19  O3  0RX d   1     -16.961   6.685 -21.443  0.00  0.00    -0.388 OA
ATOM     20  H4  0RX d   1     -18.382   8.185 -21.428  0.00  0.00     0.076 H 
ATOM     21  H5  0RX d   1     -17.595   7.839 -19.851  0.00  0.00     0.076 H 
ATOM     22  C18 0RX d   1     -15.866   6.773 -22.354  0.00  0.00     0.034 C 
ATOM     23  C17 0RX d   1     -16.150   7.856 -23.386  0.00  0.00     0.016 C 
ATOM     24  H6  0RX d   1     -15.734   5.807 -22.863  0.00  0.00     0.076 H 
ATOM     25  H7  0RX d   1     -14.949   7.025 -21.802  0.00  0.00     0.076 H 
ATOM     26  H8  0RX d   1     -15.358   7.886 -24.149  0.00  0.00     0.067 H 
ATOM     27  H9  0RX d   1     -17.122   7.686 -23.873  0.00  0.00     0.067 H 
ENDBRANCH   7  14
ENDBRANCH   2   5
BRANCH   3  28
ATOM     28  C2  0RX d   1     -13.853  10.418 -28.474  0.00  0.00     0.035 A 
ATOM     29  C12 0RX d   1     -14.420   9.653 -29.481  0.00  0.00    -0.054 A 
ATOM     30  C11 0RX d   1     -13.730   9.419 -30.665  0.00  0.00    -0.048 A 
ATOM     31  H13 0RX d   1     -15.410   9.233 -29.344  0.00  0.00     0.087 H 
ATOM     32  C5  0RX d   1     -12.465   9.957 -30.857  0.00  0.00     0.076 A 
ATOM     33  H14 0RX d   1     -14.182   8.813 -31.442  0.00  0.00     0.087 H 
ATOM     34  C4  0RX d   1     -11.883  10.714 -29.849  0.00  0.00    -0.048 A 
ATOM     35  C3  0RX d   1     -12.578  10.945 -28.662  0.00  0.00    -0.054 A 
ATOM     36  H15 0RX d   1     -10.889  11.125 -29.985  0.00  0.00     0.087 H 
ATOM     37  H16 0RX d   1     -12.122  11.540 -27.879  0.00  0.00     0.087 H 
BRANCH  32  38
ATOM     38  O2  0RX d   1     -11.804   9.706 -32.034  0.00  0.00    -0.311 OA
BRANCH  38  39
ATOM     39  C6  0RX d   1     -11.320  10.710 -32.834  0.00  0.00     0.078 A 
ATOM     40  C10 0RX d   1     -11.891  11.980 -32.814  0.00  0.00    -0.033 A 
ATOM     41  C9  0RX d   1     -11.379  12.972 -33.645  0.00  0.00     0.004 A 
ATOM     42  H17 0RX d   1     -12.726  12.194 -32.157  0.00  0.00     0.090 H 
ATOM     43  N2  0RX d   1     -10.358  12.707 -34.472  0.00  0.00    -0.273 NA
ATOM     44  H18 0RX d   1     -11.809  13.967 -33.623  0.00  0.00     0.114 H 
ATOM     45  C8  0RX d   1      -9.802  11.490 -34.518  0.00  0.00     0.004 A 
ATOM     46  C7  0RX d   1     -10.265  10.462 -33.702  0.00  0.00    -0.033 A 
ATOM     47  H19 0RX d   1      -8.980  11.303 -35.200  0.00  0.00     0.114 H 
ATOM     48  H20 0RX d   1      -9.808   9.480 -33.744  0.00  0.00     0.090 H 
ENDBRANCH  38  39
ENDBRANCH  32  38
ENDBRANCH   3  28
TORSDOF 5
