REMARK  5 active torsions:
REMARK  status: ('A' for Active; 'I' for Inactive)
REMARK    1  A    between atoms: O01_1  and  C02_2 
REMARK    2  A    between atoms: C08_8  and  N09_9 
REMARK    3  A    between atoms: N10_10  and  C11_11 
REMARK    4  A    between atoms: C14_14  and  S15_15 
REMARK    5  A    between atoms: S15_15  and  N17_17 
ROOT
ATOM      1  C11 0S0 d   1      -3.641  -7.640  28.573  0.00  0.00     0.079 A 
ATOM      2  C12 0S0 d   1      -3.557  -8.579  27.518  0.00  0.00    -0.052 A 
ATOM      3  C13 0S0 d   1      -4.512  -9.516  27.398  0.00  0.00    -0.058 A 
ATOM      4  C14 0S0 d   1      -5.592  -9.532  28.328  0.00  0.00     0.079 A 
ATOM      5  C19 0S0 d   1      -5.682  -8.597  29.365  0.00  0.00    -0.058 A 
ATOM      6  C20 0S0 d   1      -4.714  -7.651  29.499  0.00  0.00    -0.052 A 
ATOM      7  H5  0S0 d   1      -2.732  -8.543  26.815  0.00  0.00     0.087 H 
ATOM      8  H6  0S0 d   1      -4.462 -10.251  26.603  0.00  0.00     0.086 H 
ATOM      9  H9  0S0 d   1      -6.517  -8.626  30.056  0.00  0.00     0.086 H 
ATOM     10  H10 0S0 d   1      -4.762  -6.920  30.298  0.00  0.00     0.087 H 
ENDROOT
BRANCH   1  11
ATOM     11  N10 0S0 d   1      -2.579  -6.635  28.702  0.00  0.00    -0.150 NA
ATOM     12  N09 0S0 d   1      -1.669  -6.676  27.885  0.00  0.00    -0.146 NA
BRANCH  12  13
ATOM     13  C08 0S0 d   1      -0.771  -5.585  27.576  0.00  0.00     0.130 A 
ATOM     14  C02 0S0 d   1      -0.836  -4.298  28.194  0.00  0.00     0.173 A 
ATOM     15  N03 0S0 d   1       0.016  -3.349  27.825  0.00  0.00    -0.313 N 
ATOM     16  C04 0S0 d   1       0.985  -3.570  26.874  0.00  0.00     0.180 A 
ATOM     17  H2  0S0 d   1      -0.049  -2.447  28.251  0.00  0.00     0.170 HD
ATOM     18  O05 0S0 d   1       1.832  -2.569  26.541  0.00  0.00    -0.172 OA
ATOM     19  C06 0S0 d   1       1.099  -4.810  26.248  0.00  0.00    -0.029 A 
ATOM     20  C07 0S0 d   1       0.218  -5.834  26.587  0.00  0.00    -0.045 A 
ATOM     21  H3  0S0 d   1       1.872  -4.977  25.499  0.00  0.00     0.090 H 
ATOM     22  H4  0S0 d   1       0.286  -6.807  26.103  0.00  0.00     0.087 H 
BRANCH  14  23
ATOM     23  O01 0S0 d   1      -1.676  -4.023  29.048  0.00  0.00    -0.344 OA
ATOM     24  H1  0S0 d   1      -2.216  -4.786  29.217  0.00  0.00     0.219 HD
ENDBRANCH  14  23
ENDBRANCH  12  13
ENDBRANCH   1  11
BRANCH   4  25
ATOM     25  S15 0S0 d   1      -6.865 -10.748  28.175  0.00  0.00     0.256 S 
ATOM     26  O16 0S0 d   1      -6.472 -11.871  27.368  0.00  0.00    -0.201 OA
ATOM     27  O18 0S0 d   1      -7.945 -10.157  27.337  0.00  0.00    -0.201 OA
BRANCH  25  28
ATOM     28  N17 0S0 d   1      -7.332 -11.220  29.636  0.00  0.00    -0.324 N 
ATOM     29  H7  0S0 d   1      -8.050 -11.909  29.733  0.00  0.00     0.169 HD
ATOM     30  H8  0S0 d   1      -6.905 -10.825  30.449  0.00  0.00     0.169 HD
ENDBRANCH  25  28
ENDBRANCH   4  25
TORSDOF 5
