REMARK  7 active torsions:
REMARK  status: ('A' for Active; 'I' for Inactive)
REMARK    1  A    between atoms: N1_23  and  C1_1 
REMARK    2  A    between atoms: N1_23  and  C2_2 
REMARK    3  A    between atoms: C3_3  and  N1_23 
REMARK    4  A    between atoms: C12_6  and  C14_8 
REMARK    5  A    between atoms: C14_8  and  C15_9 
REMARK    6  A    between atoms: C18_12  and  C20_14 
REMARK    7  A    between atoms: C8_29  and  N2_26 
ROOT
ATOM      1  C11 0RS d   1      36.157  22.618  10.010  0.00  0.00     0.082 A 
ATOM      2  C12 0RS d   1      34.917  24.326   9.636  0.00  0.00     0.182 A 
ATOM      3  C13 0RS d   1      35.801  23.134  11.282  0.00  0.00     0.180 A 
ATOM      4  C8  0RS d   1      36.964  21.546  12.453  0.00  0.00     0.128 A 
ATOM      5  C9  0RS d   1      37.386  20.946  11.242  0.00  0.00    -0.036 A 
ATOM      6  C10 0RS d   1      36.981  21.478  10.002  0.00  0.00    -0.050 A 
ATOM      7  N3  0RS d   1      35.604  23.367   8.993  0.00  0.00    -0.334 N 
ATOM      8  N4  0RS d   1      35.005  24.226  10.987  0.00  0.00    -0.205 NA
ATOM      9  N5  0RS d   1      36.169  22.647  12.500  0.00  0.00    -0.209 NA
ATOM     10  H26 0RS d   1      38.025  20.071  11.269  0.00  0.00     0.089 H 
ATOM     11  H27 0RS d   1      37.295  21.023   9.070  0.00  0.00     0.087 H 
ATOM     12  H28 0RS d   1      35.696  23.224   7.977  0.00  0.00     0.168 HD
ENDROOT
BRANCH   2  13
ATOM     13  C14 0RS d   1      34.108  25.433   8.976  0.00  0.00     0.228 C 
ATOM     14  O1  0RS d   1      33.395  26.164   9.652  0.00  0.00    -0.283 OA
BRANCH  13  15
ATOM     15  C15 0RS d   1      34.185  25.633   7.499  0.00  0.00     0.021 A 
ATOM     16  C16 0RS d   1      33.139  26.287   6.828  0.00  0.00    -0.052 A 
ATOM     17  C17 0RS d   1      33.248  26.455   5.443  0.00  0.00     0.004 A 
ATOM     18  H8  0RS d   1      32.272  26.651   7.367  0.00  0.00     0.087 H 
ATOM     19  N6  0RS d   1      34.300  26.025   4.714  0.00  0.00    -0.260 NA
ATOM     20  H9  0RS d   1      32.441  26.960   4.925  0.00  0.00     0.114 H 
ATOM     21  C18 0RS d   1      35.304  25.390   5.332  0.00  0.00     0.070 A 
ATOM     22  C19 0RS d   1      35.280  25.201   6.719  0.00  0.00    -0.040 A 
ATOM     23  H10 0RS d   1      36.118  24.714   7.204  0.00  0.00     0.088 H 
BRANCH  21  24
ATOM     24  C20 0RS d   1      36.431  24.954   4.483  0.00  0.00     0.021 A 
ATOM     25  C21 0RS d   1      36.856  25.834   3.456  0.00  0.00     0.015 A 
ATOM     26  N7  0RS d   1      37.873  25.594   2.609  0.00  0.00    -0.271 NA
ATOM     27  H11 0RS d   1      36.321  26.770   3.345  0.00  0.00     0.116 H 
ATOM     28  C22 0RS d   1      38.525  24.428   2.750  0.00  0.00     0.013 A 
ATOM     29  C23 0RS d   1      38.208  23.461   3.720  0.00  0.00    -0.007 A 
ATOM     30  H12 0RS d   1      39.346  24.220   2.074  0.00  0.00     0.116 H 
ATOM     31  C24 0RS d   1      38.934  22.257   3.802  0.00  0.00    -0.071 A 
ATOM     32  C28 0RS d   1      37.138  23.722   4.613  0.00  0.00    -0.011 A 
ATOM     33  C25 0RS d   1      38.602  21.303   4.786  0.00  0.00    -0.082 A 
ATOM     34  H13 0RS d   1      39.746  22.064   3.110  0.00  0.00     0.084 H 
ATOM     35  C26 0RS d   1      37.549  21.531   5.691  0.00  0.00    -0.082 A 
ATOM     36  H14 0RS d   1      39.167  20.380   4.846  0.00  0.00     0.083 H 
ATOM     37  C27 0RS d   1      36.824  22.732   5.590  0.00  0.00    -0.071 A 
ATOM     38  H15 0RS d   1      37.302  20.797   6.449  0.00  0.00     0.083 H 
ATOM     39  H16 0RS d   1      36.003  22.910   6.275  0.00  0.00     0.084 H 
ENDBRANCH  21  24
ENDBRANCH  13  15
ENDBRANCH   2  13
BRANCH   4  40
ATOM     40  N2  0RS d   1      37.358  21.004  13.633  0.00  0.00    -0.366 N 
ATOM     41  C5  0RS d   1      37.010  21.533  14.950  0.00  0.00    -0.002 C 
ATOM     42  C4  0RS d   1      38.297  22.030  15.633  0.00  0.00    -0.023 C 
ATOM     43  H20 0RS d   1      36.303  22.368  14.839  0.00  0.00     0.064 H 
ATOM     44  H21 0RS d   1      36.550  20.741  15.558  0.00  0.00     0.064 H 
ATOM     45  C3  0RS d   1      39.349  20.904  15.745  0.00  0.00     0.106 C 
ATOM     46  H18 0RS d   1      38.719  22.856  15.042  0.00  0.00     0.038 H 
ATOM     47  H19 0RS d   1      38.050  22.390  16.643  0.00  0.00     0.038 H 
ATOM     48  C7  0RS d   1      39.566  20.200  14.386  0.00  0.00    -0.023 C 
ATOM     49  H7  0RS d   1      38.930  20.144  16.421  0.00  0.00     0.084 H 
ATOM     50  C6  0RS d   1      38.217  19.827  13.752  0.00  0.00    -0.002 C 
ATOM     51  H24 0RS d   1      40.158  19.286  14.542  0.00  0.00     0.038 H 
ATOM     52  H25 0RS d   1      40.109  20.877  13.710  0.00  0.00     0.038 H 
ATOM     53  H22 0RS d   1      38.393  19.406  12.751  0.00  0.00     0.064 H 
ATOM     54  H23 0RS d   1      37.717  19.077  14.383  0.00  0.00     0.064 H 
BRANCH  45  55
ATOM     55  N1  0RS d   1      40.588  21.384  16.383  0.00  0.00    -0.074 N 
ATOM     56  H17 0RS d   1      40.321  22.173  16.951  0.00  0.00     0.279 HD
BRANCH  55  57
ATOM     57  C1  0RS d   1      41.156  20.381  17.280  0.00  0.00     0.066 C 
ATOM     58  H1  0RS d   1      42.076  20.776  17.735  0.00  0.00     0.068 H 
ATOM     59  H2  0RS d   1      41.390  19.470  16.710  0.00  0.00     0.068 H 
ATOM     60  H3  0RS d   1      40.429  20.142  18.070  0.00  0.00     0.068 H 
ENDBRANCH  55  57
BRANCH  55  61
ATOM     61  C2  0RS d   1      41.620  21.869  15.462  0.00  0.00     0.066 C 
ATOM     62  H4  0RS d   1      41.186  22.624  14.790  0.00  0.00     0.068 H 
ATOM     63  H5  0RS d   1      42.006  21.027  14.868  0.00  0.00     0.068 H 
ATOM     64  H6  0RS d   1      42.442  22.320  16.037  0.00  0.00     0.068 H 
ENDBRANCH  55  61
ENDBRANCH  45  55
ENDBRANCH   4  40
TORSDOF 7
