REMARK  8 active torsions:
REMARK  status: ('A' for Active; 'I' for Inactive)
REMARK    1  A    between atoms: C17_10  and  C16_11 
REMARK    2  A    between atoms: C15_17  and  N6_18 
REMARK    3  A    between atoms: C10_26  and  C9_27 
REMARK    4  A    between atoms: C9_27  and  N1_28 
REMARK    5  A    between atoms: C4_33  and  C2_34 
REMARK    6  A    between atoms: C2_34  and  O2_35 
REMARK    7  A    between atoms: C2_34  and  C3_36 
REMARK    8  A    between atoms: C2_34  and  C1_37 
ROOT
ATOM      1  C16 0SC d   1      21.274  -6.714  19.668  0.00  0.00     0.166 A 
ATOM      2  N4  0SC d   1      21.193  -5.489  19.182  0.00  0.00    -0.226 NA
ATOM      3  C13 0SC d   1      20.052  -4.781  19.484  0.00  0.00     0.091 A 
ATOM      4  C12 0SC d   1      20.003  -3.410  19.131  0.00  0.00    -0.051 A 
ATOM      5  C11 0SC d   1      18.937  -2.643  19.490  0.00  0.00    -0.055 A 
ATOM      6  N3  0SC d   1      20.316  -7.349  20.353  0.00  0.00    -0.208 NA
ATOM      7  C15 0SC d   1      19.139  -6.745  20.633  0.00  0.00     0.159 A 
ATOM      8  C14 0SC d   1      18.961  -5.354  20.217  0.00  0.00     0.131 A 
ATOM      9  N2  0SC d   1      17.898  -4.514  20.534  0.00  0.00    -0.245 NA
ATOM     10  C10 0SC d   1      17.897  -3.227  20.195  0.00  0.00     0.061 A 
ATOM     11  H6  0SC d   1      20.820  -2.969  18.571  0.00  0.00     0.087 H 
ATOM     12  H7  0SC d   1      18.902  -1.592  19.228  0.00  0.00     0.086 H 
ENDROOT
BRANCH  10  13
ATOM     13  C9  0SC d   1      16.697  -2.420  20.631  0.00  0.00     0.123 C 
ATOM     14  H16 0SC d   1      17.042  -1.433  20.971  0.00  0.00     0.085 H 
ATOM     15  H17 0SC d   1      16.206  -2.943  21.464  0.00  0.00     0.085 H 
BRANCH  13  16
ATOM     16  N1  0SC d   1      15.718  -2.229  19.555  0.00  0.00    -0.066 N 
ATOM     17  C6  0SC d   1      14.816  -1.104  19.806  0.00  0.00     0.084 C 
ATOM     18  C5  0SC d   1      14.002  -0.794  18.539  0.00  0.00    -0.036 C 
ATOM     19  H19 0SC d   1      15.406  -0.219  20.086  0.00  0.00     0.076 H 
ATOM     20  H20 0SC d   1      14.130  -1.362  20.626  0.00  0.00     0.076 H 
ATOM     21  C4  0SC d   1      13.279  -2.019  17.929  0.00  0.00    -0.022 C 
ATOM     22  H21 0SC d   1      14.687  -0.386  17.781  0.00  0.00     0.036 H 
ATOM     23  H22 0SC d   1      13.244  -0.038  18.793  0.00  0.00     0.036 H 
ATOM     24  C8  0SC d   1      14.145  -3.288  18.025  0.00  0.00    -0.036 C 
ATOM     25  H27 0SC d   1      12.399  -2.201  18.563  0.00  0.00     0.044 H 
ATOM     26  C7  0SC d   1      14.910  -3.419  19.339  0.00  0.00     0.084 C 
ATOM     27  H25 0SC d   1      13.488  -4.164  17.918  0.00  0.00     0.036 H 
ATOM     28  H26 0SC d   1      14.873  -3.273  17.201  0.00  0.00     0.036 H 
ATOM     29  H23 0SC d   1      14.196  -3.532  20.168  0.00  0.00     0.076 H 
ATOM     30  H24 0SC d   1      15.564  -4.302  19.295  0.00  0.00     0.076 H 
ATOM     31  H18 0SC d   1      16.232  -2.037  18.709  0.00  0.00     0.280 HD
BRANCH  21  32
ATOM     32  C2  0SC d   1      12.724  -1.760  16.499  0.00  0.00     0.054 C 
BRANCH  32  33
ATOM     33  O2  0SC d   1      13.841  -1.533  15.612  0.00  0.00    -0.390 OA
ATOM     34  H28 0SC d   1      13.518  -1.373  14.733  0.00  0.00     0.210 HD
ENDBRANCH  32  33
BRANCH  32  35
ATOM     35  C3  0SC d   1      11.971  -2.968  15.951  0.00  0.00    -0.048 C 
ATOM     36  H29 0SC d   1      11.598  -2.740  14.942  0.00  0.00     0.031 H 
ATOM     37  H30 0SC d   1      11.123  -3.202  16.611  0.00  0.00     0.031 H 
ATOM     38  H31 0SC d   1      12.649  -3.833  15.905  0.00  0.00     0.031 H 
ENDBRANCH  32  35
BRANCH  32  39
ATOM     39  C1  0SC d   1      11.845  -0.518  16.434  0.00  0.00    -0.048 C 
ATOM     40  H32 0SC d   1      11.480  -0.381  15.405  0.00  0.00     0.031 H 
ATOM     41  H33 0SC d   1      12.431   0.362  16.735  0.00  0.00     0.031 H 
ATOM     42  H34 0SC d   1      10.989  -0.639  17.114  0.00  0.00     0.031 H 
ENDBRANCH  32  39
ENDBRANCH  21  32
ENDBRANCH  13  16
ENDBRANCH  10  13
BRANCH   7  43
ATOM     43  N6  0SC d   1      18.149  -7.546  21.302  0.00  0.00    -0.360 N 
ATOM     44  C28 0SC d   1      16.704  -7.307  21.215  0.00  0.00     0.016 C 
ATOM     45  C27 0SC d   1      16.066  -7.601  22.554  0.00  0.00     0.034 C 
ATOM     46  H8  0SC d   1      16.268  -7.965  20.448  0.00  0.00     0.067 H 
ATOM     47  H9  0SC d   1      16.521  -6.257  20.944  0.00  0.00     0.067 H 
ATOM     48  O1  0SC d   1      16.372  -8.928  23.005  0.00  0.00    -0.388 OA
ATOM     49  H10 0SC d   1      14.975  -7.499  22.460  0.00  0.00     0.076 H 
ATOM     50  H11 0SC d   1      16.439  -6.878  23.294  0.00  0.00     0.076 H 
ATOM     51  C26 0SC d   1      17.786  -9.113  23.115  0.00  0.00     0.034 C 
ATOM     52  C25 0SC d   1      18.480  -8.885  21.798  0.00  0.00     0.016 C 
ATOM     53  H12 0SC d   1      17.986 -10.141  23.451  0.00  0.00     0.076 H 
ATOM     54  H13 0SC d   1      18.182  -8.402  23.855  0.00  0.00     0.076 H 
ATOM     55  H14 0SC d   1      19.568  -8.967  21.937  0.00  0.00     0.067 H 
ATOM     56  H15 0SC d   1      18.145  -9.639  21.071  0.00  0.00     0.067 H 
ENDBRANCH   7  43
BRANCH   1  57
ATOM     57  C17 0SC d   1      22.479  -7.545  19.293  0.00  0.00     0.063 A 
ATOM     58  C24 0SC d   1      23.229  -7.305  18.151  0.00  0.00     0.131 A 
ATOM     59  F   0SC d   1      22.722  -6.468  17.225  0.00  0.00    -0.205 F 
ATOM     60  C23 0SC d   1      24.464  -7.860  17.893  0.00  0.00    -0.043 A 
ATOM     61  C22 0SC d   1      25.042  -8.688  18.840  0.00  0.00    -0.053 A 
ATOM     62  H1  0SC d   1      24.976  -7.651  16.961  0.00  0.00     0.088 H 
ATOM     63  C21 0SC d   1      24.358  -8.944  20.026  0.00  0.00     0.043 A 
ATOM     64  H2  0SC d   1      26.015  -9.132  18.661  0.00  0.00     0.087 H 
ATOM     65  N5  0SC d   1      24.742  -9.597  21.172  0.00  0.00    -0.365 N 
ATOM     66  C18 0SC d   1      23.100  -8.410  20.246  0.00  0.00     0.009 A 
ATOM     67  C20 0SC d   1      23.746  -9.477  22.099  0.00  0.00    -0.022 A 
ATOM     68  H3  0SC d   1      25.633 -10.095  21.309  0.00  0.00     0.165 HD
ATOM     69  C19 0SC d   1      22.711  -8.774  21.583  0.00  0.00    -0.055 A 
ATOM     70  H4  0SC d   1      23.780  -9.887  23.107  0.00  0.00     0.111 H 
ATOM     71  H5  0SC d   1      21.773  -8.532  22.080  0.00  0.00     0.087 H 
ENDBRANCH   1  57
TORSDOF 8
