REMARK  8 active torsions:
REMARK  status: ('A' for Active; 'I' for Inactive)
REMARK    1  A    between atoms: C8_18  and  N_1 
REMARK    2  A    between atoms: C1_4  and  C_2 
REMARK    3  A    between atoms: C1_4  and  O1_6 
REMARK    4  A    between atoms: C1_4  and  C2_7 
REMARK    5  A    between atoms: C3_9  and  C1_4 
REMARK    6  A    between atoms: N6_16  and  C14_24 
REMARK    7  A    between atoms: C9_19  and  C8_18 
REMARK    8  A    between atoms: C15_25  and  C16_26 
ROOT
ATOM      1  N1  0SD d   1      17.670  -3.867  21.322  0.00  0.00    -0.245 NA
ATOM      2  N2  0SD d   1      20.500  -6.205  21.168  0.00  0.00    -0.208 NA
ATOM      3  N3  0SD d   1      21.096  -4.185  20.094  0.00  0.00    -0.226 NA
ATOM      4  C9  0SD d   1      17.413  -2.623  20.953  0.00  0.00     0.061 A 
ATOM      5  C10 0SD d   1      18.318  -1.852  20.253  0.00  0.00    -0.055 A 
ATOM      6  C11 0SD d   1      19.530  -2.378  19.959  0.00  0.00    -0.051 A 
ATOM      7  C12 0SD d   1      19.849  -3.689  20.363  0.00  0.00     0.091 A 
ATOM      8  C13 0SD d   1      18.885  -4.459  21.063  0.00  0.00     0.131 A 
ATOM      9  C14 0SD d   1      19.295  -5.755  21.449  0.00  0.00     0.159 A 
ATOM     10  C15 0SD d   1      21.348  -5.408  20.513  0.00  0.00     0.163 A 
ATOM     11  H21 0SD d   1      18.063  -0.845  19.945  0.00  0.00     0.086 H 
ATOM     12  H22 0SD d   1      20.257  -1.789  19.411  0.00  0.00     0.087 H 
ENDROOT
BRANCH   4  13
ATOM     13  C8  0SD d   1      16.096  -2.040  21.408  0.00  0.00     0.123 C 
ATOM     14  H19 0SD d   1      15.510  -2.834  21.894  0.00  0.00     0.085 H 
ATOM     15  H20 0SD d   1      16.299  -1.238  22.133  0.00  0.00     0.085 H 
BRANCH  13  16
ATOM     16  N   0SD d   1      15.304  -1.483  20.306  0.00  0.00    -0.066 N 
ATOM     17  C5  0SD d   1      16.083  -0.498  19.553  0.00  0.00     0.084 C 
ATOM     18  C4  0SD d   1      15.264   0.112  18.420  0.00  0.00    -0.036 C 
ATOM     19  H13 0SD d   1      16.969  -0.992  19.128  0.00  0.00     0.076 H 
ATOM     20  H14 0SD d   1      16.402   0.303  20.236  0.00  0.00     0.076 H 
ATOM     21  C3  0SD d   1      14.814  -0.987  17.466  0.00  0.00    -0.022 C 
ATOM     22  H10 0SD d   1      14.381   0.618  18.838  0.00  0.00     0.036 H 
ATOM     23  H11 0SD d   1      15.881   0.841  17.874  0.00  0.00     0.036 H 
ATOM     24  C7  0SD d   1      13.996  -1.988  18.271  0.00  0.00    -0.036 C 
ATOM     25  H9  0SD d   1      15.714  -1.505  17.104  0.00  0.00     0.044 H 
ATOM     26  C6  0SD d   1      14.848  -2.545  19.404  0.00  0.00     0.084 C 
ATOM     27  H17 0SD d   1      13.675  -2.811  17.615  0.00  0.00     0.036 H 
ATOM     28  H18 0SD d   1      13.111  -1.486  18.690  0.00  0.00     0.036 H 
ATOM     29  H15 0SD d   1      14.251  -3.269  19.978  0.00  0.00     0.076 H 
ATOM     30  H16 0SD d   1      15.726  -3.051  18.976  0.00  0.00     0.076 H 
ATOM     31  H1  0SD d   1      14.496  -1.024  20.696  0.00  0.00     0.280 HD
BRANCH  21  32
ATOM     32  C1  0SD d   1      14.079  -0.454  16.216  0.00  0.00     0.054 C 
BRANCH  32  33
ATOM     33  C   0SD d   1      14.994   0.373  15.332  0.00  0.00    -0.048 C 
ATOM     34  H2  0SD d   1      15.341   1.256  15.888  0.00  0.00     0.031 H 
ATOM     35  H3  0SD d   1      14.444   0.697  14.436  0.00  0.00     0.031 H 
ATOM     36  H4  0SD d   1      15.860  -0.234  15.031  0.00  0.00     0.031 H 
ENDBRANCH  32  33
BRANCH  32  37
ATOM     37  O1  0SD d   1      13.659  -1.590  15.439  0.00  0.00    -0.390 OA
ATOM     38  H5  0SD d   1      13.082  -2.134  15.962  0.00  0.00     0.210 HD
ENDBRANCH  32  37
BRANCH  32  39
ATOM     39  C2  0SD d   1      12.837   0.341  16.584  0.00  0.00    -0.048 C 
ATOM     40  H6  0SD d   1      12.185  -0.272  17.224  0.00  0.00     0.031 H 
ATOM     41  H7  0SD d   1      12.295   0.619  15.668  0.00  0.00     0.031 H 
ATOM     42  H8  0SD d   1      13.132   1.252  17.126  0.00  0.00     0.031 H 
ENDBRANCH  32  39
ENDBRANCH  21  32
ENDBRANCH  13  16
ENDBRANCH   4  13
BRANCH   9  43
ATOM     43  N6  0SD d   1      18.372  -6.498  22.182  0.00  0.00    -0.360 N 
ATOM     44  C23 0SD d   1      18.715  -7.814  22.718  0.00  0.00     0.016 C 
ATOM     45  C24 0SD d   1      17.883  -8.082  23.936  0.00  0.00     0.034 C 
ATOM     46  H27 0SD d   1      19.781  -7.835  22.989  0.00  0.00     0.067 H 
ATOM     47  H28 0SD d   1      18.515  -8.584  21.959  0.00  0.00     0.067 H 
ATOM     48  O   0SD d   1      16.499  -7.997  23.651  0.00  0.00    -0.388 OA
ATOM     49  H29 0SD d   1      18.110  -9.092  24.308  0.00  0.00     0.076 H 
ATOM     50  H30 0SD d   1      18.134  -7.342  24.710  0.00  0.00     0.076 H 
ATOM     51  C25 0SD d   1      16.184  -6.702  23.173  0.00  0.00     0.034 C 
ATOM     52  C26 0SD d   1      16.940  -6.380  21.920  0.00  0.00     0.016 C 
ATOM     53  H31 0SD d   1      16.442  -5.963  23.946  0.00  0.00     0.076 H 
ATOM     54  H32 0SD d   1      15.105  -6.651  22.963  0.00  0.00     0.076 H 
ATOM     55  H33 0SD d   1      16.652  -7.083  21.125  0.00  0.00     0.067 H 
ATOM     56  H34 0SD d   1      16.707  -5.353  21.603  0.00  0.00     0.067 H 
ENDBRANCH   9  43
BRANCH  10  57
ATOM     57  C16 0SD d   1      22.711  -5.867  20.184  0.00  0.00     0.026 A 
ATOM     58  C17 0SD d   1      23.373  -5.315  19.092  0.00  0.00    -0.068 A 
ATOM     59  C18 0SD d   1      24.659  -5.713  18.781  0.00  0.00    -0.080 A 
ATOM     60  H23 0SD d   1      22.877  -4.569  18.482  0.00  0.00     0.085 H 
ATOM     61  C19 0SD d   1      25.301  -6.662  19.551  0.00  0.00    -0.053 A 
ATOM     62  H24 0SD d   1      25.167  -5.278  17.928  0.00  0.00     0.083 H 
ATOM     63  C20 0SD d   1      24.631  -7.208  20.637  0.00  0.00     0.089 A 
ATOM     64  H25 0SD d   1      26.311  -6.975  19.312  0.00  0.00     0.087 H 
ATOM     65  N5  0SD d   1      25.004  -8.135  21.549  0.00  0.00    -0.175 NA
ATOM     66  C21 0SD d   1      23.322  -6.817  20.968  0.00  0.00     0.025 A 
ATOM     67  N4  0SD d   1      24.013  -8.373  22.455  0.00  0.00    -0.288 N 
ATOM     68  C22 0SD d   1      23.010  -7.589  22.109  0.00  0.00     0.009 A 
ATOM     69  H12 0SD d   1      24.042  -9.030  23.247  0.00  0.00     0.188 HD
ATOM     70  H26 0SD d   1      22.059  -7.543  22.638  0.00  0.00     0.115 H 
ENDBRANCH  10  57
TORSDOF 8
