REMARK  9 active torsions:
REMARK  status: ('A' for Active; 'I' for Inactive)
REMARK    1  A    between atoms: C1_1  and  C2_2 
REMARK    2  A    between atoms: C2_2  and  C3_3 
REMARK    3  A    between atoms: C2_2  and  C4_4 
REMARK    4  A    between atoms: C2_2  and  O34_34 
REMARK    5  A    between atoms: N7_7  and  C10_10 
REMARK    6  A    between atoms: C10_10  and  C11_11 
REMARK    7  A    between atoms: C17_17  and  N28_28 
REMARK    8  A    between atoms: C19_19  and  C21_21 
REMARK    9  A    between atoms: C24_24  and  N27_27 
ROOT
ATOM      1  C11 0SE d   1      18.468  -1.394  21.483  0.00  0.00     0.061 A 
ATOM      2  C12 0SE d   1      19.465  -0.668  20.823  0.00  0.00    -0.055 A 
ATOM      3  C13 0SE d   1      20.693  -1.225  20.589  0.00  0.00    -0.051 A 
ATOM      4  C14 0SE d   1      20.927  -2.530  21.055  0.00  0.00     0.091 A 
ATOM      5  C15 0SE d   1      19.884  -3.207  21.729  0.00  0.00     0.126 A 
ATOM      6  N16 0SE d   1      18.709  -2.611  21.910  0.00  0.00    -0.246 NA
ATOM      7  C17 0SE d   1      20.150  -4.568  22.204  0.00  0.00     0.139 A 
ATOM      8  N18 0SE d   1      21.362  -5.068  21.982  0.00  0.00    -0.214 NA
ATOM      9  C19 0SE d   1      22.295  -4.372  21.330  0.00  0.00     0.165 A 
ATOM     10  N20 0SE d   1      22.099  -3.148  20.884  0.00  0.00    -0.226 NA
ATOM     11  H19 0SE d   1      19.263   0.345  20.494  0.00  0.00     0.086 H 
ATOM     12  H20 0SE d   1      21.463  -0.675  20.059  0.00  0.00     0.087 H 
ENDROOT
BRANCH   1  13
ATOM     13  C10 0SE d   1      17.095  -0.799  21.746  0.00  0.00     0.123 C 
ATOM     14  H17 0SE d   1      16.411  -1.607  22.046  0.00  0.00     0.085 H 
ATOM     15  H18 0SE d   1      17.178  -0.066  22.562  0.00  0.00     0.085 H 
BRANCH  13  16
ATOM     16  N7  0SE d   1      16.540  -0.126  20.561  0.00  0.00    -0.066 N 
ATOM     17  C6  0SE d   1      16.615  -0.974  19.378  0.00  0.00     0.084 C 
ATOM     18  C5  0SE d   1      16.578  -0.002  18.212  0.00  0.00    -0.036 C 
ATOM     19  H10 0SE d   1      17.551  -1.552  19.373  0.00  0.00     0.076 H 
ATOM     20  H11 0SE d   1      15.758  -1.662  19.338  0.00  0.00     0.076 H 
ATOM     21  C4  0SE d   1      15.121   0.445  18.151  0.00  0.00    -0.022 C 
ATOM     22  H8  0SE d   1      17.243   0.855  18.396  0.00  0.00     0.036 H 
ATOM     23  H9  0SE d   1      16.873  -0.501  17.277  0.00  0.00     0.036 H 
ATOM     24  C9  0SE d   1      14.744   1.172  19.458  0.00  0.00    -0.036 C 
ATOM     25  H7  0SE d   1      14.478  -0.443  18.054  0.00  0.00     0.044 H 
ATOM     26  C8  0SE d   1      15.161   0.368  20.707  0.00  0.00     0.084 C 
ATOM     27  H15 0SE d   1      13.655   1.322  19.480  0.00  0.00     0.036 H 
ATOM     28  H16 0SE d   1      15.249   2.149  19.480  0.00  0.00     0.036 H 
ATOM     29  H13 0SE d   1      15.100   1.017  21.593  0.00  0.00     0.076 H 
ATOM     30  H14 0SE d   1      14.481  -0.487  20.831  0.00  0.00     0.076 H 
ATOM     31  H12 0SE d   1      17.122   0.680  20.395  0.00  0.00     0.280 HD
BRANCH  21  32
ATOM     32  C2  0SE d   1      14.925   1.321  16.908  0.00  0.00     0.054 C 
BRANCH  32  33
ATOM     33  C1  0SE d   1      15.540   2.706  17.127  0.00  0.00    -0.048 C 
ATOM     34  H1  0SE d   1      15.390   3.320  16.227  0.00  0.00     0.031 H 
ATOM     35  H2  0SE d   1      16.617   2.602  17.325  0.00  0.00     0.031 H 
ATOM     36  H3  0SE d   1      15.054   3.191  17.987  0.00  0.00     0.031 H 
ENDBRANCH  32  33
BRANCH  32  37
ATOM     37  C3  0SE d   1      15.612   0.658  15.709  0.00  0.00    -0.048 C 
ATOM     38  H4  0SE d   1      15.177  -0.339  15.543  0.00  0.00     0.031 H 
ATOM     39  H5  0SE d   1      16.689   0.559  15.912  0.00  0.00     0.031 H 
ATOM     40  H6  0SE d   1      15.463   1.277  14.812  0.00  0.00     0.031 H 
ENDBRANCH  32  37
BRANCH  32  41
ATOM     41  O34 0SE d   1      13.528   1.441  16.636  0.00  0.00    -0.390 OA
ATOM     42  H33 0SE d   1      13.097   1.852  17.376  0.00  0.00     0.210 HD
ENDBRANCH  32  41
ENDBRANCH  21  32
ENDBRANCH  13  16
ENDBRANCH   1  13
BRANCH   7  43
ATOM     43  N28 0SE d   1      19.189  -5.288  22.894  0.00  0.00    -0.262 NA
ATOM     44  C29 0SE d   1      19.761  -6.418  23.637  0.00  0.00     0.005 C 
ATOM     45  C30 0SE d   1      18.630  -7.281  24.204  0.00  0.00     0.031 C 
ATOM     46  H25 0SE d   1      20.381  -6.038  24.462  0.00  0.00     0.059 H 
ATOM     47  H26 0SE d   1      20.382  -7.025  22.961  0.00  0.00     0.059 H 
ATOM     48  O31 0SE d   1      17.434  -6.511  24.362  0.00  0.00    -0.389 OA
ATOM     49  H27 0SE d   1      18.935  -7.678  25.183  0.00  0.00     0.076 H 
ATOM     50  H28 0SE d   1      18.433  -8.116  23.515  0.00  0.00     0.076 H 
ATOM     51  C32 0SE d   1      16.882  -5.975  23.152  0.00  0.00     0.031 C 
ATOM     52  C33 0SE d   1      17.990  -5.675  22.138  0.00  0.00     0.005 C 
ATOM     53  H29 0SE d   1      16.342  -5.045  23.383  0.00  0.00     0.076 H 
ATOM     54  H30 0SE d   1      16.184  -6.706  22.718  0.00  0.00     0.076 H 
ATOM     55  H31 0SE d   1      18.199  -6.571  21.535  0.00  0.00     0.059 H 
ATOM     56  H32 0SE d   1      17.681  -4.852  21.477  0.00  0.00     0.059 H 
ENDBRANCH   7  43
BRANCH   9  57
ATOM     57  C21 0SE d   1      23.636  -4.966  21.096  0.00  0.00     0.048 A 
ATOM     58  C22 0SE d   1      24.397  -4.558  19.994  0.00  0.00     0.036 A 
ATOM     59  N23 0SE d   1      25.590  -5.093  19.804  0.00  0.00    -0.075 NA
ATOM     60  H21 0SE d   1      24.013  -3.813  19.306  0.00  0.00     0.117 H 
ATOM     61  C24 0SE d   1      26.069  -6.004  20.642  0.00  0.00     0.719 A 
ATOM     62  N25 0SE d   1      25.380  -6.415  21.701  0.00  0.00    -0.075 NA
ATOM     63  C26 0SE d   1      24.176  -5.928  21.959  0.00  0.00     0.036 A 
ATOM     64  H22 0SE d   1      23.618  -6.268  22.824  0.00  0.00     0.117 H 
BRANCH  61  65
ATOM     65  N27 0SE d   1      27.323  -6.537  20.404  0.00  0.00    -0.231 N 
ATOM     66  H23 0SE d   1      27.868  -6.227  19.587  0.00  0.00     0.174 HD
ATOM     67  H24 0SE d   1      27.712  -7.244  21.044  0.00  0.00     0.174 HD
ENDBRANCH  61  65
ENDBRANCH   9  57
TORSDOF 9
