REMARK  27 active torsions:
REMARK  status: ('A' for Active; 'I' for Inactive)
REMARK    1  A    between atoms: CA_2  and  C_3 
REMARK       I    between atoms: C_3  and  N_8 
REMARK    2  A    between atoms: CA_9  and  C_10 
REMARK       I    between atoms: C_10  and  N_15 
REMARK    3  A    between atoms: N_15  and  CA_16 
REMARK    4  A    between atoms: CA_16  and  C_17 
REMARK    5  A    between atoms: CA_16  and  CB_19 
REMARK       I    between atoms: C_17  and  N_27 
REMARK    6  A    between atoms: CB_19  and  CG_20 
REMARK    7  A    between atoms: CZ_25  and  OH_26 
REMARK    8  A    between atoms: N_27  and  CA_28 
REMARK    9  A    between atoms: CA_28  and  C_29 
REMARK   10  A    between atoms: CA_28  and  CB_31 
REMARK       I    between atoms: C_29  and  N_35 
REMARK   11  A    between atoms: CB_31  and  CG_32 
REMARK   12  A    between atoms: CG_32  and  CD1_33 
REMARK   13  A    between atoms: CG_32  and  CD2_34 
REMARK   14  A    between atoms: CA_36  and  C_37 
REMARK       I    between atoms: C_37  and  N_42 
REMARK   15  A    between atoms: N_42  and  CA_43 
REMARK   16  A    between atoms: CA_43  and  C_44 
REMARK   17  A    between atoms: CA_43  and  CB_46 
REMARK       I    between atoms: C_44  and  N_53 
REMARK   18  A    between atoms: CB_46  and  CG_47 
REMARK   19  A    between atoms: CG_47  and  CD_48 
REMARK   20  A    between atoms: CD_48  and  NE_49 
REMARK       I    between atoms: NE_49  and  CZ_50 
REMARK       I    between atoms: CZ_50  and  NH1_51 
REMARK       I    between atoms: CZ_50  and  NH2_52 
REMARK   21  A    between atoms: CA_54  and  C_55 
REMARK       I    between atoms: C_55  and  N_60 
REMARK   22  A    between atoms: N_60  and  CA_61 
REMARK   23  A    between atoms: CA_61  and  C_62 
REMARK   24  A    between atoms: CA_61  and  CB_64 
REMARK   25  A    between atoms: CB_64  and  CG_65 
REMARK   26  A    between atoms: CG_65  and  CD_66 
REMARK   27  A    between atoms: CD_66  and  NE_67 
REMARK       I    between atoms: NE_67  and  CZ_68 
REMARK       I    between atoms: CZ_68  and  NH1_69 
ROOT
ATOM      1  N   PRO d   1     -13.358  10.356 -13.090  0.00  0.00    -0.337 N 
ATOM      2  CA  PRO d   1     -13.662  10.147 -14.507  0.00  0.00     0.091 C 
ATOM      3  CB  PRO d   1     -14.936  10.971 -14.688  0.00  0.00    -0.036 C 
ATOM      4  CG  PRO d   1     -14.753  12.116 -13.752  0.00  0.00    -0.048 C 
ATOM      5  CD  PRO d   1     -14.173  11.466 -12.533  0.00  0.00    -0.001 C 
ATOM      6  H37 PRO d   1     -13.837   9.081 -14.712  0.00  0.00     0.087 H 
ATOM      7  H38 PRO d   1     -15.825  10.382 -14.418  0.00  0.00     0.036 H 
ATOM      8  H39 PRO d   1     -15.031  11.324 -15.726  0.00  0.00     0.036 H 
ATOM      9  H40 PRO d   1     -15.715  12.597 -13.523  0.00  0.00     0.035 H 
ATOM     10  H41 PRO d   1     -14.060  12.861 -14.170  0.00  0.00     0.035 H 
ATOM     11  H42 PRO d   1     -13.544  12.173 -11.972  0.00  0.00     0.064 H 
ATOM     12  H43 PRO d   1     -14.967  11.081 -11.877  0.00  0.00     0.064 H 
ATOM     13  C   LEU d   1     -12.370   9.683 -12.480  0.00  0.00     0.243 C 
ATOM     14  O   LEU d   1     -11.696   8.834 -13.049  0.00  0.00    -0.271 OA
ENDROOT
BRANCH  13  15
ATOM     15  CA  LEU d   1     -12.023  10.072 -11.044  0.00  0.00     0.090 C 
ATOM     16  H27 LEU d   1     -12.852  10.653 -10.615  0.00  0.00     0.087 H 
BRANCH  15  17
ATOM     17  N   LEU d   1     -11.780   8.890 -10.235  0.00  0.00    -0.346 N 
ATOM     18  C   TYR d   1     -12.615   8.533  -9.280  0.00  0.00     0.241 C 
ATOM     19  O   TYR d   1     -13.730   9.026  -9.152  0.00  0.00    -0.271 OA
ATOM     20  H26 LEU d   1     -10.964   8.337 -10.406  0.00  0.00     0.163 HD
BRANCH  18  21
ATOM     21  CA  TYR d   1     -12.155   7.364  -8.450  0.00  0.00     0.093 C 
ATOM     22  H18 TYR d   1     -11.056   7.365  -8.394  0.00  0.00     0.088 H 
BRANCH  21  23
ATOM     23  N   TYR d   1     -12.693   7.334  -7.107  0.00  0.00    -0.346 N 
ATOM     24  C   PRO d   1     -11.914   7.578  -6.085  0.00  0.00     0.241 C 
ATOM     25  O   PRO d   1     -10.765   7.991  -6.243  0.00  0.00    -0.271 OA
ATOM     26  H17 TYR d   1     -13.660   7.127  -6.960  0.00  0.00     0.163 HD
BRANCH  24  27
ATOM     27  CA  PRO d   1     -12.546   7.385  -4.697  0.00  0.00     0.091 C 
ATOM     28  N   PRO d   1     -11.532   7.214  -3.650  0.00  0.00    -0.337 N 
ATOM     29  C   PRO d   1     -10.658   6.190  -3.675  0.00  0.00     0.251 C 
ATOM     30  CD  PRO d   1     -11.498   8.347  -2.696  0.00  0.00    -0.001 C 
ATOM     31  O   PRO d   1     -10.781   5.204  -4.412  0.00  0.00    -0.271 OA
ATOM     32  CG  PRO d   1     -12.818   9.041  -2.916  0.00  0.00    -0.048 C 
ATOM     33  H15 PRO d   1     -10.658   9.022  -2.919  0.00  0.00     0.064 H 
ATOM     34  H16 PRO d   1     -11.413   7.985  -1.661  0.00  0.00     0.064 H 
ATOM     35  CB  PRO d   1     -13.285   8.671  -4.284  0.00  0.00    -0.036 C 
ATOM     36  H13 PRO d   1     -13.549   8.708  -2.165  0.00  0.00     0.035 H 
ATOM     37  H14 PRO d   1     -12.688  10.131  -2.844  0.00  0.00     0.035 H 
ATOM     38  H11 PRO d   1     -14.370   8.493  -4.274  0.00  0.00     0.036 H 
ATOM     39  H12 PRO d   1     -13.053   9.481  -4.991  0.00  0.00     0.036 H 
ATOM     40  H10 PRO d   1     -13.230   6.524  -4.720  0.00  0.00     0.087 H 
BRANCH  29  41
ATOM     41  CA  PRO d   1      -9.430   6.298  -2.749  0.00  0.00     0.178 C 
ATOM     42  N   PRO d   1      -9.208   5.103  -1.947  0.00  0.00    -0.062 N 
ATOM     43  CD  PRO d   1      -7.841   4.590  -2.116  0.00  0.00     0.083 C 
ATOM     44  H1  PRO d   1      -9.863   4.391  -2.231  0.00  0.00     0.278 HD
ATOM     45  H2  PRO d   1      -9.356   5.328  -0.976  0.00  0.00     0.278 HD
ATOM     46  CG  PRO d   1      -7.494   5.071  -3.494  0.00  0.00    -0.040 C 
ATOM     47  H8  PRO d   1      -7.816   3.492  -2.058  0.00  0.00     0.075 H 
ATOM     48  H9  PRO d   1      -7.160   5.012  -1.362  0.00  0.00     0.075 H 
ATOM     49  CB  PRO d   1      -8.132   6.416  -3.580  0.00  0.00    -0.028 C 
ATOM     50  H6  PRO d   1      -6.404   5.147  -3.618  0.00  0.00     0.035 H 
ATOM     51  H7  PRO d   1      -7.904   4.395  -4.258  0.00  0.00     0.035 H 
ATOM     52  H4  PRO d   1      -7.470   7.185  -3.156  0.00  0.00     0.036 H 
ATOM     53  H5  PRO d   1      -8.364   6.668  -4.625  0.00  0.00     0.036 H 
ATOM     54  H3  PRO d   1      -9.555   7.175  -2.096  0.00  0.00     0.099 H 
ENDBRANCH  29  41
ENDBRANCH  24  27
ENDBRANCH  21  23
BRANCH  21  55
ATOM     55  CB  TYR d   1     -12.650   6.147  -9.176  0.00  0.00    -0.014 C 
ATOM     56  H19 TYR d   1     -12.145   6.101 -10.152  0.00  0.00     0.043 H 
ATOM     57  H20 TYR d   1     -13.734   6.257  -9.329  0.00  0.00     0.043 H 
BRANCH  55  58
ATOM     58  CG  TYR d   1     -12.413   4.871  -8.477  0.00  0.00    -0.056 A 
ATOM     59  CD1 TYR d   1     -11.164   4.584  -7.929  0.00  0.00    -0.074 A 
ATOM     60  CE1 TYR d   1     -10.926   3.382  -7.273  0.00  0.00    -0.051 A 
ATOM     61  H21 TYR d   1     -10.364   5.311  -8.016  0.00  0.00     0.084 H 
ATOM     62  CZ  TYR d   1     -11.977   2.459  -7.173  0.00  0.00     0.065 A 
ATOM     63  H23 TYR d   1      -9.952   3.163  -6.849  0.00  0.00     0.087 H 
ATOM     64  CE2 TYR d   1     -13.230   2.739  -7.713  0.00  0.00    -0.051 A 
ATOM     65  CD2 TYR d   1     -13.435   3.941  -8.359  0.00  0.00    -0.074 A 
ATOM     66  H24 TYR d   1     -14.036   2.020  -7.627  0.00  0.00     0.087 H 
ATOM     67  H22 TYR d   1     -14.409   4.162  -8.780  0.00  0.00     0.084 H 
BRANCH  62  68
ATOM     68  OH  TYR d   1     -11.792   1.252  -6.523  0.00  0.00    -0.361 OA
ATOM     69  H25 TYR d   1     -10.897   1.197  -6.208  0.00  0.00     0.217 HD
ENDBRANCH  62  68
ENDBRANCH  55  58
ENDBRANCH  21  55
ENDBRANCH  18  21
ENDBRANCH  15  17
BRANCH  15  70
ATOM     70  CB  LEU d   1     -10.751  10.893 -11.024  0.00  0.00    -0.035 C 
ATOM     71  H28 LEU d   1     -10.814  11.657 -11.813  0.00  0.00     0.037 H 
ATOM     72  H29 LEU d   1      -9.900  10.226 -11.227  0.00  0.00     0.037 H 
BRANCH  70  73
ATOM     73  CG  LEU d   1     -10.516  11.585  -9.702  0.00  0.00    -0.059 C 
ATOM     74  H30 LEU d   1     -10.511  10.869  -8.867  0.00  0.00     0.038 H 
BRANCH  73  75
ATOM     75  CD1 LEU d   1      -9.171  12.308  -9.804  0.00  0.00    -0.073 C 
ATOM     76  H31 LEU d   1      -8.961  12.827  -8.857  0.00  0.00     0.028 H 
ATOM     77  H32 LEU d   1      -9.210  13.041 -10.623  0.00  0.00     0.028 H 
ATOM     78  H33 LEU d   1      -8.375  11.575 -10.005  0.00  0.00     0.028 H 
ENDBRANCH  73  75
BRANCH  73  79
ATOM     79  CD2 LEU d   1     -11.643  12.597  -9.545  0.00  0.00    -0.073 C 
ATOM     80  H34 LEU d   1     -12.604  12.067  -9.473  0.00  0.00     0.028 H 
ATOM     81  H35 LEU d   1     -11.658  13.267 -10.417  0.00  0.00     0.028 H 
ATOM     82  H36 LEU d   1     -11.481  13.188  -8.632  0.00  0.00     0.028 H 
ENDBRANCH  73  79
ENDBRANCH  70  73
ENDBRANCH  15  70
ENDBRANCH  13  15
BRANCH   2  83
ATOM     83  C   PRO d   1     -12.565  10.681 -15.471  0.00  0.00     0.241 C 
ATOM     84  O   PRO d   1     -11.792  11.565 -15.112  0.00  0.00    -0.271 OA
ATOM     85  N   ARG d   1     -12.501  10.125 -16.676  0.00  0.00    -0.346 N 
ATOM     86  H44 ARG d   1     -13.099   9.356 -16.903  0.00  0.00     0.163 HD
BRANCH  85  87
ATOM     87  CA  ARG d   1     -11.563  10.632 -17.666  0.00  0.00     0.089 C 
ATOM     88  H45 ARG d   1     -10.659  10.982 -17.147  0.00  0.00     0.087 H 
BRANCH  87  89
ATOM     89  C   ARG d   1     -12.219  11.820 -18.361  0.00  0.00     0.243 C 
ATOM     90  O   ARG d   1     -13.414  12.048 -18.177  0.00  0.00    -0.271 OA
ATOM     91  N   PRO d   1     -11.426  12.601 -19.113  0.00  0.00    -0.337 N 
ATOM     92  CA  PRO d   1     -11.970  13.647 -19.992  0.00  0.00     0.091 C 
ATOM     93  CD  PRO d   1      -9.979  12.768 -18.895  0.00  0.00    -0.001 C 
ATOM     94  CB  PRO d   1     -10.704  14.250 -20.633  0.00  0.00    -0.036 C 
ATOM     95  H57 PRO d   1     -12.514  14.407 -19.412  0.00  0.00     0.087 H 
ATOM     96  CG  PRO d   1      -9.666  14.097 -19.543  0.00  0.00    -0.048 C 
ATOM     97  H58 PRO d   1     -10.856  15.309 -20.889  0.00  0.00     0.036 H 
ATOM     98  H59 PRO d   1     -10.414  13.693 -21.536  0.00  0.00     0.036 H 
ATOM     99  H60 PRO d   1      -9.749  14.914 -18.811  0.00  0.00     0.035 H 
ATOM    100  H61 PRO d   1      -8.653  14.090 -19.971  0.00  0.00     0.035 H 
ATOM    101  H62 PRO d   1      -9.414  11.956 -19.375  0.00  0.00     0.064 H 
ATOM    102  H63 PRO d   1      -9.745  12.792 -17.820  0.00  0.00     0.064 H 
BRANCH  92 103
ATOM    103  C   PRO d   1     -12.912  13.043 -21.043  0.00  0.00     0.241 C 
ATOM    104  O   PRO d   1     -12.611  11.968 -21.576  0.00  0.00    -0.271 OA
ATOM    105  N   ARG d   1     -14.049  13.705 -21.307  0.00  0.00    -0.345 N 
ATOM    106  H64 ARG d   1     -14.214  14.584 -20.858  0.00  0.00     0.163 HD
BRANCH 105 107
ATOM    107  CA  ARG d   1     -15.063  13.177 -22.238  0.00  0.00     0.096 C 
ATOM    108  H65 ARG d   1     -15.371  12.186 -21.872  0.00  0.00     0.089 H 
BRANCH 107 109
ATOM    109  C   ARG d   1     -14.512  13.013 -23.656  0.00  0.00     0.196 C 
ATOM    110  O   ARG d   1     -13.988  13.999 -24.240  0.00  0.00    -0.646 OA
ATOM    111  O   ARG d   1     -14.582  11.897 -24.237  0.00  0.00    -0.646 OA
ENDBRANCH 107 109
BRANCH 107 112
ATOM    112  CB  ARG d   1     -16.300  14.081 -22.284  0.00  0.00    -0.035 C 
ATOM    113  H66 ARG d   1     -16.707  14.049 -23.305  0.00  0.00     0.036 H 
ATOM    114  H67 ARG d   1     -15.981  15.107 -22.049  0.00  0.00     0.036 H 
BRANCH 112 115
ATOM    115  CG  ARG d   1     -17.411  13.704 -21.324  0.00  0.00    -0.047 C 
ATOM    116  H68 ARG d   1     -16.976  13.318 -20.390  0.00  0.00     0.035 H 
ATOM    117  H69 ARG d   1     -18.046  12.930 -21.780  0.00  0.00     0.035 H 
BRANCH 115 118
ATOM    118  CD  ARG d   1     -18.245  14.934 -21.025  0.00  0.00     0.009 C 
ATOM    119  H70 ARG d   1     -18.747  15.245 -21.953  0.00  0.00     0.064 H 
ATOM    120  H71 ARG d   1     -17.571  15.735 -20.686  0.00  0.00     0.064 H 
BRANCH 118 121
ATOM    121  NE  ARG d   1     -19.267  14.727 -19.997  0.00  0.00    -0.227 N 
ATOM    122  CZ  ARG d   1     -19.146  15.071 -18.713  0.00  0.00     0.665 C 
ATOM    123  NH1 ARG d   1     -18.028  15.627 -18.272  0.00  0.00    -0.235 N 
ATOM    124  NH2 ARG d   1     -20.145  14.854 -17.862  0.00  0.00    -0.235 N 
ATOM    125  H73 ARG d   1     -17.940  15.890 -17.280  0.00  0.00     0.174 HD
ATOM    126  H74 ARG d   1     -17.246  15.796 -18.921  0.00  0.00     0.174 HD
ATOM    127  H75 ARG d   1     -21.019  14.422 -18.194  0.00  0.00     0.174 HD
ATOM    128  H76 ARG d   1     -20.044  15.118 -16.872  0.00  0.00     0.174 HD
ATOM    129  H72 ARG d   1     -20.149  14.281 -20.288  0.00  0.00     0.177 HD
ENDBRANCH 118 121
ENDBRANCH 115 118
ENDBRANCH 112 115
ENDBRANCH 107 112
ENDBRANCH 105 107
ENDBRANCH  92 103
ENDBRANCH  87  89
BRANCH  87 130
ATOM    130  CB  ARG d   1     -11.143   9.549 -18.662  0.00  0.00    -0.036 C 
ATOM    131  H46 ARG d   1     -10.662   8.730 -18.108  0.00  0.00     0.036 H 
ATOM    132  H47 ARG d   1     -10.424   9.984 -19.372  0.00  0.00     0.036 H 
BRANCH 130 133
ATOM    133  CG  ARG d   1     -12.313   8.984 -19.443  0.00  0.00    -0.048 C 
ATOM    134  H48 ARG d   1     -13.059   9.776 -19.601  0.00  0.00     0.035 H 
ATOM    135  H49 ARG d   1     -12.767   8.161 -18.871  0.00  0.00     0.035 H 
BRANCH 133 136
ATOM    136  CD  ARG d   1     -11.852   8.463 -20.781  0.00  0.00     0.009 C 
ATOM    137  H50 ARG d   1     -11.097   7.676 -20.636  0.00  0.00     0.064 H 
ATOM    138  H51 ARG d   1     -11.418   9.283 -21.372  0.00  0.00     0.064 H 
BRANCH 136 139
ATOM    139  NE  ARG d   1     -13.012   7.914 -21.473  0.00  0.00    -0.227 N 
ATOM    140  CZ  ARG d   1     -13.031   7.501 -22.731  0.00  0.00     0.665 C 
ATOM    141  NH1 ARG d   1     -11.941   7.552 -23.478  0.00  0.00    -0.235 N 
ATOM    142  NH2 ARG d   1     -14.154   7.024 -23.235  0.00  0.00    -0.235 N 
ATOM    143  H53 ARG d   1     -11.971   7.227 -24.455  0.00  0.00     0.174 HD
ATOM    144  H54 ARG d   1     -11.062   7.917 -23.083  0.00  0.00     0.174 HD
ATOM    145  H55 ARG d   1     -15.003   6.984 -22.654  0.00  0.00     0.174 HD
ATOM    146  H56 ARG d   1     -14.181   6.692 -24.210  0.00  0.00     0.174 HD
ATOM    147  H52 ARG d   1     -13.890   7.841 -20.939  0.00  0.00     0.177 HD
ENDBRANCH 136 139
ENDBRANCH 133 136
ENDBRANCH 130 133
ENDBRANCH  87 130
ENDBRANCH  85  87
ENDBRANCH   2  83
TORSDOF 27
