REMARK  24 active torsions:
REMARK  status: ('A' for Active; 'I' for Inactive)
REMARK    1  A    between atoms: CA_2  and  C_3 
REMARK       I    between atoms: C_3  and  N_8 
REMARK    2  A    between atoms: CA_9  and  C_10 
REMARK       I    between atoms: C_10  and  N_15 
REMARK    3  A    between atoms: N_15  and  CA_16 
REMARK    4  A    between atoms: CA_16  and  C_17 
REMARK    5  A    between atoms: CA_16  and  CB_19 
REMARK       I    between atoms: C_17  and  N_26 
REMARK    6  A    between atoms: CB_19  and  CG_20 
REMARK    7  A    between atoms: CG_20  and  CD_21 
REMARK    8  A    between atoms: CD_21  and  NE_22 
REMARK       I    between atoms: NE_22  and  CZ_23 
REMARK       I    between atoms: CZ_23  and  NH1_24 
REMARK    9  A    between atoms: CA_27  and  C_28 
REMARK       I    between atoms: C_28  and  N_33 
REMARK   10  A    between atoms: N_33  and  CA_34 
REMARK   11  A    between atoms: CA_34  and  C_35 
REMARK   12  A    between atoms: CA_34  and  CB_37 
REMARK       I    between atoms: C_35  and  N_41 
REMARK   13  A    between atoms: CB_37  and  CG1_38 
REMARK   14  A    between atoms: CB_37  and  CG2_39 
REMARK   15  A    between atoms: CG1_38  and  CD1_40 
REMARK   16  A    between atoms: N_41  and  CA_42 
REMARK   17  A    between atoms: CA_42  and  C_43 
REMARK   18  A    between atoms: CA_42  and  CB_45 
REMARK       I    between atoms: C_43  and  N_53 
REMARK   19  A    between atoms: CB_45  and  CG_46 
REMARK   20  A    between atoms: CZ_51  and  OH_52 
REMARK   21  A    between atoms: N_53  and  CA_54 
REMARK   22  A    between atoms: CA_54  and  C_55 
REMARK   23  A    between atoms: CA_54  and  CB_57 
REMARK   24  A    between atoms: CB_57  and  CG_58 
REMARK       I    between atoms: CG_58  and  ND2_60 
ROOT
ATOM      1  N   PRO d   1     -10.284 -28.313 -10.559  0.00  0.00    -0.337 N 
ATOM      2  CA  PRO d   1      -9.884 -28.832 -11.870  0.00  0.00     0.091 C 
ATOM      3  CB  PRO d   1     -10.655 -27.955 -12.835  0.00  0.00    -0.036 C 
ATOM      4  CG  PRO d   1     -11.881 -27.592 -12.059  0.00  0.00    -0.048 C 
ATOM      5  CD  PRO d   1     -11.368 -27.324 -10.681  0.00  0.00    -0.001 C 
ATOM      6  H30 PRO d   1     -10.144 -29.895 -11.986  0.00  0.00     0.087 H 
ATOM      7  H31 PRO d   1     -10.916 -28.508 -13.749  0.00  0.00     0.036 H 
ATOM      8  H32 PRO d   1     -10.077 -27.058 -13.102  0.00  0.00     0.036 H 
ATOM      9  H33 PRO d   1     -12.601 -28.423 -12.054  0.00  0.00     0.035 H 
ATOM     10  H34 PRO d   1     -12.359 -26.695 -12.480  0.00  0.00     0.035 H 
ATOM     11  H35 PRO d   1     -10.984 -26.297 -10.590  0.00  0.00     0.064 H 
ATOM     12  H36 PRO d   1     -12.149 -27.492  -9.925  0.00  0.00     0.064 H 
ATOM     13  C   ARG d   1      -9.840 -28.898  -9.443  0.00  0.00     0.243 C 
ATOM     14  O   ARG d   1      -9.065 -29.856  -9.447  0.00  0.00    -0.271 OA
ENDROOT
BRANCH   2  15
ATOM     15  C   PRO d   1      -8.404 -28.626 -12.070  0.00  0.00     0.241 C 
ATOM     16  O   PRO d   1      -7.819 -27.729 -11.482  0.00  0.00    -0.271 OA
ATOM     17  N   ILE d   1      -7.794 -29.494 -12.854  0.00  0.00    -0.346 N 
ATOM     18  H37 ILE d   1      -8.302 -30.277 -13.212  0.00  0.00     0.163 HD
BRANCH  17  19
ATOM     19  CA  ILE d   1      -6.441 -29.333 -13.192  0.00  0.00     0.092 C 
ATOM     20  H38 ILE d   1      -6.025 -28.475 -12.644  0.00  0.00     0.088 H 
BRANCH  19  21
ATOM     21  C   ILE d   1      -6.434 -29.030 -14.656  0.00  0.00     0.241 C 
ATOM     22  O   ILE d   1      -7.197 -29.572 -15.406  0.00  0.00    -0.271 OA
ATOM     23  N   TYR d   1      -5.575 -28.100 -15.029  0.00  0.00    -0.346 N 
ATOM     24  H48 TYR d   1      -4.888 -27.797 -14.368  0.00  0.00     0.163 HD
BRANCH  23  25
ATOM     25  CA  TYR d   1      -5.575 -27.501 -16.334  0.00  0.00     0.093 C 
ATOM     26  H49 TYR d   1      -6.469 -27.809 -16.896  0.00  0.00     0.088 H 
BRANCH  25  27
ATOM     27  C   TYR d   1      -4.340 -27.886 -17.067  0.00  0.00     0.241 C 
ATOM     28  O   TYR d   1      -3.253 -27.613 -16.592  0.00  0.00    -0.271 OA
ATOM     29  N   ASN d   1      -4.484 -28.444 -18.253  0.00  0.00    -0.344 N 
ATOM     30  H57 ASN d   1      -5.379 -28.425 -18.698  0.00  0.00     0.163 HD
BRANCH  29  31
ATOM     31  CA  ASN d   1      -3.353 -29.094 -18.935  0.00  0.00     0.104 C 
ATOM     32  H58 ASN d   1      -2.705 -29.473 -18.131  0.00  0.00     0.090 H 
BRANCH  31  33
ATOM     33  C   ASN d   1      -2.429 -28.215 -19.812  0.00  0.00     0.197 C 
ATOM     34  O   ASN d   1      -2.860 -27.254 -20.504  0.00  0.00    -0.646 OA
ATOM     35  O   ASN d   1      -1.195 -28.471 -19.835  0.00  0.00    -0.646 OA
ENDBRANCH  31  33
BRANCH  31  36
ATOM     36  CB  ASN d   1      -3.867 -30.321 -19.703  0.00  0.00     0.037 C 
ATOM     37  H59 ASN d   1      -3.028 -31.015 -19.860  0.00  0.00     0.051 H 
ATOM     38  H60 ASN d   1      -4.256 -29.990 -20.677  0.00  0.00     0.051 H 
BRANCH  36  39
ATOM     39  CG  ASN d   1      -4.983 -31.060 -18.953  0.00  0.00     0.217 C 
ATOM     40  OD1 ASN d   1      -5.909 -31.611 -19.568  0.00  0.00    -0.274 OA
ATOM     41  ND2 ASN d   1      -4.910 -31.059 -17.616  0.00  0.00    -0.370 N 
ATOM     42  H61 ASN d   1      -5.611 -31.526 -17.077  0.00  0.00     0.159 HD
ATOM     43  H62 ASN d   1      -4.154 -30.592 -17.157  0.00  0.00     0.159 HD
ENDBRANCH  36  39
ENDBRANCH  31  36
ENDBRANCH  29  31
ENDBRANCH  25  27
BRANCH  25  44
ATOM     44  CB  TYR d   1      -5.537 -25.992 -16.159  0.00  0.00    -0.014 C 
ATOM     45  H50 TYR d   1      -4.680 -25.727 -15.523  0.00  0.00     0.043 H 
ATOM     46  H51 TYR d   1      -6.469 -25.664 -15.675  0.00  0.00     0.043 H 
BRANCH  44  47
ATOM     47  CG  TYR d   1      -5.402 -25.302 -17.462  0.00  0.00    -0.056 A 
ATOM     48  CD1 TYR d   1      -4.390 -24.390 -17.673  0.00  0.00    -0.074 A 
ATOM     49  CE1 TYR d   1      -4.256 -23.757 -18.895  0.00  0.00    -0.051 A 
ATOM     50  H52 TYR d   1      -3.693 -24.167 -16.873  0.00  0.00     0.084 H 
ATOM     51  CZ  TYR d   1      -5.149 -24.061 -19.916  0.00  0.00     0.065 A 
ATOM     52  H54 TYR d   1      -3.465 -23.033 -19.055  0.00  0.00     0.087 H 
ATOM     53  CE2 TYR d   1      -6.169 -24.978 -19.731  0.00  0.00    -0.051 A 
ATOM     54  CD2 TYR d   1      -6.284 -25.598 -18.508  0.00  0.00    -0.074 A 
ATOM     55  H55 TYR d   1      -6.863 -25.203 -20.533  0.00  0.00     0.087 H 
ATOM     56  H53 TYR d   1      -7.070 -26.328 -18.352  0.00  0.00     0.084 H 
BRANCH  51  57
ATOM     57  OH  TYR d   1      -5.028 -23.451 -21.130  0.00  0.00    -0.361 OA
ATOM     58  H56 TYR d   1      -4.290 -22.852 -21.110  0.00  0.00     0.217 HD
ENDBRANCH  51  57
ENDBRANCH  44  47
ENDBRANCH  25  44
ENDBRANCH  23  25
ENDBRANCH  19  21
BRANCH  19  59
ATOM     59  CB  ILE d   1      -5.623 -30.562 -12.828  0.00  0.00    -0.030 C 
ATOM     60  H39 ILE d   1      -5.931 -30.919 -11.834  0.00  0.00     0.043 H 
BRANCH  59  61
ATOM     61  CG1 ILE d   1      -4.139 -30.159 -12.768  0.00  0.00    -0.063 C 
ATOM     62  H40 ILE d   1      -4.083 -29.137 -12.366  0.00  0.00     0.033 H 
ATOM     63  H41 ILE d   1      -3.744 -30.171 -13.795  0.00  0.00     0.033 H 
BRANCH  61  64
ATOM     64  CD1 ILE d   1      -3.243 -31.048 -11.912  0.00  0.00    -0.076 C 
ATOM     65  H45 ILE d   1      -2.212 -30.667 -11.943  0.00  0.00     0.027 H 
ATOM     66  H46 ILE d   1      -3.266 -32.076 -12.302  0.00  0.00     0.027 H 
ATOM     67  H47 ILE d   1      -3.605 -31.042 -10.873  0.00  0.00     0.027 H 
ENDBRANCH  61  64
ENDBRANCH  59  61
BRANCH  59  68
ATOM     68  CG2 ILE d   1      -5.877 -31.658 -13.823  0.00  0.00    -0.071 C 
ATOM     69  H42 ILE d   1      -6.948 -31.908 -13.827  0.00  0.00     0.028 H 
ATOM     70  H43 ILE d   1      -5.294 -32.548 -13.545  0.00  0.00     0.028 H 
ATOM     71  H44 ILE d   1      -5.575 -31.320 -14.825  0.00  0.00     0.028 H 
ENDBRANCH  59  68
ENDBRANCH  19  59
ENDBRANCH  17  19
ENDBRANCH   2  15
BRANCH  13  72
ATOM     72  CA  ARG d   1     -10.279 -28.319  -8.131  0.00  0.00     0.089 C 
ATOM     73  H18 ARG d   1     -11.309 -27.935  -8.168  0.00  0.00     0.087 H 
BRANCH  72  74
ATOM     74  N   ARG d   1     -10.135 -29.428  -7.215  0.00  0.00    -0.346 N 
ATOM     75  C   PRO d   1     -11.043 -30.401  -7.097  0.00  0.00     0.241 C 
ATOM     76  O   PRO d   1     -12.076 -30.431  -7.735  0.00  0.00    -0.271 OA
ATOM     77  H17 ARG d   1      -9.316 -29.469  -6.642  0.00  0.00     0.163 HD
BRANCH  75  78
ATOM     78  CA  PRO d   1     -10.740 -31.495  -6.053  0.00  0.00     0.091 C 
ATOM     79  N   PRO d   1     -11.921 -32.112  -5.488  0.00  0.00    -0.337 N 
ATOM     80  C   PRO d   1     -12.951 -31.435  -4.955  0.00  0.00     0.251 C 
ATOM     81  CD  PRO d   1     -11.841 -33.579  -5.541  0.00  0.00    -0.001 C 
ATOM     82  O   PRO d   1     -12.970 -30.201  -4.831  0.00  0.00    -0.271 OA
ATOM     83  CG  PRO d   1     -10.411 -33.840  -5.870  0.00  0.00    -0.048 C 
ATOM     84  H15 PRO d   1     -12.503 -33.981  -6.322  0.00  0.00     0.064 H 
ATOM     85  H16 PRO d   1     -12.108 -34.022  -4.570  0.00  0.00     0.064 H 
ATOM     86  CB  PRO d   1     -10.000 -32.671  -6.690  0.00  0.00    -0.036 C 
ATOM     87  H13 PRO d   1      -9.806 -33.904  -4.953  0.00  0.00     0.035 H 
ATOM     88  H14 PRO d   1     -10.308 -34.773  -6.443  0.00  0.00     0.035 H 
ATOM     89  H11 PRO d   1      -8.911 -32.522  -6.640  0.00  0.00     0.036 H 
ATOM     90  H12 PRO d   1     -10.304 -32.803  -7.739  0.00  0.00     0.036 H 
ATOM     91  H10 PRO d   1     -10.133 -31.049  -5.251  0.00  0.00     0.087 H 
BRANCH  80  92
ATOM     92  CA  PRO d   1     -14.137 -32.242  -4.490  0.00  0.00     0.178 C 
ATOM     93  N   PRO d   1     -14.836 -31.508  -3.463  0.00  0.00    -0.062 N 
ATOM     94  CD  PRO d   1     -16.235 -31.252  -3.815  0.00  0.00     0.083 C 
ATOM     95  H1  PRO d   1     -14.371 -30.625  -3.322  0.00  0.00     0.278 HD
ATOM     96  H2  PRO d   1     -14.809 -32.042  -2.608  0.00  0.00     0.278 HD
ATOM     97  CG  PRO d   1     -16.469 -32.176  -4.974  0.00  0.00    -0.040 C 
ATOM     98  H8  PRO d   1     -16.382 -30.203  -4.111  0.00  0.00     0.075 H 
ATOM     99  H9  PRO d   1     -16.904 -31.494  -2.976  0.00  0.00     0.075 H 
ATOM    100  CB  PRO d   1     -15.157 -32.325  -5.627  0.00  0.00    -0.028 C 
ATOM    101  H6  PRO d   1     -16.836 -33.151  -4.621  0.00  0.00     0.035 H 
ATOM    102  H7  PRO d   1     -17.199 -31.740  -5.672  0.00  0.00     0.035 H 
ATOM    103  H4  PRO d   1     -15.088 -33.297  -6.138  0.00  0.00     0.036 H 
ATOM    104  H5  PRO d   1     -14.993 -31.516  -6.354  0.00  0.00     0.036 H 
ATOM    105  H3  PRO d   1     -13.823 -33.238  -4.144  0.00  0.00     0.099 H 
ENDBRANCH  80  92
ENDBRANCH  75  78
ENDBRANCH  72  74
BRANCH  72 106
ATOM    106  CB  ARG d   1      -9.290 -27.225  -7.715  0.00  0.00    -0.036 C 
ATOM    107  H19 ARG d   1      -9.288 -26.451  -8.496  0.00  0.00     0.036 H 
ATOM    108  H20 ARG d   1      -8.290 -27.677  -7.644  0.00  0.00     0.036 H 
BRANCH 106 109
ATOM    109  CG  ARG d   1      -9.602 -26.551  -6.379  0.00  0.00    -0.048 C 
ATOM    110  H21 ARG d   1      -8.957 -25.669  -6.253  0.00  0.00     0.035 H 
ATOM    111  H22 ARG d   1      -9.419 -27.260  -5.558  0.00  0.00     0.035 H 
BRANCH 109 112
ATOM    112  CD  ARG d   1     -11.055 -26.122  -6.363  0.00  0.00     0.009 C 
ATOM    113  H23 ARG d   1     -11.681 -26.995  -6.598  0.00  0.00     0.064 H 
ATOM    114  H24 ARG d   1     -11.201 -25.349  -7.131  0.00  0.00     0.064 H 
BRANCH 112 115
ATOM    115  NE  ARG d   1     -11.478 -25.577  -5.061  0.00  0.00    -0.227 N 
ATOM    116  CZ  ARG d   1     -11.900 -26.287  -4.012  0.00  0.00     0.665 C 
ATOM    117  NH1 ARG d   1     -12.245 -25.665  -2.900  0.00  0.00    -0.235 N 
ATOM    118  NH2 ARG d   1     -11.998 -27.602  -4.060  0.00  0.00    -0.235 N 
ATOM    119  H26 ARG d   1     -12.571 -26.207  -2.087  0.00  0.00     0.174 HD
ATOM    120  H27 ARG d   1     -12.188 -24.638  -2.845  0.00  0.00     0.174 HD
ATOM    121  H28 ARG d   1     -11.734 -28.107  -4.918  0.00  0.00     0.174 HD
ATOM    122  H29 ARG d   1     -12.338 -28.123  -3.240  0.00  0.00     0.174 HD
ATOM    123  H25 ARG d   1     -11.445 -24.553  -4.950  0.00  0.00     0.177 HD
ENDBRANCH 112 115
ENDBRANCH 109 112
ENDBRANCH 106 109
ENDBRANCH  72 106
ENDBRANCH  13  72
TORSDOF 24
