REMARK WARNING: 32 MAX_TORS EXCEEDED!!!
REMARK  37 active torsions:
REMARK  status: ('A' for Active; 'I' for Inactive)
REMARK    1  A    between atoms: CA_2  and  C_3 
REMARK       I    between atoms: C_3  and  N_8 
REMARK    2  A    between atoms: N_8  and  CA_9 
REMARK    3  A    between atoms: CA_9  and  C_10 
REMARK    4  A    between atoms: CA_9  and  CB_12 
REMARK       I    between atoms: C_10  and  N_19 
REMARK    5  A    between atoms: CB_12  and  CG_13 
REMARK    6  A    between atoms: CG_13  and  CD_14 
REMARK    7  A    between atoms: CD_14  and  NE_15 
REMARK       I    between atoms: NE_15  and  CZ_16 
REMARK       I    between atoms: CZ_16  and  NH1_17 
REMARK       I    between atoms: CZ_16  and  NH2_18 
REMARK    8  A    between atoms: N_19  and  CA_20 
REMARK    9  A    between atoms: CA_20  and  C_21 
REMARK   10  A    between atoms: CA_20  and  CB_23 
REMARK       I    between atoms: C_21  and  N_30 
REMARK   11  A    between atoms: CB_23  and  CG_24 
REMARK   12  A    between atoms: CG_24  and  CD_25 
REMARK   13  A    between atoms: CD_25  and  NE_26 
REMARK       I    between atoms: NE_26  and  CZ_27 
REMARK       I    between atoms: CZ_27  and  NH1_28 
REMARK       I    between atoms: CZ_27  and  NH2_29 
REMARK   14  A    between atoms: CA_31  and  C_32 
REMARK       I    between atoms: C_32  and  N_37 
REMARK   15  A    between atoms: N_37  and  CA_38 
REMARK   16  A    between atoms: CA_38  and  C_39 
REMARK   17  A    between atoms: CA_38  and  CB_41 
REMARK       I    between atoms: C_39  and  N_44 
REMARK   18  A    between atoms: CB_41  and  CG1_42 
REMARK   19  A    between atoms: CB_41  and  CG2_43 
REMARK   20  A    between atoms: N_44  and  CA_45 
REMARK   21  A    between atoms: CA_45  and  C_46 
REMARK   22  A    between atoms: CA_45  and  CB_48 
REMARK       I    between atoms: C_46  and  N_52 
REMARK   23  A    between atoms: CB_48  and  CG1_49 
REMARK   24  A    between atoms: CB_48  and  CG2_50 
REMARK   25  A    between atoms: CG1_49  and  CD1_51 
REMARK   26  A    between atoms: N_52  and  CA_53 
REMARK   27  A    between atoms: CA_53  and  C_54 
REMARK   28  A    between atoms: CA_53  and  CB_56 
REMARK       I    between atoms: C_54  and  N_60 
REMARK   29  A    between atoms: CB_56  and  CG_57 
REMARK   30  A    between atoms: CG_57  and  SD_58 
REMARK   31  A    between atoms: SD_58  and  CE_59 
REMARK   32  A    between atoms: N_60  and  CA_61 
REMARK   33  A    between atoms: CA_61  and  C_62 
REMARK   34  A    between atoms: CA_61  and  CB_64 
REMARK       I    between atoms: C_62  and  N_71 
REMARK   35  A    between atoms: CB_64  and  CG_65 
REMARK   36  A    between atoms: CG_65  and  CD_66 
REMARK   37  A    between atoms: CD_66  and  NE_67 
REMARK       I    between atoms: NE_67  and  CZ_68 
REMARK       I    between atoms: CZ_68  and  NH1_69 
ROOT
ATOM      1  C   PRO d   1      55.590  87.957  31.226  0.00  0.00     0.241 C 
ATOM      2  O   PRO d   1      55.022  88.939  30.712  0.00  0.00    -0.271 OA
ATOM      3  N   VAL d   1      55.006  87.089  32.037  0.00  0.00    -0.346 N 
ATOM      4  H43 VAL d   1      55.559  86.321  32.358  0.00  0.00     0.163 HD
ENDROOT
BRANCH   3   5
ATOM      5  CA  VAL d   1      53.648  87.155  32.495  0.00  0.00     0.092 C 
ATOM      6  H44 VAL d   1      53.010  87.788  31.861  0.00  0.00     0.088 H 
BRANCH   5   7
ATOM      7  C   VAL d   1      53.716  87.624  33.915  0.00  0.00     0.241 C 
ATOM      8  O   VAL d   1      54.609  87.153  34.646  0.00  0.00    -0.271 OA
ATOM      9  N   ILE d   1      52.832  88.549  34.323  0.00  0.00    -0.346 N 
ATOM     10  H52 ILE d   1      52.223  88.980  33.657  0.00  0.00     0.163 HD
BRANCH   9  11
ATOM     11  CA  ILE d   1      52.750  88.935  35.742  0.00  0.00     0.092 C 
ATOM     12  H53 ILE d   1      53.715  89.356  36.060  0.00  0.00     0.088 H 
BRANCH  11  13
ATOM     13  C   ILE d   1      52.488  87.626  36.487  0.00  0.00     0.241 C 
ATOM     14  O   ILE d   1      51.479  86.985  36.230  0.00  0.00    -0.271 OA
ATOM     15  N   MET d   1      53.440  87.184  37.316  0.00  0.00    -0.346 N 
ATOM     16  H63 MET d   1      54.281  87.714  37.425  0.00  0.00     0.163 HD
BRANCH  15  17
ATOM     17  CA  MET d   1      53.269  85.921  38.076  0.00  0.00     0.090 C 
ATOM     18  H64 MET d   1      53.181  85.103  37.345  0.00  0.00     0.087 H 
BRANCH  17  19
ATOM     19  C   MET d   1      51.976  85.973  38.885  0.00  0.00     0.241 C 
ATOM     20  O   MET d   1      51.584  87.033  39.413  0.00  0.00    -0.271 OA
ATOM     21  N   ARG d   1      51.307  84.823  38.907  0.00  0.00    -0.346 N 
ATOM     22  H72 ARG d   1      51.663  84.071  38.353  0.00  0.00     0.163 HD
BRANCH  21  23
ATOM     23  CA  ARG d   1      50.094  84.576  39.678  0.00  0.00     0.089 C 
ATOM     24  H73 ARG d   1      49.390  85.409  39.537  0.00  0.00     0.087 H 
BRANCH  23  25
ATOM     25  C   ARG d   1      50.498  84.496  41.159  0.00  0.00     0.238 C 
ATOM     26  O   ARG d   1      51.556  83.940  41.512  0.00  0.00    -0.271 OA
ATOM     27  N   ARG d   1      49.684  85.087  42.017  0.00  0.00    -0.368 N 
ATOM     28  H85 ARG d   1      49.891  85.070  42.995  0.00  0.00     0.159 HD
ATOM     29  H86 ARG d   1      48.861  85.550  41.688  0.00  0.00     0.159 HD
ENDBRANCH  23  25
BRANCH  23  30
ATOM     30  CB  ARG d   1      49.418  83.264  39.199  0.00  0.00    -0.036 C 
ATOM     31  H74 ARG d   1      48.503  83.126  39.793  0.00  0.00     0.036 H 
ATOM     32  H75 ARG d   1      50.115  82.438  39.402  0.00  0.00     0.036 H 
BRANCH  30  33
ATOM     33  CG  ARG d   1      49.022  83.186  37.705  0.00  0.00    -0.048 C 
ATOM     34  H76 ARG d   1      48.571  84.151  37.431  0.00  0.00     0.035 H 
ATOM     35  H77 ARG d   1      48.272  82.388  37.602  0.00  0.00     0.035 H 
BRANCH  33  36
ATOM     36  CD  ARG d   1      50.158  82.895  36.687  0.00  0.00     0.009 C 
ATOM     37  H78 ARG d   1      51.106  82.922  37.244  0.00  0.00     0.064 H 
ATOM     38  H79 ARG d   1      50.145  83.708  35.947  0.00  0.00     0.064 H 
BRANCH  36  39
ATOM     39  NE  ARG d   1      50.132  81.614  35.930  0.00  0.00    -0.227 N 
ATOM     40  CZ  ARG d   1      49.091  80.780  35.769  0.00  0.00     0.665 C 
ATOM     41  NH1 ARG d   1      47.893  81.035  36.297  0.00  0.00    -0.235 N 
ATOM     42  NH2 ARG d   1      49.246  79.669  35.055  0.00  0.00    -0.235 N 
ATOM     43  H81 ARG d   1      47.116  80.374  36.154  0.00  0.00     0.174 HD
ATOM     44  H82 ARG d   1      47.745  81.893  36.847  0.00  0.00     0.174 HD
ATOM     45  H83 ARG d   1      50.161  79.449  34.637  0.00  0.00     0.174 HD
ATOM     46  H84 ARG d   1      48.451  79.028  34.920  0.00  0.00     0.174 HD
ATOM     47  H80 ARG d   1      51.014  81.335  35.477  0.00  0.00     0.177 HD
ENDBRANCH  36  39
ENDBRANCH  33  36
ENDBRANCH  30  33
ENDBRANCH  23  30
ENDBRANCH  21  23
ENDBRANCH  17  19
BRANCH  17  48
ATOM     48  CB  MET d   1      54.464  85.597  38.988  0.00  0.00    -0.030 C 
ATOM     49  H65 MET d   1      54.425  86.266  39.861  0.00  0.00     0.037 H 
ATOM     50  H66 MET d   1      55.390  85.784  38.424  0.00  0.00     0.037 H 
BRANCH  48  51
ATOM     51  CG  MET d   1      54.490  84.141  39.494  0.00  0.00    -0.021 C 
ATOM     52  H67 MET d   1      54.750  83.499  38.640  0.00  0.00     0.049 H 
ATOM     53  H68 MET d   1      53.477  83.894  39.843  0.00  0.00     0.049 H 
BRANCH  51  54
ATOM     54  SD  MET d   1      55.643  83.749  40.843  0.00  0.00    -0.173 SA
BRANCH  54  55
ATOM     55  CE  MET d   1      55.794  81.982  40.693  0.00  0.00    -0.035 C 
ATOM     56  H69 MET d   1      56.479  81.606  41.467  0.00  0.00     0.041 H 
ATOM     57  H70 MET d   1      56.191  81.731  39.698  0.00  0.00     0.041 H 
ATOM     58  H71 MET d   1      54.805  81.517  40.821  0.00  0.00     0.041 H 
ENDBRANCH  54  55
ENDBRANCH  51  54
ENDBRANCH  48  51
ENDBRANCH  17  48
ENDBRANCH  15  17
ENDBRANCH  11  13
BRANCH  11  59
ATOM     59  CB  ILE d   1      51.644  89.992  36.036  0.00  0.00    -0.030 C 
ATOM     60  H54 ILE d   1      50.716  89.682  35.533  0.00  0.00     0.043 H 
BRANCH  59  61
ATOM     61  CG1 ILE d   1      52.066  91.372  35.519  0.00  0.00    -0.063 C 
ATOM     62  H55 ILE d   1      53.165  91.419  35.529  0.00  0.00     0.033 H 
ATOM     63  H56 ILE d   1      51.661  92.132  36.204  0.00  0.00     0.033 H 
BRANCH  61  64
ATOM     64  CD1 ILE d   1      51.593  91.703  34.116  0.00  0.00    -0.076 C 
ATOM     65  H60 ILE d   1      51.944  92.708  33.838  0.00  0.00     0.027 H 
ATOM     66  H61 ILE d   1      50.494  91.677  34.084  0.00  0.00     0.027 H 
ATOM     67  H62 ILE d   1      51.998  90.964  33.409  0.00  0.00     0.027 H 
ENDBRANCH  61  64
ENDBRANCH  59  61
BRANCH  59  68
ATOM     68  CG2 ILE d   1      51.385  90.113  37.556  0.00  0.00    -0.071 C 
ATOM     69  H57 ILE d   1      51.080  89.134  37.955  0.00  0.00     0.028 H 
ATOM     70  H58 ILE d   1      50.586  90.847  37.734  0.00  0.00     0.028 H 
ATOM     71  H59 ILE d   1      52.306  90.443  38.060  0.00  0.00     0.028 H 
ENDBRANCH  59  68
ENDBRANCH  11  59
ENDBRANCH   9  11
ENDBRANCH   5   7
BRANCH   5  72
ATOM     72  CB  VAL d   1      53.175  85.730  32.573  0.00  0.00    -0.033 C 
ATOM     73  H45 VAL d   1      53.824  85.167  33.260  0.00  0.00     0.042 H 
BRANCH  72  74
ATOM     74  CG1 VAL d   1      51.749  85.634  33.085  0.00  0.00    -0.071 C 
ATOM     75  H46 VAL d   1      51.444  84.578  33.126  0.00  0.00     0.028 H 
ATOM     76  H47 VAL d   1      51.078  86.183  32.407  0.00  0.00     0.028 H 
ATOM     77  H48 VAL d   1      51.691  86.072  34.093  0.00  0.00     0.028 H 
ENDBRANCH  72  74
BRANCH  72  78
ATOM     78  CG2 VAL d   1      53.323  85.170  31.174  0.00  0.00    -0.071 C 
ATOM     79  H49 VAL d   1      54.370  85.263  30.851  0.00  0.00     0.028 H 
ATOM     80  H50 VAL d   1      52.675  85.731  30.484  0.00  0.00     0.028 H 
ATOM     81  H51 VAL d   1      53.031  84.109  31.171  0.00  0.00     0.028 H 
ENDBRANCH  72  78
ENDBRANCH   5  72
ENDBRANCH   3   5
BRANCH   1  82
ATOM     82  CA  PRO d   1      57.055  87.678  30.948  0.00  0.00     0.091 C 
ATOM     83  N   PRO d   1      57.461  88.066  29.597  0.00  0.00    -0.337 N 
ATOM     84  C   ARG d   1      56.911  87.513  28.500  0.00  0.00     0.243 C 
ATOM     85  CD  PRO d   1      58.394  89.201  29.569  0.00  0.00    -0.001 C 
ATOM     86  O   ARG d   1      56.219  86.508  28.540  0.00  0.00    -0.271 OA
ATOM     87  CG  PRO d   1      59.003  89.171  30.959  0.00  0.00    -0.048 C 
ATOM     88  H41 PRO d   1      57.862  90.147  29.390  0.00  0.00     0.064 H 
ATOM     89  H42 PRO d   1      59.164  89.062  28.796  0.00  0.00     0.064 H 
ATOM     90  CB  PRO d   1      57.973  88.513  31.871  0.00  0.00    -0.036 C 
ATOM     91  H39 PRO d   1      59.934  88.585  30.953  0.00  0.00     0.035 H 
ATOM     92  H40 PRO d   1      59.216  90.194  31.302  0.00  0.00     0.035 H 
ATOM     93  H37 PRO d   1      58.472  87.862  32.603  0.00  0.00     0.036 H 
ATOM     94  H38 PRO d   1      57.387  89.279  32.401  0.00  0.00     0.036 H 
ATOM     95  H36 PRO d   1      57.240  86.604  31.100  0.00  0.00     0.087 H 
BRANCH  84  96
ATOM     96  CA  ARG d   1      57.232  88.160  27.156  0.00  0.00     0.089 C 
ATOM     97  H24 ARG d   1      58.254  88.567  27.169  0.00  0.00     0.087 H 
BRANCH  96  98
ATOM     98  N   ARG d   1      57.108  87.115  26.147  0.00  0.00    -0.346 N 
ATOM     99  C   ARG d   1      58.088  86.226  25.969  0.00  0.00     0.241 C 
ATOM    100  O   ARG d   1      59.205  86.357  26.480  0.00  0.00    -0.271 OA
ATOM    101  H23 ARG d   1      56.283  87.064  25.584  0.00  0.00     0.163 HD
BRANCH  99 102
ATOM    102  CA  ARG d   1      57.747  85.037  25.043  0.00  0.00     0.089 C 
ATOM    103  H11 ARG d   1      57.149  85.463  24.224  0.00  0.00     0.087 H 
BRANCH 102 104
ATOM    104  N   ARG d   1      58.858  84.362  24.409  0.00  0.00    -0.346 N 
ATOM    105  C   PRO d   1      59.764  85.070  23.754  0.00  0.00     0.249 C 
ATOM    106  O   PRO d   1      59.647  86.284  23.574  0.00  0.00    -0.271 OA
ATOM    107  H10 ARG d   1      58.941  83.367  24.465  0.00  0.00     0.163 HD
BRANCH 105 108
ATOM    108  CA  PRO d   1      60.993  84.342  23.209  0.00  0.00     0.178 C 
ATOM    109  N   PRO d   1      61.669  85.173  22.229  0.00  0.00    -0.062 N 
ATOM    110  CD  PRO d   1      63.137  85.124  22.380  0.00  0.00     0.083 C 
ATOM    111  H1  PRO d   1      61.362  86.126  22.343  0.00  0.00     0.278 HD
ATOM    112  H2  PRO d   1      61.426  84.850  21.306  0.00  0.00     0.278 HD
ATOM    113  CG  PRO d   1      63.326  84.197  23.555  0.00  0.00    -0.040 C 
ATOM    114  H8  PRO d   1      63.546  86.122  22.594  0.00  0.00     0.075 H 
ATOM    115  H9  PRO d   1      63.614  84.719  21.476  0.00  0.00     0.075 H 
ATOM    116  CB  PRO d   1      62.044  84.219  24.310  0.00  0.00    -0.028 C 
ATOM    117  H6  PRO d   1      63.545  83.177  23.205  0.00  0.00     0.035 H 
ATOM    118  H7  PRO d   1      64.150  84.551  24.192  0.00  0.00     0.035 H 
ATOM    119  H4  PRO d   1      61.908  83.290  24.883  0.00  0.00     0.036 H 
ATOM    120  H5  PRO d   1      62.003  85.081  24.993  0.00  0.00     0.036 H 
ATOM    121  H3  PRO d   1      60.710  83.363  22.795  0.00  0.00     0.099 H 
ENDBRANCH 105 108
ENDBRANCH 102 104
BRANCH 102 122
ATOM    122  CB  ARG d   1      56.862  84.023  25.757  0.00  0.00    -0.036 C 
ATOM    123  H12 ARG d   1      56.065  84.554  26.298  0.00  0.00     0.036 H 
ATOM    124  H13 ARG d   1      57.471  83.449  26.471  0.00  0.00     0.036 H 
BRANCH 122 125
ATOM    125  CG  ARG d   1      56.238  83.072  24.753  0.00  0.00    -0.048 C 
ATOM    126  H14 ARG d   1      55.745  82.250  25.293  0.00  0.00     0.035 H 
ATOM    127  H15 ARG d   1      57.027  82.664  24.105  0.00  0.00     0.035 H 
BRANCH 125 128
ATOM    128  CD  ARG d   1      55.198  83.798  23.884  0.00  0.00     0.009 C 
ATOM    129  H16 ARG d   1      55.166  83.310  22.899  0.00  0.00     0.064 H 
ATOM    130  H17 ARG d   1      55.514  84.845  23.765  0.00  0.00     0.064 H 
BRANCH 128 131
ATOM    131  NE  ARG d   1      53.843  83.783  24.455  0.00  0.00    -0.227 N 
ATOM    132  CZ  ARG d   1      53.225  82.670  24.849  0.00  0.00     0.665 C 
ATOM    133  NH1 ARG d   1      51.998  82.688  25.336  0.00  0.00    -0.235 N 
ATOM    134  NH2 ARG d   1      53.857  81.516  24.754  0.00  0.00    -0.235 N 
ATOM    135  H19 ARG d   1      51.548  81.810  25.632  0.00  0.00     0.174 HD
ATOM    136  H20 ARG d   1      51.490  83.580  25.420  0.00  0.00     0.174 HD
ATOM    137  H21 ARG d   1      54.815  81.483  24.377  0.00  0.00     0.174 HD
ATOM    138  H22 ARG d   1      53.393  80.648  25.057  0.00  0.00     0.174 HD
ATOM    139  H18 ARG d   1      53.346  84.679  24.556  0.00  0.00     0.177 HD
ENDBRANCH 128 131
ENDBRANCH 125 128
ENDBRANCH 122 125
ENDBRANCH 102 122
ENDBRANCH  99 102
ENDBRANCH  96  98
BRANCH  96 140
ATOM    140  CB  ARG d   1      56.236  89.277  26.820  0.00  0.00    -0.036 C 
ATOM    141  H25 ARG d   1      56.304  90.055  27.595  0.00  0.00     0.036 H 
ATOM    142  H26 ARG d   1      55.221  88.854  26.814  0.00  0.00     0.036 H 
BRANCH 140 143
ATOM    143  CG  ARG d   1      56.508  89.917  25.459  0.00  0.00    -0.048 C 
ATOM    144  H27 ARG d   1      55.756  90.693  25.255  0.00  0.00     0.035 H 
ATOM    145  H28 ARG d   1      56.466  89.150  24.672  0.00  0.00     0.035 H 
BRANCH 143 146
ATOM    146  CD  ARG d   1      57.877  90.533  25.496  0.00  0.00     0.009 C 
ATOM    147  H29 ARG d   1      58.577  89.758  25.843  0.00  0.00     0.064 H 
ATOM    148  H30 ARG d   1      57.848  91.355  26.226  0.00  0.00     0.064 H 
BRANCH 146 149
ATOM    149  NE  ARG d   1      58.415  91.080  24.240  0.00  0.00    -0.227 N 
ATOM    150  CZ  ARG d   1      58.879  90.358  23.218  0.00  0.00     0.665 C 
ATOM    151  NH1 ARG d   1      58.847  89.029  23.231  0.00  0.00    -0.235 N 
ATOM    152  NH2 ARG d   1      59.366  90.967  22.163  0.00  0.00    -0.235 N 
ATOM    153  H32 ARG d   1      59.212  88.497  22.428  0.00  0.00     0.174 HD
ATOM    154  H33 ARG d   1      58.457  88.531  24.044  0.00  0.00     0.174 HD
ATOM    155  H34 ARG d   1      59.400  91.996  22.132  0.00  0.00     0.174 HD
ATOM    156  H35 ARG d   1      59.714  90.416  21.365  0.00  0.00     0.174 HD
ATOM    157  H31 ARG d   1      58.435  92.105  24.142  0.00  0.00     0.177 HD
ENDBRANCH 146 149
ENDBRANCH 143 146
ENDBRANCH 140 143
ENDBRANCH  96 140
ENDBRANCH  84  96
ENDBRANCH   1  82
TORSDOF 37
