REMARK WARNING: 32 MAX_TORS EXCEEDED!!!
REMARK  35 active torsions:
REMARK  status: ('A' for Active; 'I' for Inactive)
REMARK    1  A    between atoms: N_1  and  CA_2 
REMARK    2  A    between atoms: CA_2  and  C_3 
REMARK    3  A    between atoms: CA_2  and  CB_5 
REMARK       I    between atoms: C_3  and  N_9 
REMARK    4  A    between atoms: CB_5  and  CG_6 
REMARK       I    between atoms: CG_6  and  ND2_8 
REMARK    5  A    between atoms: N_9  and  CA_10 
REMARK    6  A    between atoms: CA_10  and  C_11 
REMARK    7  A    between atoms: CA_10  and  CB_13 
REMARK       I    between atoms: C_11  and  N_20 
REMARK    8  A    between atoms: CB_13  and  CG_14 
REMARK    9  A    between atoms: CG_14  and  CD_15 
REMARK   10  A    between atoms: CD_15  and  NE_16 
REMARK       I    between atoms: NE_16  and  CZ_17 
REMARK       I    between atoms: CZ_17  and  NH1_18 
REMARK   11  A    between atoms: N_20  and  CA_21 
REMARK   12  A    between atoms: CA_21  and  C_22 
REMARK   13  A    between atoms: CA_21  and  CB_24 
REMARK       I    between atoms: C_22  and  N_28 
REMARK   14  A    between atoms: CB_24  and  CG_25 
REMARK   15  A    between atoms: CG_25  and  CD1_26 
REMARK   16  A    between atoms: CG_25  and  CD2_27 
REMARK   17  A    between atoms: N_28  and  CA_29 
REMARK   18  A    between atoms: CA_29  and  C_30 
REMARK   19  A    between atoms: CA_29  and  CB_32 
REMARK       I    between atoms: C_30  and  N_36 
REMARK   20  A    between atoms: CB_32  and  CG_33 
REMARK   21  A    between atoms: CG_33  and  CD1_34 
REMARK   22  A    between atoms: CG_33  and  CD2_35 
REMARK   23  A    between atoms: N_36  and  CA_37 
REMARK   24  A    between atoms: CA_37  and  C_38 
REMARK   25  A    between atoms: CA_37  and  CB_40 
REMARK       I    between atoms: C_38  and  N_44 
REMARK   26  A    between atoms: CB_40  and  CG_41 
REMARK   27  A    between atoms: CG_41  and  CD1_42 
REMARK   28  A    between atoms: CG_41  and  CD2_43 
REMARK   29  A    between atoms: N_44  and  CA_45 
REMARK   30  A    between atoms: CA_45  and  C_46 
REMARK   31  A    between atoms: CA_45  and  CB_48 
REMARK       I    between atoms: C_46  and  N_51 
REMARK   32  A    between atoms: CB_48  and  OG1_49 
REMARK   33  A    between atoms: CB_48  and  CG2_50 
REMARK   34  A    between atoms: N_51  and  CA_52 
REMARK   35  A    between atoms: CA_52  and  C_53 
ROOT
ATOM      1  C   LEU d   1      46.043  43.028  19.399  0.00  0.00     0.241 C 
ATOM      2  O   LEU d   1      44.891  43.413  19.518  0.00  0.00    -0.271 OA
ATOM      3  N   LEU d   1      46.519  42.558  18.270  0.00  0.00    -0.346 N 
ATOM      4  H33 LEU d   1      47.370  42.033  18.266  0.00  0.00     0.163 HD
ENDROOT
BRANCH   3   5
ATOM      5  CA  LEU d   1      45.782  42.809  16.979  0.00  0.00     0.089 C 
ATOM      6  H34 LEU d   1      44.833  43.320  17.199  0.00  0.00     0.087 H 
BRANCH   5   7
ATOM      7  C   LEU d   1      45.494  41.542  16.254  0.00  0.00     0.241 C 
ATOM      8  O   LEU d   1      46.189  40.500  16.450  0.00  0.00    -0.271 OA
ATOM      9  N   LEU d   1      44.406  41.568  15.443  0.00  0.00    -0.346 N 
ATOM     10  H44 LEU d   1      43.921  42.430  15.297  0.00  0.00     0.163 HD
BRANCH   9  11
ATOM     11  CA  LEU d   1      43.933  40.358  14.781  0.00  0.00     0.089 C 
ATOM     12  H45 LEU d   1      44.612  39.521  14.999  0.00  0.00     0.087 H 
BRANCH  11  13
ATOM     13  C   LEU d   1      43.883  40.656  13.281  0.00  0.00     0.241 C 
ATOM     14  O   LEU d   1      43.391  41.700  12.914  0.00  0.00    -0.271 OA
ATOM     15  N   THR d   1      44.348  39.682  12.498  0.00  0.00    -0.344 N 
ATOM     16  H55 THR d   1      44.784  38.874  12.894  0.00  0.00     0.163 HD
BRANCH  15  17
ATOM     17  CA  THR d   1      44.207  39.819  11.038  0.00  0.00     0.113 C 
ATOM     18  H56 THR d   1      44.235  40.889  10.782  0.00  0.00     0.091 H 
BRANCH  17  19
ATOM     19  C   THR d   1      42.855  39.253  10.598  0.00  0.00     0.243 C 
ATOM     20  O   THR d   1      42.097  38.657  11.369  0.00  0.00    -0.271 OA
ATOM     21  N   GLY d   1      42.589  39.416   9.293  0.00  0.00    -0.349 N 
ATOM     22  H62 GLY d   1      43.366  39.536   8.675  0.00  0.00     0.163 HD
BRANCH  21  23
ATOM     23  CA  GLY d   1      41.252  39.431   8.706  0.00  0.00     0.075 C 
ATOM     24  H63 GLY d   1      41.299  39.891   7.708  0.00  0.00     0.080 H 
ATOM     25  H64 GLY d   1      40.580  40.018   9.349  0.00  0.00     0.080 H 
BRANCH  23  26
ATOM     26  C   GLY d   1      40.730  38.053   8.584  0.00  0.00     0.191 C 
ATOM     27  O   GLY d   1      39.530  37.825   8.305  0.00  0.00    -0.647 OA
ATOM     28  OXT GLY d   1      41.542  37.144   8.764  0.00  0.00    -0.647 OA
ENDBRANCH  23  26
ENDBRANCH  21  23
ENDBRANCH  17  19
BRANCH  17  29
ATOM     29  CB  THR d   1      45.376  39.120  10.313  0.00  0.00     0.060 C 
ATOM     30  H57 THR d   1      45.225  39.161   9.224  0.00  0.00     0.086 H 
BRANCH  29  31
ATOM     31  OG1 THR d   1      45.383  37.776  10.759  0.00  0.00    -0.393 OA
ATOM     32  H58 THR d   1      44.554  37.366  10.540  0.00  0.00     0.210 HD
ENDBRANCH  29  31
BRANCH  29  33
ATOM     33  CG2 THR d   1      46.760  39.810  10.684  0.00  0.00    -0.050 C 
ATOM     34  H59 THR d   1      47.578  39.297  10.157  0.00  0.00     0.031 H 
ATOM     35  H60 THR d   1      46.924  39.743  11.770  0.00  0.00     0.031 H 
ATOM     36  H61 THR d   1      46.735  40.867  10.382  0.00  0.00     0.031 H 
ENDBRANCH  29  33
ENDBRANCH  17  29
ENDBRANCH  15  17
ENDBRANCH  11  13
BRANCH  11  37
ATOM     37  CB  LEU d   1      42.510  39.997  15.182  0.00  0.00    -0.035 C 
ATOM     38  H46 LEU d   1      42.174  39.130  14.594  0.00  0.00     0.037 H 
ATOM     39  H47 LEU d   1      41.847  40.853  14.986  0.00  0.00     0.037 H 
BRANCH  37  40
ATOM     40  CG  LEU d   1      42.461  39.643  16.696  0.00  0.00    -0.059 C 
ATOM     41  H48 LEU d   1      43.005  40.417  17.258  0.00  0.00     0.038 H 
BRANCH  40  42
ATOM     42  CD1 LEU d   1      41.028  39.639  17.159  0.00  0.00    -0.073 C 
ATOM     43  H49 LEU d   1      40.989  39.389  18.230  0.00  0.00     0.028 H 
ATOM     44  H50 LEU d   1      40.460  38.891  16.587  0.00  0.00     0.028 H 
ATOM     45  H51 LEU d   1      40.588  40.634  16.999  0.00  0.00     0.028 H 
ENDBRANCH  40  42
BRANCH  40  46
ATOM     46  CD2 LEU d   1      43.137  38.319  16.944  0.00  0.00    -0.073 C 
ATOM     47  H52 LEU d   1      44.178  38.367  16.592  0.00  0.00     0.028 H 
ATOM     48  H53 LEU d   1      42.602  37.527  16.400  0.00  0.00     0.028 H 
ATOM     49  H54 LEU d   1      43.124  38.097  18.021  0.00  0.00     0.028 H 
ENDBRANCH  40  46
ENDBRANCH  37  40
ENDBRANCH  11  37
ENDBRANCH   9  11
ENDBRANCH   5   7
BRANCH   5  50
ATOM     50  CB  LEU d   1      46.675  43.722  16.076  0.00  0.00    -0.035 C 
ATOM     51  H35 LEU d   1      46.117  43.988  15.166  0.00  0.00     0.037 H 
ATOM     52  H36 LEU d   1      47.589  43.176  15.800  0.00  0.00     0.037 H 
BRANCH  50  53
ATOM     53  CG  LEU d   1      47.063  45.014  16.831  0.00  0.00    -0.059 C 
ATOM     54  H37 LEU d   1      47.643  44.742  17.725  0.00  0.00     0.038 H 
BRANCH  53  55
ATOM     55  CD1 LEU d   1      47.952  45.816  15.879  0.00  0.00    -0.073 C 
ATOM     56  H38 LEU d   1      48.260  46.752  16.367  0.00  0.00     0.028 H 
ATOM     57  H39 LEU d   1      47.391  46.048  14.961  0.00  0.00     0.028 H 
ATOM     58  H40 LEU d   1      48.844  45.224  15.624  0.00  0.00     0.028 H 
ENDBRANCH  53  55
BRANCH  53  59
ATOM     59  CD2 LEU d   1      45.846  45.839  17.291  0.00  0.00    -0.073 C 
ATOM     60  H41 LEU d   1      45.230  45.234  17.972  0.00  0.00     0.028 H 
ATOM     61  H42 LEU d   1      45.247  46.129  16.415  0.00  0.00     0.028 H 
ATOM     62  H43 LEU d   1      46.192  46.743  17.814  0.00  0.00     0.028 H 
ENDBRANCH  53  59
ENDBRANCH  50  53
ENDBRANCH   5  50
ENDBRANCH   3   5
BRANCH   1  63
ATOM     63  CA  LEU d   1      47.039  43.063  20.605  0.00  0.00     0.089 C 
ATOM     64  H23 LEU d   1      48.030  43.373  20.242  0.00  0.00     0.087 H 
BRANCH  63  65
ATOM     65  N   LEU d   1      46.590  44.038  21.644  0.00  0.00    -0.346 N 
ATOM     66  C   ARG d   1      46.933  45.315  21.523  0.00  0.00     0.241 C 
ATOM     67  O   ARG d   1      47.608  45.725  20.533  0.00  0.00    -0.271 OA
ATOM     68  H22 LEU d   1      46.038  43.733  22.420  0.00  0.00     0.163 HD
BRANCH  66  69
ATOM     69  CA  ARG d   1      46.483  46.312  22.616  0.00  0.00     0.089 C 
ATOM     70  H10 ARG d   1      46.097  45.770  23.492  0.00  0.00     0.087 H 
BRANCH  69  71
ATOM     71  N   ARG d   1      47.609  47.190  22.968  0.00  0.00    -0.346 N 
ATOM     72  C   ASN d   1      48.688  46.785  23.601  0.00  0.00     0.249 C 
ATOM     73  O   ASN d   1      48.804  45.614  23.992  0.00  0.00    -0.271 OA
ATOM     74  H9  ARG d   1      47.550  48.154  22.710  0.00  0.00     0.163 HD
BRANCH  72  75
ATOM     75  CA  ASN d   1      49.755  47.894  23.915  0.00  0.00     0.183 C 
ATOM     76  H4  ASN d   1      49.263  48.616  24.583  0.00  0.00     0.099 H 
BRANCH  75  77
ATOM     77  N   ASN d   1      50.919  47.331  24.657  0.00  0.00    -0.066 N 
ATOM     78  H1  ASN d   1      51.585  48.064  24.844  0.00  0.00     0.275 HD
ATOM     79  H2  ASN d   1      51.357  46.613  24.101  0.00  0.00     0.275 HD
ATOM     80  H3  ASN d   1      50.602  46.935  25.528  0.00  0.00     0.275 HD
ENDBRANCH  75  77
BRANCH  75  81
ATOM     81  CB  ASN d   1      50.244  48.705  22.668  0.00  0.00     0.044 C 
ATOM     82  H5  ASN d   1      50.398  48.001  21.837  0.00  0.00     0.051 H 
ATOM     83  H6  ASN d   1      51.200  49.187  22.922  0.00  0.00     0.051 H 
BRANCH  81  84
ATOM     84  CG  ASN d   1      49.242  49.816  22.195  0.00  0.00     0.217 C 
ATOM     85  OD1 ASN d   1      48.189  50.075  22.802  0.00  0.00    -0.274 OA
ATOM     86  ND2 ASN d   1      49.593  50.476  21.088  0.00  0.00    -0.370 N 
ATOM     87  H7  ASN d   1      49.002  51.198  20.728  0.00  0.00     0.159 HD
ATOM     88  H8  ASN d   1      50.447  50.248  20.619  0.00  0.00     0.159 HD
ENDBRANCH  81  84
ENDBRANCH  75  81
ENDBRANCH  72  75
ENDBRANCH  69  71
BRANCH  69  89
ATOM     89  CB  ARG d   1      45.454  47.284  22.061  0.00  0.00    -0.036 C 
ATOM     90  H11 ARG d   1      45.969  47.960  21.363  0.00  0.00     0.036 H 
ATOM     91  H12 ARG d   1      45.049  47.865  22.903  0.00  0.00     0.036 H 
BRANCH  89  92
ATOM     92  CG  ARG d   1      44.309  46.667  21.339  0.00  0.00    -0.048 C 
ATOM     93  H13 ARG d   1      44.648  45.763  20.812  0.00  0.00     0.035 H 
ATOM     94  H14 ARG d   1      43.901  47.384  20.611  0.00  0.00     0.035 H 
BRANCH  92  95
ATOM     95  CD  ARG d   1      43.259  46.306  22.329  0.00  0.00     0.009 C 
ATOM     96  H15 ARG d   1      43.666  45.530  22.994  0.00  0.00     0.064 H 
ATOM     97  H16 ARG d   1      42.394  45.903  21.782  0.00  0.00     0.064 H 
BRANCH  95  98
ATOM     98  NE  ARG d   1      42.795  47.428  23.160  0.00  0.00    -0.227 N 
ATOM     99  CZ  ARG d   1      42.560  47.332  24.476  0.00  0.00     0.665 C 
ATOM    100  NH1 ARG d   1      42.809  46.188  25.138  0.00  0.00    -0.235 N 
ATOM    101  NH2 ARG d   1      42.075  48.369  25.146  0.00  0.00    -0.235 N 
ATOM    102  H18 ARG d   1      42.624  46.127  26.149  0.00  0.00     0.174 HD
ATOM    103  H19 ARG d   1      43.185  45.372  24.634  0.00  0.00     0.174 HD
ATOM    104  H20 ARG d   1      41.878  49.253  24.655  0.00  0.00     0.174 HD
ATOM    105  H21 ARG d   1      41.895  48.290  26.157  0.00  0.00     0.174 HD
ATOM    106  H17 ARG d   1      42.642  48.339  22.704  0.00  0.00     0.177 HD
ENDBRANCH  95  98
ENDBRANCH  92  95
ENDBRANCH  89  92
ENDBRANCH  69  89
ENDBRANCH  66  69
ENDBRANCH  63  65
BRANCH  63 107
ATOM    107  CB  LEU d   1      47.141  41.648  21.183  0.00  0.00    -0.035 C 
ATOM    108  H24 LEU d   1      47.086  40.942  20.341  0.00  0.00     0.037 H 
ATOM    109  H25 LEU d   1      46.275  41.498  21.845  0.00  0.00     0.037 H 
BRANCH 107 110
ATOM    110  CG  LEU d   1      48.412  41.306  21.995  0.00  0.00    -0.059 C 
ATOM    111  H26 LEU d   1      48.367  40.245  22.283  0.00  0.00     0.038 H 
BRANCH 110 112
ATOM    112  CD1 LEU d   1      49.685  41.528  21.150  0.00  0.00    -0.073 C 
ATOM    113  H27 LEU d   1      50.572  41.278  21.751  0.00  0.00     0.028 H 
ATOM    114  H28 LEU d   1      49.739  42.581  20.838  0.00  0.00     0.028 H 
ATOM    115  H29 LEU d   1      49.651  40.883  20.260  0.00  0.00     0.028 H 
ENDBRANCH 110 112
BRANCH 110 116
ATOM    116  CD2 LEU d   1      48.463  42.149  23.257  0.00  0.00    -0.073 C 
ATOM    117  H30 LEU d   1      47.551  41.980  23.848  0.00  0.00     0.028 H 
ATOM    118  H31 LEU d   1      48.532  43.213  22.985  0.00  0.00     0.028 H 
ATOM    119  H32 LEU d   1      49.343  41.865  23.852  0.00  0.00     0.028 H 
ENDBRANCH 110 116
ENDBRANCH 107 110
ENDBRANCH  63 107
ENDBRANCH   1  63
TORSDOF 35
