REMARK  28 active torsions:
REMARK  status: ('A' for Active; 'I' for Inactive)
REMARK    1  A    between atoms: N_1  and  CA_2 
REMARK    2  A    between atoms: CA_2  and  C_3 
REMARK    3  A    between atoms: CA_2  and  CB_5 
REMARK       I    between atoms: C_3  and  N_9 
REMARK    4  A    between atoms: CB_5  and  CG_6 
REMARK       I    between atoms: CG_6  and  ND2_8 
REMARK    5  A    between atoms: N_9  and  CA_10 
REMARK    6  A    between atoms: CA_10  and  C_11 
REMARK    7  A    between atoms: CA_10  and  CB_13 
REMARK       I    between atoms: C_11  and  N_20 
REMARK    8  A    between atoms: CB_13  and  CG_14 
REMARK    9  A    between atoms: CG_14  and  CD_15 
REMARK   10  A    between atoms: CD_15  and  NE_16 
REMARK       I    between atoms: NE_16  and  CZ_17 
REMARK       I    between atoms: CZ_17  and  NH1_18 
REMARK   11  A    between atoms: N_20  and  CA_21 
REMARK   12  A    between atoms: CA_21  and  C_22 
REMARK   13  A    between atoms: CA_21  and  CB_24 
REMARK       I    between atoms: C_22  and  N_28 
REMARK   14  A    between atoms: CB_24  and  CG_25 
REMARK   15  A    between atoms: CG_25  and  CD1_26 
REMARK   16  A    between atoms: CG_25  and  CD2_27 
REMARK   17  A    between atoms: N_28  and  CA_29 
REMARK   18  A    between atoms: CA_29  and  C_30 
REMARK   19  A    between atoms: CA_29  and  CB_32 
REMARK       I    between atoms: C_30  and  N_36 
REMARK   20  A    between atoms: CB_32  and  CG1_33 
REMARK   21  A    between atoms: CB_32  and  CG2_34 
REMARK   22  A    between atoms: CG1_33  and  CD1_35 
REMARK   23  A    between atoms: N_36  and  CA_37 
REMARK   24  A    between atoms: CA_37  and  C_38 
REMARK   25  A    between atoms: CA_37  and  CB_40 
REMARK   26  A    between atoms: CB_40  and  CG_41 
REMARK   27  A    between atoms: CG_41  and  CD1_42 
REMARK   28  A    between atoms: CG_41  and  CD2_43 
ROOT
ATOM      1  CA  LEU d   1      56.388  87.258  30.100  0.00  0.00     0.089 C 
ATOM      2  H23 LEU d   1      56.674  86.244  30.416  0.00  0.00     0.087 H 
ENDROOT
BRANCH   1   3
ATOM      3  N   LEU d   1      56.470  87.359  28.651  0.00  0.00    -0.346 N 
ATOM      4  C   ARG d   1      56.741  86.300  27.904  0.00  0.00     0.241 C 
ATOM      5  O   ARG d   1      57.095  85.191  28.414  0.00  0.00    -0.271 OA
ATOM      6  H22 LEU d   1      56.319  88.244  28.211  0.00  0.00     0.163 HD
BRANCH   4   7
ATOM      7  CA  ARG d   1      56.572  86.482  26.402  0.00  0.00     0.089 C 
ATOM      8  H10 ARG d   1      57.054  87.426  26.107  0.00  0.00     0.087 H 
BRANCH   7   9
ATOM      9  N   ARG d   1      57.206  85.378  25.658  0.00  0.00    -0.346 N 
ATOM     10  C   ASN d   1      58.508  85.441  25.457  0.00  0.00     0.249 C 
ATOM     11  O   ASN d   1      59.165  86.346  25.925  0.00  0.00    -0.271 OA
ATOM     12  H9  ARG d   1      56.667  84.608  25.317  0.00  0.00     0.163 HD
BRANCH  10  13
ATOM     13  CA  ASN d   1      59.215  84.349  24.673  0.00  0.00     0.183 C 
ATOM     14  H4  ASN d   1      59.678  83.671  25.404  0.00  0.00     0.099 H 
BRANCH  13  15
ATOM     15  N   ASN d   1      58.384  83.498  23.772  0.00  0.00    -0.066 N 
ATOM     16  H1  ASN d   1      58.972  82.819  23.315  0.00  0.00     0.275 HD
ATOM     17  H2  ASN d   1      57.939  84.078  23.078  0.00  0.00     0.275 HD
ATOM     18  H3  ASN d   1      57.680  83.022  24.314  0.00  0.00     0.275 HD
ENDBRANCH  13  15
BRANCH  13  19
ATOM     19  CB  ASN d   1      60.321  85.039  23.873  0.00  0.00     0.044 C 
ATOM     20  H5  ASN d   1      60.726  85.868  24.473  0.00  0.00     0.051 H 
ATOM     21  H6  ASN d   1      59.888  85.437  22.943  0.00  0.00     0.051 H 
BRANCH  19  22
ATOM     22  CG  ASN d   1      61.425  84.121  23.527  0.00  0.00     0.217 C 
ATOM     23  OD1 ASN d   1      61.204  82.943  23.213  0.00  0.00    -0.274 OA
ATOM     24  ND2 ASN d   1      62.630  84.623  23.597  0.00  0.00    -0.370 N 
ATOM     25  H7  ASN d   1      63.422  84.054  23.375  0.00  0.00     0.159 HD
ATOM     26  H8  ASN d   1      62.760  85.576  23.872  0.00  0.00     0.159 HD
ENDBRANCH  19  22
ENDBRANCH  13  19
ENDBRANCH  10  13
ENDBRANCH   7   9
BRANCH   7  27
ATOM     27  CB  ARG d   1      55.055  86.557  26.042  0.00  0.00    -0.036 C 
ATOM     28  H11 ARG d   1      54.617  87.422  26.561  0.00  0.00     0.036 H 
ATOM     29  H12 ARG d   1      54.569  85.635  26.392  0.00  0.00     0.036 H 
BRANCH  27  30
ATOM     30  CG  ARG d   1      54.785  86.706  24.545  0.00  0.00    -0.048 C 
ATOM     31  H13 ARG d   1      55.577  86.191  23.981  0.00  0.00     0.035 H 
ATOM     32  H14 ARG d   1      54.783  87.774  24.282  0.00  0.00     0.035 H 
BRANCH  30  33
ATOM     33  CD  ARG d   1      53.427  86.094  24.180  0.00  0.00     0.009 C 
ATOM     34  H15 ARG d   1      53.077  86.487  23.214  0.00  0.00     0.064 H 
ATOM     35  H16 ARG d   1      52.684  86.320  24.959  0.00  0.00     0.064 H 
BRANCH  33  36
ATOM     36  NE  ARG d   1      53.651  84.643  24.092  0.00  0.00    -0.227 N 
ATOM     37  CZ  ARG d   1      52.764  83.654  24.272  0.00  0.00     0.665 C 
ATOM     38  NH1 ARG d   1      53.224  82.394  24.159  0.00  0.00    -0.235 N 
ATOM     39  NH2 ARG d   1      51.464  83.891  24.563  0.00  0.00    -0.235 N 
ATOM     40  H18 ARG d   1      52.583  81.598  24.288  0.00  0.00     0.174 HD
ATOM     41  H19 ARG d   1      54.217  82.226  23.943  0.00  0.00     0.174 HD
ATOM     42  H20 ARG d   1      51.123  84.859  24.647  0.00  0.00     0.174 HD
ATOM     43  H21 ARG d   1      50.815  83.103  24.701  0.00  0.00     0.174 HD
ATOM     44  H17 ARG d   1      54.611  84.349  23.863  0.00  0.00     0.177 HD
ENDBRANCH  33  36
ENDBRANCH  30  33
ENDBRANCH  27  30
ENDBRANCH   7  27
ENDBRANCH   4   7
ENDBRANCH   1   3
BRANCH   1  45
ATOM     45  C   LEU d   1      55.021  87.559  30.576  0.00  0.00     0.241 C 
ATOM     46  O   LEU d   1      54.325  88.389  30.006  0.00  0.00    -0.271 OA
ATOM     47  N   ILE d   1      54.600  86.895  31.625  0.00  0.00    -0.346 N 
ATOM     48  H33 ILE d   1      55.152  86.149  31.998  0.00  0.00     0.163 HD
BRANCH  47  49
ATOM     49  CA  ILE d   1      53.389  87.225  32.220  0.00  0.00     0.092 C 
ATOM     50  H34 ILE d   1      52.898  87.997  31.609  0.00  0.00     0.088 H 
BRANCH  49  51
ATOM     51  C   ILE d   1      53.574  87.813  33.623  0.00  0.00     0.241 C 
ATOM     52  O   ILE d   1      54.654  87.668  34.274  0.00  0.00    -0.271 OA
ATOM     53  N   LEU d   1      52.536  88.492  34.095  0.00  0.00    -0.345 N 
ATOM     54  H44 LEU d   1      51.769  88.693  33.486  0.00  0.00     0.163 HD
BRANCH  53  55
ATOM     55  CA  LEU d   1      52.485  88.947  35.462  0.00  0.00     0.096 C 
ATOM     56  H45 LEU d   1      53.483  89.293  35.767  0.00  0.00     0.089 H 
BRANCH  55  57
ATOM     57  C   LEU d   1      52.037  87.815  36.408  0.00  0.00     0.196 C 
ATOM     58  O   LEU d   1      51.055  87.078  36.125  0.00  0.00    -0.646 OA
ATOM     59  O   LEU d   1      52.664  87.623  37.484  0.00  0.00    -0.646 OA
ENDBRANCH  55  57
BRANCH  55  60
ATOM     60  CB  LEU d   1      51.500  90.106  35.536  0.00  0.00    -0.034 C 
ATOM     61  H46 LEU d   1      51.328  90.336  36.598  0.00  0.00     0.037 H 
ATOM     62  H47 LEU d   1      50.557  89.778  35.074  0.00  0.00     0.037 H 
BRANCH  60  63
ATOM     63  CG  LEU d   1      51.937  91.385  34.847  0.00  0.00    -0.059 C 
ATOM     64  H48 LEU d   1      52.610  91.160  34.007  0.00  0.00     0.038 H 
BRANCH  63  65
ATOM     65  CD1 LEU d   1      50.702  92.093  34.334  0.00  0.00    -0.073 C 
ATOM     66  H49 LEU d   1      50.997  93.025  33.830  0.00  0.00     0.028 H 
ATOM     67  H50 LEU d   1      50.036  92.327  35.178  0.00  0.00     0.028 H 
ATOM     68  H51 LEU d   1      50.175  91.441  33.621  0.00  0.00     0.028 H 
ENDBRANCH  63  65
BRANCH  63  69
ATOM     69  CD2 LEU d   1      52.669  92.225  35.887  0.00  0.00    -0.073 C 
ATOM     70  H52 LEU d   1      53.559  91.681  36.237  0.00  0.00     0.028 H 
ATOM     71  H53 LEU d   1      52.000  92.420  36.738  0.00  0.00     0.028 H 
ATOM     72  H54 LEU d   1      52.977  93.180  35.436  0.00  0.00     0.028 H 
ENDBRANCH  63  69
ENDBRANCH  60  63
ENDBRANCH  55  60
ENDBRANCH  53  55
ENDBRANCH  49  51
BRANCH  49  73
ATOM     73  CB  ILE d   1      52.516  85.953  32.179  0.00  0.00    -0.030 C 
ATOM     74  H35 ILE d   1      51.475  86.219  32.415  0.00  0.00     0.043 H 
BRANCH  73  75
ATOM     75  CG1 ILE d   1      52.996  84.877  33.143  0.00  0.00    -0.063 C 
ATOM     76  H36 ILE d   1      53.283  85.354  34.092  0.00  0.00     0.033 H 
ATOM     77  H37 ILE d   1      53.871  84.375  32.706  0.00  0.00     0.033 H 
BRANCH  75  78
ATOM     78  CD1 ILE d   1      51.932  83.844  33.421  0.00  0.00    -0.076 C 
ATOM     79  H41 ILE d   1      52.325  83.091  34.120  0.00  0.00     0.027 H 
ATOM     80  H42 ILE d   1      51.642  83.354  32.480  0.00  0.00     0.027 H 
ATOM     81  H43 ILE d   1      51.053  84.333  33.866  0.00  0.00     0.027 H 
ENDBRANCH  75  78
ENDBRANCH  73  75
BRANCH  73  82
ATOM     82  CG2 ILE d   1      52.608  85.377  30.807  0.00  0.00    -0.071 C 
ATOM     83  H38 ILE d   1      52.270  86.123  30.073  0.00  0.00     0.028 H 
ATOM     84  H39 ILE d   1      51.971  84.483  30.741  0.00  0.00     0.028 H 
ATOM     85  H40 ILE d   1      53.651  85.101  30.595  0.00  0.00     0.028 H 
ENDBRANCH  73  82
ENDBRANCH  49  73
ENDBRANCH  47  49
ENDBRANCH   1  45
BRANCH   1  86
ATOM     86  CB  LEU d   1      57.331  88.275  30.698  0.00  0.00    -0.035 C 
ATOM     87  H24 LEU d   1      57.302  88.213  31.796  0.00  0.00     0.037 H 
ATOM     88  H25 LEU d   1      57.041  89.287  30.380  0.00  0.00     0.037 H 
BRANCH  86  89
ATOM     89  CG  LEU d   1      58.704  87.963  30.208  0.00  0.00    -0.059 C 
ATOM     90  H26 LEU d   1      58.855  86.885  30.052  0.00  0.00     0.038 H 
BRANCH  89  91
ATOM     91  CD1 LEU d   1      58.933  88.726  28.918  0.00  0.00    -0.073 C 
ATOM     92  H27 LEU d   1      59.943  88.510  28.538  0.00  0.00     0.028 H 
ATOM     93  H28 LEU d   1      58.836  89.805  29.108  0.00  0.00     0.028 H 
ATOM     94  H29 LEU d   1      58.187  88.417  28.172  0.00  0.00     0.028 H 
ENDBRANCH  89  91
BRANCH  89  95
ATOM     95  CD2 LEU d   1      59.586  88.494  31.310  0.00  0.00    -0.073 C 
ATOM     96  H30 LEU d   1      59.402  87.925  32.233  0.00  0.00     0.028 H 
ATOM     97  H31 LEU d   1      59.358  89.556  31.482  0.00  0.00     0.028 H 
ATOM     98  H32 LEU d   1      60.641  88.388  31.018  0.00  0.00     0.028 H 
ENDBRANCH  89  95
ENDBRANCH  86  89
ENDBRANCH   1  86
TORSDOF 28
