REMARK  1 active torsions:
REMARK  status: ('A' for Active; 'I' for Inactive)
REMARK    1  A    between atoms: N10_9  and  C11_10 
ROOT
ATOM      1  C2  1RS d   1      10.389 -53.791 -23.271  0.00  0.00     0.067 A 
ATOM      2  N3  1RS d   1      11.098 -53.044 -24.035  0.00  0.00    -0.240 NA
ATOM      3  C4  1RS d   1      11.220 -51.842 -23.472  0.00  0.00     0.103 A 
ATOM      4  C5  1RS d   1      11.872 -50.694 -23.873  0.00  0.00     0.034 A 
ATOM      5  N6  1RS d   1      11.845 -49.635 -23.133  0.00  0.00    -0.240 NA
ATOM      6  C7  1RS d   1      11.205 -49.586 -21.989  0.00  0.00     0.139 A 
ATOM      7  C8  1RS d   1      10.518 -50.697 -21.509  0.00  0.00     0.040 A 
ATOM      8  C9  1RS d   1      10.521 -51.867 -22.265  0.00  0.00     0.080 A 
ATOM      9  N10 1RS d   1      10.002 -53.123 -22.172  0.00  0.00    -0.334 N 
ATOM     10  C17 1RS d   1       9.944 -50.283 -20.242  0.00  0.00    -0.052 A 
ATOM     11  C18 1RS d   1      10.297 -49.014 -20.049  0.00  0.00    -0.020 A 
ATOM     12  N19 1RS d   1      11.055 -48.585 -21.083  0.00  0.00    -0.350 N 
ATOM     13  H   1RS d   1      10.134 -54.829 -23.485  0.00  0.00     0.143 H 
ATOM     14  H   1RS d   1      12.413 -50.680 -24.819  0.00  0.00     0.118 H 
ATOM     15  H   1RS d   1       9.338 -50.896 -19.574  0.00  0.00     0.087 H 
ATOM     16  H   1RS d   1      10.017 -48.411 -19.186  0.00  0.00     0.111 H 
ATOM     17  H   1RS d   1      11.454 -47.650 -21.170  0.00  0.00     0.166 HD
ENDROOT
BRANCH   9  18
ATOM     18  C11 1RS d   1       9.196 -53.745 -21.137  0.00  0.00     0.021 C 
ATOM     19  C12 1RS d   1       7.716 -53.435 -21.133  0.00  0.00    -0.023 C 
ATOM     20  C13 1RS d   1       7.083 -54.568 -20.338  0.00  0.00     0.084 C 
ATOM     21  H   1RS d   1       7.312 -53.373 -22.143  0.00  0.00     0.038 H 
ATOM     22  H   1RS d   1       7.507 -52.462 -20.689  0.00  0.00     0.038 H 
ATOM     23  N14 1RS d   1       7.648 -54.627 -18.993  0.00  0.00    -0.075 N 
ATOM     24  H   1RS d   1       7.281 -55.511 -20.847  0.00  0.00     0.075 H 
ATOM     25  H   1RS d   1       6.010 -54.392 -20.264  0.00  0.00     0.075 H 
ATOM     26  C15 1RS d   1       9.091 -54.846 -18.987  0.00  0.00     0.084 C 
ATOM     27  H   1RS d   1       7.213 -55.412 -18.509  0.00  0.00     0.277 HD
ATOM     28  H   1RS d   1       7.469 -53.730 -18.542  0.00  0.00     0.277 HD
ATOM     29  C16 1RS d   1       9.758 -53.704 -19.733  0.00  0.00    -0.023 C 
ATOM     30  H   1RS d   1       9.324 -55.793 -19.473  0.00  0.00     0.075 H 
ATOM     31  H   1RS d   1       9.456 -54.882 -17.961  0.00  0.00     0.075 H 
ATOM     32  H   1RS d   1       9.557 -52.746 -19.253  0.00  0.00     0.038 H 
ATOM     33  H   1RS d   1      10.843 -53.813 -19.737  0.00  0.00     0.038 H 
ATOM     34  H   1RS d   1       9.277 -54.777 -21.477  0.00  0.00     0.073 H 
ENDBRANCH   9  18
TORSDOF 1
