REMARK  30 active torsions:
REMARK  status: ('A' for Active; 'I' for Inactive)
REMARK    1  A    between atoms: CA_2  and  C_3 
REMARK       I    between atoms: C_3  and  N_8 
REMARK    2  A    between atoms: CA_9  and  C_10 
REMARK       I    between atoms: C_10  and  N_15 
REMARK    3  A    between atoms: CA_16  and  C_17 
REMARK       I    between atoms: C_17  and  N_22 
REMARK    4  A    between atoms: N_22  and  CA_23 
REMARK    5  A    between atoms: CA_23  and  C_24 
REMARK    6  A    between atoms: CA_23  and  CB_26 
REMARK       I    between atoms: C_24  and  N_29 
REMARK    7  A    between atoms: CB_26  and  OG1_27 
REMARK    8  A    between atoms: CB_26  and  CG2_28 
REMARK    9  A    between atoms: N_29  and  CA_30 
REMARK   10  A    between atoms: CA_30  and  C_31 
REMARK   11  A    between atoms: CA_30  and  CB_33 
REMARK       I    between atoms: C_31  and  N_37 
REMARK   12  A    between atoms: CB_33  and  CG_34 
REMARK   13  A    between atoms: CG_34  and  CD1_35 
REMARK   14  A    between atoms: CG_34  and  CD2_36 
REMARK   15  A    between atoms: CA_38  and  C_39 
REMARK       I    between atoms: C_39  and  N_44 
REMARK   16  A    between atoms: N_44  and  CA_45 
REMARK   17  A    between atoms: CA_45  and  C_46 
REMARK   18  A    between atoms: CA_45  and  CB_48 
REMARK       I    between atoms: C_46  and  N_53 
REMARK   19  A    between atoms: CB_48  and  CG_49 
REMARK   20  A    between atoms: CG_49  and  CD_50 
REMARK   21  A    between atoms: CD_50  and  CE_51 
REMARK   22  A    between atoms: CE_51  and  NZ_52 
REMARK   23  A    between atoms: CA_54  and  C_55 
REMARK       I    between atoms: C_55  and  N_60 
REMARK   24  A    between atoms: N_60  and  CA_61 
REMARK   25  A    between atoms: CA_61  and  C_62 
REMARK   26  A    between atoms: CA_61  and  CB_64 
REMARK       I    between atoms: C_62  and  N_65 
REMARK   27  A    between atoms: N_65  and  CA_66 
REMARK   28  A    between atoms: CA_66  and  C_67 
REMARK   29  A    between atoms: CA_66  and  CB_69 
REMARK       I    between atoms: C_67  and  N_70 
REMARK   30  A    between atoms: CA_71  and  C_72 
ROOT
ATOM      1  N   PRO d   1       3.783   6.900   8.692  0.00  0.00    -0.337 N 
ATOM      2  CA  PRO d   1       4.957   6.778   7.826  0.00  0.00     0.091 C 
ATOM      3  CB  PRO d   1       6.118   7.113   8.764  0.00  0.00    -0.036 C 
ATOM      4  CG  PRO d   1       5.512   8.038   9.761  0.00  0.00    -0.048 C 
ATOM      5  CD  PRO d   1       4.121   7.508   9.989  0.00  0.00    -0.001 C 
ATOM      6  H42 PRO d   1       4.908   7.496   6.994  0.00  0.00     0.087 H 
ATOM      7  H43 PRO d   1       6.934   7.607   8.217  0.00  0.00     0.036 H 
ATOM      8  H44 PRO d   1       6.501   6.205   9.253  0.00  0.00     0.036 H 
ATOM      9  H45 PRO d   1       5.475   9.063   9.364  0.00  0.00     0.035 H 
ATOM     10  H46 PRO d   1       6.088   8.028  10.698  0.00  0.00     0.035 H 
ATOM     11  H47 PRO d   1       4.111   6.757  10.793  0.00  0.00     0.064 H 
ATOM     12  H48 PRO d   1       3.424   8.321  10.238  0.00  0.00     0.064 H 
ATOM     13  C   LEU d   1       2.592   6.516   8.214  0.00  0.00     0.243 C 
ATOM     14  O   LEU d   1       2.447   6.110   7.062  0.00  0.00    -0.271 OA
ENDROOT
BRANCH  13  15
ATOM     15  CA  LEU d   1       1.404   6.607   9.163  0.00  0.00     0.090 C 
ATOM     16  H32 LEU d   1       1.464   7.557   9.715  0.00  0.00     0.087 H 
BRANCH  15  17
ATOM     17  N   LEU d   1       0.159   6.577   8.410  0.00  0.00    -0.346 N 
ATOM     18  C   THR d   1      -0.440   7.674   7.967  0.00  0.00     0.243 C 
ATOM     19  O   THR d   1      -0.035   8.822   8.212  0.00  0.00    -0.271 OA
ATOM     20  H31 LEU d   1      -0.263   5.691   8.218  0.00  0.00     0.163 HD
BRANCH  18  21
ATOM     21  CA  THR d   1      -1.723   7.435   7.174  0.00  0.00     0.113 C 
ATOM     22  H25 THR d   1      -2.284   6.617   7.649  0.00  0.00     0.091 H 
BRANCH  21  23
ATOM     23  N   THR d   1      -2.536   8.640   7.220  0.00  0.00    -0.344 N 
ATOM     24  C   PRO d   1      -3.469   8.797   8.141  0.00  0.00     0.241 C 
ATOM     25  O   PRO d   1      -3.765   7.904   8.923  0.00  0.00    -0.271 OA
ATOM     26  H24 THR d   1      -2.386   9.361   6.543  0.00  0.00     0.163 HD
BRANCH  24  27
ATOM     27  CA  PRO d   1      -4.170  10.144   8.177  0.00  0.00     0.091 C 
ATOM     28  N   PRO d   1      -5.527  10.005   8.713  0.00  0.00    -0.337 N 
ATOM     29  C   PRO d   1      -6.439   9.299   8.025  0.00  0.00     0.243 C 
ATOM     30  CD  PRO d   1      -5.701  10.686   9.999  0.00  0.00    -0.001 C 
ATOM     31  O   PRO d   1      -6.166   8.806   6.936  0.00  0.00    -0.271 OA
ATOM     32  CG  PRO d   1      -4.335  11.117  10.343  0.00  0.00    -0.048 C 
ATOM     33  H22 PRO d   1      -6.100   9.998  10.758  0.00  0.00     0.064 H 
ATOM     34  H23 PRO d   1      -6.373  11.551   9.899  0.00  0.00     0.064 H 
ATOM     35  CB  PRO d   1      -3.481  11.083   9.162  0.00  0.00    -0.036 C 
ATOM     36  H20 PRO d   1      -4.367  12.143  10.738  0.00  0.00     0.035 H 
ATOM     37  H21 PRO d   1      -3.924  10.442  11.108  0.00  0.00     0.035 H 
ATOM     38  H18 PRO d   1      -3.386  12.090   8.729  0.00  0.00     0.036 H 
ATOM     39  H19 PRO d   1      -2.483  10.700   9.422  0.00  0.00     0.036 H 
ATOM     40  H17 PRO d   1      -4.188  10.578   7.167  0.00  0.00     0.087 H 
BRANCH  29  41
ATOM     41  CA  PRO d   1      -7.814   9.094   8.678  0.00  0.00     0.092 C 
ATOM     42  N   PRO d   1      -8.828   8.645   7.716  0.00  0.00    -0.337 N 
ATOM     43  C   PRO d   1      -9.410   9.540   6.912  0.00  0.00     0.251 C 
ATOM     44  CD  PRO d   1      -9.206   7.238   7.932  0.00  0.00    -0.001 C 
ATOM     45  O   PRO d   1      -9.044  10.725   6.864  0.00  0.00    -0.271 OA
ATOM     46  CG  PRO d   1      -8.179   6.748   8.911  0.00  0.00    -0.048 C 
ATOM     47  H15 PRO d   1      -9.157   6.668   6.992  0.00  0.00     0.064 H 
ATOM     48  H16 PRO d   1     -10.219   7.163   8.354  0.00  0.00     0.064 H 
ATOM     49  CB  PRO d   1      -7.756   7.935   9.684  0.00  0.00    -0.036 C 
ATOM     50  H13 PRO d   1      -8.618   5.993   9.579  0.00  0.00     0.035 H 
ATOM     51  H14 PRO d   1      -7.321   6.312   8.379  0.00  0.00     0.035 H 
ATOM     52  H11 PRO d   1      -8.442   8.116  10.524  0.00  0.00     0.036 H 
ATOM     53  H12 PRO d   1      -6.733   7.804  10.067  0.00  0.00     0.036 H 
ATOM     54  H10 PRO d   1      -8.128  10.028   9.166  0.00  0.00     0.087 H 
BRANCH  43  55
ATOM     55  CA  PRO d   1     -10.621   9.061   6.085  0.00  0.00     0.178 C 
ATOM     56  N   PRO d   1     -11.344  10.211   5.519  0.00  0.00    -0.062 N 
ATOM     57  CD  PRO d   1     -11.702   9.980   4.103  0.00  0.00     0.083 C 
ATOM     58  H1  PRO d   1     -10.758  11.029   5.580  0.00  0.00     0.278 HD
ATOM     59  H2  PRO d   1     -12.187  10.362   6.050  0.00  0.00     0.278 HD
ATOM     60  CG  PRO d   1     -11.334   8.559   3.876  0.00  0.00    -0.040 C 
ATOM     61  H8  PRO d   1     -11.129  10.645   3.440  0.00  0.00     0.075 H 
ATOM     62  H9  PRO d   1     -12.778  10.138   3.939  0.00  0.00     0.075 H 
ATOM     63  CB  PRO d   1     -10.237   8.265   4.835  0.00  0.00    -0.028 C 
ATOM     64  H6  PRO d   1     -12.197   7.905   4.069  0.00  0.00     0.035 H 
ATOM     65  H7  PRO d   1     -10.988   8.414   2.842  0.00  0.00     0.035 H 
ATOM     66  H4  PRO d   1     -10.188   7.189   5.056  0.00  0.00     0.036 H 
ATOM     67  H5  PRO d   1      -9.268   8.603   4.438  0.00  0.00     0.036 H 
ATOM     68  H3  PRO d   1     -11.278   8.462   6.733  0.00  0.00     0.099 H 
ENDBRANCH  43  55
ENDBRANCH  29  41
ENDBRANCH  24  27
ENDBRANCH  21  23
BRANCH  21  69
ATOM     69  CB  THR d   1      -1.401   7.019   5.726  0.00  0.00     0.060 C 
ATOM     70  H26 THR d   1      -0.749   6.133   5.739  0.00  0.00     0.086 H 
BRANCH  69  71
ATOM     71  OG1 THR d   1      -0.721   8.101   5.090  0.00  0.00    -0.393 OA
ATOM     72  H27 THR d   1      -0.514   7.861   4.194  0.00  0.00     0.210 HD
ENDBRANCH  69  71
BRANCH  69  73
ATOM     73  CG2 THR d   1      -2.669   6.685   4.964  0.00  0.00    -0.050 C 
ATOM     74  H28 THR d   1      -2.412   6.392   3.935  0.00  0.00     0.031 H 
ATOM     75  H29 THR d   1      -3.326   7.567   4.941  0.00  0.00     0.031 H 
ATOM     76  H30 THR d   1      -3.189   5.854   5.463  0.00  0.00     0.031 H 
ENDBRANCH  69  73
ENDBRANCH  21  69
ENDBRANCH  18  21
ENDBRANCH  15  17
BRANCH  15  77
ATOM     77  CB  LEU d   1       1.431   5.454  10.163  0.00  0.00    -0.035 C 
ATOM     78  H33 LEU d   1       2.386   5.504  10.706  0.00  0.00     0.037 H 
ATOM     79  H34 LEU d   1       1.382   4.515   9.593  0.00  0.00     0.037 H 
BRANCH  77  80
ATOM     80  CG  LEU d   1       0.309   5.429  11.197  0.00  0.00    -0.059 C 
ATOM     81  H35 LEU d   1      -0.636   5.201  10.682  0.00  0.00     0.038 H 
BRANCH  80  82
ATOM     82  CD1 LEU d   1       0.559   4.346  12.239  0.00  0.00    -0.073 C 
ATOM     83  H36 LEU d   1      -0.261   4.347  12.972  0.00  0.00     0.028 H 
ATOM     84  H37 LEU d   1       1.511   4.545  12.753  0.00  0.00     0.028 H 
ATOM     85  H38 LEU d   1       0.607   3.365  11.744  0.00  0.00     0.028 H 
ENDBRANCH  80  82
BRANCH  80  86
ATOM     86  CD2 LEU d   1       0.184   6.781  11.847  0.00  0.00    -0.073 C 
ATOM     87  H39 LEU d   1       0.004   7.544  11.075  0.00  0.00     0.028 H 
ATOM     88  H40 LEU d   1       1.114   7.016  12.386  0.00  0.00     0.028 H 
ATOM     89  H41 LEU d   1      -0.657   6.771  12.555  0.00  0.00     0.028 H 
ENDBRANCH  80  86
ENDBRANCH  77  80
ENDBRANCH  15  77
ENDBRANCH  13  15
BRANCH   2  90
ATOM     90  C   PRO d   1       5.075   5.369   7.266  0.00  0.00     0.241 C 
ATOM     91  O   PRO d   1       4.780   4.388   7.952  0.00  0.00    -0.271 OA
ATOM     92  N   LYS d   1       5.482   5.280   6.009  0.00  0.00    -0.346 N 
ATOM     93  H49 LYS d   1       5.747   6.110   5.519  0.00  0.00     0.163 HD
BRANCH  92  94
ATOM     94  CA  LYS d   1       5.550   3.998   5.329  0.00  0.00     0.089 C 
ATOM     95  H50 LYS d   1       4.913   3.284   5.872  0.00  0.00     0.087 H 
BRANCH  94  96
ATOM     96  C   LYS d   1       6.973   3.464   5.335  0.00  0.00     0.243 C 
ATOM     97  O   LYS d   1       7.918   4.176   4.982  0.00  0.00    -0.271 OA
ATOM     98  N   PRO d   1       7.138   2.199   5.741  0.00  0.00    -0.337 N 
ATOM     99  CA  PRO d   1       8.482   1.655   5.934  0.00  0.00     0.091 C 
ATOM    100  CD  PRO d   1       6.094   1.194   6.003  0.00  0.00    -0.001 C 
ATOM    101  CB  PRO d   1       8.223   0.439   6.820  0.00  0.00    -0.036 C 
ATOM    102  H62 PRO d   1       9.128   2.387   6.441  0.00  0.00     0.087 H 
ATOM    103  CG  PRO d   1       6.886  -0.050   6.368  0.00  0.00    -0.048 C 
ATOM    104  H63 PRO d   1       8.197   0.726   7.882  0.00  0.00     0.036 H 
ATOM    105  H64 PRO d   1       8.994  -0.330   6.666  0.00  0.00     0.036 H 
ATOM    106  H65 PRO d   1       6.385  -0.600   7.178  0.00  0.00     0.035 H 
ATOM    107  H66 PRO d   1       6.994  -0.706   5.492  0.00  0.00     0.035 H 
ATOM    108  H67 PRO d   1       5.481   1.021   5.107  0.00  0.00     0.064 H 
ATOM    109  H68 PRO d   1       5.447   1.507   6.836  0.00  0.00     0.064 H 
BRANCH  99 110
ATOM    110  C   PRO d   1       9.143   1.224   4.627  0.00  0.00     0.241 C 
ATOM    111  O   PRO d   1       8.461   0.785   3.695  0.00  0.00    -0.271 OA
ATOM    112  N   LYS d   1      10.462   1.353   4.561  0.00  0.00    -0.346 N 
ATOM    113  H69 LYS d   1      10.940   1.871   5.271  0.00  0.00     0.163 HD
BRANCH 112 114
ATOM    114  CA  LYS d   1      11.228   0.755   3.474  0.00  0.00     0.086 C 
ATOM    115  H70 LYS d   1      10.604   0.668   2.573  0.00  0.00     0.086 H 
BRANCH 114 116
ATOM    116  C   LYS d   1      11.624  -0.625   3.982  0.00  0.00     0.240 C 
ATOM    117  O   LYS d   1      12.341  -0.738   4.975  0.00  0.00    -0.271 OA
ATOM    118  N   LEU d   1      11.140  -1.673   3.324  0.00  0.00    -0.346 N 
ATOM    119  H74 LEU d   1      10.669  -1.536   2.452  0.00  0.00     0.163 HD
BRANCH 118 120
ATOM    120  CA  LEU d   1      11.288  -3.026   3.861  0.00  0.00     0.086 C 
ATOM    121  H75 LEU d   1      11.352  -2.937   4.956  0.00  0.00     0.086 H 
BRANCH 120 122
ATOM    122  C   LEU d   1      12.556  -3.737   3.390  0.00  0.00     0.243 C 
ATOM    123  O   LEU d   1      12.937  -3.633   2.225  0.00  0.00    -0.271 OA
ATOM    124  N   PRO d   1      13.212  -4.475   4.302  0.00  0.00    -0.336 N 
ATOM    125  CA  PRO d   1      12.814  -4.643   5.704  0.00  0.00     0.098 C 
ATOM    126  CD  PRO d   1      14.396  -5.286   3.981  0.00  0.00    -0.001 C 
ATOM    127  CB  PRO d   1      13.382  -6.024   6.066  0.00  0.00    -0.035 C 
ATOM    128  H79 PRO d   1      11.719  -4.624   5.803  0.00  0.00     0.089 H 
ATOM    129  CG  PRO d   1      14.228  -6.461   4.875  0.00  0.00    -0.048 C 
ATOM    130  H80 PRO d   1      12.565  -6.740   6.236  0.00  0.00     0.036 H 
ATOM    131  H81 PRO d   1      14.004  -5.955   6.971  0.00  0.00     0.036 H 
ATOM    132  H82 PRO d   1      13.721  -7.273   4.334  0.00  0.00     0.035 H 
ATOM    133  H83 PRO d   1      15.211  -6.810   5.223  0.00  0.00     0.035 H 
ATOM    134  H84 PRO d   1      15.325  -4.742   4.208  0.00  0.00     0.064 H 
ATOM    135  H85 PRO d   1      14.397  -5.588   2.923  0.00  0.00     0.064 H 
BRANCH 125 136
ATOM    136  C   PRO d   1      13.425  -3.575   6.610  0.00  0.00     0.196 C 
ATOM    137  O   PRO d   1      13.107  -3.562   7.829  0.00  0.00    -0.646 OA
ATOM    138  O   PRO d   1      14.231  -2.724   6.147  0.00  0.00    -0.646 OA
ENDBRANCH 125 136
ENDBRANCH 120 122
BRANCH 120 139
ATOM    139  CB  LEU d   1      10.052  -3.867   3.528  0.00  0.00    -0.049 C 
ATOM    140  H76 LEU d   1      10.177  -4.880   3.937  0.00  0.00     0.030 H 
ATOM    141  H77 LEU d   1       9.931  -3.925   2.436  0.00  0.00     0.030 H 
ATOM    142  H78 LEU d   1       9.160  -3.400   3.971  0.00  0.00     0.030 H 
ENDBRANCH 120 139
ENDBRANCH 118 120
ENDBRANCH 114 116
BRANCH 114 143
ATOM    143  CB  LYS d   1      12.471   1.578   3.144  0.00  0.00    -0.049 C 
ATOM    144  H71 LYS d   1      13.021   1.097   2.322  0.00  0.00     0.030 H 
ATOM    145  H72 LYS d   1      13.117   1.638   4.032  0.00  0.00     0.030 H 
ATOM    146  H73 LYS d   1      12.170   2.591   2.840  0.00  0.00     0.030 H 
ENDBRANCH 114 143
ENDBRANCH 112 114
ENDBRANCH  99 110
ENDBRANCH  94  96
BRANCH  94 147
ATOM    147  CB  LYS d   1       5.017   4.123   3.901  0.00  0.00    -0.038 C 
ATOM    148  H51 LYS d   1       5.647   4.844   3.359  0.00  0.00     0.036 H 
ATOM    149  H52 LYS d   1       3.986   4.502   3.950  0.00  0.00     0.036 H 
BRANCH 147 150
ATOM    150  CG  LYS d   1       5.009   2.821   3.125  0.00  0.00    -0.061 C 
ATOM    151  H53 LYS d   1       4.446   2.067   3.696  0.00  0.00     0.033 H 
ATOM    152  H54 LYS d   1       6.045   2.479   2.989  0.00  0.00     0.033 H 
BRANCH 150 153
ATOM    153  CD  LYS d   1       4.364   2.993   1.766  0.00  0.00    -0.043 C 
ATOM    154  H55 LYS d   1       3.315   3.293   1.902  0.00  0.00     0.035 H 
ATOM    155  H56 LYS d   1       4.404   2.035   1.226  0.00  0.00     0.035 H 
BRANCH 153 156
ATOM    156  CE  LYS d   1       5.078   4.050   0.950  0.00  0.00     0.080 C 
ATOM    157  H57 LYS d   1       6.143   3.788   0.871  0.00  0.00     0.075 H 
ATOM    158  H58 LYS d   1       4.977   5.024   1.451  0.00  0.00     0.075 H 
BRANCH 156 159
ATOM    159  NZ  LYS d   1       4.496   4.139  -0.409  0.00  0.00    -0.079 N 
ATOM    160  H59 LYS d   1       4.983   4.846  -0.937  0.00  0.00     0.274 HD
ATOM    161  H60 LYS d   1       3.520   4.382  -0.341  0.00  0.00     0.274 HD
ATOM    162  H61 LYS d   1       4.589   3.249  -0.873  0.00  0.00     0.274 HD
ENDBRANCH 156 159
ENDBRANCH 153 156
ENDBRANCH 150 153
ENDBRANCH 147 150
ENDBRANCH  94 147
ENDBRANCH  92  94
ENDBRANCH   2  90
TORSDOF 30
