REMARK  5 active torsions:
REMARK  status: ('A' for Active; 'I' for Inactive)
REMARK    1  A    between atoms: CAM_2  and  CAF_4 
REMARK    2  A    between atoms: CAF_4  and  CAG_5 
REMARK    3  A    between atoms: CAG_5  and  CAO_6 
REMARK       I    between atoms: CAO_6  and  NAL_8 
REMARK    4  A    between atoms: NAL_8  and  CAP_9 
REMARK    5  A    between atoms: CAQ_14  and  CAN_15 
REMARK       I    between atoms: CAN_15  and  NAA_17 
ROOT
ATOM      1  CAP 0RZ d   1      37.022  20.312 -20.116  0.00  0.00     0.035 A 
ATOM      2  CAK 0RZ d   1      36.322  21.476 -19.816  0.00  0.00    -0.042 A 
ATOM      3  CAI 0RZ d   1      36.780  19.151 -19.371  0.00  0.00    -0.057 A 
ATOM      4  CAH 0RZ d   1      35.879  19.192 -18.307  0.00  0.00    -0.080 A 
ATOM      5  CAJ 0RZ d   1      35.210  20.373 -17.993  0.00  0.00    -0.068 A 
ATOM      6  CAQ 0RZ d   1      35.432  21.517 -18.754  0.00  0.00     0.034 A 
ATOM      7  H   0RZ d   1      36.475  22.368 -20.424  0.00  0.00     0.088 H 
ATOM      8  H   0RZ d   1      37.292  18.222 -19.621  0.00  0.00     0.086 H 
ATOM      9  H   0RZ d   1      35.697  18.294 -17.717  0.00  0.00     0.083 H 
ATOM     10  H   0RZ d   1      34.515  20.401 -17.154  0.00  0.00     0.085 H 
ENDROOT
BRANCH   1  11
ATOM     11  NAL 0RZ d   1      37.789  20.387 -21.194  0.00  0.00    -0.327 N 
ATOM     12  CAO 0RZ d   1      38.767  19.515 -21.486  0.00  0.00     0.222 C 
ATOM     13  OAD 0RZ d   1      39.204  18.635 -20.740  0.00  0.00    -0.273 OA
ATOM     14  H   0RZ d   1      37.626  21.157 -21.843  0.00  0.00     0.169 HD
BRANCH  12  15
ATOM     15  CAG 0RZ d   1      39.379  19.762 -22.879  0.00  0.00     0.018 C 
ATOM     16  H   0RZ d   1      40.407  20.059 -22.674  0.00  0.00     0.048 H 
ATOM     17  H   0RZ d   1      39.171  18.846 -23.432  0.00  0.00     0.048 H 
BRANCH  15  18
ATOM     18  CAF 0RZ d   1      38.828  20.890 -23.785  0.00  0.00     0.024 C 
ATOM     19  H   0RZ d   1      37.801  20.586 -23.988  0.00  0.00     0.049 H 
ATOM     20  H   0RZ d   1      39.047  21.803 -23.231  0.00  0.00     0.049 H 
BRANCH  18  21
ATOM     21  CAM 0RZ d   1      39.413  21.148 -25.163  0.00  0.00     0.172 C 
ATOM     22  OAB 0RZ d   1      38.919  22.064 -25.863  0.00  0.00    -0.648 OA
ATOM     23  OAE 0RZ d   1      40.374  20.454 -25.586  0.00  0.00    -0.648 OA
ENDBRANCH  18  21
ENDBRANCH  15  18
ENDBRANCH  12  15
ENDBRANCH   1  11
BRANCH   6  24
ATOM     24  CAN 0RZ d   1      34.779  22.688 -18.455  0.00  0.00     0.249 C 
ATOM     25  OAC 0RZ d   1      34.395  22.913 -17.310  0.00  0.00    -0.268 OA
ATOM     26  NAA 0RZ d   1      34.562  23.502 -19.481  0.00  0.00    -0.366 N 
ATOM     27  H   0RZ d   1      34.049  24.373 -19.342  0.00  0.00     0.159 HD
ATOM     28  H   0RZ d   1      34.908  23.257 -20.409  0.00  0.00     0.159 HD
ENDBRANCH   6  24
TORSDOF 5
