REMARK  9 active torsions:
REMARK  status: ('A' for Active; 'I' for Inactive)
REMARK    1  A    between atoms: C31_1  and  S30_2 
REMARK    2  A    between atoms: S30_2  and  N27_5 
REMARK    3  A    between atoms: N27_5  and  C26_6 
REMARK    4  A    between atoms: C24_12  and  N28_13 
REMARK    5  A    between atoms: N28_13  and  C2_14 
REMARK    6  A    between atoms: C5_17  and  C15_18 
REMARK    7  A    between atoms: C3_25  and  C7_26 
REMARK    8  A    between atoms: C9_29  and  C13_30 
REMARK    9  A    between atoms: C11_32  and  N14_33 
ROOT
ATOM      1  C2  F1S d   1      23.598  14.956  21.485  0.00  0.00     0.141 A 
ATOM      2  N1  F1S d   1      24.166  15.809  20.616  0.00  0.00    -0.242 NA
ATOM      3  C6  F1S d   1      23.511  16.826  20.095  0.00  0.00     0.011 A 
ATOM      4  C5  F1S d   1      22.186  17.064  20.435  0.00  0.00    -0.035 A 
ATOM      5  C4  F1S d   1      21.550  16.222  21.339  0.00  0.00    -0.058 A 
ATOM      6  C3  F1S d   1      22.261  15.150  21.873  0.00  0.00     0.059 A 
ATOM      7  H   F1S d   1      24.014  17.488  19.390  0.00  0.00     0.115 H 
ATOM      8  H   F1S d   1      20.513  16.397  21.625  0.00  0.00     0.086 H 
ENDROOT
BRANCH   1   9
ATOM      9  N28 F1S d   1      24.314  13.931  21.982  0.00  0.00    -0.339 N 
ATOM     10  H   F1S d   1      23.937  13.441  22.793  0.00  0.00     0.167 HD
BRANCH   9  11
ATOM     11  C24 F1S d   1      25.491  13.504  21.488  0.00  0.00     0.053 A 
ATOM     12  C25 F1S d   1      25.877  13.665  20.158  0.00  0.00    -0.026 A 
ATOM     13  C26 F1S d   1      27.124  13.194  19.755  0.00  0.00     0.085 A 
ATOM     14  H   F1S d   1      25.213  14.152  19.444  0.00  0.00     0.090 H 
ATOM     15  C21 F1S d   1      27.945  12.552  20.673  0.00  0.00     0.153 A 
ATOM     16 CL2  F1S d   1      29.491  11.942  20.196  0.00  0.00    -0.060 Cl
ATOM     17  N22 F1S d   1      27.545  12.401  21.940  0.00  0.00    -0.244 NA
ATOM     18  C23 F1S d   1      26.370  12.848  22.349  0.00  0.00     0.030 A 
ATOM     19  H   F1S d   1      26.080  12.700  23.389  0.00  0.00     0.118 H 
BRANCH  13  20
ATOM     20  N27 F1S d   1      27.543  13.331  18.498  0.00  0.00    -0.282 N 
ATOM     21  H   F1S d   1      27.996  12.541  18.039  0.00  0.00     0.178 HD
BRANCH  20  22
ATOM     22  S30 F1S d   1      27.354  14.722  17.671  0.00  0.00     0.227 S 
ATOM     23  O32 F1S d   1      28.299  14.705  16.508  0.00  0.00    -0.206 OA
ATOM     24  O33 F1S d   1      25.939  14.783  17.168  0.00  0.00    -0.206 OA
BRANCH  22  25
ATOM     25  C31 F1S d   1      27.693  16.128  18.716  0.00  0.00     0.033 C 
ATOM     26  H   F1S d   1      28.716  16.065  19.087  0.00  0.00     0.051 H 
ATOM     27  H   F1S d   1      27.569  17.045  18.140  0.00  0.00     0.051 H 
ATOM     28  H   F1S d   1      27.000  16.129  19.557  0.00  0.00     0.051 H 
ENDBRANCH  22  25
ENDBRANCH  20  22
ENDBRANCH  13  20
ENDBRANCH   9  11
ENDBRANCH   1   9
BRANCH   6  29
ATOM     29  C7  F1S d   1      21.638  14.289  22.777  0.00  0.00     0.184 A 
ATOM     30  N12 F1S d   1      20.366  14.470  23.161  0.00  0.00    -0.042 NA
ATOM     31  C11 F1S d   1      19.806  13.618  24.033  0.00  0.00     0.723 A 
ATOM     32  N10 F1S d   1      20.507  12.583  24.522  0.00  0.00    -0.048 NA
ATOM     33  C9  F1S d   1      21.777  12.404  24.142  0.00  0.00     0.143 A 
ATOM     34  N8  F1S d   1      22.333  13.257  23.276  0.00  0.00    -0.212 NA
BRANCH  31  35
ATOM     35  N14 F1S d   1      18.550  13.788  24.418  0.00  0.00    -0.231 N 
ATOM     36  H   F1S d   1      18.126  13.136  25.079  0.00  0.00     0.174 HD
ATOM     37  H   F1S d   1      18.006  14.570  24.054  0.00  0.00     0.174 HD
ENDBRANCH  31  35
BRANCH  33  38
ATOM     38  C13 F1S d   1      22.601  11.241  24.681  0.00  0.00    -0.019 C 
ATOM     39  H   F1S d   1      22.924  10.611  23.852  0.00  0.00     0.037 H 
ATOM     40  H   F1S d   1      23.474  11.629  25.206  0.00  0.00     0.037 H 
ATOM     41  H   F1S d   1      21.992  10.654  25.369  0.00  0.00     0.037 H 
ENDBRANCH  33  38
ENDBRANCH   6  29
BRANCH   4  42
ATOM     42  C15 F1S d   1      21.466  18.270  19.812  0.00  0.00    -0.023 C 
ATOM     43  C16 F1S d   1      19.951  18.030  19.676  0.00  0.00    -0.038 C 
ATOM     44  C17 F1S d   1      19.268  19.295  19.145  0.00  0.00     0.020 C 
ATOM     45  H   F1S d   1      19.537  17.781  20.653  0.00  0.00     0.037 H 
ATOM     46  H   F1S d   1      19.778  17.209  18.980  0.00  0.00     0.037 H 
ATOM     47  O18 F1S d   1      19.557  20.324  20.105  0.00  0.00    -0.391 OA
ATOM     48  H   F1S d   1      18.194  19.149  19.030  0.00  0.00     0.074 H 
ATOM     49  H   F1S d   1      19.637  19.560  18.154  0.00  0.00     0.074 H 
ATOM     50  C19 F1S d   1      20.950  20.677  20.064  0.00  0.00     0.020 C 
ATOM     51  C20 F1S d   1      21.733  19.515  20.660  0.00  0.00    -0.038 C 
ATOM     52  H   F1S d   1      21.129  21.590  20.633  0.00  0.00     0.074 H 
ATOM     53  H   F1S d   1      21.266  20.864  19.038  0.00  0.00     0.074 H 
ATOM     54  H   F1S d   1      22.799  19.744  20.662  0.00  0.00     0.037 H 
ATOM     55  H   F1S d   1      21.418  19.341  21.689  0.00  0.00     0.037 H 
ATOM     56  H   F1S d   1      21.859  18.416  18.806  0.00  0.00     0.047 H 
ENDBRANCH   4  42
TORSDOF 9
