REMARK  32 active torsions:
REMARK  status: ('A' for Active; 'I' for Inactive)
REMARK    1  A    between atoms: N_1  and  CA_2 
REMARK    2  A    between atoms: CA_2  and  C_3 
REMARK       I    between atoms: C_3  and  N_5 
REMARK    3  A    between atoms: N_5  and  CA_6 
REMARK    4  A    between atoms: CA_6  and  C_7 
REMARK    5  A    between atoms: CA_6  and  CB_9 
REMARK       I    between atoms: C_7  and  N_11 
REMARK    6  A    between atoms: CB_9  and  OG_10 
REMARK    7  A    between atoms: N_11  and  CA_12 
REMARK    8  A    between atoms: CA_12  and  C_13 
REMARK    9  A    between atoms: CA_12  and  CB_15 
REMARK       I    between atoms: C_13  and  N_17 
REMARK   10  A    between atoms: CB_15  and  OG_16 
REMARK   11  A    between atoms: N_17  and  CA_18 
REMARK   12  A    between atoms: CA_18  and  C_19 
REMARK       I    between atoms: C_19  and  N_21 
REMARK   13  A    between atoms: N_21  and  CA_22 
REMARK   14  A    between atoms: CA_22  and  C_23 
REMARK   15  A    between atoms: CA_22  and  CB_25 
REMARK       I    between atoms: C_23  and  N_27 
REMARK   16  A    between atoms: CB_25  and  OG_26 
REMARK   17  A    between atoms: N_27  and  CA_28 
REMARK   18  A    between atoms: CA_28  and  C_29 
REMARK       I    between atoms: C_29  and  N_31 
REMARK   19  A    between atoms: N_31  and  CA_32 
REMARK   20  A    between atoms: CA_32  and  C_33 
REMARK   21  A    between atoms: CA_32  and  CB_35 
REMARK       I    between atoms: C_33  and  N_37 
REMARK   22  A    between atoms: CB_35  and  OG_36 
REMARK   23  A    between atoms: N_37  and  CA_38 
REMARK   24  A    between atoms: CA_38  and  C_39 
REMARK   25  A    between atoms: CA_38  and  CB_41 
REMARK       I    between atoms: C_39  and  N_45 
REMARK   26  A    between atoms: CB_41  and  CG_42 
REMARK       I    between atoms: CG_42  and  ND2_44 
REMARK   27  A    between atoms: N_45  and  CA_46 
REMARK   28  A    between atoms: CA_46  and  C_47 
REMARK       I    between atoms: C_47  and  N_49 
REMARK   29  A    between atoms: N_49  and  CA_50 
REMARK   30  A    between atoms: CA_50  and  C_51 
REMARK   31  A    between atoms: CA_50  and  CB_53 
REMARK   32  A    between atoms: CB_53  and  CG_54 
ROOT
ATOM      1  N   GLY d   1     -22.848  29.066   9.666  0.00  0.00    -0.350 N 
ATOM      2  H24 GLY d   1     -23.388  29.412   8.899  0.00  0.00     0.163 HD
ATOM      3  C   SER d   1     -21.634  28.575   9.429  0.00  0.00     0.242 C 
ATOM      4  O   SER d   1     -20.897  28.141  10.315  0.00  0.00    -0.271 OA
ENDROOT
BRANCH   1   5
ATOM      5  CA  GLY d   1     -23.413  29.115  11.002  0.00  0.00     0.069 C 
ATOM      6  H25 GLY d   1     -23.038  30.016  11.510  0.00  0.00     0.078 H 
ATOM      7  H26 GLY d   1     -23.089  28.221  11.554  0.00  0.00     0.078 H 
BRANCH   5   8
ATOM      8  C   GLY d   1     -24.931  29.158  10.995  0.00  0.00     0.236 C 
ATOM      9  O   GLY d   1     -25.557  29.151   9.936  0.00  0.00    -0.272 OA
ATOM     10  N   SER d   1     -25.522  29.204  12.185  0.00  0.00    -0.344 N 
ATOM     11  H27 SER d   1     -24.954  29.228  13.008  0.00  0.00     0.163 HD
BRANCH  10  12
ATOM     12  CA  SER d   1     -26.975  29.221  12.327  0.00  0.00     0.109 C 
ATOM     13  H28 SER d   1     -27.419  29.207  11.321  0.00  0.00     0.090 H 
BRANCH  12  14
ATOM     14  C   SER d   1     -27.455  30.477  13.047  0.00  0.00     0.243 C 
ATOM     15  O   SER d   1     -26.744  31.038  13.879  0.00  0.00    -0.271 OA
ATOM     16  N   ASN d   1     -28.665  30.917  12.721  0.00  0.00    -0.345 N 
ATOM     17  H32 ASN d   1     -29.174  30.454  11.995  0.00  0.00     0.163 HD
BRANCH  16  18
ATOM     18  CA  ASN d   1     -29.269  32.058  13.396  0.00  0.00     0.097 C 
ATOM     19  H33 ASN d   1     -28.501  32.509  14.041  0.00  0.00     0.088 H 
BRANCH  18  20
ATOM     20  C   ASN d   1     -30.435  31.640  14.283  0.00  0.00     0.241 C 
ATOM     21  O   ASN d   1     -30.907  32.418  15.111  0.00  0.00    -0.271 OA
ATOM     22  N   GLY d   1     -30.895  30.407  14.101  0.00  0.00    -0.351 N 
ATOM     23  H38 GLY d   1     -30.451  29.817  13.427  0.00  0.00     0.163 HD
BRANCH  22  24
ATOM     24  CA  GLY d   1     -32.024  29.891  14.853  0.00  0.00     0.069 C 
ATOM     25  H39 GLY d   1     -31.928  30.216  15.899  0.00  0.00     0.078 H 
ATOM     26  H40 GLY d   1     -32.005  28.792  14.807  0.00  0.00     0.078 H 
BRANCH  24  27
ATOM     27  C   GLY d   1     -33.355  30.377  14.313  0.00  0.00     0.236 C 
ATOM     28  O   GLY d   1     -34.305  29.604  14.186  0.00  0.00    -0.272 OA
ATOM     29  N   ASP d   1     -33.422  31.667  13.999  0.00  0.00    -0.345 N 
ATOM     30  H41 ASP d   1     -32.627  32.248  14.172  0.00  0.00     0.163 HD
BRANCH  29  31
ATOM     31  CA  ASP d   1     -34.614  32.263  13.411  0.00  0.00     0.105 C 
ATOM     32  H42 ASP d   1     -35.416  31.510  13.413  0.00  0.00     0.090 H 
BRANCH  31  33
ATOM     33  C   ASP d   1     -34.351  32.685  11.969  0.00  0.00     0.197 C 
ATOM     34  O   ASP d   1     -35.222  33.316  11.312  0.00  0.00    -0.646 OA
ATOM     35  O   ASP d   1     -33.250  32.399  11.428  0.00  0.00    -0.646 OA
ENDBRANCH  31  33
BRANCH  31  36
ATOM     36  CB  ASP d   1     -35.074  33.466  14.236  0.00  0.00     0.044 C 
ATOM     37  H43 ASP d   1     -35.760  34.071  13.624  0.00  0.00     0.053 H 
ATOM     38  H44 ASP d   1     -34.193  34.068  14.503  0.00  0.00     0.053 H 
BRANCH  36  39
ATOM     39  CG  ASP d   1     -35.789  33.062  15.510  0.00  0.00     0.175 C 
ATOM     40  OD1 ASP d   1     -35.840  31.850  15.808  0.00  0.00    -0.648 OA
ATOM     41  OD2 ASP d   1     -36.298  33.957  16.217  0.00  0.00    -0.648 OA
ENDBRANCH  36  39
ENDBRANCH  31  36
ENDBRANCH  29  31
ENDBRANCH  24  27
ENDBRANCH  22  24
ENDBRANCH  18  20
BRANCH  18  42
ATOM     42  CB  ASN d   1     -29.720  33.117  12.389  0.00  0.00     0.036 C 
ATOM     43  H34 ASN d   1     -30.315  33.876  12.918  0.00  0.00     0.051 H 
ATOM     44  H35 ASN d   1     -30.342  32.632  11.622  0.00  0.00     0.051 H 
BRANCH  42  45
ATOM     45  CG  ASN d   1     -28.555  33.803  11.707  0.00  0.00     0.217 C 
ATOM     46  OD1 ASN d   1     -27.431  33.789  12.210  0.00  0.00    -0.274 OA
ATOM     47  ND2 ASN d   1     -28.818  34.415  10.557  0.00  0.00    -0.370 N 
ATOM     48  H36 ASN d   1     -28.087  34.885  10.062  0.00  0.00     0.159 HD
ATOM     49  H37 ASN d   1     -29.747  34.406  10.187  0.00  0.00     0.159 HD
ENDBRANCH  42  45
ENDBRANCH  18  42
ENDBRANCH  16  18
ENDBRANCH  12  14
BRANCH  12  50
ATOM     50  CB  SER d   1     -27.449  27.980  13.089  0.00  0.00     0.044 C 
ATOM     51  H29 SER d   1     -26.910  27.919  14.046  0.00  0.00     0.077 H 
ATOM     52  H30 SER d   1     -27.231  27.085  12.488  0.00  0.00     0.077 H 
BRANCH  50  53
ATOM     53  OG  SER d   1     -28.842  28.034  13.347  0.00  0.00    -0.398 OA
ATOM     54  H31 SER d   1     -29.106  27.253  13.819  0.00  0.00     0.209 HD
ENDBRANCH  50  53
ENDBRANCH  12  50
ENDBRANCH  10  12
ENDBRANCH   5   8
ENDBRANCH   1   5
BRANCH   3  55
ATOM     55  CA  SER d   1     -21.178  28.579   7.973  0.00  0.00     0.109 C 
ATOM     56  H20 SER d   1     -21.733  29.364   7.438  0.00  0.00     0.090 H 
BRANCH  55  57
ATOM     57  N   SER d   1     -19.754  28.878   7.876  0.00  0.00    -0.344 N 
ATOM     58  C   GLY d   1     -19.217  29.428   6.791  0.00  0.00     0.236 C 
ATOM     59  O   GLY d   1     -19.866  29.690   5.776  0.00  0.00    -0.272 OA
ATOM     60  H19 SER d   1     -19.161  28.662   8.652  0.00  0.00     0.163 HD
BRANCH  58  61
ATOM     61  CA  GLY d   1     -17.731  29.719   6.866  0.00  0.00     0.069 C 
ATOM     62  H17 GLY d   1     -17.548  30.364   7.738  0.00  0.00     0.078 H 
ATOM     63  H18 GLY d   1     -17.197  28.766   6.996  0.00  0.00     0.078 H 
BRANCH  61  64
ATOM     64  N   GLY d   1     -17.203  30.382   5.688  0.00  0.00    -0.350 N 
ATOM     65  C   SER d   1     -16.378  29.758   4.853  0.00  0.00     0.242 C 
ATOM     66  O   SER d   1     -16.042  28.585   5.003  0.00  0.00    -0.271 OA
ATOM     67  H16 GLY d   1     -17.465  31.328   5.500  0.00  0.00     0.163 HD
BRANCH  65  68
ATOM     68  CA  SER d   1     -15.860  30.577   3.673  0.00  0.00     0.109 C 
ATOM     69  H12 SER d   1     -15.823  31.631   3.986  0.00  0.00     0.090 H 
BRANCH  68  70
ATOM     70  N   SER d   1     -14.518  30.181   3.271  0.00  0.00    -0.344 N 
ATOM     71  C   SER d   1     -13.639  31.088   2.864  0.00  0.00     0.243 C 
ATOM     72  O   SER d   1     -13.873  32.296   2.883  0.00  0.00    -0.271 OA
ATOM     73  H11 SER d   1     -14.256  29.216   3.302  0.00  0.00     0.163 HD
BRANCH  71  74
ATOM     74  CA  SER d   1     -12.302  30.565   2.362  0.00  0.00     0.109 C 
ATOM     75  H7  SER d   1     -12.444  29.546   1.972  0.00  0.00     0.090 H 
BRANCH  74  76
ATOM     76  N   SER d   1     -11.829  31.417   1.276  0.00  0.00    -0.344 N 
ATOM     77  C   GLY d   1     -11.054  30.947   0.305  0.00  0.00     0.243 C 
ATOM     78  O   GLY d   1     -10.560  29.819   0.330  0.00  0.00    -0.272 OA
ATOM     79  H6  SER d   1     -12.095  32.381   1.262  0.00  0.00     0.163 HD
BRANCH  77  80
ATOM     80  CA  GLY d   1     -10.794  31.889  -0.857  0.00  0.00     0.152 C 
ATOM     81  H4  GLY d   1     -11.050  31.367  -1.791  0.00  0.00     0.090 H 
ATOM     82  H5  GLY d   1     -11.441  32.771  -0.740  0.00  0.00     0.090 H 
BRANCH  80  83
ATOM     83  N   GLY d   1      -9.419  32.339  -0.947  0.00  0.00    -0.071 N 
ATOM     84  H1  GLY d   1      -9.319  32.958  -1.736  0.00  0.00     0.274 HD
ATOM     85  H2  GLY d   1      -8.812  31.543  -1.065  0.00  0.00     0.274 HD
ATOM     86  H3  GLY d   1      -9.170  32.829  -0.102  0.00  0.00     0.274 HD
ENDBRANCH  80  83
ENDBRANCH  77  80
ENDBRANCH  74  76
BRANCH  74  87
ATOM     87  CB  SER d   1     -11.287  30.507   3.507  0.00  0.00     0.044 C 
ATOM     88  H8  SER d   1     -10.306  30.220   3.102  0.00  0.00     0.077 H 
ATOM     89  H9  SER d   1     -11.616  29.755   4.239  0.00  0.00     0.077 H 
BRANCH  87  90
ATOM     90  OG  SER d   1     -11.169  31.762   4.155  0.00  0.00    -0.398 OA
ATOM     91  H10 SER d   1     -10.534  31.695   4.859  0.00  0.00     0.209 HD
ENDBRANCH  87  90
ENDBRANCH  74  87
ENDBRANCH  71  74
ENDBRANCH  68  70
BRANCH  68  92
ATOM     92  CB  SER d   1     -16.813  30.463   2.483  0.00  0.00     0.044 C 
ATOM     93  H13 SER d   1     -16.433  31.083   1.657  0.00  0.00     0.077 H 
ATOM     94  H14 SER d   1     -17.808  30.822   2.784  0.00  0.00     0.077 H 
BRANCH  92  95
ATOM     95  OG  SER d   1     -16.919  29.120   2.043  0.00  0.00    -0.398 OA
ATOM     96  H15 SER d   1     -17.250  28.581   2.752  0.00  0.00     0.209 HD
ENDBRANCH  92  95
ENDBRANCH  68  92
ENDBRANCH  65  68
ENDBRANCH  61  64
ENDBRANCH  58  61
ENDBRANCH  55  57
BRANCH  55  97
ATOM     97  CB  SER d   1     -21.493  27.232   7.317  0.00  0.00     0.044 C 
ATOM     98  H21 SER d   1     -21.500  27.357   6.224  0.00  0.00     0.077 H 
ATOM     99  H22 SER d   1     -22.483  26.891   7.654  0.00  0.00     0.077 H 
BRANCH  97 100
ATOM    100  OG  SER d   1     -20.524  26.259   7.666  0.00  0.00    -0.398 OA
ATOM    101  H23 SER d   1     -20.517  26.145   8.609  0.00  0.00     0.209 HD
ENDBRANCH  97 100
ENDBRANCH  55  97
ENDBRANCH   3  55
TORSDOF 32
