REMARK  5 active torsions:
REMARK  status: ('A' for Active; 'I' for Inactive)
REMARK    1  A    between atoms: C2'_10  and  O2'_11 
REMARK    2  A    between atoms: C1'_12  and  N9_13 
REMARK    3  A    between atoms: C2A_33  and  O2A_34 
REMARK    4  A    between atoms: C1A_35  and  N91_36 
REMARK    5  A    between atoms: C21_43  and  N21_44 
ROOT
ATOM      1  P1  C2E d   1      23.304 -27.040 -37.388  0.00  0.00     0.408 P 
ATOM      2  O2P C2E d   1      24.587 -26.817 -36.658  0.00  0.00    -0.624 OA
ATOM      3  O1P C2E d   1      22.564 -25.757 -37.546  0.00  0.00    -0.624 OA
ATOM      4  O5' C2E d   1      23.600 -27.656 -38.790  0.00  0.00    -0.287 OA
ATOM      5  C5' C2E d   1      22.578 -28.007 -39.712  0.00  0.00     0.058 C 
ATOM      6  C4' C2E d   1      23.281 -28.555 -40.963  0.00  0.00     0.090 C 
ATOM      7  O4' C2E d   1      24.129 -27.544 -41.405  0.00  0.00    -0.353 OA
ATOM      8  C3' C2E d   1      24.189 -29.754 -40.775  0.00  0.00     0.106 C 
ATOM      9  O3' C2E d   1      23.428 -30.987 -40.894  0.00  0.00    -0.279 OA
ATOM     10  C2' C2E d   1      25.229 -29.487 -41.849  0.00  0.00     0.106 C 
ATOM     11  C1' C2E d   1      25.348 -27.959 -42.005  0.00  0.00     0.139 C 
ATOM     12  P11 C2E d   1      23.744 -31.991 -39.701  0.00  0.00     0.408 P 
ATOM     13  O21 C2E d   1      25.214 -32.240 -39.776  0.00  0.00    -0.624 OA
ATOM     14  O11 C2E d   1      22.936 -33.213 -39.946  0.00  0.00    -0.624 OA
ATOM     15  O5A C2E d   1      23.339 -31.301 -38.309  0.00  0.00    -0.287 OA
ATOM     16  C5A C2E d   1      21.945 -31.047 -38.030  0.00  0.00     0.058 C 
ATOM     17  C4A C2E d   1      21.712 -30.297 -36.722  0.00  0.00     0.090 C 
ATOM     18  O4A C2E d   1      21.298 -30.999 -35.512  0.00  0.00    -0.353 OA
ATOM     19  C3A C2E d   1      22.867 -29.339 -36.343  0.00  0.00     0.106 C 
ATOM     20  O3A C2E d   1      22.348 -28.008 -36.538  0.00  0.00    -0.279 OA
ATOM     21  C2A C2E d   1      23.219 -29.711 -34.928  0.00  0.00     0.106 C 
ATOM     22  C1A C2E d   1      22.112 -30.635 -34.395  0.00  0.00     0.139 C 
ATOM     23  H   C2E d   1      21.964 -27.141 -39.959  0.00  0.00     0.079 H 
ATOM     24  H   C2E d   1      21.909 -28.753 -39.284  0.00  0.00     0.079 H 
ATOM     25  H   C2E d   1      22.476 -28.868 -41.628  0.00  0.00     0.090 H 
ATOM     26  H   C2E d   1      24.657 -29.881 -39.799  0.00  0.00     0.092 H 
ATOM     27  H   C2E d   1      26.204 -29.894 -41.579  0.00  0.00     0.093 H 
ATOM     28  H   C2E d   1      25.491 -27.594 -43.022  0.00  0.00     0.122 H 
ATOM     29  H   C2E d   1      21.447 -32.013 -37.947  0.00  0.00     0.079 H 
ATOM     30  H   C2E d   1      21.558 -30.425 -38.837  0.00  0.00     0.079 H 
ATOM     31  H   C2E d   1      20.808 -29.777 -37.041  0.00  0.00     0.090 H 
ATOM     32  H   C2E d   1      23.783 -29.399 -36.931  0.00  0.00     0.092 H 
ATOM     33  H   C2E d   1      24.171 -30.241 -34.888  0.00  0.00     0.093 H 
ATOM     34  H   C2E d   1      21.519 -30.109 -33.647  0.00  0.00     0.122 H 
ENDROOT
BRANCH  11  35
ATOM     35  N9  C2E d   1      26.518 -27.477 -41.231  0.00  0.00    -0.295 N 
ATOM     36  C8  C2E d   1      26.510 -26.822 -40.059  0.00  0.00     0.071 A 
ATOM     37  N7  C2E d   1      27.753 -26.524 -39.648  0.00  0.00    -0.234 NA
ATOM     38  H   C2E d   1      25.605 -26.564 -39.509  0.00  0.00     0.144 H 
ATOM     39  C5  C2E d   1      28.596 -26.978 -40.575  0.00  0.00     0.171 A 
ATOM     40  C6  C2E d   1      30.082 -26.982 -40.786  0.00  0.00     0.292 A 
ATOM     41  C4  C2E d   1      27.777 -27.608 -41.613  0.00  0.00     0.161 A 
ATOM     42  O6  C2E d   1      30.852 -26.456 -39.941  0.00  0.00    -0.265 OA
ATOM     43  N1  C2E d   1      30.572 -27.559 -41.916  0.00  0.00    -0.154 N 
ATOM     44  C2  C2E d   1      29.753 -28.131 -42.851  0.00  0.00     0.680 A 
ATOM     45  H   C2E d   1      31.580 -27.566 -42.071  0.00  0.00     0.187 HD
ATOM     46  N2  C2E d   1      30.271 -28.692 -43.966  0.00  0.00    -0.234 N 
ATOM     47  N3  C2E d   1      28.394 -28.157 -42.702  0.00  0.00    -0.174 N 
ATOM     48  H   C2E d   1      31.280 -28.691 -44.116  0.00  0.00     0.174 HD
ATOM     49  H   C2E d   1      29.653 -29.116 -44.658  0.00  0.00     0.174 HD
ATOM     50  H   C2E d   1      27.825 -28.599 -43.424  0.00  0.00     0.186 HD
ENDBRANCH  11  35
BRANCH  10  51
ATOM     51  O2' C2E d   1      24.832 -30.129 -43.070  0.00  0.00    -0.388 OA
ATOM     52  H   C2E d   1      24.758 -31.075 -42.923  0.00  0.00     0.210 HD
ENDBRANCH  10  51
BRANCH  21  53
ATOM     53  O2A C2E d   1      23.383 -28.536 -34.129  0.00  0.00    -0.388 OA
ATOM     54  H   C2E d   1      22.564 -28.035 -34.127  0.00  0.00     0.210 HD
ENDBRANCH  21  53
BRANCH  22  55
ATOM     55  N91 C2E d   1      22.643 -31.821 -33.666  0.00  0.00    -0.295 N 
ATOM     56  C81 C2E d   1      22.311 -32.161 -32.387  0.00  0.00     0.071 A 
ATOM     57  N71 C2E d   1      22.947 -33.288 -31.982  0.00  0.00    -0.234 NA
ATOM     58  H   C2E d   1      21.618 -31.595 -31.765  0.00  0.00     0.144 H 
ATOM     59  C51 C2E d   1      23.715 -33.703 -33.012  0.00  0.00     0.171 A 
ATOM     60  C61 C2E d   1      24.659 -34.828 -33.286  0.00  0.00     0.292 A 
ATOM     61  C41 C2E d   1      23.509 -32.727 -34.119  0.00  0.00     0.161 A 
ATOM     62  O61 C2E d   1      24.904 -35.695 -32.438  0.00  0.00    -0.265 OA
ATOM     63  N11 C2E d   1      25.254 -34.893 -34.504  0.00  0.00    -0.154 N 
ATOM     64  C21 C2E d   1      25.028 -33.972 -35.482  0.00  0.00     0.680 A 
ATOM     65  H   C2E d   1      25.896 -35.662 -34.695  0.00  0.00     0.187 HD
ATOM     66  N31 C2E d   1      24.181 -32.913 -35.310  0.00  0.00    -0.174 N 
ATOM     67  H   C2E d   1      24.044 -32.250 -36.073  0.00  0.00     0.186 HD
BRANCH  64  68
ATOM     68  N21 C2E d   1      25.661 -34.112 -36.658  0.00  0.00    -0.234 N 
ATOM     69  H   C2E d   1      26.296 -34.896 -36.805  0.00  0.00     0.174 HD
ATOM     70  H   C2E d   1      25.506 -33.434 -37.404  0.00  0.00     0.174 HD
ENDBRANCH  64  68
ENDBRANCH  22  55
TORSDOF 5
