REMARK  8 active torsions:
REMARK  status: ('A' for Active; 'I' for Inactive)
REMARK    1  A    between atoms: C12_7  and  C8_8 
REMARK    2  A    between atoms: C4_10  and  C7_11 
REMARK    3  A    between atoms: C2_12  and  C6_13 
REMARK    4  A    between atoms: C11_17  and  C28_18 
REMARK    5  A    between atoms: C20_23  and  C22_24 
REMARK    6  A    between atoms: C22_24  and  C23_25 
REMARK    7  A    between atoms: C23_25  and  O25_27 
REMARK    8  A    between atoms: O25_27  and  C26_28 
ROOT
ATOM      1  C8  0S6 d   1      26.533  50.991  -2.614  0.00  0.00     0.075 C 
ATOM      2  C5  0S6 d   1      27.084  51.076  -1.241  0.00  0.00     0.035 A 
ATOM      3  C4  0S6 d   1      28.357  51.639  -0.924  0.00  0.00    -0.034 A 
ATOM      4  C2  0S6 d   1      28.669  51.513   0.456  0.00  0.00    -0.012 A 
ATOM      5  S1  0S6 d   1      27.352  50.764   1.328  0.00  0.00    -0.075 SA
ATOM      6  C3  0S6 d   1      26.504  50.595  -0.149  0.00  0.00     0.097 A 
ATOM      7  N9  0S6 d   1      25.164  50.022  -0.155  0.00  0.00    -0.275 N 
ATOM      8  C11 0S6 d   1      24.613  48.956   0.615  0.00  0.00     0.131 A 
ATOM      9  N27 0S6 d   1      23.296  48.883   0.301  0.00  0.00    -0.135 NA
ATOM     10  N21 0S6 d   1      22.996  49.858  -0.646  0.00  0.00    -0.132 NA
ATOM     11  C19 0S6 d   1      24.112  50.551  -0.884  0.00  0.00     0.161 A 
ATOM     12  N10 0S6 d   1      25.259  51.070  -2.893  0.00  0.00    -0.275 NA
ATOM     13  C20 0S6 d   1      24.377  51.653  -1.866  0.00  0.00     0.101 C 
ATOM     14  H14 0S6 d   1      24.856  52.517  -1.381  0.00  0.00     0.089 H 
ENDROOT
BRANCH   1  15
ATOM     15  C12 0S6 d   1      27.457  50.428  -3.658  0.00  0.00    -0.007 A 
ATOM     16  C17 0S6 d   1      28.495  49.570  -3.299  0.00  0.00    -0.069 A 
ATOM     17  C16 0S6 d   1      29.298  48.973  -4.256  0.00  0.00    -0.061 A 
ATOM     18  H2  0S6 d   1      28.677  49.366  -2.250  0.00  0.00     0.085 H 
ATOM     19  C15 0S6 d   1      29.062  49.310  -5.585  0.00  0.00     0.034 A 
ATOM     20  H1  0S6 d   1      30.078  48.272  -3.981  0.00  0.00     0.086 H 
ATOM     21 CL1  0S6 d   1      30.078  48.607  -6.835  0.00  0.00    -0.084 Cl
ATOM     22  C13 0S6 d   1      28.065  50.162  -5.982  0.00  0.00    -0.061 A 
ATOM     23  C14 0S6 d   1      27.238  50.746  -4.991  0.00  0.00    -0.069 A 
ATOM     24  H3  0S6 d   1      27.912  50.384  -7.032  0.00  0.00     0.086 H 
ATOM     25  H4  0S6 d   1      26.446  51.431  -5.270  0.00  0.00     0.085 H 
ENDBRANCH   1  15
BRANCH   3  26
ATOM     26  C7  0S6 d   1      29.296  52.337  -1.828  0.00  0.00    -0.049 C 
ATOM     27  H5  0S6 d   1      28.890  52.336  -2.850  0.00  0.00     0.033 H 
ATOM     28  H6  0S6 d   1      30.267  51.820  -1.819  0.00  0.00     0.033 H 
ATOM     29  H7  0S6 d   1      29.430  53.374  -1.488  0.00  0.00     0.033 H 
ENDBRANCH   3  26
BRANCH  13  30
ATOM     30  C22 0S6 d   1      23.076  52.049  -2.470  0.00  0.00     0.043 C 
ATOM     31  H15 0S6 d   1      22.377  52.358  -1.679  0.00  0.00     0.051 H 
ATOM     32  H16 0S6 d   1      22.650  51.200  -3.025  0.00  0.00     0.051 H 
BRANCH  30  33
ATOM     33  C23 0S6 d   1      23.321  53.202  -3.412  0.00  0.00     0.260 C 
ATOM     34  O24 0S6 d   1      24.291  53.937  -3.437  0.00  0.00    -0.265 OA
BRANCH  33  35
ATOM     35  O25 0S6 d   1      22.219  53.494  -4.205  0.00  0.00    -0.326 OA
BRANCH  35  36
ATOM     36  C26 0S6 d   1      22.310  54.603  -5.117  0.00  0.00     0.013 C 
ATOM     37  H17 0S6 d   1      21.363  54.703  -5.668  0.00  0.00     0.067 H 
ATOM     38  H18 0S6 d   1      23.131  54.427  -5.827  0.00  0.00     0.067 H 
ATOM     39  H19 0S6 d   1      22.505  55.527  -4.553  0.00  0.00     0.067 H 
ENDBRANCH  35  36
ENDBRANCH  33  35
ENDBRANCH  30  33
ENDBRANCH  13  30
BRANCH   4  40
ATOM     40  C6  0S6 d   1      29.926  51.878   1.224  0.00  0.00    -0.045 C 
ATOM     41  H8  0S6 d   1      29.791  51.630   2.287  0.00  0.00     0.034 H 
ATOM     42  H9  0S6 d   1      30.119  52.956   1.121  0.00  0.00     0.034 H 
ATOM     43  H10 0S6 d   1      30.779  51.312   0.821  0.00  0.00     0.034 H 
ENDBRANCH   4  40
BRANCH   8  44
ATOM     44  C28 0S6 d   1      25.367  48.107   1.593  0.00  0.00    -0.019 C 
ATOM     45  H11 0S6 d   1      24.686  47.366   2.037  0.00  0.00     0.037 H 
ATOM     46  H12 0S6 d   1      25.783  48.744   2.387  0.00  0.00     0.037 H 
ATOM     47  H13 0S6 d   1      26.185  47.587   1.073  0.00  0.00     0.037 H 
ENDBRANCH   8  44
TORSDOF 8
