REMARK  14 active torsions:
REMARK  status: ('A' for Active; 'I' for Inactive)
REMARK    1  A    between atoms: C7_1  and  O8_2 
REMARK    2  A    between atoms: C7_1  and  C1_5 
REMARK    3  A    between atoms: O8_2  and  C9_3 
REMARK       I    between atoms: C9_3  and  N11_11 
REMARK    4  A    between atoms: N11_11  and  C12_12 
REMARK    5  A    between atoms: C12_12  and  C17_13 
REMARK    6  A    between atoms: C12_12  and  C13_15 
REMARK       I    between atoms: C17_13  and  N19_19 
REMARK    7  A    between atoms: C13_15  and  C14_16 
REMARK    8  A    between atoms: C14_16  and  C15_17 
REMARK    9  A    between atoms: C14_16  and  C16_18 
REMARK   10  A    between atoms: N19_19  and  C20_20 
REMARK   11  A    between atoms: C20_20  and  C21_21 
REMARK   12  A    between atoms: C20_20  and  C24_23 
REMARK   13  A    between atoms: C21_21  and  O22_22 
REMARK   14  A    between atoms: C24_23  and  C25_24 
ROOT
ATOM      1  C12 K36 d   1      13.588  -6.394  19.154  0.00  0.00     0.092 C 
ATOM      2  H9  K36 d   1      12.953  -5.526  18.923  0.00  0.00     0.087 H 
ENDROOT
BRANCH   1   3
ATOM      3  N11 K36 d   1      12.766  -7.628  19.062  0.00  0.00    -0.324 N 
ATOM      4  C9  K36 d   1      12.054  -7.875  17.906  0.00  0.00     0.361 C 
ATOM      5  O10 K36 d   1      11.940  -6.983  17.073  0.00  0.00    -0.238 OA
ATOM      6  H8  K36 d   1      12.729  -8.271  19.827  0.00  0.00     0.165 HD
BRANCH   4   7
ATOM      7  O8  K36 d   1      11.437  -9.176  17.634  0.00  0.00    -0.299 OA
BRANCH   7   8
ATOM      8  C7  K36 d   1      10.675  -9.324  16.434  0.00  0.00     0.054 C 
ATOM      9  H1  K36 d   1      10.372  -8.330  16.072  0.00  0.00     0.082 H 
ATOM     10  H2  K36 d   1       9.779  -9.926  16.646  0.00  0.00     0.082 H 
BRANCH   8  11
ATOM     11  C1  K36 d   1      11.498 -10.013  15.368  0.00  0.00    -0.034 A 
ATOM     12  C2  K36 d   1      12.770 -10.481  15.659  0.00  0.00    -0.075 A 
ATOM     13  C3  K36 d   1      13.520 -11.114  14.680  0.00  0.00    -0.082 A 
ATOM     14  H3  K36 d   1      13.179 -10.352  16.654  0.00  0.00     0.084 H 
ATOM     15  C4  K36 d   1      13.004 -11.261  13.402  0.00  0.00    -0.083 A 
ATOM     16  H4  K36 d   1      14.508 -11.493  14.914  0.00  0.00     0.083 H 
ATOM     17  C5  K36 d   1      11.732 -10.786  13.101  0.00  0.00    -0.082 A 
ATOM     18  H5  K36 d   1      13.594 -11.748  12.634  0.00  0.00     0.083 H 
ATOM     19  C6  K36 d   1      10.983 -10.165  14.092  0.00  0.00    -0.075 A 
ATOM     20  H6  K36 d   1      11.329 -10.899  12.101  0.00  0.00     0.083 H 
ATOM     21  H7  K36 d   1       9.989  -9.797  13.865  0.00  0.00     0.084 H 
ENDBRANCH   8  11
ENDBRANCH   7   8
ENDBRANCH   4   7
ENDBRANCH   1   3
BRANCH   1  22
ATOM     22  C17 K36 d   1      14.694  -6.462  18.138  0.00  0.00     0.240 C 
ATOM     23  O18 K36 d   1      15.281  -7.514  17.925  0.00  0.00    -0.271 OA
ATOM     24  N19 K36 d   1      15.013  -5.350  17.388  0.00  0.00    -0.353 N 
ATOM     25  H19 K36 d   1      14.506  -4.496  17.501  0.00  0.00     0.163 HD
BRANCH  24  26
ATOM     26  C20 K36 d   1      16.124  -5.447  16.410  0.00  0.00     0.033 C 
ATOM     27  H20 K36 d   1      16.512  -6.476  16.421  0.00  0.00     0.075 H 
BRANCH  26  28
ATOM     28  C21 K36 d   1      17.254  -4.505  16.846  0.00  0.00     0.035 C 
ATOM     29  H21 K36 d   1      17.729  -4.912  17.750  0.00  0.00     0.077 H 
ATOM     30  H22 K36 d   1      16.828  -3.516  17.069  0.00  0.00     0.077 H 
BRANCH  28  31
ATOM     31  O22 K36 d   1      18.257  -4.362  15.812  0.00  0.00    -0.399 OA
ATOM     32  H23 K36 d   1      18.940  -3.774  16.114  0.00  0.00     0.209 HD
ENDBRANCH  28  31
ENDBRANCH  26  28
BRANCH  26  33
ATOM     33  C24 K36 d   1      15.622  -5.148  14.986  0.00  0.00    -0.033 C 
ATOM     34  H24 K36 d   1      16.471  -5.193  14.288  0.00  0.00     0.037 H 
ATOM     35  H25 K36 d   1      15.181  -4.140  14.963  0.00  0.00     0.037 H 
BRANCH  33  36
ATOM     36  C25 K36 d   1      14.566  -6.166  14.556  0.00  0.00     0.027 C 
ATOM     37  C26 K36 d   1      15.261  -7.474  14.211  0.00  0.00    -0.039 C 
ATOM     38  C27 K36 d   1      14.731  -7.907  12.844  0.00  0.00    -0.004 C 
ATOM     39  H27 K36 d   1      15.028  -8.238  14.967  0.00  0.00     0.036 H 
ATOM     40  H28 K36 d   1      16.350  -7.324  14.165  0.00  0.00     0.036 H 
ATOM     41  N28 K36 d   1      13.881  -6.813  12.317  0.00  0.00    -0.361 N 
ATOM     42  H29 K36 d   1      14.135  -8.826  12.948  0.00  0.00     0.064 H 
ATOM     43  H30 K36 d   1      15.571  -8.091  12.158  0.00  0.00     0.064 H 
ATOM     44  C29 K36 d   1      13.852  -5.826  13.277  0.00  0.00     0.221 C 
ATOM     45  H31 K36 d   1      13.416  -6.795  11.432  0.00  0.00     0.162 HD
ATOM     46  O30 K36 d   1      13.240  -4.770  13.092  0.00  0.00    -0.273 OA
ATOM     47  H26 K36 d   1      13.841  -6.298  15.373  0.00  0.00     0.054 H 
ENDBRANCH  33  36
ENDBRANCH  26  33
ENDBRANCH  24  26
ENDBRANCH   1  22
BRANCH   1  48
ATOM     48  C13 K36 d   1      14.133  -6.228  20.570  0.00  0.00    -0.035 C 
ATOM     49  H10 K36 d   1      15.068  -5.650  20.528  0.00  0.00     0.037 H 
ATOM     50  H11 K36 d   1      14.336  -7.223  20.994  0.00  0.00     0.037 H 
BRANCH  48  51
ATOM     51  C14 K36 d   1      13.133  -5.494  21.475  0.00  0.00    -0.059 C 
ATOM     52  H12 K36 d   1      13.161  -4.428  21.205  0.00  0.00     0.038 H 
BRANCH  51  53
ATOM     53  C15 K36 d   1      11.711  -5.997  21.253  0.00  0.00    -0.073 C 
ATOM     54  H13 K36 d   1      11.022  -5.452  21.915  0.00  0.00     0.028 H 
ATOM     55  H14 K36 d   1      11.663  -7.072  21.479  0.00  0.00     0.028 H 
ATOM     56  H15 K36 d   1      11.422  -5.829  20.205  0.00  0.00     0.028 H 
ENDBRANCH  51  53
BRANCH  51  57
ATOM     57  C16 K36 d   1      13.509  -5.613  22.953  0.00  0.00    -0.073 C 
ATOM     58  H16 K36 d   1      14.536  -5.247  23.101  0.00  0.00     0.028 H 
ATOM     59  H17 K36 d   1      13.447  -6.666  23.264  0.00  0.00     0.028 H 
ATOM     60  H18 K36 d   1      12.815  -5.011  23.558  0.00  0.00     0.028 H 
ENDBRANCH  51  57
ENDBRANCH  48  51
ENDBRANCH   1  48
TORSDOF 14
