REMARK  5 active torsions:
REMARK  status: ('A' for Active; 'I' for Inactive)
REMARK    1  A    between atoms: N24_25  and  C1_1 
REMARK    2  A    between atoms: C4_4  and  C7_7 
REMARK    3  A    between atoms: N13_10  and  C14_21 
REMARK    4  A    between atoms: C10_22  and  N13_10 
REMARK    5  A    between atoms: C17_12  and  C20_17 
ROOT
ATOM      1  C1  0SB d   1      -0.140   2.673  12.321  0.00  0.00     0.031 A 
ATOM      2  C2  0SB d   1       0.130   1.566  13.100  0.00  0.00    -0.045 A 
ATOM      3  C3  0SB d   1      -1.180   2.598  11.395  0.00  0.00    -0.057 A 
ATOM      4  C4  0SB d   1      -0.581   0.391  12.965  0.00  0.00    -0.005 A 
ATOM      5  C5  0SB d   1      -1.919   1.431  11.265  0.00  0.00    -0.080 A 
ATOM      6  C6  0SB d   1      -1.634   0.332  12.058  0.00  0.00    -0.071 A 
ATOM      7  H1  0SB d   1       0.922   1.621  13.838  0.00  0.00     0.088 H 
ATOM      8  H2  0SB d   1      -1.412   3.455  10.774  0.00  0.00     0.086 H 
ATOM      9  H3  0SB d   1      -2.723   1.379  10.540  0.00  0.00     0.083 H 
ATOM     10  H4  0SB d   1      -2.229  -0.570  11.972  0.00  0.00     0.084 H 
ENDROOT
BRANCH   4  11
ATOM     11  C7  0SB d   1      -0.213  -0.683  13.907  0.00  0.00     0.069 A 
ATOM     12  N8  0SB d   1       1.059  -0.686  14.468  0.00  0.00    -0.231 NA
ATOM     13  C10 0SB d   1       1.422  -1.636  15.391  0.00  0.00     0.129 A 
ATOM     14  C12 0SB d   1       0.498  -2.590  15.798  0.00  0.00    -0.038 A 
ATOM     15  C11 0SB d   1      -0.780  -2.574  15.265  0.00  0.00    -0.077 A 
ATOM     16  H6  0SB d   1       0.775  -3.342  16.528  0.00  0.00     0.089 H 
ATOM     17  C9  0SB d   1      -1.147  -1.619  14.333  0.00  0.00    -0.054 A 
ATOM     18  H5  0SB d   1      -1.502  -3.318  15.582  0.00  0.00     0.083 H 
ATOM     19  H13 0SB d   1      -2.156  -1.601  13.938  0.00  0.00     0.087 H 
BRANCH  13  20
ATOM     20  N13 0SB d   1       2.733  -1.712  15.903  0.00  0.00    -0.326 N 
ATOM     21  H7  0SB d   1       2.886  -2.393  16.661  0.00  0.00     0.169 HD
BRANCH  20  22
ATOM     22  C14 0SB d   1       3.853  -0.971  15.503  0.00  0.00     0.129 A 
ATOM     23  C15 0SB d   1       3.877  -0.078  14.438  0.00  0.00    -0.024 A 
ATOM     24  C17 0SB d   1       5.051   0.619  14.170  0.00  0.00     0.052 A 
ATOM     25  H8  0SB d   1       2.995   0.073  13.826  0.00  0.00     0.090 H 
ATOM     26  C19 0SB d   1       6.172   0.453  14.957  0.00  0.00    -0.051 A 
ATOM     27  C18 0SB d   1       6.142  -0.440  16.005  0.00  0.00     0.005 A 
ATOM     28  H10 0SB d   1       7.071   1.022  14.752  0.00  0.00     0.086 H 
ATOM     29  N16 0SB d   1       4.986  -1.146  16.279  0.00  0.00    -0.243 NA
ATOM     30  H9  0SB d   1       7.026  -0.589  16.615  0.00  0.00     0.114 H 
BRANCH  24  31
ATOM     31  C20 0SB d   1       5.133   1.619  13.054  0.00  0.00     0.417 C 
ATOM     32  F23 0SB d   1       4.989   2.840  13.614  0.00  0.00    -0.166 F 
ATOM     33  F21 0SB d   1       6.361   1.548  12.475  0.00  0.00    -0.166 F 
ATOM     34  F22 0SB d   1       4.169   1.437  12.104  0.00  0.00    -0.166 F 
ENDBRANCH  24  31
ENDBRANCH  20  22
ENDBRANCH  13  20
ENDBRANCH   4  11
BRANCH   1  35
ATOM     35  N24 0SB d   1       0.640   3.848  12.524  0.00  0.00    -0.378 N 
ATOM     36  C26 0SB d   1       2.078   3.796  12.850  0.00  0.00     0.018 C 
ATOM     37  C28 0SB d   1       2.393   4.860  13.911  0.00  0.00     0.096 C 
ATOM     38  H14 0SB d   1       2.668   3.994  11.943  0.00  0.00     0.066 H 
ATOM     39  H15 0SB d   1       2.331   2.800  13.242  0.00  0.00     0.066 H 
ATOM     40  N29 0SB d   1       2.141   6.180  13.332  0.00  0.00    -0.072 N 
ATOM     41  H16 0SB d   1       3.448   4.782  14.213  0.00  0.00     0.078 H 
ATOM     42  H17 0SB d   1       1.748   4.711  14.790  0.00  0.00     0.078 H 
ATOM     43  C27 0SB d   1       0.748   6.352  12.873  0.00  0.00     0.096 C 
ATOM     44  H18 0SB d   1       2.338   6.880  14.030  0.00  0.00     0.277 HD
ATOM     45  H19 0SB d   1       2.757   6.308  12.544  0.00  0.00     0.277 HD
ATOM     46  C25 0SB d   1       0.272   5.186  11.984  0.00  0.00     0.018 C 
ATOM     47  H11 0SB d   1       0.679   7.286  12.296  0.00  0.00     0.078 H 
ATOM     48  H12 0SB d   1       0.092   6.415  13.753  0.00  0.00     0.078 H 
ATOM     49  H20 0SB d   1       0.726   5.298  10.988  0.00  0.00     0.066 H 
ATOM     50  H21 0SB d   1      -0.823   5.238  11.896  0.00  0.00     0.066 H 
ENDBRANCH   1  35
TORSDOF 5
