REMARK  7 active torsions:
REMARK  status: ('A' for Active; 'I' for Inactive)
REMARK    1  A    between atoms: C1_1  and  C2_2 
REMARK    2  A    between atoms: C4_4  and  N5_5 
REMARK    3  A    between atoms: N5_5  and  C6_6 
REMARK    4  A    between atoms: C8_8  and  N9_9 
REMARK    5  A    between atoms: N9_9  and  C10_10 
REMARK    6  A    between atoms: C10_10  and  C11_11 
REMARK    7  A    between atoms: C11_11  and  C12_12 
ROOT
ATOM      1  C6  0S7 d   1      85.738   1.155   7.728  0.00  0.00     0.167 A 
ATOM      2  N7  0S7 d   1      85.715   2.214   8.514  0.00  0.00    -0.044 NA
ATOM      3  C8  0S7 d   1      84.999   3.279   8.191  0.00  0.00     0.724 A 
ATOM      4  N18 0S7 d   1      84.276   3.334   7.078  0.00  0.00    -0.074 NA
ATOM      5  C19 0S7 d   1      84.249   2.318   6.231  0.00  0.00     0.042 A 
ATOM      6  C20 0S7 d   1      84.988   1.192   6.540  0.00  0.00     0.075 A 
ATOM      7 BR1  0S7 d   1      85.030  -0.314   5.379  0.00  0.00    -0.045 Br
ATOM      8  H   0S7 d   1      83.660   2.368   5.315  0.00  0.00     0.118 H 
ENDROOT
BRANCH   3   9
ATOM      9  N9  0S7 d   1      85.002   4.348   9.069  0.00  0.00    -0.222 N 
ATOM     10  H   0S7 d   1      85.280   5.285   8.776  0.00  0.00     0.177 HD
BRANCH   9  11
ATOM     11  C10 0S7 d   1      84.584   4.061  10.442  0.00  0.00     0.013 C 
ATOM     12  H   0S7 d   1      85.087   3.155  10.780  0.00  0.00     0.065 H 
ATOM     13  H   0S7 d   1      83.501   3.934  10.460  0.00  0.00     0.065 H 
BRANCH  11  14
ATOM     14  C11 0S7 d   1      84.960   5.210  11.378  0.00  0.00    -0.024 C 
ATOM     15  H   0S7 d   1      84.098   5.856  11.546  0.00  0.00     0.042 H 
ATOM     16  H   0S7 d   1      85.752   5.813  10.934  0.00  0.00     0.042 H 
BRANCH  14  17
ATOM     17  C12 0S7 d   1      85.423   4.621  12.671  0.00  0.00    -0.039 A 
ATOM     18  C13 0S7 d   1      86.231   5.337  13.558  0.00  0.00    -0.074 A 
ATOM     19  C14 0S7 d   1      86.639   4.700  14.730  0.00  0.00    -0.066 A 
ATOM     20  H   0S7 d   1      86.533   6.362  13.341  0.00  0.00     0.084 H 
ATOM     21  C15 0S7 d   1      86.203   3.387  14.979  0.00  0.00     0.002 A 
ATOM     22  H   0S7 d   1      87.286   5.213  15.442  0.00  0.00     0.085 H 
ATOM     23  N16 0S7 d   1      85.423   2.751  14.105  0.00  0.00    -0.273 NA
ATOM     24  H   0S7 d   1      86.506   2.883  15.897  0.00  0.00     0.114 H 
ATOM     25  C17 0S7 d   1      85.023   3.316  12.980  0.00  0.00     0.008 A 
ATOM     26  H   0S7 d   1      84.381   2.766  12.292  0.00  0.00     0.115 H 
ENDBRANCH  14  17
ENDBRANCH  11  14
ENDBRANCH   9  11
ENDBRANCH   3   9
BRANCH   1  27
ATOM     27  N5  0S7 d   1      86.494   0.033   8.046  0.00  0.00    -0.324 N 
ATOM     28  H   0S7 d   1      86.456  -0.772   7.420  0.00  0.00     0.169 HD
BRANCH  27  29
ATOM     29  C4  0S7 d   1      87.297  -0.045   9.172  0.00  0.00     0.125 A 
ATOM     30  C3  0S7 d   1      87.492   0.856  10.176  0.00  0.00    -0.014 A 
ATOM     31  C2  0S7 d   1      88.389   0.296  11.092  0.00  0.00     0.054 A 
ATOM     32  H   0S7 d   1      87.030   1.840  10.252  0.00  0.00     0.092 H 
ATOM     33  N24 0S7 d   1      88.713  -0.878  10.643  0.00  0.00    -0.178 NA
ATOM     34  N22 0S7 d   1      88.040  -1.111   9.454  0.00  0.00    -0.262 N 
ATOM     35  H   0S7 d   1      88.104  -1.958   8.890  0.00  0.00     0.191 HD
BRANCH  31  36
ATOM     36  C1  0S7 d   1      88.907   0.914  12.378  0.00  0.00    -0.034 C 
ATOM     37  H   0S7 d   1      88.630   0.281  13.221  0.00  0.00     0.035 H 
ATOM     38  H   0S7 d   1      89.993   0.999  12.327  0.00  0.00     0.035 H 
ATOM     39  H   0S7 d   1      88.469   1.904  12.506  0.00  0.00     0.035 H 
ENDBRANCH  31  36
ENDBRANCH  27  29
ENDBRANCH   1  27
TORSDOF 7
