REMARK  11 active torsions:
REMARK  status: ('A' for Active; 'I' for Inactive)
REMARK    1  A    between atoms: C1_1  and  O2_2 
REMARK    2  A    between atoms: O2_2  and  C3_3 
REMARK    3  A    between atoms: C3_3  and  C4_4 
REMARK    4  A    between atoms: C4_4  and  C5_5 
REMARK    5  A    between atoms: C5_5  and  C6_6 
REMARK    6  A    between atoms: C8_8  and  N9_9 
REMARK    7  A    between atoms: N9_9  and  C10_10 
REMARK    8  A    between atoms: C12_12  and  N13_13 
REMARK    9  A    between atoms: N13_13  and  C14_14 
REMARK   10  A    between atoms: C14_14  and  C15_15 
REMARK   11  A    between atoms: C17_17  and  C18_18 
ROOT
ATOM      1  C10 0S8 d   1      85.668   1.341   7.902  0.00  0.00     0.167 A 
ATOM      2  N11 0S8 d   1      85.612   2.402   8.695  0.00  0.00    -0.044 NA
ATOM      3  C12 0S8 d   1      84.793   3.424   8.415  0.00  0.00     0.724 A 
ATOM      4  N21 0S8 d   1      84.025   3.413   7.342  0.00  0.00    -0.074 NA
ATOM      5  C22 0S8 d   1      84.038   2.389   6.495  0.00  0.00     0.042 A 
ATOM      6  C23 0S8 d   1      84.875   1.307   6.756  0.00  0.00     0.075 A 
ATOM      7 BR1  0S8 d   1      84.967  -0.176   5.554  0.00  0.00    -0.045 Br
ATOM      8  H   0S8 d   1      83.403   2.396   5.609  0.00  0.00     0.118 H 
ENDROOT
BRANCH   1   9
ATOM      9  N9  0S8 d   1      86.507   0.272   8.146  0.00  0.00    -0.323 N 
ATOM     10  H   0S8 d   1      86.508  -0.506   7.486  0.00  0.00     0.169 HD
BRANCH   9  11
ATOM     11  C8  0S8 d   1      87.343   0.208   9.240  0.00  0.00     0.151 A 
ATOM     12  C7  0S8 d   1      87.545   1.055  10.282  0.00  0.00    -0.014 A 
ATOM     13  C6  0S8 d   1      88.499   0.459  11.124  0.00  0.00     0.031 A 
ATOM     14  H   0S8 d   1      87.058   2.018  10.436  0.00  0.00     0.092 H 
ATOM     15  N27 0S8 d   1      88.848  -0.676  10.603  0.00  0.00    -0.280 N 
ATOM     16  N25 0S8 d   1      88.126  -0.834   9.439  0.00  0.00    -0.156 NA
ATOM     17  H   0S8 d   1      89.531  -1.331  10.984  0.00  0.00     0.189 HD
BRANCH  13  18
ATOM     18  C5  0S8 d   1      89.093   1.000  12.396  0.00  0.00    -0.023 C 
ATOM     19  H   0S8 d   1      89.592   0.171  12.899  0.00  0.00     0.042 H 
ATOM     20  H   0S8 d   1      89.761   1.816  12.120  0.00  0.00     0.042 H 
BRANCH  18  21
ATOM     21  C4  0S8 d   1      88.061   1.567  13.370  0.00  0.00    -0.040 C 
ATOM     22  H   0S8 d   1      87.231   2.036  12.842  0.00  0.00     0.036 H 
ATOM     23  H   0S8 d   1      87.614   0.781  13.979  0.00  0.00     0.036 H 
BRANCH  21  24
ATOM     24  C3  0S8 d   1      88.824   2.583  14.234  0.00  0.00     0.019 C 
ATOM     25  H   0S8 d   1      89.608   3.047  13.636  0.00  0.00     0.074 H 
ATOM     26  H   0S8 d   1      88.131   3.345  14.590  0.00  0.00     0.074 H 
BRANCH  24  27
ATOM     27  O2  0S8 d   1      89.419   1.915  15.364  0.00  0.00    -0.396 OA
BRANCH  27  28
ATOM     28  C1  0S8 d   1      90.528   2.721  15.822  0.00  0.00     0.004 C 
ATOM     29  H   0S8 d   1      91.256   2.825  15.018  0.00  0.00     0.066 H 
ATOM     30  H   0S8 d   1      90.163   3.706  16.114  0.00  0.00     0.066 H 
ATOM     31  H   0S8 d   1      90.998   2.237  16.679  0.00  0.00     0.066 H 
ENDBRANCH  27  28
ENDBRANCH  24  27
ENDBRANCH  21  24
ENDBRANCH  18  21
ENDBRANCH  13  18
ENDBRANCH   9  11
ENDBRANCH   1   9
BRANCH   3  32
ATOM     32  N13 0S8 d   1      84.710   4.544   9.242  0.00  0.00    -0.216 N 
ATOM     33  H   0S8 d   1      83.947   5.205   9.092  0.00  0.00     0.178 HD
BRANCH  32  34
ATOM     34  C14 0S8 d   1      85.669   4.814  10.316  0.00  0.00     0.055 C 
ATOM     35  H   0S8 d   1      85.778   5.890  10.455  0.00  0.00     0.075 H 
ATOM     36  H   0S8 d   1      86.642   4.397  10.058  0.00  0.00     0.075 H 
BRANCH  34  37
ATOM     37  C15 0S8 d   1      85.161   4.183  11.582  0.00  0.00     0.099 A 
ATOM     38  C16 0S8 d   1      84.073   3.377  11.763  0.00  0.00    -0.025 A 
ATOM     39  C17 0S8 d   1      84.088   3.050  13.157  0.00  0.00     0.060 A 
ATOM     40  H   0S8 d   1      83.352   3.054  11.012  0.00  0.00     0.090 H 
ATOM     41  N19 0S8 d   1      85.131   3.648  13.647  0.00  0.00    -0.133 NA
ATOM     42  O20 0S8 d   1      85.730   4.285  12.784  0.00  0.00    -0.216 OA
BRANCH  39  43
ATOM     43  C18 0S8 d   1      83.113   2.198  13.928  0.00  0.00    -0.033 C 
ATOM     44  H   0S8 d   1      83.642   1.354  14.372  0.00  0.00     0.035 H 
ATOM     45  H   0S8 d   1      82.654   2.796  14.715  0.00  0.00     0.035 H 
ATOM     46  H   0S8 d   1      82.341   1.830  13.252  0.00  0.00     0.035 H 
ENDBRANCH  39  43
ENDBRANCH  34  37
ENDBRANCH  32  34
ENDBRANCH   3  32
TORSDOF 11
