REMARK  9 active torsions:
REMARK  status: ('A' for Active; 'I' for Inactive)
REMARK    1  A    between atoms: C22_18  and  C23_9 
REMARK    2  A    between atoms: C2_11  and  C1_17 
REMARK    3  A    between atoms: C18_12  and  C21_19 
REMARK    4  A    between atoms: C7_20  and  C4_13 
REMARK    5  A    between atoms: N15_26  and  C16_14 
REMARK    6  A    between atoms: C13_15  and  N15_26 
REMARK    7  A    between atoms: N8_27  and  C9_16 
REMARK    8  A    between atoms: C21_19  and  C22_18 
REMARK    9  A    between atoms: C7_20  and  N8_27 
ROOT
ATOM      1  N15 0S9 d   1      19.679  -1.261 -14.419  0.00  0.00    -0.324 N 
ATOM      2  H   0S9 d   1      20.090  -0.477 -14.926  0.00  0.00     0.169 HD
ENDROOT
BRANCH   1   3
ATOM      3  C16 0S9 d   1      18.373  -1.111 -14.055  0.00  0.00     0.125 A 
ATOM      4  C17 0S9 d   1      17.661  -1.958 -13.169  0.00  0.00    -0.014 A 
ATOM      5  C18 0S9 d   1      16.410  -1.396 -13.062  0.00  0.00     0.058 A 
ATOM      6  H   0S9 d   1      18.026  -2.860 -12.678  0.00  0.00     0.092 H 
ATOM      7  N19 0S9 d   1      16.428  -0.302 -13.864  0.00  0.00    -0.178 NA
ATOM      8  N20 0S9 d   1      17.608  -0.082 -14.446  0.00  0.00    -0.262 N 
ATOM      9  H   0S9 d   1      17.870   0.695 -15.053  0.00  0.00     0.191 HD
BRANCH   5  10
ATOM     10  C21 0S9 d   1      15.178  -1.705 -12.306  0.00  0.00    -0.019 C 
ATOM     11  H   0S9 d   1      14.370  -1.718 -13.037  0.00  0.00     0.042 H 
ATOM     12  H   0S9 d   1      15.109  -0.953 -11.520  0.00  0.00     0.042 H 
BRANCH  10  13
ATOM     13  C22 0S9 d   1      15.135  -3.042 -11.611  0.00  0.00    -0.036 C 
ATOM     14  H   0S9 d   1      15.345  -3.835 -12.329  0.00  0.00     0.040 H 
ATOM     15  H   0S9 d   1      15.885  -3.067 -10.820  0.00  0.00     0.040 H 
BRANCH  13  16
ATOM     16  C23 0S9 d   1      13.776  -3.246 -11.021  0.00  0.00    -0.058 A 
ATOM     17  C24 0S9 d   1      13.543  -2.917  -9.700  0.00  0.00    -0.077 A 
ATOM     18  C25 0S9 d   1      12.292  -3.099  -9.142  0.00  0.00    -0.082 A 
ATOM     19  H   0S9 d   1      14.352  -2.511  -9.093  0.00  0.00     0.084 H 
ATOM     20  C26 0S9 d   1      11.272  -3.625  -9.911  0.00  0.00    -0.083 A 
ATOM     21  H   0S9 d   1      12.111  -2.829  -8.101  0.00  0.00     0.083 H 
ATOM     22  C27 0S9 d   1      11.496  -3.965 -11.232  0.00  0.00    -0.082 A 
ATOM     23  H   0S9 d   1      10.285  -3.773  -9.473  0.00  0.00     0.083 H 
ATOM     24  C28 0S9 d   1      12.752  -3.780 -11.782  0.00  0.00    -0.077 A 
ATOM     25  H   0S9 d   1      10.688  -4.376 -11.837  0.00  0.00     0.083 H 
ATOM     26  H   0S9 d   1      12.935  -4.056 -12.820  0.00  0.00     0.084 H 
ENDBRANCH  13  16
ENDBRANCH  10  13
ENDBRANCH   5  10
ENDBRANCH   1   3
BRANCH   1  27
ATOM     27  C13 0S9 d   1      20.531  -2.350 -14.189  0.00  0.00     0.167 A 
ATOM     28  C12 0S9 d   1      21.812  -2.327 -14.739  0.00  0.00     0.075 A 
ATOM     29  C11 0S9 d   1      22.639  -3.384 -14.449  0.00  0.00     0.042 A 
ATOM     30 BR1  0S9 d   1      22.487  -0.931 -15.833  0.00  0.00    -0.045 Br
ATOM     31  N10 0S9 d   1      22.222  -4.423 -13.708  0.00  0.00    -0.074 NA
ATOM     32  H   0S9 d   1      23.660  -3.379 -14.830  0.00  0.00     0.118 H 
ATOM     33  C9  0S9 d   1      20.955  -4.407 -13.254  0.00  0.00     0.724 A 
ATOM     34  N14 0S9 d   1      20.097  -3.393 -13.464  0.00  0.00    -0.044 NA
BRANCH  33  35
ATOM     35  N8  0S9 d   1      20.569  -5.536 -12.506  0.00  0.00    -0.216 N 
ATOM     36  H   0S9 d   1      21.234  -6.258 -12.227  0.00  0.00     0.178 HD
BRANCH  35  37
ATOM     37  C7  0S9 d   1      19.148  -5.604 -12.155  0.00  0.00     0.055 C 
ATOM     38  H   0S9 d   1      18.604  -5.027 -12.902  0.00  0.00     0.075 H 
ATOM     39  H   0S9 d   1      18.874  -6.659 -12.121  0.00  0.00     0.075 H 
BRANCH  37  40
ATOM     40  C4  0S9 d   1      18.823  -5.024 -10.830  0.00  0.00     0.099 A 
ATOM     41  C3  0S9 d   1      19.566  -4.329  -9.903  0.00  0.00    -0.025 A 
ATOM     42  C2  0S9 d   1      18.663  -4.063  -8.847  0.00  0.00     0.060 A 
ATOM     43  H   0S9 d   1      20.617  -4.046  -9.968  0.00  0.00     0.090 H 
ATOM     44  N6  0S9 d   1      17.443  -4.554  -9.108  0.00  0.00    -0.133 NA
ATOM     45  O5  0S9 d   1      17.556  -5.168 -10.352  0.00  0.00    -0.216 OA
BRANCH  42  46
ATOM     46  C1  0S9 d   1      18.941  -3.342  -7.591  0.00  0.00    -0.033 C 
ATOM     47  H   0S9 d   1      18.296  -2.466  -7.526  0.00  0.00     0.035 H 
ATOM     48  H   0S9 d   1      18.747  -4.001  -6.745  0.00  0.00     0.035 H 
ATOM     49  H   0S9 d   1      19.985  -3.028  -7.577  0.00  0.00     0.035 H 
ENDBRANCH  42  46
ENDBRANCH  37  40
ENDBRANCH  35  37
ENDBRANCH  33  35
ENDBRANCH   1  27
TORSDOF 9
