REMARK  9 active torsions:
REMARK  status: ('A' for Active; 'I' for Inactive)
REMARK    1  A    between atoms: CAE_5  and  CAU_21 
REMARK    2  A    between atoms: CAV_22  and  CAE_5 
REMARK    3  A    between atoms: CAP_16  and  CAO_15 
REMARK    4  A    between atoms: CAO_15  and  CAQ_17 
REMARK    5  A    between atoms: NAR_18  and  CAP_16 
REMARK    6  A    between atoms: CAQ_17  and  CAW_23 
REMARK       I    between atoms: CAU_21  and  NAR_18 
REMARK    7  A    between atoms: OAS_19  and  CAX_24 
REMARK    8  A    between atoms: CAY_25  and  OAS_19 
REMARK    9  A    between atoms: CAT_20  and  CAV_22 
ROOT
ATOM      1  CAI ZYM d   1      28.454 -10.637  10.160  0.00  0.00    -0.080 A 
ATOM      2  CAJ ZYM d   1      28.956 -10.245   8.947  0.00  0.00    -0.077 A 
ATOM      3  CAM ZYM d   1      27.723 -11.792  10.268  0.00  0.00    -0.050 A 
ATOM      4  CAN ZYM d   1      28.026 -12.164   7.919  0.00  0.00    -0.044 A 
ATOM      5  CAW ZYM d   1      28.755 -11.009   7.833  0.00  0.00    -0.055 A 
ATOM      6  CAY ZYM d   1      27.515 -12.566   9.140  0.00  0.00     0.076 A 
ATOM      7  H   ZYM d   1      28.637 -10.027  11.045  0.00  0.00     0.083 H 
ATOM      8  H   ZYM d   1      29.520  -9.316   8.870  0.00  0.00     0.084 H 
ATOM      9  H   ZYM d   1      27.311 -12.097  11.230  0.00  0.00     0.087 H 
ATOM     10  H   ZYM d   1      27.849 -12.766   7.028  0.00  0.00     0.088 H 
ENDROOT
BRANCH   5  11
ATOM     11  CAQ ZYM d   1      29.329 -10.542   6.532  0.00  0.00    -0.040 C 
ATOM     12  H   ZYM d   1      30.382 -10.302   6.677  0.00  0.00     0.040 H 
ATOM     13  H   ZYM d   1      29.214 -11.333   5.791  0.00  0.00     0.040 H 
BRANCH  11  14
ATOM     14  CAO ZYM d   1      28.602  -9.297   6.041  0.00  0.00    -0.047 C 
ATOM     15  H   ZYM d   1      28.450  -8.648   6.903  0.00  0.00     0.035 H 
ATOM     16  H   ZYM d   1      29.215  -8.850   5.258  0.00  0.00     0.035 H 
BRANCH  14  17
ATOM     17  CAP ZYM d   1      27.236  -9.582   5.441  0.00  0.00    -0.005 C 
ATOM     18  H   ZYM d   1      26.980 -10.641   5.458  0.00  0.00     0.064 H 
ATOM     19  H   ZYM d   1      27.180  -9.333   4.381  0.00  0.00     0.064 H 
BRANCH  17  20
ATOM     20  NAR ZYM d   1      26.343  -8.773   6.258  0.00  0.00    -0.361 N 
ATOM     21  CAU ZYM d   1      25.832  -7.600   5.918  0.00  0.00     0.221 C 
ATOM     22  OAB ZYM d   1      26.108  -7.177   4.826  0.00  0.00    -0.274 OA
ATOM     23  H   ZYM d   1      26.088  -9.143   7.174  0.00  0.00     0.162 HD
BRANCH  21  24
ATOM     24  CAE ZYM d   1      25.024  -6.912   6.748  0.00  0.00     0.054 C 
ATOM     25  H   ZYM d   1      25.636  -6.667   7.616  0.00  0.00     0.052 H 
ATOM     26  H   ZYM d   1      24.156  -7.551   6.909  0.00  0.00     0.052 H 
BRANCH  24  27
ATOM     27  CAV ZYM d   1      24.532  -5.734   6.305  0.00  0.00     0.236 C 
ATOM     28  OAD ZYM d   1      24.829  -5.289   5.100  0.00  0.00    -0.212 OA
BRANCH  27  29
ATOM     29  CAT ZYM d   1      23.638  -4.807   6.963  0.00  0.00     0.217 C 
ATOM     30  OAA ZYM d   1      23.122  -4.985   8.082  0.00  0.00    -0.646 OA
ATOM     31  OAC ZYM d   1      23.383  -3.829   6.268  0.00  0.00    -0.646 OA
ENDBRANCH  27  29
ENDBRANCH  24  27
ENDBRANCH  21  24
ENDBRANCH  17  20
ENDBRANCH  14  17
ENDBRANCH  11  14
ENDBRANCH   5  11
BRANCH   6  32
ATOM     32  OAS ZYM d   1      26.805 -13.715   9.167  0.00  0.00    -0.311 OA
BRANCH  32  33
ATOM     33  CAX ZYM d   1      26.322 -14.422  10.223  0.00  0.00     0.076 A 
ATOM     34  CAK ZYM d   1      27.123 -15.167  11.049  0.00  0.00    -0.050 A 
ATOM     35  CAG ZYM d   1      26.564 -15.924  12.051  0.00  0.00    -0.080 A 
ATOM     36  H   ZYM d   1      28.204 -15.159  10.911  0.00  0.00     0.087 H 
ATOM     37  CAF ZYM d   1      25.201 -15.927  12.254  0.00  0.00    -0.083 A 
ATOM     38  H   ZYM d   1      27.206 -16.529  12.692  0.00  0.00     0.083 H 
ATOM     39  CAH ZYM d   1      24.401 -15.182  11.442  0.00  0.00    -0.080 A 
ATOM     40  H   ZYM d   1      24.767 -16.521  13.058  0.00  0.00     0.083 H 
ATOM     41  CAL ZYM d   1      24.968 -14.450  10.427  0.00  0.00    -0.050 A 
ATOM     42  H   ZYM d   1      23.322 -15.167  11.596  0.00  0.00     0.083 H 
ATOM     43  H   ZYM d   1      24.321 -13.875   9.765  0.00  0.00     0.087 H 
ENDBRANCH  32  33
ENDBRANCH   6  32
TORSDOF 9
