REMARK  11 active torsions:
REMARK  status: ('A' for Active; 'I' for Inactive)
REMARK    1  A    between atoms: CAL_12  and  CAA_1 
REMARK    2  A    between atoms: CAV_22  and  OAE_5 
REMARK    3  A    between atoms: CAM_13  and  CAL_12 
REMARK    4  A    between atoms: CAN_14  and  CAM_13 
REMARK    5  A    between atoms: CAO_15  and  CAN_14 
REMARK    6  A    between atoms: CAP_16  and  CAO_15 
REMARK    7  A    between atoms: OAR_18  and  CAP_16 
REMARK    8  A    between atoms: CAQ_17  and  CAT_20 
REMARK    9  A    between atoms: NAY_25  and  CAQ_17 
REMARK   10  A    between atoms: CAU_21  and  OAR_18 
REMARK   11  A    between atoms: CAW_23  and  CAS_19 
ROOT
ATOM      1  CAF ZYL d   1     -26.015  13.178   6.064  0.00  0.00    -0.080 A 
ATOM      2  CAG ZYL d   1     -25.053  12.253   5.686  0.00  0.00    -0.075 A 
ATOM      3  CAH ZYL d   1     -25.654  14.303   6.791  0.00  0.00    -0.051 A 
ATOM      4  CAK ZYL d   1     -23.365  13.574   6.766  0.00  0.00    -0.043 A 
ATOM      5  CAT ZYL d   1     -23.728  12.449   6.041  0.00  0.00    -0.037 A 
ATOM      6  CAU ZYL d   1     -24.328  14.502   7.142  0.00  0.00     0.069 A 
ATOM      7  H5  ZYL d   1     -27.052  13.021   5.790  0.00  0.00     0.083 H 
ATOM      8  H6  ZYL d   1     -25.337  11.378   5.113  0.00  0.00     0.084 H 
ATOM      9  H7  ZYL d   1     -26.407  15.025   7.084  0.00  0.00     0.087 H 
ATOM     10  H10 ZYL d   1     -22.328  13.730   7.040  0.00  0.00     0.088 H 
ENDROOT
BRANCH   6  11
ATOM     11  OAR ZYL d   1     -23.971  15.601   7.856  0.00  0.00    -0.351 OA
BRANCH  11  12
ATOM     12  CAP ZYL d   1     -23.958  16.747   7.003  0.00  0.00     0.026 C 
ATOM     13  H19 ZYL d   1     -23.379  16.528   6.094  0.00  0.00     0.075 H 
ATOM     14  H20 ZYL d   1     -24.988  17.016   6.726  0.00  0.00     0.075 H 
BRANCH  12  15
ATOM     15  CAO ZYL d   1     -23.310  17.901   7.762  0.00  0.00    -0.045 C 
ATOM     16  H17 ZYL d   1     -23.877  18.088   8.686  0.00  0.00     0.036 H 
ATOM     17  H18 ZYL d   1     -22.275  17.629   8.016  0.00  0.00     0.036 H 
BRANCH  15  18
ATOM     18  CAN ZYL d   1     -23.300  19.170   6.916  0.00  0.00    -0.063 C 
ATOM     19  H15 ZYL d   1     -22.724  18.985   5.997  0.00  0.00     0.033 H 
ATOM     20  H16 ZYL d   1     -24.335  19.435   6.653  0.00  0.00     0.033 H 
BRANCH  18  21
ATOM     21  CAM ZYL d   1     -22.665  20.332   7.677  0.00  0.00    -0.065 C 
ATOM     22  H13 ZYL d   1     -22.137  19.938   8.557  0.00  0.00     0.033 H 
ATOM     23  H14 ZYL d   1     -21.948  20.843   7.018  0.00  0.00     0.033 H 
BRANCH  21  24
ATOM     24  CAL ZYL d   1     -23.720  21.336   8.138  0.00  0.00    -0.069 C 
ATOM     25  H11 ZYL d   1     -24.682  21.090   7.665  0.00  0.00     0.032 H 
ATOM     26  H12 ZYL d   1     -23.823  21.274   9.231  0.00  0.00     0.032 H 
BRANCH  24  27
ATOM     27  CAA ZYL d   1     -23.321  22.761   7.752  0.00  0.00    -0.077 C 
ATOM     28  H1  ZYL d   1     -24.095  23.464   8.094  0.00  0.00     0.027 H 
ATOM     29  H2  ZYL d   1     -23.220  22.830   6.659  0.00  0.00     0.027 H 
ATOM     30  H3  ZYL d   1     -22.361  23.014   8.226  0.00  0.00     0.027 H 
ENDBRANCH  24  27
ENDBRANCH  21  24
ENDBRANCH  18  21
ENDBRANCH  15  18
ENDBRANCH  12  15
ENDBRANCH  11  12
ENDBRANCH   6  11
BRANCH   5  31
ATOM     31  CAQ ZYL d   1     -22.665  11.436   5.626  0.00  0.00     0.026 C 
ATOM     32  H21 ZYL d   1     -21.670  11.882   5.772  0.00  0.00     0.072 H 
ATOM     33  H22 ZYL d   1     -22.803  11.187   4.564  0.00  0.00     0.072 H 
BRANCH  31  34
ATOM     34  NAY ZYL d   1     -22.759  10.194   6.428  0.00  0.00    -0.319 N 
ATOM     35  CAJ ZYL d   1     -21.963  10.022   7.564  0.00  0.00    -0.014 A 
ATOM     36  CAI ZYL d   1     -22.050   8.846   8.303  0.00  0.00    -0.035 A 
ATOM     37  H9  ZYL d   1     -21.275  10.808   7.871  0.00  0.00     0.111 H 
ATOM     38  CAV ZYL d   1     -22.927   7.837   7.914  0.00  0.00     0.089 A 
ATOM     39  H8  ZYL d   1     -21.430   8.714   9.189  0.00  0.00     0.089 H 
ATOM     40  CAW ZYL d   1     -23.719   8.004   6.783  0.00  0.00     0.141 A 
ATOM     41  CAX ZYL d   1     -23.631   9.175   6.041  0.00  0.00     0.267 A 
ATOM     42  OAC ZYL d   1     -24.333   9.313   5.044  0.00  0.00    -0.267 OA
BRANCH  38  43
ATOM     43  OAE ZYL d   1     -23.004   6.691   8.643  0.00  0.00    -0.359 OA
ATOM     44  H4  ZYL d   1     -23.643   6.109   8.249  0.00  0.00     0.217 HD
ENDBRANCH  38  43
BRANCH  40  45
ATOM     45  CAS ZYL d   1     -24.686   6.909   6.334  0.00  0.00     0.217 C 
ATOM     46  OAB ZYL d   1     -25.052   6.066   7.178  0.00  0.00    -0.644 OA
ATOM     47  OAD ZYL d   1     -25.055   6.920   5.139  0.00  0.00    -0.644 OA
ENDBRANCH  40  45
ENDBRANCH  31  34
ENDBRANCH   5  31
TORSDOF 11
