REMARK  10 active torsions:
REMARK  status: ('A' for Active; 'I' for Inactive)
REMARK       I    between atoms: C18_2  and  N17_3 
REMARK       I    between atoms: C18_2  and  N19_20 
REMARK    1  A    between atoms: N17_3  and  C11_4 
REMARK    2  A    between atoms: C10_6  and  C13_7 
REMARK    3  A    between atoms: C13_7  and  C16_8 
REMARK    4  A    between atoms: C13_7  and  C15_9 
REMARK    5  A    between atoms: C13_7  and  C14_10 
REMARK    6  A    between atoms: N8_12  and  C4_13 
REMARK    7  A    between atoms: C3_17  and  C7_18 
REMARK    8  A    between atoms: N19_20  and  C20_21 
REMARK    9  A    between atoms: C20_21  and  C22_22 
REMARK   10  A    between atoms: C22_22  and  N23_23 
ROOT
ATOM      1  C11 0ST d   1      39.545 -21.835 104.559  0.00  0.00     0.135 A 
ATOM      2  C12 0ST d   1      39.066 -23.109 104.811  0.00  0.00    -0.012 A 
ATOM      3  C10 0ST d   1      38.187 -23.013 105.869  0.00  0.00     0.066 A 
ATOM      4  N9  0ST d   1      38.165 -21.721 106.220  0.00  0.00    -0.169 NA
ATOM      5  N8  0ST d   1      38.934 -21.051 105.485  0.00  0.00    -0.217 N 
ATOM      6  H2  0ST d   1      39.334 -24.018 104.274  0.00  0.00     0.092 H 
ENDROOT
BRANCH   1   7
ATOM      7  N17 0ST d   1      40.427 -21.403 103.510  0.00  0.00    -0.293 N 
ATOM      8  C18 0ST d   1      40.751 -22.147 102.370  0.00  0.00     0.321 C 
ATOM      9  O21 0ST d   1      40.367 -23.277 102.217  0.00  0.00    -0.247 OA
ATOM     10  N19 0ST d   1      41.567 -21.609 101.385  0.00  0.00    -0.341 N 
ATOM     11  H19 0ST d   1      41.877 -20.667 101.517  0.00  0.00     0.164 HD
ATOM     12  H1  0ST d   1      40.843 -20.498 103.602  0.00  0.00     0.172 HD
BRANCH  10  13
ATOM     13  C20 0ST d   1      42.022 -22.298 100.157  0.00  0.00     0.019 C 
ATOM     14  H20 0ST d   1      41.472 -23.246 100.061  0.00  0.00     0.066 H 
ATOM     15  H21 0ST d   1      43.098 -22.506 100.249  0.00  0.00     0.066 H 
BRANCH  13  16
ATOM     16  C22 0ST d   1      41.790 -21.467  98.891  0.00  0.00     0.098 C 
ATOM     17  H22 0ST d   1      42.719 -21.462  98.303  0.00  0.00     0.078 H 
ATOM     18  H23 0ST d   1      41.540 -20.439  99.190  0.00  0.00     0.078 H 
BRANCH  16  19
ATOM     19  N23 0ST d   1      40.695 -21.987  98.035  0.00  0.00    -0.066 N 
ATOM     20  C28 0ST d   1      39.338 -21.857  98.611  0.00  0.00     0.103 C 
ATOM     21  C27 0ST d   1      38.292 -22.366  97.603  0.00  0.00     0.042 C 
ATOM     22  H25 0ST d   1      39.139 -20.800  98.841  0.00  0.00     0.079 H 
ATOM     23  H26 0ST d   1      39.275 -22.452  99.534  0.00  0.00     0.079 H 
ATOM     24  O25 0ST d   1      38.370 -21.638  96.371  0.00  0.00    -0.388 OA
ATOM     25  H27 0ST d   1      37.287 -22.240  98.032  0.00  0.00     0.076 H 
ATOM     26  H28 0ST d   1      38.474 -23.432  97.403  0.00  0.00     0.076 H 
ATOM     27  C24 0ST d   1      39.635 -21.754  95.732  0.00  0.00     0.042 C 
ATOM     28  C26 0ST d   1      40.774 -21.363  96.695  0.00  0.00     0.103 C 
ATOM     29  H29 0ST d   1      39.659 -21.088  94.856  0.00  0.00     0.076 H 
ATOM     30  H30 0ST d   1      39.780 -22.794  95.406  0.00  0.00     0.076 H 
ATOM     31  H31 0ST d   1      41.728 -21.660  96.235  0.00  0.00     0.079 H 
ATOM     32  H32 0ST d   1      40.753 -20.271  96.824  0.00  0.00     0.079 H 
ATOM     33  H24 0ST d   1      40.861 -22.974  97.919  0.00  0.00     0.280 HD
ENDBRANCH  16  19
ENDBRANCH  13  16
ENDBRANCH  10  13
ENDBRANCH   1   7
BRANCH   5  34
ATOM     34  C4  0ST d   1      39.002 -19.594 105.697  0.00  0.00     0.060 A 
ATOM     35  C2  0ST d   1      39.095 -19.016 106.967  0.00  0.00    -0.055 A 
ATOM     36  C1  0ST d   1      39.113 -17.630 107.092  0.00  0.00    -0.075 A 
ATOM     37  H12 0ST d   1      39.153 -19.644 107.849  0.00  0.00     0.087 H 
ATOM     38  C3  0ST d   1      39.019 -16.824 105.948  0.00  0.00    -0.062 A 
ATOM     39  H18 0ST d   1      39.200 -17.174 108.072  0.00  0.00     0.084 H 
ATOM     40  C5  0ST d   1      38.907 -17.401 104.694  0.00  0.00    -0.075 A 
ATOM     41  C6  0ST d   1      38.882 -18.779 104.574  0.00  0.00    -0.055 A 
ATOM     42  H14 0ST d   1      38.839 -16.776 103.811  0.00  0.00     0.084 H 
ATOM     43  H13 0ST d   1      38.768 -19.230 103.595  0.00  0.00     0.087 H 
BRANCH  38  44
ATOM     44  C7  0ST d   1      39.038 -15.324 106.041  0.00  0.00    -0.051 C 
ATOM     45  H15 0ST d   1      39.131 -15.023 107.095  0.00  0.00     0.033 H 
ATOM     46  H16 0ST d   1      38.104 -14.919 105.625  0.00  0.00     0.033 H 
ATOM     47  H17 0ST d   1      39.893 -14.932 105.471  0.00  0.00     0.033 H 
ENDBRANCH  38  44
ENDBRANCH   5  34
BRANCH   3  48
ATOM     48  C13 0ST d   1      37.362 -24.089 106.591  0.00  0.00    -0.005 C 
BRANCH  48  49
ATOM     49  C16 0ST d   1      35.955 -23.491 106.890  0.00  0.00    -0.064 C 
ATOM     50  H3  0ST d   1      35.340 -24.242 107.408  0.00  0.00     0.028 H 
ATOM     51  H4  0ST d   1      35.468 -23.208 105.945  0.00  0.00     0.028 H 
ATOM     52  H5  0ST d   1      36.063 -22.601 107.528  0.00  0.00     0.028 H 
ENDBRANCH  48  49
BRANCH  48  53
ATOM     53  C15 0ST d   1      38.090 -24.440 107.912  0.00  0.00    -0.064 C 
ATOM     54  H6  0ST d   1      39.081 -24.860 107.684  0.00  0.00     0.028 H 
ATOM     55  H7  0ST d   1      37.498 -25.179 108.472  0.00  0.00     0.028 H 
ATOM     56  H8  0ST d   1      38.209 -23.530 108.518  0.00  0.00     0.028 H 
ENDBRANCH  48  53
BRANCH  48  57
ATOM     57  C14 0ST d   1      37.201 -25.355 105.712  0.00  0.00    -0.064 C 
ATOM     58  H9  0ST d   1      36.683 -25.090 104.779  0.00  0.00     0.028 H 
ATOM     59  H10 0ST d   1      36.612 -26.107 106.257  0.00  0.00     0.028 H 
ATOM     60  H11 0ST d   1      38.194 -25.766 105.476  0.00  0.00     0.028 H 
ENDBRANCH  48  57
ENDBRANCH   3  48
TORSDOF 10
