REMARK  10 active torsions:
REMARK  status: ('A' for Active; 'I' for Inactive)
REMARK       I    between atoms: C18_2  and  N19_3 
REMARK       I    between atoms: C18_2  and  N17_7 
REMARK    1  A    between atoms: N19_3  and  C20_4 
REMARK    2  A    between atoms: C20_4  and  C21_5 
REMARK    3  A    between atoms: C21_5  and  O22_6 
REMARK    4  A    between atoms: N17_7  and  C10_8 
REMARK    5  A    between atoms: C9_10  and  C12_11 
REMARK    6  A    between atoms: C12_11  and  C15_12 
REMARK    7  A    between atoms: C12_11  and  C14_13 
REMARK    8  A    between atoms: C12_11  and  C13_14 
REMARK    9  A    between atoms: N7_16  and  C4_17 
REMARK   10  A    between atoms: C3_21  and  C16_22 
ROOT
ATOM      1  C10 0SU d   1      -3.857 -21.378 153.086  0.00  0.00     0.135 A 
ATOM      2  C11 0SU d   1      -5.132 -20.900 153.339  0.00  0.00    -0.012 A 
ATOM      3  C9  0SU d   1      -5.004 -20.028 154.394  0.00  0.00     0.066 A 
ATOM      4  N8  0SU d   1      -3.708 -20.008 154.735  0.00  0.00    -0.169 NA
ATOM      5  N7  0SU d   1      -3.054 -20.791 153.996  0.00  0.00    -0.217 N 
ATOM      6  H8  0SU d   1      -6.048 -21.161 152.811  0.00  0.00     0.092 H 
ENDROOT
BRANCH   1   7
ATOM      7  N17 0SU d   1      -3.416 -22.268 152.062  0.00  0.00    -0.293 N 
ATOM      8  C18 0SU d   1      -4.098 -22.599 150.899  0.00  0.00     0.321 C 
ATOM      9  O23 0SU d   1      -5.216 -22.211 150.648  0.00  0.00    -0.247 OA
ATOM     10  N19 0SU d   1      -3.446 -23.445 150.024  0.00  0.00    -0.341 N 
ATOM     11  H1  0SU d   1      -2.530 -23.746 150.288  0.00  0.00     0.164 HD
ATOM     12  H7  0SU d   1      -2.523 -22.698 152.196  0.00  0.00     0.172 HD
BRANCH  10  13
ATOM     13  C20 0SU d   1      -3.965 -23.947 148.743  0.00  0.00     0.016 C 
ATOM     14  H2  0SU d   1      -4.881 -23.395 148.484  0.00  0.00     0.067 H 
ATOM     15  H3  0SU d   1      -4.197 -25.017 148.843  0.00  0.00     0.067 H 
BRANCH  13  16
ATOM     16  C21 0SU d   1      -2.934 -23.759 147.629  0.00  0.00     0.031 C 
ATOM     17  H4  0SU d   1      -3.343 -23.061 146.884  0.00  0.00     0.076 H 
ATOM     18  H5  0SU d   1      -2.746 -24.733 147.154  0.00  0.00     0.076 H 
BRANCH  16  19
ATOM     19  O22 0SU d   1      -1.693 -23.238 148.114  0.00  0.00    -0.399 OA
ATOM     20  H6  0SU d   1      -1.087 -23.139 147.389  0.00  0.00     0.209 HD
ENDBRANCH  16  19
ENDBRANCH  13  16
ENDBRANCH  10  13
ENDBRANCH   1   7
BRANCH   5  21
ATOM     21  C4  0SU d   1      -1.593 -20.911 154.184  0.00  0.00     0.060 A 
ATOM     22  C2  0SU d   1      -1.088 -21.048 155.476  0.00  0.00    -0.055 A 
ATOM     23  C1  0SU d   1       0.279 -21.119 155.688  0.00  0.00    -0.075 A 
ATOM     24  H18 0SU d   1      -1.768 -21.099 156.319  0.00  0.00     0.087 H 
ATOM     25  C3  0SU d   1       1.163 -21.046 154.613  0.00  0.00    -0.062 A 
ATOM     26  H24 0SU d   1       0.663 -21.232 156.695  0.00  0.00     0.084 H 
ATOM     27  C5  0SU d   1       0.667 -20.890 153.317  0.00  0.00    -0.075 A 
ATOM     28  C6  0SU d   1      -0.701 -20.816 153.107  0.00  0.00    -0.055 A 
ATOM     29  H20 0SU d   1       1.350 -20.827 152.478  0.00  0.00     0.084 H 
ATOM     30  H19 0SU d   1      -1.084 -20.684 152.102  0.00  0.00     0.087 H 
BRANCH  25  31
ATOM     31  C16 0SU d   1       2.654 -21.138 154.863  0.00  0.00    -0.051 C 
ATOM     32  H21 0SU d   1       2.838 -21.258 155.941  0.00  0.00     0.033 H 
ATOM     33  H22 0SU d   1       3.143 -20.219 154.507  0.00  0.00     0.033 H 
ATOM     34  H23 0SU d   1       3.064 -22.004 154.323  0.00  0.00     0.033 H 
ENDBRANCH  25  31
ENDBRANCH   5  21
BRANCH   3  35
ATOM     35  C12 0SU d   1      -6.088 -19.205 155.083  0.00  0.00    -0.005 C 
BRANCH  35  36
ATOM     36  C15 0SU d   1      -6.811 -18.330 154.048  0.00  0.00    -0.064 C 
ATOM     37  H9  0SU d   1      -7.591 -17.738 154.549  0.00  0.00     0.028 H 
ATOM     38  H10 0SU d   1      -7.272 -18.972 153.283  0.00  0.00     0.028 H 
ATOM     39  H11 0SU d   1      -6.087 -17.653 153.571  0.00  0.00     0.028 H 
ENDBRANCH  35  36
BRANCH  35  40
ATOM     40  C14 0SU d   1      -7.115 -20.117 155.756  0.00  0.00    -0.064 C 
ATOM     41  H12 0SU d   1      -6.611 -20.750 156.501  0.00  0.00     0.028 H 
ATOM     42  H13 0SU d   1      -7.593 -20.754 154.997  0.00  0.00     0.028 H 
ATOM     43  H14 0SU d   1      -7.880 -19.503 156.254  0.00  0.00     0.028 H 
ENDBRANCH  35  40
BRANCH  35  44
ATOM     44  C13 0SU d   1      -5.426 -18.298 156.127  0.00  0.00    -0.064 C 
ATOM     45  H15 0SU d   1      -4.690 -17.647 155.633  0.00  0.00     0.028 H 
ATOM     46  H16 0SU d   1      -4.920 -18.917 156.882  0.00  0.00     0.028 H 
ATOM     47  H17 0SU d   1      -6.194 -17.679 156.615  0.00  0.00     0.028 H 
ENDBRANCH  35  44
ENDBRANCH   3  35
TORSDOF 10
