REMARK  16 active torsions:
REMARK  status: ('A' for Active; 'I' for Inactive)
REMARK    1  A    between atoms: C25_2  and  O26_3 
REMARK       I    between atoms: C25_2  and  N24_8 
REMARK    2  A    between atoms: O26_3  and  C28_4 
REMARK    3  A    between atoms: C28_4  and  C31_5 
REMARK    4  A    between atoms: C28_4  and  C30_6 
REMARK    5  A    between atoms: C28_4  and  C29_7 
REMARK    6  A    between atoms: N24_8  and  C23_9 
REMARK    7  A    between atoms: C23_9  and  C22_10 
REMARK    8  A    between atoms: C22_10  and  C21_11 
REMARK    9  A    between atoms: C21_11  and  N19_12 
REMARK       I    between atoms: N19_12  and  C18_13 
REMARK       I    between atoms: C18_13  and  N17_15 
REMARK   10  A    between atoms: N17_15  and  C11_16 
REMARK   11  A    between atoms: C10_18  and  C13_19 
REMARK   12  A    between atoms: C13_19  and  C16_20 
REMARK   13  A    between atoms: C13_19  and  C15_21 
REMARK   14  A    between atoms: C13_19  and  C14_22 
REMARK   15  A    between atoms: N8_24  and  C4_25 
REMARK   16  A    between atoms: C3_29  and  C7_30 
ROOT
ATOM      1  C11 0SO d   1      39.702  57.006 147.929  0.00  0.00     0.135 A 
ATOM      2  C12 0SO d   1      40.968  56.517 148.189  0.00  0.00    -0.012 A 
ATOM      3  C10 0SO d   1      40.852  55.613 149.212  0.00  0.00     0.066 A 
ATOM      4  N9  0SO d   1      39.547  55.568 149.553  0.00  0.00    -0.169 NA
ATOM      5  N8  0SO d   1      38.897  56.387 148.826  0.00  0.00    -0.217 N 
ATOM      6  H19 0SO d   1      41.887  56.798 147.676  0.00  0.00     0.092 H 
ENDROOT
BRANCH   1   7
ATOM      7  N17 0SO d   1      39.363  57.953 146.905  0.00  0.00    -0.293 N 
ATOM      8  C18 0SO d   1      40.151  58.366 145.859  0.00  0.00     0.321 C 
ATOM      9  N19 0SO d   1      39.655  59.254 144.928  0.00  0.00    -0.343 N 
ATOM     10  O20 0SO d   1      41.284  57.976 145.739  0.00  0.00    -0.247 OA
ATOM     11  H17 0SO d   1      38.706  59.560 144.999  0.00  0.00     0.164 HD
ATOM     12  H18 0SO d   1      38.450  58.358 146.959  0.00  0.00     0.172 HD
BRANCH   9  13
ATOM     13  C21 0SO d   1      40.500  59.763 143.826  0.00  0.00    -0.002 C 
ATOM     14  H15 0SO d   1      40.856  60.761 144.119  0.00  0.00     0.064 H 
ATOM     15  H16 0SO d   1      41.358  59.082 143.728  0.00  0.00     0.064 H 
BRANCH  13  16
ATOM     16  C22 0SO d   1      39.863  59.894 142.447  0.00  0.00    -0.035 C 
ATOM     17  H13 0SO d   1      39.344  58.962 142.180  0.00  0.00     0.037 H 
ATOM     18  H14 0SO d   1      39.146  60.728 142.439  0.00  0.00     0.037 H 
BRANCH  16  19
ATOM     19  C23 0SO d   1      41.004  60.168 141.451  0.00  0.00    -0.001 C 
ATOM     20  H11 0SO d   1      41.270  61.232 141.531  0.00  0.00     0.064 H 
ATOM     21  H12 0SO d   1      41.864  59.551 141.750  0.00  0.00     0.064 H 
BRANCH  19  22
ATOM     22  N24 0SO d   1      40.721  59.884 140.038  0.00  0.00    -0.337 N 
ATOM     23  C25 0SO d   1      41.704  59.863 139.064  0.00  0.00     0.361 C 
ATOM     24  O27 0SO d   1      42.873  60.088 139.348  0.00  0.00    -0.238 OA
ATOM     25  H10 0SO d   1      39.776  59.698 139.768  0.00  0.00     0.164 HD
BRANCH  23  26
ATOM     26  O26 0SO d   1      41.328  59.606 137.773  0.00  0.00    -0.294 OA
BRANCH  26  27
ATOM     27  C28 0SO d   1      41.955  58.666 136.897  0.00  0.00     0.061 C 
BRANCH  27  28
ATOM     28  C31 0SO d   1      42.554  59.455 135.739  0.00  0.00    -0.048 C 
ATOM     29  H1  0SO d   1      43.047  58.763 135.040  0.00  0.00     0.031 H 
ATOM     30  H2  0SO d   1      43.292  60.172 136.127  0.00  0.00     0.031 H 
ATOM     31  H3  0SO d   1      41.755  59.999 135.214  0.00  0.00     0.031 H 
ENDBRANCH  27  28
BRANCH  27  32
ATOM     32  C30 0SO d   1      40.897  57.693 136.381  0.00  0.00    -0.048 C 
ATOM     33  H4  0SO d   1      41.368  56.964 135.705  0.00  0.00     0.031 H 
ATOM     34  H5  0SO d   1      40.121  58.250 135.836  0.00  0.00     0.031 H 
ATOM     35  H6  0SO d   1      40.440  57.164 137.230  0.00  0.00     0.031 H 
ENDBRANCH  27  32
BRANCH  27  36
ATOM     36  C29 0SO d   1      43.046  57.832 137.578  0.00  0.00    -0.048 C 
ATOM     37  H7  0SO d   1      43.483  57.134 136.849  0.00  0.00     0.031 H 
ATOM     38  H8  0SO d   1      42.607  57.264 138.411  0.00  0.00     0.031 H 
ATOM     39  H9  0SO d   1      43.831  58.499 137.963  0.00  0.00     0.031 H 
ENDBRANCH  27  36
ENDBRANCH  26  27
ENDBRANCH  23  26
ENDBRANCH  19  22
ENDBRANCH  16  19
ENDBRANCH  13  16
ENDBRANCH   9  13
ENDBRANCH   1   7
BRANCH   5  40
ATOM     40  C4  0SO d   1      37.442  56.517 148.953  0.00  0.00     0.060 A 
ATOM     41  C2  0SO d   1      36.818  56.609 150.189  0.00  0.00    -0.055 A 
ATOM     42  C1  0SO d   1      35.431  56.695 150.259  0.00  0.00    -0.075 A 
ATOM     43  H29 0SO d   1      37.409  56.614 151.097  0.00  0.00     0.087 H 
ATOM     44  C3  0SO d   1      34.668  56.678 149.086  0.00  0.00    -0.062 A 
ATOM     45  H35 0SO d   1      34.941  56.775 151.223  0.00  0.00     0.084 H 
ATOM     46  C5  0SO d   1      35.290  56.583 147.846  0.00  0.00    -0.075 A 
ATOM     47  C6  0SO d   1      36.670  56.492 147.788  0.00  0.00    -0.055 A 
ATOM     48  H31 0SO d   1      34.701  56.580 146.936  0.00  0.00     0.084 H 
ATOM     49  H30 0SO d   1      37.159  56.400 146.825  0.00  0.00     0.087 H 
BRANCH  44  50
ATOM     50  C7  0SO d   1      33.167  56.775 149.141  0.00  0.00    -0.051 C 
ATOM     51  H32 0SO d   1      32.842  56.843 150.190  0.00  0.00     0.033 H 
ATOM     52  H33 0SO d   1      32.724  55.881 148.677  0.00  0.00     0.033 H 
ATOM     53  H34 0SO d   1      32.837  57.672 148.596  0.00  0.00     0.033 H 
ENDBRANCH  44  50
ENDBRANCH   5  40
BRANCH   3  54
ATOM     54  C13 0SO d   1      41.991  54.809 149.825  0.00  0.00    -0.005 C 
BRANCH  54  55
ATOM     55  C16 0SO d   1      42.379  55.359 151.191  0.00  0.00    -0.064 C 
ATOM     56  H20 0SO d   1      43.202  54.759 151.607  0.00  0.00     0.028 H 
ATOM     57  H21 0SO d   1      41.512  55.310 151.866  0.00  0.00     0.028 H 
ATOM     58  H22 0SO d   1      42.704  56.405 151.087  0.00  0.00     0.028 H 
ENDBRANCH  54  55
BRANCH  54  59
ATOM     59  C15 0SO d   1      43.227  54.776 148.905  0.00  0.00    -0.064 C 
ATOM     60  H23 0SO d   1      42.941  54.378 147.920  0.00  0.00     0.028 H 
ATOM     61  H24 0SO d   1      43.999  54.131 149.351  0.00  0.00     0.028 H 
ATOM     62  H25 0SO d   1      43.624  55.795 148.787  0.00  0.00     0.028 H 
ENDBRANCH  54  59
BRANCH  54  63
ATOM     63  C14 0SO d   1      41.509  53.383 150.049  0.00  0.00    -0.064 C 
ATOM     64  H26 0SO d   1      40.626  53.393 150.705  0.00  0.00     0.028 H 
ATOM     65  H27 0SO d   1      42.310  52.795 150.521  0.00  0.00     0.028 H 
ATOM     66  H28 0SO d   1      41.243  52.930 149.083  0.00  0.00     0.028 H 
ENDBRANCH  54  63
ENDBRANCH   3  54
TORSDOF 16
