REMARK  13 active torsions:
REMARK  status: ('A' for Active; 'I' for Inactive)
REMARK       I    between atoms: C18_2  and  N19_3 
REMARK       I    between atoms: C18_2  and  N17_10 
REMARK    1  A    between atoms: N19_3  and  C21_4 
REMARK    2  A    between atoms: C21_4  and  C22_5 
REMARK    3  A    between atoms: C22_5  and  C23_6 
REMARK    4  A    between atoms: C23_6  and  C24_7 
REMARK    5  A    between atoms: C24_7  and  C25_8 
REMARK    6  A    between atoms: C25_8  and  O26_9 
REMARK    7  A    between atoms: N17_10  and  C1_11 
REMARK    8  A    between atoms: N5_12  and  C6_20 
REMARK    9  A    between atoms: C3_14  and  C12_15 
REMARK   10  A    between atoms: C12_15  and  C15_16 
REMARK   11  A    between atoms: C12_15  and  C14_17 
REMARK   12  A    between atoms: C12_15  and  C13_18 
REMARK   13  A    between atoms: C7_23  and  C16_24 
ROOT
ATOM      1  C1  0SV d   1      -3.503 -21.701 156.410  0.00  0.00     0.135 A 
ATOM      2  N5  0SV d   1      -2.685 -21.065 157.277  0.00  0.00    -0.217 N 
ATOM      3  N4  0SV d   1      -3.323 -20.300 158.031  0.00  0.00    -0.169 NA
ATOM      4  C3  0SV d   1      -4.627 -20.365 157.731  0.00  0.00     0.066 A 
ATOM      5  C2  0SV d   1      -4.788 -21.262 156.687  0.00  0.00    -0.012 A 
ATOM      6  H23 0SV d   1      -5.714 -21.555 156.196  0.00  0.00     0.092 H 
ENDROOT
BRANCH   1   7
ATOM      7  N17 0SV d   1      -3.067 -22.561 155.355  0.00  0.00    -0.293 N 
ATOM      8  C18 0SV d   1      -3.715 -22.790 154.139  0.00  0.00     0.321 C 
ATOM      9  O20 0SV d   1      -4.815 -22.349 153.923  0.00  0.00    -0.247 OA
ATOM     10  N19 0SV d   1      -3.082 -23.599 153.194  0.00  0.00    -0.343 N 
ATOM     11  H1  0SV d   1      -2.177 -23.956 153.425  0.00  0.00     0.164 HD
ATOM     12  H13 0SV d   1      -2.208 -23.050 155.503  0.00  0.00     0.172 HD
BRANCH  10  13
ATOM     13  C21 0SV d   1      -3.646 -23.968 151.879  0.00  0.00    -0.003 C 
ATOM     14  H2  0SV d   1      -2.972 -24.712 151.429  0.00  0.00     0.064 H 
ATOM     15  H3  0SV d   1      -3.655 -23.059 151.259  0.00  0.00     0.064 H 
BRANCH  13  16
ATOM     16  C22 0SV d   1      -5.057 -24.555 151.850  0.00  0.00    -0.050 C 
ATOM     17  H4  0SV d   1      -5.796 -23.770 152.067  0.00  0.00     0.035 H 
ATOM     18  H5  0SV d   1      -5.146 -25.358 152.596  0.00  0.00     0.035 H 
BRANCH  16  19
ATOM     19  C23 0SV d   1      -5.290 -25.120 150.438  0.00  0.00    -0.062 C 
ATOM     20  H6  0SV d   1      -4.884 -26.141 150.391  0.00  0.00     0.033 H 
ATOM     21  H7  0SV d   1      -4.767 -24.484 149.709  0.00  0.00     0.033 H 
BRANCH  19  22
ATOM     22  C24 0SV d   1      -6.782 -25.161 150.083  0.00  0.00    -0.045 C 
ATOM     23  H8  0SV d   1      -7.284 -24.280 150.509  0.00  0.00     0.036 H 
ATOM     24  H9  0SV d   1      -7.232 -26.075 150.497  0.00  0.00     0.036 H 
BRANCH  22  25
ATOM     25  C25 0SV d   1      -6.946 -25.156 148.565  0.00  0.00     0.017 C 
ATOM     26  H10 0SV d   1      -6.135 -25.738 148.102  0.00  0.00     0.073 H 
ATOM     27  H11 0SV d   1      -6.915 -24.122 148.192  0.00  0.00     0.073 H 
BRANCH  25  28
ATOM     28  O26 0SV d   1      -8.197 -25.742 148.246  0.00  0.00    -0.401 OA
ATOM     29  H12 0SV d   1      -8.220 -26.634 148.572  0.00  0.00     0.209 HD
ENDBRANCH  25  28
ENDBRANCH  22  25
ENDBRANCH  19  22
ENDBRANCH  16  19
ENDBRANCH  13  16
ENDBRANCH  10  13
ENDBRANCH   1   7
BRANCH   2  30
ATOM     30  C6  0SV d   1      -1.224 -21.158 157.381  0.00  0.00     0.060 A 
ATOM     31  C11 0SV d   1      -0.447 -21.052 156.228  0.00  0.00    -0.055 A 
ATOM     32  C9  0SV d   1       0.938 -21.116 156.297  0.00  0.00    -0.075 A 
ATOM     33  H24 0SV d   1      -0.930 -20.918 155.267  0.00  0.00     0.087 H 
ATOM     34  C7  0SV d   1       1.555 -21.259 157.524  0.00  0.00    -0.062 A 
ATOM     35  H25 0SV d   1       1.532 -21.054 155.392  0.00  0.00     0.084 H 
ATOM     36  C8  0SV d   1       0.784 -21.345 158.687  0.00  0.00    -0.075 A 
ATOM     37  C10 0SV d   1      -0.606 -21.286 158.618  0.00  0.00    -0.055 A 
ATOM     38  H29 0SV d   1       1.271 -21.458 159.649  0.00  0.00     0.084 H 
ATOM     39  H30 0SV d   1      -1.201 -21.340 159.523  0.00  0.00     0.087 H 
BRANCH  34  40
ATOM     40  C16 0SV d   1       3.058 -21.318 157.569  0.00  0.00    -0.051 C 
ATOM     41  H26 0SV d   1       3.389 -21.433 158.612  0.00  0.00     0.033 H 
ATOM     42  H27 0SV d   1       3.474 -20.389 157.152  0.00  0.00     0.033 H 
ATOM     43  H28 0SV d   1       3.409 -22.176 156.976  0.00  0.00     0.033 H 
ENDBRANCH  34  40
ENDBRANCH   2  30
BRANCH   4  44
ATOM     44  C12 0SV d   1      -5.747 -19.600 158.447  0.00  0.00    -0.005 C 
BRANCH  44  45
ATOM     45  C15 0SV d   1      -6.547 -20.617 159.289  0.00  0.00    -0.064 C 
ATOM     46  H14 0SV d   1      -7.360 -20.097 159.816  0.00  0.00     0.028 H 
ATOM     47  H15 0SV d   1      -5.879 -21.092 160.023  0.00  0.00     0.028 H 
ATOM     48  H16 0SV d   1      -6.972 -21.387 158.628  0.00  0.00     0.028 H 
ENDBRANCH  44  45
BRANCH  44  49
ATOM     49  C14 0SV d   1      -6.676 -18.964 157.381  0.00  0.00    -0.064 C 
ATOM     50  H17 0SV d   1      -6.105 -18.240 156.782  0.00  0.00     0.028 H 
ATOM     51  H18 0SV d   1      -7.510 -18.449 157.881  0.00  0.00     0.028 H 
ATOM     52  H19 0SV d   1      -7.073 -19.752 156.724  0.00  0.00     0.028 H 
ENDBRANCH  44  49
BRANCH  44  53
ATOM     53  C13 0SV d   1      -5.171 -18.514 159.394  0.00  0.00    -0.064 C 
ATOM     54  H20 0SV d   1      -4.516 -18.988 160.140  0.00  0.00     0.028 H 
ATOM     55  H21 0SV d   1      -5.997 -17.998 159.906  0.00  0.00     0.028 H 
ATOM     56  H22 0SV d   1      -4.591 -17.786 158.808  0.00  0.00     0.028 H 
ENDBRANCH  44  53
ENDBRANCH   4  44
TORSDOF 13
