REMARK  3 active torsions:
REMARK  status: ('A' for Active; 'I' for Inactive)
REMARK    1  A    between atoms: CAL_12  and  CAE_5 
REMARK    2  A    between atoms: CAL_12  and  NAN_14 
REMARK    3  A    between atoms: NAN_14  and  CAM_13 
ROOT
ATOM      1  CAG RKE d   1      16.639 -13.366  25.779  0.00  0.00     0.167 C 
ATOM      2  CAH RKE d   1      15.219 -13.502  25.277  0.00  0.00    -0.007 C 
ATOM      3  CAI RKE d   1      14.382 -14.317  26.304  0.00  0.00    -0.059 C 
ATOM      4  CAJ RKE d   1      14.937 -15.755  26.337  0.00  0.00    -0.062 C 
ATOM      5  CAK RKE d   1      16.433 -15.754  26.759  0.00  0.00    -0.023 C 
ATOM      6  CAL RKE d   1      17.378 -14.713  26.018  0.00  0.00     0.213 C 
ATOM      7  OAO RKE d   1      17.145 -12.281  25.997  0.00  0.00    -0.295 OA
ATOM      8  H   RKE d   1      15.221 -14.019  24.317  0.00  0.00     0.044 H 
ATOM      9  H   RKE d   1      14.780 -12.512  25.155  0.00  0.00     0.044 H 
ATOM     10  H   RKE d   1      13.332 -14.325  26.012  0.00  0.00     0.033 H 
ATOM     11  H   RKE d   1      14.453 -13.863  27.293  0.00  0.00     0.033 H 
ATOM     12  H   RKE d   1      14.851 -16.190  25.341  0.00  0.00     0.033 H 
ATOM     13  H   RKE d   1      14.366 -16.337  27.060  0.00  0.00     0.033 H 
ATOM     14  H   RKE d   1      16.818 -16.742  26.509  0.00  0.00     0.037 H 
ATOM     15  H   RKE d   1      16.449 -15.479  27.814  0.00  0.00     0.037 H 
ENDROOT
BRANCH   6  16
ATOM     16  CAE RKE d   1      18.041 -15.235  24.696  0.00  0.00     0.007 A 
ATOM     17  CAC RKE d   1      18.351 -14.310  23.690  0.00  0.00    -0.072 A 
ATOM     18  CAA RKE d   1      18.942 -14.716  22.497  0.00  0.00    -0.082 A 
ATOM     19  H   RKE d   1      18.125 -13.255  23.844  0.00  0.00     0.084 H 
ATOM     20  CAB RKE d   1      19.248 -16.043  22.261  0.00  0.00    -0.081 A 
ATOM     21  H   RKE d   1      19.168 -13.972  21.733  0.00  0.00     0.083 H 
ATOM     22  CAD RKE d   1      18.959 -16.960  23.251  0.00  0.00    -0.061 A 
ATOM     23  H   RKE d   1      19.704 -16.356  21.322  0.00  0.00     0.083 H 
ATOM     24  CAF RKE d   1      18.371 -16.581  24.451  0.00  0.00     0.043 A 
ATOM     25  H   RKE d   1      19.199 -18.011  23.087  0.00  0.00     0.086 H 
ATOM     26 CLAP RKE d   1      18.048 -17.903  25.671  0.00  0.00    -0.084 Cl
ENDBRANCH   6  16
BRANCH   6  27
ATOM     27  NAN RKE d   1      18.444 -14.429  26.960  0.00  0.00    -0.059 N 
ATOM     28  H   RKE d   1      18.875 -13.576  26.604  0.00  0.00     0.278 HD
ATOM     29  H   RKE d   1      18.979 -15.296  27.005  0.00  0.00     0.278 HD
BRANCH  27  30
ATOM     30  CAM RKE d   1      18.134 -14.124  28.350  0.00  0.00     0.066 C 
ATOM     31  H   RKE d   1      17.503 -13.236  28.394  0.00  0.00     0.067 H 
ATOM     32  H   RKE d   1      17.608 -14.967  28.797  0.00  0.00     0.067 H 
ATOM     33  H   RKE d   1      19.060 -13.941  28.896  0.00  0.00     0.067 H 
ENDBRANCH  27  30
ENDBRANCH   6  27
TORSDOF 3
