REMARK  3 active torsions:
REMARK  status: ('A' for Active; 'I' for Inactive)
REMARK    1  A    between atoms: C1_1  and  C2_4 
REMARK    2  A    between atoms: C3_5  and  C1'_6 
REMARK    3  A    between atoms: C4'_9  and  O4'_12 
ROOT
ATOM      1  C1' HC4 d   1      12.446  43.847  26.211  0.00  0.00    -0.036 A 
ATOM      2  C2' HC4 d   1      11.073  44.014  25.943  0.00  0.00    -0.070 A 
ATOM      3  C3' HC4 d   1      10.582  43.808  24.663  0.00  0.00    -0.050 A 
ATOM      4  C4' HC4 d   1      11.387  43.417  23.610  0.00  0.00     0.065 A 
ATOM      5  C5' HC4 d   1      12.741  43.241  23.870  0.00  0.00    -0.050 A 
ATOM      6  C6' HC4 d   1      13.225  43.461  25.147  0.00  0.00    -0.070 A 
ATOM      7  H3  HC4 d   1      10.398  44.304  26.740  0.00  0.00     0.084 H 
ATOM      8  H4  HC4 d   1       9.524  43.960  24.481  0.00  0.00     0.087 H 
ATOM      9  H5  HC4 d   1      13.413  42.933  23.077  0.00  0.00     0.087 H 
ATOM     10  H6  HC4 d   1      14.286  43.320  25.319  0.00  0.00     0.084 H 
ENDROOT
BRANCH   1  11
ATOM     11  C3  HC4 d   1      13.075  44.116  27.541  0.00  0.00    -0.067 C 
ATOM     12  C2  HC4 d   1      12.648  45.062  28.376  0.00  0.00    -0.009 C 
ATOM     13  H1  HC4 d   1      11.725  45.607  28.184  0.00  0.00     0.094 H 
ATOM     14  H2  HC4 d   1      13.926  43.507  27.842  0.00  0.00     0.085 H 
BRANCH  12  15
ATOM     15  C1  HC4 d   1      13.475  45.350  29.580  0.00  0.00     0.198 C 
ATOM     16  O1  HC4 d   1      13.804  46.498  29.915  0.00  0.00    -0.645 OA
ATOM     17  O2  HC4 d   1      13.843  44.337  30.240  0.00  0.00    -0.645 OA
ENDBRANCH  12  15
ENDBRANCH   1  11
BRANCH   4  18
ATOM     18  O4' HC4 d   1      10.923  43.182  22.338  0.00  0.00    -0.361 OA
ATOM     19  H7  HC4 d   1      11.363  43.763  21.729  0.00  0.00     0.217 HD
ENDBRANCH   4  18
TORSDOF 3
