REMARK  6 active torsions:
REMARK  status: ('A' for Active; 'I' for Inactive)
REMARK    1  A    between atoms: C2'_10  and  O2'_11 
REMARK    2  A    between atoms: C1'_12  and  N9_13 
REMARK    3  A    between atoms: C2_20  and  N2_21 
REMARK    4  A    between atoms: C2A_33  and  O2A_34 
REMARK    5  A    between atoms: C1A_35  and  N91_36 
REMARK    6  A    between atoms: C21_43  and  N21_44 
ROOT
ATOM      1  P1  C2E d   1      12.835   7.719  12.588  0.00  0.00     0.408 P 
ATOM      2  O2P C2E d   1      11.772   6.618  12.812  0.00  0.00    -0.624 OA
ATOM      3  O1P C2E d   1      13.510   7.472  11.179  0.00  0.00    -0.624 OA
ATOM      4  O5' C2E d   1      13.900   7.567  13.782  0.00  0.00    -0.287 OA
ATOM      5  C5' C2E d   1      13.628   7.715  15.091  0.00  0.00     0.058 C 
ATOM      6  C4' C2E d   1      14.833   7.618  15.923  0.00  0.00     0.090 C 
ATOM      7  O4' C2E d   1      15.640   6.612  15.430  0.00  0.00    -0.353 OA
ATOM      8  C3' C2E d   1      15.709   8.764  15.761  0.00  0.00     0.106 C 
ATOM      9  O3' C2E d   1      15.258   9.909  16.424  0.00  0.00    -0.279 OA
ATOM     10  C2' C2E d   1      16.930   8.295  16.274  0.00  0.00     0.106 C 
ATOM     11  C1' C2E d   1      16.965   6.900  15.796  0.00  0.00     0.140 C 
ATOM     12  P11 C2E d   1      15.459  11.285  15.700  0.00  0.00     0.408 P 
ATOM     13  O21 C2E d   1      15.665  12.247  16.772  0.00  0.00    -0.624 OA
ATOM     14  O11 C2E d   1      16.753  11.252  14.774  0.00  0.00    -0.624 OA
ATOM     15  O5A C2E d   1      14.166  11.845  14.898  0.00  0.00    -0.287 OA
ATOM     16  C5A C2E d   1      13.031  11.132  14.509  0.00  0.00     0.058 C 
ATOM     17  C4A C2E d   1      12.546  11.347  13.151  0.00  0.00     0.090 C 
ATOM     18  O4A C2E d   1      13.268  12.378  12.498  0.00  0.00    -0.353 OA
ATOM     19  C3A C2E d   1      12.847  10.261  12.253  0.00  0.00     0.106 C 
ATOM     20  O3A C2E d   1      12.074   9.084  12.545  0.00  0.00    -0.279 OA
ATOM     21  C2A C2E d   1      12.455  10.834  11.028  0.00  0.00     0.106 C 
ATOM     22  C1A C2E d   1      13.013  12.226  11.143  0.00  0.00     0.140 C 
ATOM     23  H   C2E d   1      12.922   6.929  15.397  0.00  0.00     0.079 H 
ATOM     24  H   C2E d   1      13.168   8.702  15.248  0.00  0.00     0.079 H 
ATOM     25  H   C2E d   1      14.556   7.460  16.976  0.00  0.00     0.090 H 
ATOM     26  H   C2E d   1      15.815   9.007  14.694  0.00  0.00     0.092 H 
ATOM     27  H   C2E d   1      17.783   8.877  15.894  0.00  0.00     0.093 H 
ATOM     28  H   C2E d   1      17.304   6.245  16.612  0.00  0.00     0.122 H 
ATOM     29  H   C2E d   1      12.217  11.402  15.198  0.00  0.00     0.079 H 
ATOM     30  H   C2E d   1      13.260  10.061  14.614  0.00  0.00     0.079 H 
ATOM     31  H   C2E d   1      11.467  11.557  13.183  0.00  0.00     0.090 H 
ATOM     32  H   C2E d   1      13.918  10.010  12.264  0.00  0.00     0.092 H 
ATOM     33  H   C2E d   1      12.851  10.294  10.155  0.00  0.00     0.093 H 
ATOM     34  H   C2E d   1      12.258  12.947  10.796  0.00  0.00     0.122 H 
ENDROOT
BRANCH  11  35
ATOM     35  N9  C2E d   1      17.786   6.649  14.613  0.00  0.00    -0.293 N 
ATOM     36  C8  C2E d   1      17.294   6.715  13.372  0.00  0.00     0.071 A 
ATOM     37  N7  C2E d   1      18.259   6.425  12.485  0.00  0.00    -0.235 NA
ATOM     38  H   C2E d   1      16.265   6.966  13.119  0.00  0.00     0.144 H 
ATOM     39  C5  C2E d   1      19.398   6.173  13.142  0.00  0.00     0.159 A 
ATOM     40  C6  C2E d   1      20.692   5.818  12.713  0.00  0.00     0.226 A 
ATOM     41  C4  C2E d   1      19.107   6.304  14.516  0.00  0.00     0.185 A 
ATOM     42  O6  C2E d   1      20.973   5.695  11.396  0.00  0.00    -0.169 OA
ATOM     43  N1  C2E d   1      21.621   5.606  13.671  0.00  0.00    -0.164 N 
ATOM     44  C2  C2E d   1      21.338   5.723  14.989  0.00  0.00     0.702 A 
ATOM     45  H   C2E d   1      22.549   5.354  13.397  0.00  0.00     0.186 HD
ATOM     46  N3  C2E d   1      20.104   6.067  15.420  0.00  0.00    -0.044 NA
BRANCH  44  47
ATOM     47  N2  C2E d   1      22.385   5.473  15.924  0.00  0.00    -0.233 N 
ATOM     48  H   C2E d   1      22.203   5.553  16.935  0.00  0.00     0.174 HD
ATOM     49  H   C2E d   1      23.323   5.212  15.589  0.00  0.00     0.174 HD
ENDBRANCH  44  47
ENDBRANCH  11  35
BRANCH  10  50
ATOM     50  O2' C2E d   1      16.905   8.330  17.677  0.00  0.00    -0.388 OA
ATOM     51  H   C2E d   1      17.734   8.012  18.015  0.00  0.00     0.210 HD
ENDBRANCH  10  50
BRANCH  21  52
ATOM     52  O2A C2E d   1      11.074  10.873  11.011  0.00  0.00    -0.388 OA
ATOM     53  H   C2E d   1      10.779  11.256  10.193  0.00  0.00     0.210 HD
ENDBRANCH  21  52
BRANCH  22  54
ATOM     54  N91 C2E d   1      14.276  12.497  10.446  0.00  0.00    -0.293 N 
ATOM     55  C81 C2E d   1      15.465  12.483  11.080  0.00  0.00     0.071 A 
ATOM     56  N71 C2E d   1      16.459  12.779  10.220  0.00  0.00    -0.235 NA
ATOM     57  H   C2E d   1      15.603  12.264  12.138  0.00  0.00     0.144 H 
ATOM     58  C51 C2E d   1      15.909  12.990   8.994  0.00  0.00     0.159 A 
ATOM     59  C61 C2E d   1      16.466  13.330   7.752  0.00  0.00     0.226 A 
ATOM     60  C41 C2E d   1      14.509  12.820   9.134  0.00  0.00     0.185 A 
ATOM     61  O61 C2E d   1      17.753  13.497   7.597  0.00  0.00    -0.169 OA
ATOM     62  N11 C2E d   1      15.641  13.484   6.715  0.00  0.00    -0.164 N 
ATOM     63  C21 C2E d   1      14.306  13.329   6.866  0.00  0.00     0.702 A 
ATOM     64  H   C2E d   1      16.014  13.716   5.817  0.00  0.00     0.186 HD
ATOM     65  N31 C2E d   1      13.744  13.004   8.049  0.00  0.00    -0.044 NA
BRANCH  63  66
ATOM     66  N21 C2E d   1      13.502  13.532   5.710  0.00  0.00    -0.233 N 
ATOM     67  H   C2E d   1      12.479  13.427   5.769  0.00  0.00     0.174 HD
ATOM     68  H   C2E d   1      13.943  13.784   4.814  0.00  0.00     0.174 HD
ENDBRANCH  63  66
ENDBRANCH  22  54
TORSDOF 6
