REMARK  11 active torsions:
REMARK  status: ('A' for Active; 'I' for Inactive)
REMARK    1  A    between atoms: OAP_16  and  CAA_1 
REMARK    2  A    between atoms: OAQ_17  and  CAB_2 
REMARK    3  A    between atoms: CAK_11  and  CAJ_10 
REMARK    4  A    between atoms: CAJ_10  and  CAL_12 
REMARK    5  A    between atoms: NAN_14  and  CAK_11 
REMARK    6  A    between atoms: CAL_12  and  NAV_22 
REMARK    7  A    between atoms: CAR_18  and  NAN_14 
REMARK    8  A    between atoms: NAO_15  and  CAR_18 
REMARK    9  A    between atoms: CAS_19  and  NAO_15 
REMARK   10  A    between atoms: CAT_20  and  OAP_16 
REMARK   11  A    between atoms: OAQ_17  and  CAU_21 
ROOT
ATOM      1  NAO PBD d   1      14.120 137.756 -13.684  0.00  0.00    -0.333 N 
ATOM      2  H20 PBD d   1      14.972 138.250 -13.511  0.00  0.00     0.168 HD
ENDROOT
BRANCH   1   3
ATOM      3  CAR PBD d   1      13.653 136.951 -12.709  0.00  0.00     0.172 C 
ATOM      4  SAC PBD d   1      14.634 136.813 -11.304  0.00  0.00    -0.041 SA
BRANCH   3   5
ATOM      5  NAN PBD d   1      12.470 136.282 -12.865  0.00  0.00    -0.367 N 
ATOM      6  H19 PBD d   1      12.004 136.427 -13.738  0.00  0.00     0.161 HD
BRANCH   5   7
ATOM      7  CAK PBD d   1      11.789 135.376 -11.920  0.00  0.00    -0.004 C 
ATOM      8  H15 PBD d   1      12.538 134.806 -11.351  0.00  0.00     0.064 H 
ATOM      9  H16 PBD d   1      11.171 135.964 -11.226  0.00  0.00     0.064 H 
BRANCH   7  10
ATOM     10  CAJ PBD d   1      10.898 134.409 -12.710  0.00  0.00    -0.035 C 
ATOM     11  H13 PBD d   1      11.542 133.765 -13.327  0.00  0.00     0.037 H 
ATOM     12  H14 PBD d   1      10.236 134.997 -13.362  0.00  0.00     0.037 H 
BRANCH  10  13
ATOM     13  CAL PBD d   1      10.034 133.518 -11.816  0.00  0.00     0.002 C 
ATOM     14  H17 PBD d   1       9.562 134.129 -11.033  0.00  0.00     0.065 H 
ATOM     15  H18 PBD d   1      10.662 132.745 -11.349  0.00  0.00     0.065 H 
BRANCH  13  16
ATOM     16  NAV PBD d   1       8.997 132.881 -12.634  0.00  0.00    -0.350 N 
ATOM     17  CAG PBD d   1       9.211 131.900 -13.521  0.00  0.00    -0.003 A 
ATOM     18  CAD PBD d   1       8.021 131.580 -14.104  0.00  0.00     0.018 A 
ATOM     19  H10 PBD d   1      10.172 131.437 -13.739  0.00  0.00     0.113 H 
ATOM     20  NAM PBD d   1       7.086 132.403 -13.564  0.00  0.00    -0.255 NA
ATOM     21  H7  PBD d   1       7.853 130.812 -14.858  0.00  0.00     0.117 H 
ATOM     22  CAH PBD d   1       7.702 133.202 -12.672  0.00  0.00     0.065 A 
ATOM     23  H11 PBD d   1       7.223 133.981 -12.080  0.00  0.00     0.143 H 
ENDBRANCH  13  16
ENDBRANCH  10  13
ENDBRANCH   7  10
ENDBRANCH   5   7
ENDBRANCH   3   5
ENDBRANCH   1   3
BRANCH   1  24
ATOM     24  CAS PBD d   1      13.495 137.949 -14.922  0.00  0.00     0.037 A 
ATOM     25  CAE PBD d   1      12.210 138.482 -15.055  0.00  0.00    -0.054 A 
ATOM     26  CAF PBD d   1      11.673 138.598 -16.350  0.00  0.00    -0.046 A 
ATOM     27  H8  PBD d   1      11.644 138.797 -14.186  0.00  0.00     0.087 H 
ATOM     28  CAT PBD d   1      12.426 138.198 -17.461  0.00  0.00     0.101 A 
ATOM     29  H9  PBD d   1      10.675 138.998 -16.488  0.00  0.00     0.087 H 
ATOM     30  CAU PBD d   1      13.677 137.681 -17.308  0.00  0.00     0.103 A 
ATOM     31  CAI PBD d   1      14.228 137.548 -16.043  0.00  0.00    -0.022 A 
ATOM     32  H12 PBD d   1      15.223 137.135 -15.923  0.00  0.00     0.091 H 
BRANCH  28  33
ATOM     33  OAP PBD d   1      11.975 138.294 -18.763  0.00  0.00    -0.353 OA
BRANCH  33  34
ATOM     34  CAA PBD d   1      10.610 138.711 -18.994  0.00  0.00     0.010 C 
ATOM     35  H1  PBD d   1      10.412 138.736 -20.076  0.00  0.00     0.066 H 
ATOM     36  H2  PBD d   1      10.456 139.714 -18.570  0.00  0.00     0.066 H 
ATOM     37  H3  PBD d   1       9.923 138.000 -18.512  0.00  0.00     0.066 H 
ENDBRANCH  33  34
ENDBRANCH  28  33
BRANCH  30  38
ATOM     38  OAQ PBD d   1      14.332 137.342 -18.455  0.00  0.00    -0.353 OA
BRANCH  38  39
ATOM     39  CAB PBD d   1      15.702 136.941 -18.369  0.00  0.00     0.010 C 
ATOM     40  H4  PBD d   1      16.078 136.703 -19.375  0.00  0.00     0.066 H 
ATOM     41  H5  PBD d   1      15.784 136.052 -17.727  0.00  0.00     0.066 H 
ATOM     42  H6  PBD d   1      16.297 137.760 -17.939  0.00  0.00     0.066 H 
ENDBRANCH  38  39
ENDBRANCH  30  38
ENDBRANCH   1  24
TORSDOF 11
