REMARK  4 active torsions:
REMARK  status: ('A' for Active; 'I' for Inactive)
REMARK    1  A    between atoms: C1_1  and  O1_2 
REMARK    2  A    between atoms: C6_8  and  O3_9 
REMARK    3  A    between atoms: C10_13  and  C14_17 
REMARK    4  A    between atoms: C19_22  and  C20_23 
ROOT
ATOM      1  C1  FLU d   1      27.067 -13.228  22.379  0.00  0.00     0.068 A 
ATOM      2  C2  FLU d   1      26.474 -12.263  21.620  0.00  0.00    -0.018 A 
ATOM      3  C3  FLU d   1      25.854 -12.640  20.448  0.00  0.00     0.086 A 
ATOM      4  O2  FLU d   1      25.263 -11.665  19.710  0.00  0.00    -0.309 OA
ATOM      5  C4  FLU d   1      24.629 -11.971  18.527  0.00  0.00     0.086 A 
ATOM      6  C5  FLU d   1      24.037 -10.944  17.822  0.00  0.00    -0.018 A 
ATOM      7  C6  FLU d   1      23.415 -11.243  16.643  0.00  0.00     0.068 A 
ATOM      8  C7  FLU d   1      23.382 -12.589  16.174  0.00  0.00    -0.050 A 
ATOM      9  C8  FLU d   1      23.980 -13.607  16.906  0.00  0.00    -0.070 A 
ATOM     10  C9  FLU d   1      24.600 -13.292  18.071  0.00  0.00    -0.011 A 
ATOM     11  C10 FLU d   1      25.202 -14.286  18.778  0.00  0.00     0.029 A 
ATOM     12  C11 FLU d   1      25.825 -13.973  20.011  0.00  0.00    -0.011 A 
ATOM     13  C12 FLU d   1      26.410 -14.944  20.750  0.00  0.00    -0.070 A 
ATOM     14  C13 FLU d   1      27.035 -14.586  21.945  0.00  0.00    -0.050 A 
ATOM     15  H2  FLU d   1      26.490 -11.225  21.931  0.00  0.00     0.092 H 
ATOM     16  H3  FLU d   1      24.064  -9.926  18.194  0.00  0.00     0.092 H 
ATOM     17  H5  FLU d   1      22.886 -12.820  15.238  0.00  0.00     0.087 H 
ATOM     18  H6  FLU d   1      23.952 -14.632  16.554  0.00  0.00     0.084 H 
ATOM     19  H7  FLU d   1      26.149 -14.149  18.236  0.00  0.00     0.062 H 
ATOM     20  H8  FLU d   1      26.393 -15.977  20.421  0.00  0.00     0.084 H 
ATOM     21  H9  FLU d   1      27.503 -15.352  22.553  0.00  0.00     0.087 H 
ENDROOT
BRANCH  11  22
ATOM     22  C14 FLU d   1      25.093 -15.581  18.325  0.00  0.00    -0.028 A 
ATOM     23  C15 FLU d   1      23.844 -16.109  18.453  0.00  0.00    -0.075 A 
ATOM     24  C16 FLU d   1      23.642 -17.396  17.961  0.00  0.00    -0.082 A 
ATOM     25  H10 FLU d   1      23.040 -15.550  18.919  0.00  0.00     0.084 H 
ATOM     26  C17 FLU d   1      24.694 -18.193  17.361  0.00  0.00    -0.082 A 
ATOM     27  H11 FLU d   1      22.648 -17.823  18.030  0.00  0.00     0.083 H 
ATOM     28  C18 FLU d   1      25.929 -17.661  17.247  0.00  0.00    -0.066 A 
ATOM     29  H12 FLU d   1      24.492 -19.199  17.010  0.00  0.00     0.083 H 
ATOM     30  C19 FLU d   1      26.120 -16.323  17.710  0.00  0.00     0.048 A 
ATOM     31  H13 FLU d   1      26.747 -18.229  16.819  0.00  0.00     0.085 H 
BRANCH  30  32
ATOM     32  C20 FLU d   1      27.348 -15.782  17.584  0.00  0.00     0.209 C 
ATOM     33  O4  FLU d   1      28.384 -16.504  18.078  0.00  0.00    -0.644 OA
ATOM     34  O5  FLU d   1      27.673 -14.702  16.994  0.00  0.00    -0.644 OA
ENDBRANCH  30  32
ENDBRANCH  11  22
BRANCH   7  35
ATOM     35  O3  FLU d   1      22.883 -10.155  16.027  0.00  0.00    -0.361 OA
ATOM     36  H4  FLU d   1      23.573  -9.531  15.837  0.00  0.00     0.217 HD
ENDBRANCH   7  35
BRANCH   1  37
ATOM     37  O1  FLU d   1      27.636 -12.800  23.535  0.00  0.00    -0.361 OA
ATOM     38  H1  FLU d   1      28.020 -13.540  23.991  0.00  0.00     0.217 HD
ENDBRANCH   1  37
TORSDOF 4
