REMARK  11 active torsions:
REMARK  status: ('A' for Active; 'I' for Inactive)
REMARK    1  A    between atoms: OAP_16  and  CAA_1 
REMARK    2  A    between atoms: OAQ_17  and  CAB_2 
REMARK    3  A    between atoms: CAR_18  and  SAC_3 
REMARK    4  A    between atoms: CAK_11  and  CAJ_10 
REMARK    5  A    between atoms: CAJ_10  and  CAL_12 
REMARK    6  A    between atoms: NAN_14  and  CAK_11 
REMARK    7  A    between atoms: CAL_12  and  NAV_22 
REMARK    8  A    between atoms: NAO_15  and  CAR_18 
REMARK    9  A    between atoms: CAS_19  and  NAO_15 
REMARK   10  A    between atoms: CAT_20  and  OAP_16 
REMARK   11  A    between atoms: OAQ_17  and  CAU_21 
ROOT
ATOM      1  NAO PBD d   1      23.816  47.988  48.475  0.00  0.00    -0.336 N 
ATOM      2  H20 PBD d   1      23.166  48.658  48.910  0.00  0.00     0.168 HD
ENDROOT
BRANCH   1   3
ATOM      3  CAR PBD d   1      23.625  46.672  48.694  0.00  0.00     0.159 C 
ATOM      4  NAN PBD d   1      24.469  45.759  48.198  0.00  0.00    -0.267 NA
BRANCH   3   5
ATOM      5  SAC PBD d   1      22.261  46.150  49.685  0.00  0.00    -0.105 SA
ATOM      6  H7  PBD d   1      21.730  46.956  49.975  0.00  0.00     0.110 HD
ENDBRANCH   3   5
BRANCH   4   7
ATOM      7  CAK PBD d   1      24.297  44.300  48.407  0.00  0.00     0.019 C 
ATOM      8  H16 PBD d   1      24.060  44.104  49.463  0.00  0.00     0.067 H 
ATOM      9  H17 PBD d   1      23.478  43.930  47.773  0.00  0.00     0.067 H 
BRANCH   7  10
ATOM     10  CAJ PBD d   1      25.605  43.586  48.030  0.00  0.00    -0.033 C 
ATOM     11  H14 PBD d   1      26.266  43.573  48.909  0.00  0.00     0.037 H 
ATOM     12  H15 PBD d   1      26.090  44.144  47.215  0.00  0.00     0.037 H 
BRANCH  10  13
ATOM     13  CAL PBD d   1      25.370  42.136  47.566  0.00  0.00     0.002 C 
ATOM     14  H18 PBD d   1      24.558  42.113  46.824  0.00  0.00     0.065 H 
ATOM     15  H19 PBD d   1      25.096  41.512  48.429  0.00  0.00     0.065 H 
BRANCH  13  16
ATOM     16  NAV PBD d   1      26.620  41.618  46.953  0.00  0.00    -0.350 N 
ATOM     17  CAG PBD d   1      27.857  41.747  47.467  0.00  0.00    -0.003 A 
ATOM     18  CAD PBD d   1      28.702  41.173  46.611  0.00  0.00     0.018 A 
ATOM     19  H11 PBD d   1      28.119  42.230  48.407  0.00  0.00     0.113 H 
ATOM     20  NAM PBD d   1      27.982  40.708  45.569  0.00  0.00    -0.255 NA
ATOM     21  H8  PBD d   1      29.781  41.093  46.731  0.00  0.00     0.117 H 
ATOM     22  CAH PBD d   1      26.696  41.022  45.779  0.00  0.00     0.065 A 
ATOM     23  H12 PBD d   1      25.866  40.822  45.104  0.00  0.00     0.143 H 
ENDBRANCH  13  16
ENDBRANCH  10  13
ENDBRANCH   7  10
ENDBRANCH   4   7
ENDBRANCH   1   3
BRANCH   1  24
ATOM     24  CAS PBD d   1      24.809  48.461  47.721  0.00  0.00     0.036 A 
ATOM     25  CAE PBD d   1      24.791  48.200  46.353  0.00  0.00    -0.054 A 
ATOM     26  CAF PBD d   1      25.807  48.655  45.525  0.00  0.00    -0.046 A 
ATOM     27  H9  PBD d   1      23.971  47.633  45.929  0.00  0.00     0.087 H 
ATOM     28  CAT PBD d   1      26.855  49.398  46.049  0.00  0.00     0.101 A 
ATOM     29  H10 PBD d   1      25.782  48.429  44.465  0.00  0.00     0.087 H 
ATOM     30  CAU PBD d   1      26.889  49.673  47.423  0.00  0.00     0.103 A 
ATOM     31  CAI PBD d   1      25.864  49.200  48.261  0.00  0.00    -0.022 A 
ATOM     32  H13 PBD d   1      25.892  49.408  49.324  0.00  0.00     0.091 H 
BRANCH  28  33
ATOM     33  OAP PBD d   1      27.867  49.840  45.242  0.00  0.00    -0.353 OA
BRANCH  33  34
ATOM     34  CAA PBD d   1      27.480  50.295  43.951  0.00  0.00     0.010 C 
ATOM     35  H1  PBD d   1      28.371  50.624  43.396  0.00  0.00     0.066 H 
ATOM     36  H2  PBD d   1      26.780  51.138  44.054  0.00  0.00     0.066 H 
ATOM     37  H3  PBD d   1      26.989  49.476  43.405  0.00  0.00     0.066 H 
ENDBRANCH  33  34
ENDBRANCH  28  33
BRANCH  30  38
ATOM     38  OAQ PBD d   1      27.947  50.389  47.902  0.00  0.00    -0.353 OA
BRANCH  38  39
ATOM     39  CAB PBD d   1      27.935  50.548  49.348  0.00  0.00     0.010 C 
ATOM     40  H4  PBD d   1      28.813  51.132  49.660  0.00  0.00     0.066 H 
ATOM     41  H5  PBD d   1      27.965  49.558  49.826  0.00  0.00     0.066 H 
ATOM     42  H6  PBD d   1      27.018  51.074  49.651  0.00  0.00     0.066 H 
ENDBRANCH  38  39
ENDBRANCH  30  38
ENDBRANCH   1  24
TORSDOF 11
