REMARK  2 active torsions:
REMARK  status: ('A' for Active; 'I' for Inactive)
REMARK    1  A    between atoms: N_13  and  CA_14 
REMARK    2  A    between atoms: CA_14  and  C_15 
REMARK       I    between atoms: C_15  and  NAA_17 
ROOT
ATOM      1 BR1  0TJ d   1      16.320  -6.286  17.592  0.00  0.00    -0.047 Br
ATOM      2  CAM 0TJ d   1      17.562  -4.868  18.113  0.00  0.00     0.060 A 
ATOM      3  CAK 0TJ d   1      17.883  -4.659  19.448  0.00  0.00     0.049 A 
ATOM      4 BR2  0TJ d   1      17.121  -5.764  20.849  0.00  0.00    -0.048 Br
ATOM      5  CAL 0TJ d   1      18.779  -3.629  19.793  0.00  0.00     0.049 A 
ATOM      6 BR3  0TJ d   1      19.231  -3.335  21.646  0.00  0.00    -0.048 Br
ATOM      7  CAN 0TJ d   1      19.351  -2.810  18.805  0.00  0.00     0.059 A 
ATOM      8 BR4  0TJ d   1      20.575  -1.421  19.401  0.00  0.00    -0.047 Br
ATOM      9  CAP 0TJ d   1      19.022  -3.019  17.438  0.00  0.00     0.085 A 
ATOM     10  CAO 0TJ d   1      18.134  -4.042  17.101  0.00  0.00     0.105 A 
ATOM     11  NAI 0TJ d   1      17.985  -4.036  15.730  0.00  0.00    -0.240 NA
ATOM     12  CAG 0TJ d   1      18.754  -3.046  15.232  0.00  0.00     0.067 A 
ATOM     13  N   0TJ d   1      19.397  -2.424  16.241  0.00  0.00    -0.330 N 
ATOM     14  H1  0TJ d   1      18.842  -2.789  14.178  0.00  0.00     0.143 H 
ENDROOT
BRANCH  13  15
ATOM     15  CA  0TJ d   1      20.297  -1.282  16.063  0.00  0.00     0.074 C 
ATOM     16  H2  0TJ d   1      20.799  -1.375  15.089  0.00  0.00     0.079 H 
ATOM     17  H3  0TJ d   1      21.049  -1.294  16.866  0.00  0.00     0.079 H 
BRANCH  15  18
ATOM     18  C   0TJ d   1      19.567   0.024  16.106  0.00  0.00     0.233 C 
ATOM     19  O   0TJ d   1      18.796   0.308  15.203  0.00  0.00    -0.272 OA
ATOM     20  NAA 0TJ d   1      19.737   0.916  17.199  0.00  0.00    -0.369 N 
ATOM     21  H4  0TJ d   1      19.244   1.786  17.216  0.00  0.00     0.159 HD
ATOM     22  H5  0TJ d   1      20.350   0.674  17.951  0.00  0.00     0.159 HD
ENDBRANCH  15  18
ENDBRANCH  13  15
TORSDOF 2
