REMARK  11 active torsions:
REMARK  status: ('A' for Active; 'I' for Inactive)
REMARK    1  A    between atoms: C1_1  and  N2_2 
REMARK    2  A    between atoms: N2_2  and  C3_3 
REMARK    3  A    between atoms: N2_2  and  C26_26 
REMARK    4  A    between atoms: C8_8  and  N9_9 
REMARK       I    between atoms: N9_9  and  C10_10 
REMARK    5  A    between atoms: C10_10  and  C12_12 
REMARK    6  A    between atoms: C16_16  and  O17_17 
REMARK    7  A    between atoms: O17_17  and  C18_18 
REMARK    8  A    between atoms: C18_18  and  C19_19 
REMARK    9  A    between atoms: C18_18  and  C20_20 
REMARK   10  A    between atoms: C31_31  and  N32_32 
REMARK       I    between atoms: N32_32  and  C33_33 
REMARK   11  A    between atoms: C33_33  and  C35_35 
ROOT
ATOM      1  C18 0T2 d   1      48.767 -32.229   0.575  0.00  0.00     0.148 C 
ATOM      2  C21 0T2 d   1      47.352 -32.638   0.580  0.00  0.00     0.097 C 
ATOM      3  N22 0T2 d   1      46.253 -32.932   0.562  0.00  0.00    -0.194 NA
ENDROOT
BRANCH   1   4
ATOM      4  O17 0T2 d   1      49.130 -31.728   1.880  0.00  0.00    -0.324 OA
BRANCH   4   5
ATOM      5  C16 0T2 d   1      49.481 -32.524   2.939  0.00  0.00     0.093 A 
ATOM      6  C15 0T2 d   1      50.804 -32.926   3.113  0.00  0.00    -0.049 A 
ATOM      7  C14 0T2 d   1      51.161 -33.724   4.189  0.00  0.00    -0.079 A 
ATOM      8  H   0T2 d   1      51.559 -32.612   2.402  0.00  0.00     0.087 H 
ATOM      9  C13 0T2 d   1      50.207 -34.113   5.108  0.00  0.00    -0.066 A 
ATOM     10  H   0T2 d   1      52.190 -34.043   4.309  0.00  0.00     0.083 H 
ATOM     11  C12 0T2 d   1      48.876 -33.711   4.962  0.00  0.00     0.056 A 
ATOM     12  H   0T2 d   1      50.492 -34.735   5.949  0.00  0.00     0.085 H 
ATOM     13  C23 0T2 d   1      48.524 -32.910   3.870  0.00  0.00     0.083 A 
ATOM     14 CL2  0T2 d   1      46.884 -32.410   3.655  0.00  0.00    -0.080 Cl
BRANCH  11  15
ATOM     15  C10 0T2 d   1      47.880 -34.149   5.967  0.00  0.00     0.258 C 
ATOM     16  N9  0T2 d   1      48.115 -33.855   7.263  0.00  0.00    -0.320 N 
ATOM     17  H   0T2 d   1      48.947 -33.333   7.452  0.00  0.00     0.169 HD
ATOM     18  O11 0T2 d   1      46.888 -34.752   5.619  0.00  0.00    -0.267 OA
BRANCH  16  19
ATOM     19  C8  0T2 d   1      47.330 -34.195   8.381  0.00  0.00     0.076 A 
ATOM     20  C6  0T2 d   1      47.448 -33.411   9.530  0.00  0.00     0.143 A 
ATOM     21  C5  0T2 d   1      46.731 -33.704  10.674  0.00  0.00    -0.041 A 
ATOM     22  F7  0T2 d   1      48.267 -32.343   9.529  0.00  0.00    -0.204 F 
ATOM     23  C4  0T2 d   1      45.891 -34.797  10.688  0.00  0.00    -0.054 A 
ATOM     24  H   0T2 d   1      46.828 -33.079  11.554  0.00  0.00     0.088 H 
ATOM     25  C3  0T2 d   1      45.755 -35.586   9.557  0.00  0.00     0.037 A 
ATOM     26  H   0T2 d   1      45.335 -35.040  11.586  0.00  0.00     0.087 H 
ATOM     27  C25 0T2 d   1      46.490 -35.305   8.409  0.00  0.00    -0.028 A 
ATOM     28  H   0T2 d   1      46.409 -35.948   7.540  0.00  0.00     0.090 H 
BRANCH  25  29
ATOM     29  N2  0T2 d   1      44.920 -36.700   9.613  0.00  0.00    -0.336 N 
BRANCH  29  30
ATOM     30  C1  0T2 d   1      45.605 -37.994   9.576  0.00  0.00    -0.012 C 
ATOM     31  H   0T2 d   1      46.687 -37.833   9.455  0.00  0.00     0.057 H 
ATOM     32  H   0T2 d   1      45.226 -38.586   8.730  0.00  0.00     0.057 H 
ATOM     33  H   0T2 d   1      45.417 -38.535  10.515  0.00  0.00     0.057 H 
ENDBRANCH  29  30
BRANCH  29  34
ATOM     34  C26 0T2 d   1      43.527 -36.684   9.762  0.00  0.00     0.131 A 
ATOM     35  C27 0T2 d   1      42.707 -35.566   9.572  0.00  0.00    -0.036 A 
ATOM     36  C28 0T2 d   1      41.349 -35.672   9.744  0.00  0.00    -0.049 A 
ATOM     37  H   0T2 d   1      43.144 -34.615   9.289  0.00  0.00     0.089 H 
ATOM     38  C29 0T2 d   1      40.792 -36.917  10.135  0.00  0.00     0.095 A 
ATOM     39  H   0T2 d   1      40.708 -34.813   9.583  0.00  0.00     0.087 H 
ATOM     40  N30 0T2 d   1      39.508 -37.290  10.384  0.00  0.00    -0.222 NA
ATOM     41  C39 0T2 d   1      41.687 -37.967  10.307  0.00  0.00     0.132 A 
ATOM     42  C31 0T2 d   1      39.268 -38.526  10.716  0.00  0.00     0.176 A 
ATOM     43  S38 0T2 d   1      40.793 -39.383  10.787  0.00  0.00    -0.030 SA
ATOM     44  N40 0T2 d   1      42.982 -37.824  10.117  0.00  0.00    -0.221 NA
BRANCH  42  45
ATOM     45  N32 0T2 d   1      38.045 -39.107  11.083  0.00  0.00    -0.305 N 
ATOM     46  C33 0T2 d   1      37.942 -40.428  11.384  0.00  0.00     0.227 C 
ATOM     47  O34 0T2 d   1      38.908 -41.143  11.282  0.00  0.00    -0.273 OA
ATOM     48  H   0T2 d   1      37.227 -38.533  11.124  0.00  0.00     0.171 HD
BRANCH  46  49
ATOM     49  C35 0T2 d   1      36.683 -41.102  11.881  0.00  0.00     0.024 A 
ATOM     50  C36 0T2 d   1      35.297 -40.769  11.343  0.00  0.00    -0.053 A 
ATOM     51  C37 0T2 d   1      35.980 -42.089  10.961  0.00  0.00    -0.053 A 
ATOM     52  H   0T2 d   1      35.174 -39.975  10.592  0.00  0.00     0.034 H 
ATOM     53  H   0T2 d   1      34.428 -40.773  12.018  0.00  0.00     0.034 H 
ATOM     54  H   0T2 d   1      35.601 -43.041  11.361  0.00  0.00     0.034 H 
ATOM     55  H   0T2 d   1      36.346 -42.242   9.935  0.00  0.00     0.034 H 
ATOM     56  H   0T2 d   1      36.796 -41.327  12.952  0.00  0.00     0.054 H 
ENDBRANCH  46  49
ENDBRANCH  42  45
ENDBRANCH  29  34
ENDBRANCH  25  29
ENDBRANCH  16  19
ENDBRANCH  11  15
ENDBRANCH   4   5
ENDBRANCH   1   4
BRANCH   1  57
ATOM     57  C19 0T2 d   1      49.658 -33.371   0.064  0.00  0.00    -0.035 C 
ATOM     58  H   0T2 d   1      49.312 -33.689  -0.930  0.00  0.00     0.033 H 
ATOM     59  H   0T2 d   1      49.601 -34.220   0.761  0.00  0.00     0.033 H 
ATOM     60  H   0T2 d   1      50.699 -33.022  -0.004  0.00  0.00     0.033 H 
ENDBRANCH   1  57
BRANCH   1  61
ATOM     61  C20 0T2 d   1      48.892 -31.083  -0.426  0.00  0.00    -0.035 C 
ATOM     62  H   0T2 d   1      48.620 -31.442  -1.430  0.00  0.00     0.033 H 
ATOM     63  H   0T2 d   1      49.929 -30.717  -0.436  0.00  0.00     0.033 H 
ATOM     64  H   0T2 d   1      48.217 -30.265  -0.133  0.00  0.00     0.033 H 
ENDBRANCH   1  61
TORSDOF 11
