REMARK  8 active torsions:
REMARK  status: ('A' for Active; 'I' for Inactive)
REMARK    1  A    between atoms: C1_1  and  C2_2 
REMARK    2  A    between atoms: C2_2  and  C3_3 
REMARK    3  A    between atoms: C3_3  and  C4_4 
REMARK    4  A    between atoms: C5_6  and  C25_30 
REMARK    5  A    between atoms: C10_12  and  O1_18 
REMARK    6  A    between atoms: C13_16  and  C14_17 
REMARK    7  A    between atoms: O1_18  and  C15_19 
REMARK    8  A    between atoms: C15_19  and  C16_20 
ROOT
ATOM      1  C4  0T7 d   1      19.704 -11.050 -33.805  0.00  0.00     0.112 A 
ATOM      2  N1  0T7 d   1      19.664 -11.067 -32.488  0.00  0.00    -0.237 NA
ATOM      3  C5  0T7 d   1      20.270 -12.224 -32.081  0.00  0.00     0.062 A 
ATOM      4  C6  0T7 d   1      20.697 -12.954 -33.175  0.00  0.00     0.089 A 
ATOM      5  N2  0T7 d   1      20.329 -12.191 -34.294  0.00  0.00    -0.293 N 
ATOM      6  C7  0T7 d   1      20.627 -12.666 -35.607  0.00  0.00     0.070 A 
ATOM      7  C8  0T7 d   1      20.314 -12.002 -36.796  0.00  0.00    -0.052 A 
ATOM      8  C9  0T7 d   1      20.663 -12.564 -38.034  0.00  0.00    -0.049 A 
ATOM      9  C10 0T7 d   1      21.325 -13.799 -38.105  0.00  0.00     0.071 A 
ATOM     10  C11 0T7 d   1      21.636 -14.464 -36.917  0.00  0.00    -0.021 A 
ATOM     11  C12 0T7 d   1      21.298 -13.909 -35.671  0.00  0.00     0.087 A 
ATOM     12  N3  0T7 d   1      21.667 -14.662 -34.532  0.00  0.00    -0.249 NA
ATOM     13  C13 0T7 d   1      21.389 -14.223 -33.346  0.00  0.00     0.060 A 
ATOM     14  H8  0T7 d   1      19.799 -11.049 -36.762  0.00  0.00     0.087 H 
ATOM     15  H9  0T7 d   1      20.418 -12.036 -38.948  0.00  0.00     0.087 H 
ATOM     16  H10 0T7 d   1      22.145 -15.421 -36.956  0.00  0.00     0.091 H 
ENDROOT
BRANCH   9  17
ATOM     17  O1  0T7 d   1      21.604 -14.254 -39.368  0.00  0.00    -0.345 OA
BRANCH  17  18
ATOM     18  C15 0T7 d   1      22.672 -15.201 -39.486  0.00  0.00     0.066 C 
ATOM     19  H14 0T7 d   1      22.696 -15.847 -38.596  0.00  0.00     0.084 H 
ATOM     20  H15 0T7 d   1      23.631 -14.670 -39.580  0.00  0.00     0.084 H 
BRANCH  18  21
ATOM     21  C16 0T7 d   1      22.432 -16.035 -40.711  0.00  0.00     0.059 A 
ATOM     22  C17 0T7 d   1      22.895 -15.589 -41.945  0.00  0.00    -0.056 A 
ATOM     23  C18 0T7 d   1      22.658 -16.380 -43.068  0.00  0.00    -0.069 A 
ATOM     24  H16 0T7 d   1      23.427 -14.649 -42.031  0.00  0.00     0.086 H 
ATOM     25  C19 0T7 d   1      21.967 -17.595 -42.938  0.00  0.00    -0.007 A 
ATOM     26  H17 0T7 d   1      23.007 -16.057 -44.042  0.00  0.00     0.085 H 
ATOM     27  C20 0T7 d   1      21.713 -18.420 -44.052  0.00  0.00    -0.071 A 
ATOM     28  C24 0T7 d   1      21.530 -17.979 -41.642  0.00  0.00     0.067 A 
ATOM     29  C21 0T7 d   1      21.025 -19.624 -43.889  0.00  0.00    -0.082 A 
ATOM     30  H18 0T7 d   1      22.052 -18.119 -45.037  0.00  0.00     0.084 H 
ATOM     31  C22 0T7 d   1      20.592 -20.008 -42.624  0.00  0.00    -0.081 A 
ATOM     32  H19 0T7 d   1      20.829 -20.258 -44.746  0.00  0.00     0.083 H 
ATOM     33  C23 0T7 d   1      20.849 -19.188 -41.516  0.00  0.00    -0.054 A 
ATOM     34  H20 0T7 d   1      20.056 -20.941 -42.495  0.00  0.00     0.083 H 
ATOM     35  H21 0T7 d   1      20.509 -19.503 -40.536  0.00  0.00     0.087 H 
ATOM     36  N4  0T7 d   1      21.759 -17.209 -40.553  0.00  0.00    -0.251 NA
ENDBRANCH  18  21
ENDBRANCH  17  18
ENDBRANCH   9  17
BRANCH  13  37
ATOM     37  C14 0T7 d   1      21.826 -15.104 -32.209  0.00  0.00    -0.033 C 
ATOM     38  H11 0T7 d   1      22.324 -15.999 -32.609  0.00  0.00     0.035 H 
ATOM     39  H12 0T7 d   1      20.947 -15.406 -31.620  0.00  0.00     0.035 H 
ATOM     40  H13 0T7 d   1      22.527 -14.552 -31.566  0.00  0.00     0.035 H 
ENDBRANCH  13  37
BRANCH   1  41
ATOM     41  C3  0T7 d   1      19.113  -9.913 -34.566  0.00  0.00    -0.010 C 
ATOM     42  H6  0T7 d   1      19.151  -9.002 -33.951  0.00  0.00     0.044 H 
ATOM     43  H7  0T7 d   1      19.686  -9.755 -35.492  0.00  0.00     0.044 H 
BRANCH  41  44
ATOM     44  C2  0T7 d   1      17.658 -10.231 -34.915  0.00  0.00    -0.062 C 
ATOM     45  H4  0T7 d   1      17.536 -11.322 -34.985  0.00  0.00     0.033 H 
ATOM     46  H5  0T7 d   1      17.005  -9.839 -34.122  0.00  0.00     0.033 H 
BRANCH  44  47
ATOM     47  C1  0T7 d   1      17.261  -9.602 -36.240  0.00  0.00    -0.076 C 
ATOM     48  H1  0T7 d   1      16.212  -9.848 -36.463  0.00  0.00     0.027 H 
ATOM     49  H2  0T7 d   1      17.907  -9.993 -37.040  0.00  0.00     0.027 H 
ATOM     50  H3  0T7 d   1      17.376  -8.510 -36.176  0.00  0.00     0.027 H 
ENDBRANCH  44  47
ENDBRANCH  41  44
ENDBRANCH   1  41
BRANCH   3  51
ATOM     51  C25 0T7 d   1      20.368 -12.484 -30.631  0.00  0.00    -0.033 C 
ATOM     52  H22 0T7 d   1      20.876 -13.445 -30.464  0.00  0.00     0.035 H 
ATOM     53  H23 0T7 d   1      19.358 -12.523 -30.196  0.00  0.00     0.035 H 
ATOM     54  H24 0T7 d   1      20.942 -11.678 -30.152  0.00  0.00     0.035 H 
ENDBRANCH   3  51
TORSDOF 8
