REMARK  6 active torsions:
REMARK  status: ('A' for Active; 'I' for Inactive)
REMARK    1  A    between atoms: C1_1  and  C2_2 
REMARK    2  A    between atoms: C6_9  and  C7_11 
REMARK    3  A    between atoms: C14_19  and  O2_24 
REMARK    4  A    between atoms: C16_21  and  O1_22 
REMARK    5  A    between atoms: O1_22  and  C17_23 
REMARK    6  A    between atoms: O2_24  and  C18_25 
ROOT
ATOM      1  C2  0T6 d   1      20.956 -12.052 -32.165  0.00  0.00     0.081 A 
ATOM      2  C3  0T6 d   1      21.345 -12.464 -33.422  0.00  0.00     0.183 A 
ATOM      3  N1  0T6 d   1      22.039 -13.548 -33.857  0.00  0.00    -0.129 NA
ATOM      4  N2  0T6 d   1      22.295 -13.747 -35.073  0.00  0.00    -0.143 NA
ATOM      5  C4  0T6 d   1      21.844 -12.813 -36.043  0.00  0.00     0.140 A 
ATOM      6  C5  0T6 d   1      21.111 -11.660 -35.672  0.00  0.00     0.079 A 
ATOM      7  N3  0T6 d   1      20.867 -11.504 -34.290  0.00  0.00    -0.274 N 
ATOM      8  C6  0T6 d   1      20.210 -10.545 -33.522  0.00  0.00     0.148 A 
ATOM      9  N4  0T6 d   1      20.260 -10.874 -32.241  0.00  0.00    -0.231 NA
ATOM     10  C13 0T6 d   1      20.681 -10.756 -36.638  0.00  0.00    -0.022 A 
ATOM     11  C14 0T6 d   1      20.966 -10.968 -37.987  0.00  0.00     0.073 A 
ATOM     12  C15 0T6 d   1      21.689 -12.113 -38.375  0.00  0.00    -0.016 A 
ATOM     13  C16 0T6 d   1      22.136 -13.041 -37.407  0.00  0.00     0.103 A 
ATOM     14  H   0T6 d   1      20.116  -9.873 -36.338  0.00  0.00     0.091 H 
ATOM     15  H   0T6 d   1      21.905 -12.285 -39.429  0.00  0.00     0.092 H 
ENDROOT
BRANCH   8  16
ATOM     16  C7  0T6 d   1      19.533  -9.336 -33.991  0.00  0.00     0.032 A 
ATOM     17  C8  0T6 d   1      20.021  -8.058 -33.656  0.00  0.00    -0.068 A 
ATOM     18  C9  0T6 d   1      19.359  -6.909 -34.110  0.00  0.00    -0.082 A 
ATOM     19  H   0T6 d   1      20.916  -7.962 -33.042  0.00  0.00     0.085 H 
ATOM     20  C10 0T6 d   1      18.204  -7.020 -34.893  0.00  0.00    -0.081 A 
ATOM     21  H   0T6 d   1      19.746  -5.923 -33.852  0.00  0.00     0.083 H 
ATOM     22  C11 0T6 d   1      17.704  -8.284 -35.225  0.00  0.00    -0.061 A 
ATOM     23  H   0T6 d   1      17.695  -6.122 -35.244  0.00  0.00     0.083 H 
ATOM     24  C12 0T6 d   1      18.368  -9.436 -34.771  0.00  0.00     0.048 A 
ATOM     25  H   0T6 d   1      16.804  -8.374 -35.833  0.00  0.00     0.086 H 
ATOM     26 CL1  0T6 d   1      17.745 -10.999 -35.197  0.00  0.00    -0.083 Cl
ENDBRANCH   8  16
BRANCH   1  27
ATOM     27  C1  0T6 d   1      21.210 -12.709 -30.871  0.00  0.00    -0.032 C 
ATOM     28  H   0T6 d   1      20.769 -13.706 -30.878  0.00  0.00     0.035 H 
ATOM     29  H   0T6 d   1      22.285 -12.788 -30.710  0.00  0.00     0.035 H 
ATOM     30  H   0T6 d   1      20.764 -12.118 -30.071  0.00  0.00     0.035 H 
ENDBRANCH   1  27
BRANCH  13  31
ATOM     31  O1  0T6 d   1      22.856 -14.196 -37.662  0.00  0.00    -0.353 OA
BRANCH  31  32
ATOM     32  C17 0T6 d   1      23.515 -14.373 -38.916  0.00  0.00     0.010 C 
ATOM     33  H   0T6 d   1      22.779 -14.342 -39.719  0.00  0.00     0.066 H 
ATOM     34  H   0T6 d   1      24.244 -13.575 -39.058  0.00  0.00     0.066 H 
ATOM     35  H   0T6 d   1      24.024 -15.337 -38.925  0.00  0.00     0.066 H 
ENDBRANCH  31  32
ENDBRANCH  13  31
BRANCH  11  36
ATOM     36  O2  0T6 d   1      20.452  -9.962 -38.768  0.00  0.00    -0.356 OA
BRANCH  36  37
ATOM     37  C18 0T6 d   1      20.763  -9.905 -40.154  0.00  0.00     0.010 C 
ATOM     38  H   0T6 d   1      21.842  -9.810 -40.279  0.00  0.00     0.066 H 
ATOM     39  H   0T6 d   1      20.418 -10.818 -40.640  0.00  0.00     0.066 H 
ATOM     40  H   0T6 d   1      20.267  -9.044 -40.601  0.00  0.00     0.066 H 
ENDBRANCH  36  37
ENDBRANCH  11  36
TORSDOF 6
