REMARK  19 active torsions:
REMARK  status: ('A' for Active; 'I' for Inactive)
REMARK    1  A    between atoms: O1_11  and  C1_1 
REMARK    2  A    between atoms: C2_2  and  O2_7 
REMARK    3  A    between atoms: C3_3  and  O3_8 
REMARK    4  A    between atoms: C4_4  and  O4_12 
REMARK    5  A    between atoms: C5_5  and  C6_6 
REMARK    6  A    between atoms: C6_6  and  O6_10 
REMARK    7  A    between atoms: C40_16  and  O1_11 
REMARK    8  A    between atoms: C10_13  and  O10_19 
REMARK    9  A    between atoms: C20_14  and  O20_20 
REMARK   10  A    between atoms: C30_15  and  O30_21 
REMARK   11  A    between atoms: C50_17  and  C60_18 
REMARK   12  A    between atoms: C60_18  and  O60_23 
REMARK   13  A    between atoms: O10_19  and  C11_24 
REMARK   14  A    between atoms: C11_24  and  C21_25 
REMARK   15  A    between atoms: C21_25  and  C31_26 
REMARK   16  A    between atoms: C31_26  and  C41_27 
REMARK   17  A    between atoms: C41_27  and  C51_28 
REMARK   18  A    between atoms: C51_28  and  C61_29 
REMARK   19  A    between atoms: C61_29  and  C12_30 
ROOT
ATOM      1  C10 MA4 d   1      31.059  27.662   2.718  0.00  0.00     0.158 C 
ATOM      2  C20 MA4 d   1      31.877  27.980   1.481  0.00  0.00     0.110 C 
ATOM      3  C30 MA4 d   1      32.768  26.776   1.212  0.00  0.00     0.092 C 
ATOM      4  C40 MA4 d   1      33.630  26.497   2.435  0.00  0.00     0.096 C 
ATOM      5  C50 MA4 d   1      32.812  26.317   3.694  0.00  0.00     0.089 C 
ATOM      6  O50 MA4 d   1      31.970  27.490   3.828  0.00  0.00    -0.348 OA
ATOM      7  H12 MA4 d   1      30.435  26.770   2.563  0.00  0.00     0.133 H 
ATOM      8  H13 MA4 d   1      32.504  28.863   1.673  0.00  0.00     0.094 H 
ATOM      9  H14 MA4 d   1      32.155  25.893   0.979  0.00  0.00     0.091 H 
ATOM     10  H15 MA4 d   1      34.346  27.321   2.575  0.00  0.00     0.091 H 
ATOM     11  H16 MA4 d   1      32.205  25.403   3.613  0.00  0.00     0.090 H 
ENDROOT
BRANCH   1  12
ATOM     12  O10 MA4 d   1      30.285  28.787   3.029  0.00  0.00    -0.359 OA
BRANCH  12  13
ATOM     13  C11 MA4 d   1      29.293  28.490   4.056  0.00  0.00     0.023 C 
ATOM     14  H22 MA4 d   1      29.185  29.350   4.734  0.00  0.00     0.074 H 
ATOM     15  H23 MA4 d   1      29.603  27.606   4.632  0.00  0.00     0.074 H 
BRANCH  13  16
ATOM     16  C21 MA4 d   1      28.002  28.221   3.369  0.00  0.00    -0.045 C 
ATOM     17  H24 MA4 d   1      28.149  27.418   2.632  0.00  0.00     0.036 H 
ATOM     18  H25 MA4 d   1      27.673  29.135   2.854  0.00  0.00     0.036 H 
BRANCH  16  19
ATOM     19  C31 MA4 d   1      26.923  27.794   4.363  0.00  0.00    -0.063 C 
ATOM     20  H26 MA4 d   1      27.099  28.304   5.322  0.00  0.00     0.033 H 
ATOM     21  H27 MA4 d   1      26.984  26.706   4.510  0.00  0.00     0.033 H 
BRANCH  19  22
ATOM     22  C41 MA4 d   1      25.498  28.155   3.854  0.00  0.00    -0.065 C 
ATOM     23  H28 MA4 d   1      25.458  27.920   2.780  0.00  0.00     0.033 H 
ATOM     24  H29 MA4 d   1      25.356  29.236   3.998  0.00  0.00     0.033 H 
BRANCH  22  25
ATOM     25  C51 MA4 d   1      24.347  27.451   4.519  0.00  0.00    -0.065 C 
ATOM     26  H30 MA4 d   1      24.305  26.424   4.129  0.00  0.00     0.033 H 
ATOM     27  H31 MA4 d   1      23.422  27.983   4.252  0.00  0.00     0.033 H 
BRANCH  25  28
ATOM     28  C61 MA4 d   1      24.427  27.376   6.036  0.00  0.00    -0.062 C 
ATOM     29  H32 MA4 d   1      24.796  28.344   6.407  0.00  0.00     0.033 H 
ATOM     30  H33 MA4 d   1      25.143  26.584   6.302  0.00  0.00     0.033 H 
BRANCH  28  31
ATOM     31  C12 MA4 d   1      23.118  27.076   6.728  0.00  0.00    -0.054 C 
ATOM     32  C22 MA4 d   1      23.070  28.039   7.940  0.00  0.00    -0.062 C 
ATOM     33  C32 MA4 d   1      22.457  27.526   9.237  0.00  0.00    -0.065 C 
ATOM     34  H35 MA4 d   1      22.492  28.923   7.633  0.00  0.00     0.033 H 
ATOM     35  H36 MA4 d   1      24.105  28.336   8.163  0.00  0.00     0.033 H 
ATOM     36  C42 MA4 d   1      21.614  26.301   9.004  0.00  0.00    -0.065 C 
ATOM     37  H37 MA4 d   1      21.827  28.316   9.671  0.00  0.00     0.033 H 
ATOM     38  H38 MA4 d   1      23.265  27.275   9.939  0.00  0.00     0.033 H 
ATOM     39  C52 MA4 d   1      22.518  25.238   8.439  0.00  0.00    -0.065 C 
ATOM     40  H39 MA4 d   1      20.808  26.528   8.290  0.00  0.00     0.033 H 
ATOM     41  H40 MA4 d   1      21.177  25.958   9.954  0.00  0.00     0.033 H 
ATOM     42  C62 MA4 d   1      23.119  25.594   7.114  0.00  0.00    -0.062 C 
ATOM     43  H41 MA4 d   1      21.933  24.315   8.317  0.00  0.00     0.033 H 
ATOM     44  H42 MA4 d   1      23.335  25.062   9.154  0.00  0.00     0.033 H 
ATOM     45  H43 MA4 d   1      24.165  25.253   7.121  0.00  0.00     0.033 H 
ATOM     46  H44 MA4 d   1      22.561  25.048   6.339  0.00  0.00     0.033 H 
ATOM     47  H34 MA4 d   1      22.266  27.276   6.061  0.00  0.00     0.040 H 
ENDBRANCH  28  31
ENDBRANCH  25  28
ENDBRANCH  22  25
ENDBRANCH  19  22
ENDBRANCH  16  19
ENDBRANCH  13  16
ENDBRANCH  12  13
ENDBRANCH   1  12
BRANCH   2  48
ATOM     48  O20 MA4 d   1      31.036  28.253   0.372  0.00  0.00    -0.388 OA
ATOM     49  H19 MA4 d   1      30.484  27.499   0.201  0.00  0.00     0.210 HD
ENDBRANCH   2  48
BRANCH   3  50
ATOM     50  O30 MA4 d   1      33.589  27.098   0.120  0.00  0.00    -0.390 OA
ATOM     51  H20 MA4 d   1      34.171  26.370  -0.063  0.00  0.00     0.210 HD
ENDBRANCH   3  50
BRANCH   5  52
ATOM     52  C60 MA4 d   1      33.651  26.260   4.931  0.00  0.00     0.043 C 
ATOM     53  H17 MA4 d   1      34.285  25.361   4.912  0.00  0.00     0.078 H 
ATOM     54  H18 MA4 d   1      33.005  26.235   5.821  0.00  0.00     0.078 H 
BRANCH  52  55
ATOM     55  O60 MA4 d   1      34.473  27.439   4.956  0.00  0.00    -0.398 OA
ATOM     56  H21 MA4 d   1      35.018  27.428   5.734  0.00  0.00     0.209 HD
ENDBRANCH  52  55
ENDBRANCH   5  52
BRANCH   4  57
ATOM     57  O1  MA4 d   1      34.325  25.254   2.203  0.00  0.00    -0.348 OA
BRANCH  57  58
ATOM     58  C1  MA4 d   1      35.750  25.297   2.242  0.00  0.00     0.159 C 
ATOM     59  C2  MA4 d   1      36.295  24.649   0.994  0.00  0.00     0.110 C 
ATOM     60  C3  MA4 d   1      36.017  23.156   0.936  0.00  0.00     0.092 C 
ATOM     61  H2  MA4 d   1      37.385  24.794   0.969  0.00  0.00     0.094 H 
ATOM     62  C4  MA4 d   1      36.377  22.451   2.224  0.00  0.00     0.090 C 
ATOM     63  H3  MA4 d   1      34.941  23.008   0.763  0.00  0.00     0.091 H 
ATOM     64  C5  MA4 d   1      35.836  23.192   3.442  0.00  0.00     0.089 C 
ATOM     65  H4  MA4 d   1      37.473  22.396   2.295  0.00  0.00     0.091 H 
ATOM     66  O5  MA4 d   1      36.191  24.582   3.394  0.00  0.00    -0.348 OA
ATOM     67  H5  MA4 d   1      34.739  23.114   3.422  0.00  0.00     0.090 H 
ATOM     68  H1  MA4 d   1      36.093  26.341   2.297  0.00  0.00     0.133 H 
BRANCH  59  69
ATOM     69  O2  MA4 d   1      35.718  25.306  -0.105  0.00  0.00    -0.388 OA
ATOM     70  H8  MA4 d   1      34.778  25.168  -0.097  0.00  0.00     0.210 HD
ENDBRANCH  59  69
BRANCH  60  71
ATOM     71  O3  MA4 d   1      36.739  22.618  -0.180  0.00  0.00    -0.390 OA
ATOM     72  H9  MA4 d   1      36.490  23.082  -0.971  0.00  0.00     0.210 HD
ENDBRANCH  60  71
BRANCH  62  73
ATOM     73  O4  MA4 d   1      35.845  21.148   2.250  0.00  0.00    -0.390 OA
ATOM     74  H11 MA4 d   1      34.897  21.194   2.217  0.00  0.00     0.210 HD
ENDBRANCH  62  73
BRANCH  64  75
ATOM     75  C6  MA4 d   1      36.330  22.591   4.757  0.00  0.00     0.043 C 
ATOM     76  H6  MA4 d   1      35.959  21.560   4.856  0.00  0.00     0.078 H 
ATOM     77  H7  MA4 d   1      35.965  23.195   5.601  0.00  0.00     0.078 H 
BRANCH  75  78
ATOM     78  O6  MA4 d   1      37.764  22.589   4.750  0.00  0.00    -0.398 OA
ATOM     79  H10 MA4 d   1      38.083  22.217   5.564  0.00  0.00     0.209 HD
ENDBRANCH  75  78
ENDBRANCH  64  75
ENDBRANCH  57  58
ENDBRANCH   4  57
TORSDOF 19
