REMARK  4 active torsions:
REMARK  status: ('A' for Active; 'I' for Inactive)
REMARK    1  A    between atoms: N_1  and  CA_2 
REMARK    2  A    between atoms: CA_2  and  C_3 
REMARK    3  A    between atoms: CA_2  and  CD_6 
REMARK    4  A    between atoms: CD_6  and  NE_7 
REMARK       I    between atoms: NE_7  and  CZ_8 
REMARK       I    between atoms: CZ_8  and  NH2_10 
ROOT
ATOM      1  CD  GPA d   1      22.634 -17.468   5.443  0.00  0.00     0.045 C 
ATOM      2  H   GPA d   1      23.050 -18.151   4.702  0.00  0.00     0.068 H 
ATOM      3  H   GPA d   1      23.005 -17.553   6.465  0.00  0.00     0.068 H 
ENDROOT
BRANCH   1   4
ATOM      4  CA  GPA d   1      21.121 -17.799   5.516  0.00  0.00     0.198 C 
ATOM      5  H   GPA d   1      20.975 -18.627   6.210  0.00  0.00     0.103 H 
BRANCH   4   6
ATOM      6  N   GPA d   1      20.661 -18.117   4.131  0.00  0.00    -0.064 N 
ATOM      7  H   GPA d   1      19.666 -18.340   4.147  0.00  0.00     0.275 HD
ATOM      8  H   GPA d   1      20.820 -17.310   3.527  0.00  0.00     0.275 HD
ATOM      9  H   GPA d   1      21.184 -18.918   3.776  0.00  0.00     0.275 HD
ENDBRANCH   4   6
BRANCH   4  10
ATOM     10  C   GPA d   1      20.324 -16.610   5.987  0.00  0.00     0.206 C 
ATOM     11  OA1 GPA d   1      20.057 -16.210   7.127  0.00  0.00    -0.646 OA
ATOM     12  OA2 GPA d   1      19.845 -15.896   4.790  0.00  0.00    -0.646 OA
ENDBRANCH   4  10
ENDBRANCH   1   4
BRANCH   1  13
ATOM     13  NE  GPA d   1      23.011 -16.105   4.991  0.00  0.00    -0.224 N 
ATOM     14  CZ  GPA d   1      24.047 -15.356   5.563  0.00  0.00     0.665 C 
ATOM     15  NH1 GPA d   1      24.847 -15.809   6.529  0.00  0.00    -0.235 N 
ATOM     16  NH2 GPA d   1      24.250 -14.050   5.085  0.00  0.00    -0.235 N 
ATOM     17  H   GPA d   1      25.584 -15.211   6.903  0.00  0.00     0.174 HD
ATOM     18  H   GPA d   1      24.722 -16.753   6.894  0.00  0.00     0.174 HD
ATOM     19  H   GPA d   1      24.995 -13.474   5.476  0.00  0.00     0.174 HD
ATOM     20  H   GPA d   1      23.652 -13.678   4.347  0.00  0.00     0.174 HD
ATOM     21  H   GPA d   1      22.486 -15.691   4.221  0.00  0.00     0.177 HD
ENDBRANCH   1  13
TORSDOF 4
