REMARK  4 active torsions:
REMARK  status: ('A' for Active; 'I' for Inactive)
REMARK    1  A    between atoms: N_1  and  CA_2 
REMARK    2  A    between atoms: CA_2  and  C_3 
REMARK    3  A    between atoms: CA_2  and  CD_6 
REMARK    4  A    between atoms: CD_6  and  NE_7 
REMARK       I    between atoms: NE_7  and  CZ_8 
REMARK       I    between atoms: CZ_8  and  NH1_9 
ROOT
ATOM      1  CD  GPA d   1      26.119 -10.715  -5.969  0.00  0.00     0.045 C 
ATOM      2  H   GPA d   1      27.194 -10.818  -5.822  0.00  0.00     0.068 H 
ATOM      3  H   GPA d   1      25.899 -10.737  -7.036  0.00  0.00     0.068 H 
ENDROOT
BRANCH   1   4
ATOM      4  CA  GPA d   1      25.636  -9.362  -5.364  0.00  0.00     0.198 C 
ATOM      5  H   GPA d   1      26.200  -8.547  -5.819  0.00  0.00     0.103 H 
BRANCH   4   6
ATOM      6  N   GPA d   1      25.879  -9.296  -3.935  0.00  0.00    -0.064 N 
ATOM      7  H   GPA d   1      25.551  -8.399  -3.577  0.00  0.00     0.275 HD
ATOM      8  H   GPA d   1      25.378 -10.053  -3.471  0.00  0.00     0.275 HD
ATOM      9  H   GPA d   1      26.879  -9.389  -3.757  0.00  0.00     0.275 HD
ENDBRANCH   4   6
BRANCH   4  10
ATOM     10  C   GPA d   1      24.150  -9.206  -5.660  0.00  0.00     0.206 C 
ATOM     11  OA1 GPA d   1      23.232  -9.055  -4.856  0.00  0.00    -0.646 OA
ATOM     12  OA2 GPA d   1      23.903  -9.225  -6.986  0.00  0.00    -0.646 OA
ENDBRANCH   4  10
ENDBRANCH   1   4
BRANCH   1  13
ATOM     13  NE  GPA d   1      25.425 -11.817  -5.302  0.00  0.00    -0.224 N 
ATOM     14  CZ  GPA d   1      25.466 -13.092  -5.913  0.00  0.00     0.665 C 
ATOM     15  NH1 GPA d   1      24.595 -14.006  -5.317  0.00  0.00    -0.235 N 
ATOM     16  NH2 GPA d   1      26.183 -13.510  -6.920  0.00  0.00    -0.235 N 
ATOM     17  H   GPA d   1      24.537 -14.961  -5.671  0.00  0.00     0.174 HD
ATOM     18  H   GPA d   1      24.017 -13.719  -4.527  0.00  0.00     0.174 HD
ATOM     19  H   GPA d   1      26.095 -14.473  -7.244  0.00  0.00     0.174 HD
ATOM     20  H   GPA d   1      26.832 -12.873  -7.383  0.00  0.00     0.174 HD
ATOM     21  H   GPA d   1      24.927 -11.670  -4.424  0.00  0.00     0.177 HD
ENDBRANCH   1  13
TORSDOF 4
