REMARK  18 active torsions:
REMARK  status: ('A' for Active; 'I' for Inactive)
REMARK    1  A    between atoms: N_1  and  CA_2 
REMARK    2  A    between atoms: CA_2  and  C_3 
REMARK    3  A    between atoms: CA_2  and  CB_5 
REMARK       I    between atoms: C_3  and  N_7 
REMARK    4  A    between atoms: CB_5  and  OG_6 
REMARK    5  A    between atoms: N_7  and  CA_8 
REMARK    6  A    between atoms: CA_8  and  C_9 
REMARK       I    between atoms: C_9  and  N_11 
REMARK    7  A    between atoms: N_11  and  CA_12 
REMARK    8  A    between atoms: CA_12  and  C_13 
REMARK    9  A    between atoms: CA_12  and  CB_15 
REMARK       I    between atoms: C_13  and  N_22 
REMARK   10  A    between atoms: CB_15  and  CG_16 
REMARK   11  A    between atoms: N_22  and  CA_23 
REMARK   12  A    between atoms: CA_23  and  C_24 
REMARK   13  A    between atoms: CA_23  and  CB_26 
REMARK       I    between atoms: C_24  and  N_28 
REMARK   14  A    between atoms: CB_26  and  OG_27 
REMARK   15  A    between atoms: N_28  and  CA_29 
REMARK   16  A    between atoms: CA_29  and  C_30 
REMARK   17  A    between atoms: CA_29  and  CB_32 
REMARK   18  A    between atoms: CB_32  and  CG_33 
ROOT
ATOM      1  CA  PHE d   1     -12.203  17.851 -10.214  0.00  0.00     0.093 C 
ATOM      2  H12 PHE d   1     -12.628  17.942  -9.203  0.00  0.00     0.088 H 
ENDROOT
BRANCH   1   3
ATOM      3  N   PHE d   1     -12.422  16.487 -10.683  0.00  0.00    -0.346 N 
ATOM      4  C   GLY d   1     -13.388  15.732 -10.170  0.00  0.00     0.236 C 
ATOM      5  O   GLY d   1     -14.108  16.109  -9.246  0.00  0.00    -0.272 OA
ATOM      6  H11 PHE d   1     -11.836  16.114 -11.402  0.00  0.00     0.163 HD
BRANCH   4   7
ATOM      7  CA  GLY d   1     -13.572  14.355 -10.779  0.00  0.00     0.069 C 
ATOM      8  H9  GLY d   1     -13.376  14.412 -11.860  0.00  0.00     0.078 H 
ATOM      9  H10 GLY d   1     -12.858  13.659 -10.313  0.00  0.00     0.078 H 
BRANCH   7  10
ATOM     10  N   GLY d   1     -14.920  13.860 -10.569  0.00  0.00    -0.350 N 
ATOM     11  C   SER d   1     -15.299  12.647 -10.959  0.00  0.00     0.250 C 
ATOM     12  O   SER d   1     -14.545  11.856 -11.526  0.00  0.00    -0.271 OA
ATOM     13  H8  GLY d   1     -15.586  14.452 -10.115  0.00  0.00     0.163 HD
BRANCH  11  14
ATOM     14  CA  SER d   1     -16.750  12.273 -10.664  0.00  0.00     0.195 C 
ATOM     15  H4  SER d   1     -17.293  13.196 -10.413  0.00  0.00     0.102 H 
BRANCH  14  16
ATOM     16  N   SER d   1     -17.401  11.671 -11.822  0.00  0.00    -0.064 N 
ATOM     17  H1  SER d   1     -18.354  11.439 -11.589  0.00  0.00     0.275 HD
ATOM     18  H2  SER d   1     -16.907  10.834 -12.088  0.00  0.00     0.275 HD
ATOM     19  H3  SER d   1     -17.393  12.324 -12.589  0.00  0.00     0.275 HD
ENDBRANCH  14  16
BRANCH  14  20
ATOM     20  CB  SER d   1     -16.822  11.333  -9.459  0.00  0.00     0.051 C 
ATOM     21  H5  SER d   1     -16.499  10.328  -9.768  0.00  0.00     0.077 H 
ATOM     22  H6  SER d   1     -17.860  11.290  -9.099  0.00  0.00     0.077 H 
BRANCH  20  23
ATOM     23  OG  SER d   1     -15.986  11.785  -8.407  0.00  0.00    -0.398 OA
ATOM     24  H7  SER d   1     -15.087  11.820  -8.711  0.00  0.00     0.209 HD
ENDBRANCH  20  23
ENDBRANCH  14  20
ENDBRANCH  11  14
ENDBRANCH   7  10
ENDBRANCH   4   7
ENDBRANCH   1   3
BRANCH   1  25
ATOM     25  C   PHE d   1     -12.930  18.833 -11.128  0.00  0.00     0.241 C 
ATOM     26  O   PHE d   1     -13.167  18.541 -12.301  0.00  0.00    -0.271 OA
ATOM     27  N   SER d   1     -13.285  19.994 -10.590  0.00  0.00    -0.344 N 
ATOM     28  H20 SER d   1     -12.955  20.233  -9.677  0.00  0.00     0.163 HD
BRANCH  27  29
ATOM     29  CA  SER d   1     -14.147  20.927 -11.307  0.00  0.00     0.109 C 
ATOM     30  H21 SER d   1     -14.477  20.427 -12.230  0.00  0.00     0.090 H 
BRANCH  29  31
ATOM     31  C   SER d   1     -13.448  22.222 -11.714  0.00  0.00     0.243 C 
ATOM     32  O   SER d   1     -12.366  22.542 -11.221  0.00  0.00    -0.271 OA
ATOM     33  N   PHE d   1     -14.083  22.961 -12.619  0.00  0.00    -0.344 N 
ATOM     34  H25 PHE d   1     -14.950  22.630 -12.993  0.00  0.00     0.163 HD
BRANCH  33  35
ATOM     35  CA  PHE d   1     -13.555  24.238 -13.083  0.00  0.00     0.100 C 
ATOM     36  H26 PHE d   1     -12.949  24.674 -12.275  0.00  0.00     0.090 H 
BRANCH  35  37
ATOM     37  C   PHE d   1     -14.682  25.210 -13.416  0.00  0.00     0.197 C 
ATOM     38  O   PHE d   1     -14.480  26.454 -13.430  0.00  0.00    -0.646 OA
ATOM     39  O   PHE d   1     -15.830  24.764 -13.680  0.00  0.00    -0.646 OA
ENDBRANCH  35  37
BRANCH  35  40
ATOM     40  CB  PHE d   1     -12.659  24.036 -14.305  0.00  0.00    -0.013 C 
ATOM     41  H27 PHE d   1     -13.158  24.480 -15.179  0.00  0.00     0.043 H 
ATOM     42  H28 PHE d   1     -12.530  22.956 -14.466  0.00  0.00     0.043 H 
BRANCH  40  43
ATOM     43  CG  PHE d   1     -11.302  24.659 -14.167  0.00  0.00    -0.056 A 
ATOM     44  CD1 PHE d   1     -10.258  23.949 -13.603  0.00  0.00    -0.077 A 
ATOM     45  CE1 PHE d   1      -9.011  24.517 -13.470  0.00  0.00    -0.082 A 
ATOM     46  H29 PHE d   1     -10.423  22.933 -13.262  0.00  0.00     0.084 H 
ATOM     47  CZ  PHE d   1      -8.791  25.811 -13.899  0.00  0.00    -0.083 A 
ATOM     48  H31 PHE d   1      -8.201  23.948 -13.028  0.00  0.00     0.083 H 
ATOM     49  CE2 PHE d   1      -9.822  26.532 -14.462  0.00  0.00    -0.082 A 
ATOM     50  H33 PHE d   1      -7.809  26.259 -13.793  0.00  0.00     0.083 H 
ATOM     51  CD2 PHE d   1     -11.072  25.957 -14.593  0.00  0.00    -0.077 A 
ATOM     52  H32 PHE d   1      -9.653  27.548 -14.801  0.00  0.00     0.083 H 
ATOM     53  H30 PHE d   1     -11.881  26.528 -15.034  0.00  0.00     0.084 H 
ENDBRANCH  40  43
ENDBRANCH  35  40
ENDBRANCH  33  35
ENDBRANCH  29  31
BRANCH  29  54
ATOM     54  CB  SER d   1     -15.387  21.245 -10.468  0.00  0.00     0.044 C 
ATOM     55  H22 SER d   1     -16.026  21.948 -11.022  0.00  0.00     0.077 H 
ATOM     56  H23 SER d   1     -15.072  21.706  -9.520  0.00  0.00     0.077 H 
BRANCH  54  57
ATOM     57  OG  SER d   1     -16.125  20.068 -10.189  0.00  0.00    -0.398 OA
ATOM     58  H24 SER d   1     -16.888  20.290  -9.668  0.00  0.00     0.209 HD
ENDBRANCH  54  57
ENDBRANCH  29  54
ENDBRANCH  27  29
ENDBRANCH   1  25
BRANCH   1  59
ATOM     59  CB  PHE d   1     -10.706  18.168 -10.129  0.00  0.00    -0.014 C 
ATOM     60  H13 PHE d   1     -10.163  17.227  -9.960  0.00  0.00     0.043 H 
ATOM     61  H14 PHE d   1     -10.544  18.843  -9.276  0.00  0.00     0.043 H 
BRANCH  59  62
ATOM     62  CG  PHE d   1     -10.146  18.821 -11.361  0.00  0.00    -0.056 A 
ATOM     63  CD1 PHE d   1      -9.831  20.170 -11.360  0.00  0.00    -0.077 A 
ATOM     64  CE1 PHE d   1      -9.314  20.776 -12.488  0.00  0.00    -0.082 A 
ATOM     65  H15 PHE d   1      -9.992  20.757 -10.463  0.00  0.00     0.084 H 
ATOM     66  CZ  PHE d   1      -9.106  20.036 -13.633  0.00  0.00    -0.083 A 
ATOM     67  H17 PHE d   1      -9.072  21.832 -12.473  0.00  0.00     0.083 H 
ATOM     68  CE2 PHE d   1      -9.414  18.690 -13.647  0.00  0.00    -0.082 A 
ATOM     69  H19 PHE d   1      -8.702  20.510 -14.520  0.00  0.00     0.083 H 
ATOM     70  CD2 PHE d   1      -9.930  18.088 -12.515  0.00  0.00    -0.077 A 
ATOM     71  H18 PHE d   1      -9.251  18.106 -14.546  0.00  0.00     0.083 H 
ATOM     72  H16 PHE d   1     -10.168  17.031 -12.531  0.00  0.00     0.084 H 
ENDBRANCH  59  62
ENDBRANCH   1  59
TORSDOF 18
