REMARK  10 active torsions:
REMARK  status: ('A' for Active; 'I' for Inactive)
REMARK    1  A    between atoms: C14_1  and  O1_2 
REMARK    2  A    between atoms: O1_2  and  C5_3 
REMARK    3  A    between atoms: C6_5  and  O2_6 
REMARK    4  A    between atoms: O2_6  and  C17_7 
REMARK    5  A    between atoms: C3_11  and  C7_12 
REMARK    6  A    between atoms: C8_22  and  S_23 
REMARK    7  A    between atoms: S_23  and  C15_24 
REMARK    8  A    between atoms: C15_24  and  C16_25 
REMARK       I    between atoms: C16_25  and  N5_27 
REMARK    9  A    between atoms: N5_27  and  C18_28 
REMARK   10  A    between atoms: N5_27  and  C19_29 
ROOT
ATOM      1  C7  0TM d   1      30.601  10.643  24.855  0.00  0.00     0.087 A 
ATOM      2  N1  0TM d   1      30.368  10.053  26.064  0.00  0.00    -0.221 NA
ATOM      3  C9  0TM d   1      29.493  11.219  24.158  0.00  0.00     0.062 A 
ATOM      4  C12 0TM d   1      29.270  11.806  22.964  0.00  0.00     0.076 A 
ATOM      5  C13 0TM d   1      30.275  12.115  21.942  0.00  0.00     0.102 C 
ATOM      6  N4  0TM d   1      31.066  12.344  21.129  0.00  0.00    -0.191 NA
ATOM      7  C11 0TM d   1      27.958  12.120  22.897  0.00  0.00    -0.000 A 
ATOM      8  N3  0TM d   1      27.260  11.701  23.962  0.00  0.00    -0.348 N 
ATOM      9  C10 0TM d   1      28.207  11.148  24.755  0.00  0.00     0.144 A 
ATOM     10  N2  0TM d   1      28.058  10.528  25.899  0.00  0.00    -0.204 NA
ATOM     11  C8  0TM d   1      29.133  10.033  26.615  0.00  0.00     0.191 A 
ATOM     12  H   0TM d   1      27.512  12.659  22.061  0.00  0.00     0.113 H 
ATOM     13  H   0TM d   1      26.258  11.780  24.133  0.00  0.00     0.167 HD
ENDROOT
BRANCH   1  14
ATOM     14  C3  0TM d   1      31.954  10.582  24.395  0.00  0.00     0.018 A 
ATOM     15  C4  0TM d   1      32.550   9.313  24.157  0.00  0.00    -0.034 A 
ATOM     16  C5  0TM d   1      33.909   9.240  23.687  0.00  0.00     0.102 A 
ATOM     17  H   0TM d   1      31.981   8.400  24.330  0.00  0.00     0.089 H 
ATOM     18  C6  0TM d   1      34.645  10.386  23.594  0.00  0.00     0.103 A 
ATOM     19  C1  0TM d   1      34.056  11.654  23.829  0.00  0.00    -0.026 A 
ATOM     20  C2  0TM d   1      32.726  11.765  24.292  0.00  0.00     0.049 A 
ATOM     21  H   0TM d   1      34.639  12.558  23.650  0.00  0.00     0.090 H 
ATOM     22 CL   0TM d   1      32.079  13.337  24.568  0.00  0.00    -0.083 Cl
BRANCH  16  23
ATOM     23  O1  0TM d   1      34.529   8.039  23.429  0.00  0.00    -0.353 OA
BRANCH  23  24
ATOM     24  C14 0TM d   1      33.708   6.812  23.314  0.00  0.00     0.010 C 
ATOM     25  H   0TM d   1      33.172   6.646  24.248  0.00  0.00     0.066 H 
ATOM     26  H   0TM d   1      32.993   6.930  22.500  0.00  0.00     0.066 H 
ATOM     27  H   0TM d   1      34.357   5.960  23.110  0.00  0.00     0.066 H 
ENDBRANCH  23  24
ENDBRANCH  16  23
BRANCH  18  28
ATOM     28  O2  0TM d   1      35.977  10.205  23.187  0.00  0.00    -0.353 OA
BRANCH  28  29
ATOM     29  C17 0TM d   1      36.880  11.304  23.566  0.00  0.00     0.010 C 
ATOM     30  H   0TM d   1      36.531  12.232  23.114  0.00  0.00     0.066 H 
ATOM     31  H   0TM d   1      36.888  11.408  24.651  0.00  0.00     0.066 H 
ATOM     32  H   0TM d   1      37.887  11.083  23.213  0.00  0.00     0.066 H 
ENDBRANCH  28  29
ENDBRANCH  18  28
ENDBRANCH   1  14
BRANCH  11  33
ATOM     33  S   0TM d   1      28.668   9.334  28.117  0.00  0.00    -0.081 SA
BRANCH  33  34
ATOM     34  C15 0TM d   1      30.130   8.353  28.600  0.00  0.00     0.058 C 
ATOM     35  H   0TM d   1      29.922   7.938  29.586  0.00  0.00     0.064 H 
ATOM     36  H   0TM d   1      30.989   9.023  28.559  0.00  0.00     0.064 H 
BRANCH  34  37
ATOM     37  C16 0TM d   1      30.443   7.167  27.673  0.00  0.00     0.228 C 
ATOM     38  O3  0TM d   1      29.609   6.819  26.841  0.00  0.00    -0.273 OA
ATOM     39  N5  0TM d   1      31.643   6.551  27.833  0.00  0.00    -0.360 N 
BRANCH  39  40
ATOM     40  C18 0TM d   1      32.612   6.975  28.867  0.00  0.00    -0.017 C 
ATOM     41  H   0TM d   1      32.893   8.014  28.696  0.00  0.00     0.056 H 
ATOM     42  H   0TM d   1      32.156   6.878  29.852  0.00  0.00     0.056 H 
ATOM     43  H   0TM d   1      33.499   6.344  28.812  0.00  0.00     0.056 H 
ENDBRANCH  39  40
BRANCH  39  44
ATOM     44  C19 0TM d   1      31.986   5.422  26.963  0.00  0.00    -0.017 C 
ATOM     45  H   0TM d   1      31.251   4.628  27.094  0.00  0.00     0.056 H 
ATOM     46  H   0TM d   1      31.985   5.752  25.924  0.00  0.00     0.056 H 
ATOM     47  H   0TM d   1      32.976   5.050  27.226  0.00  0.00     0.056 H 
ENDBRANCH  39  44
ENDBRANCH  34  37
ENDBRANCH  33  34
ENDBRANCH  11  33
TORSDOF 10
