REMARK  18 active torsions:
REMARK  status: ('A' for Active; 'I' for Inactive)
REMARK    1  A    between atoms: C35_4  and  C36_5 
REMARK    2  A    between atoms: C36_5  and  C37_6 
REMARK    3  A    between atoms: N4_7  and  C38_8 
REMARK    4  A    between atoms: C28_14  and  S1_15 
REMARK    5  A    between atoms: S1_15  and  N2_18 
REMARK    6  A    between atoms: N2_18  and  C15_19 
REMARK    7  A    between atoms: N2_18  and  C14_23 
REMARK    8  A    between atoms: C15_19  and  C16_20 
REMARK    9  A    between atoms: C16_20  and  C24_21 
REMARK   10  A    between atoms: C16_20  and  C23_22 
REMARK   11  A    between atoms: C14_23  and  C6_24 
REMARK   12  A    between atoms: C6_24  and  O3_25 
REMARK   13  A    between atoms: C6_24  and  C5_26 
REMARK   14  A    between atoms: C5_26  and  C7_27 
REMARK   15  A    between atoms: C5_26  and  N1_34 
REMARK   16  A    between atoms: C7_27  and  C8_28 
REMARK       I    between atoms: N1_34  and  C3_35 
REMARK   17  A    between atoms: C3_35  and  O1_37 
REMARK   18  A    between atoms: O1_37  and  C4_38 
ROOT
ATOM      1  C14 0TQ d   1     -10.210  17.216  28.918  0.00  0.00     0.031 C 
ATOM      2  H21 0TQ d   1      -9.411  17.740  29.463  0.00  0.00     0.069 H 
ATOM      3  H22 0TQ d   1     -11.188  17.604  29.238  0.00  0.00     0.069 H 
ENDROOT
BRANCH   1   4
ATOM      4  N2  0TQ d   1     -10.149  15.785  29.301  0.00  0.00    -0.304 N 
BRANCH   4   5
ATOM      5  S1  0TQ d   1      -8.869  15.202  29.970  0.00  0.00     0.261 S 
ATOM      6  O4  0TQ d   1      -7.660  15.817  29.466  0.00  0.00    -0.200 OA
ATOM      7  O5  0TQ d   1      -8.784  13.792  29.908  0.00  0.00    -0.200 OA
BRANCH   5   8
ATOM      8  C28 0TQ d   1      -9.124  15.578  31.476  0.00  0.00     0.080 A 
ATOM      9  C29 0TQ d   1      -8.484  16.670  31.996  0.00  0.00    -0.058 A 
ATOM     10  C30 0TQ d   1      -8.706  17.040  33.297  0.00  0.00    -0.055 A 
ATOM     11  H10 0TQ d   1      -7.801  17.243  31.379  0.00  0.00     0.086 H 
ATOM     12  C31 0TQ d   1      -9.599  16.361  34.091  0.00  0.00     0.042 A 
ATOM     13  H9  0TQ d   1      -8.166  17.885  33.708  0.00  0.00     0.087 H 
ATOM     14  N3  0TQ d   1      -9.917  16.587  35.392  0.00  0.00    -0.326 N 
ATOM     15  C32 0TQ d   1     -10.257  15.245  33.539  0.00  0.00    -0.011 A 
ATOM     16  C34 0TQ d   1     -10.822  15.672  35.697  0.00  0.00     0.236 A 
ATOM     17  H1  0TQ d   1      -9.546  17.295  35.992  0.00  0.00     0.169 HD
ATOM     18  O8  0TQ d   1     -11.407  15.512  36.802  0.00  0.00    -0.272 OA
ATOM     19  C35 0TQ d   1     -11.126  14.752  34.624  0.00  0.00     0.089 A 
ATOM     20  H2  0TQ d   1     -11.970  15.350  34.249  0.00  0.00     0.071 H 
ATOM     21  C33 0TQ d   1     -10.045  14.857  32.229  0.00  0.00    -0.051 A 
ATOM     22  H11 0TQ d   1     -10.580  14.017  31.802  0.00  0.00     0.086 H 
BRANCH  19  23
ATOM     23  C36 0TQ d   1     -12.089  13.622  34.780  0.00  0.00     0.020 C 
ATOM     24  N4  0TQ d   1     -12.691  13.476  35.978  0.00  0.00    -0.302 NA
BRANCH  23  25
ATOM     25  C37 0TQ d   1     -12.403  12.685  33.684  0.00  0.00    -0.038 C 
ATOM     26  H3  0TQ d   1     -13.134  11.942  34.035  0.00  0.00     0.035 H 
ATOM     27  H4  0TQ d   1     -11.484  12.172  33.365  0.00  0.00     0.035 H 
ATOM     28  H5  0TQ d   1     -12.825  13.242  32.835  0.00  0.00     0.035 H 
ENDBRANCH  23  25
BRANCH  24  29
ATOM     29  C38 0TQ d   1     -13.165  12.209  36.484  0.00  0.00     0.000 C 
ATOM     30  H6  0TQ d   1     -13.615  12.356  37.477  0.00  0.00     0.059 H 
ATOM     31  H7  0TQ d   1     -12.322  11.507  36.564  0.00  0.00     0.059 H 
ATOM     32  H8  0TQ d   1     -13.919  11.799  35.797  0.00  0.00     0.059 H 
ENDBRANCH  24  29
ENDBRANCH  19  23
ENDBRANCH   5   8
ENDBRANCH   4   5
BRANCH   4  33
ATOM     33  C15 0TQ d   1     -11.412  15.017  29.294  0.00  0.00     0.008 C 
ATOM     34  H12 0TQ d   1     -12.090  15.428  30.056  0.00  0.00     0.066 H 
ATOM     35  H13 0TQ d   1     -11.197  13.963  29.524  0.00  0.00     0.066 H 
BRANCH  33  36
ATOM     36  C16 0TQ d   1     -12.079  15.107  27.927  0.00  0.00    -0.045 C 
ATOM     37  H14 0TQ d   1     -11.940  16.090  27.453  0.00  0.00     0.041 H 
BRANCH  36  38
ATOM     38  C24 0TQ d   1     -13.543  14.794  28.157  0.00  0.00    -0.072 C 
ATOM     39  H15 0TQ d   1     -14.083  14.843  27.200  0.00  0.00     0.028 H 
ATOM     40  H16 0TQ d   1     -13.969  15.528  28.857  0.00  0.00     0.028 H 
ATOM     41  H17 0TQ d   1     -13.640  13.784  28.581  0.00  0.00     0.028 H 
ENDBRANCH  36  38
BRANCH  36  42
ATOM     42  C23 0TQ d   1     -11.463  13.986  27.106  0.00  0.00    -0.072 C 
ATOM     43  H18 0TQ d   1     -10.399  14.201  26.932  0.00  0.00     0.028 H 
ATOM     44  H19 0TQ d   1     -11.984  13.909  26.140  0.00  0.00     0.028 H 
ATOM     45  H20 0TQ d   1     -11.560  13.036  27.652  0.00  0.00     0.028 H 
ENDBRANCH  36  42
ENDBRANCH  33  36
ENDBRANCH   4  33
ENDBRANCH   1   4
BRANCH   1  46
ATOM     46  C6  0TQ d   1     -10.049  17.537  27.453  0.00  0.00     0.071 C 
ATOM     47  H23 0TQ d   1     -10.761  16.935  26.869  0.00  0.00     0.088 H 
BRANCH  46  48
ATOM     48  O3  0TQ d   1     -10.305  18.925  27.302  0.00  0.00    -0.392 OA
ATOM     49  H24 0TQ d   1      -9.684  19.419  27.825  0.00  0.00     0.210 HD
ENDBRANCH  46  48
BRANCH  46  50
ATOM     50  C5  0TQ d   1      -8.649  17.335  26.914  0.00  0.00     0.044 C 
ATOM     51  H25 0TQ d   1      -8.302  16.319  27.151  0.00  0.00     0.077 H 
BRANCH  50  52
ATOM     52  C7  0TQ d   1      -7.569  18.330  27.409  0.00  0.00    -0.020 C 
ATOM     53  H26 0TQ d   1      -7.485  18.259  28.503  0.00  0.00     0.043 H 
ATOM     54  H27 0TQ d   1      -7.863  19.352  27.129  0.00  0.00     0.043 H 
BRANCH  52  55
ATOM     55  C8  0TQ d   1      -6.225  18.007  26.783  0.00  0.00    -0.056 A 
ATOM     56  C10 0TQ d   1      -5.656  16.750  26.994  0.00  0.00    -0.077 A 
ATOM     57  C12 0TQ d   1      -4.444  16.470  26.391  0.00  0.00    -0.082 A 
ATOM     58  H28 0TQ d   1      -6.152  16.012  27.615  0.00  0.00     0.084 H 
ATOM     59  C13 0TQ d   1      -3.750  17.372  25.562  0.00  0.00    -0.083 A 
ATOM     60  H29 0TQ d   1      -4.001  15.496  26.567  0.00  0.00     0.083 H 
ATOM     61  C11 0TQ d   1      -4.339  18.622  25.370  0.00  0.00    -0.082 A 
ATOM     62  H30 0TQ d   1      -2.807  17.109  25.097  0.00  0.00     0.083 H 
ATOM     63  C9  0TQ d   1      -5.549  18.938  25.973  0.00  0.00    -0.077 A 
ATOM     64  H31 0TQ d   1      -3.846  19.355  24.742  0.00  0.00     0.083 H 
ATOM     65  H32 0TQ d   1      -5.981  19.920  25.817  0.00  0.00     0.084 H 
ENDBRANCH  52  55
ENDBRANCH  50  52
BRANCH  50  66
ATOM     66  N1  0TQ d   1      -8.886  17.477  25.510  0.00  0.00    -0.329 N 
ATOM     67  C3  0TQ d   1      -8.439  16.557  24.636  0.00  0.00     0.361 C 
ATOM     68  O2  0TQ d   1      -8.110  15.420  24.934  0.00  0.00    -0.238 OA
ATOM     69  H33 0TQ d   1      -9.391  18.272  25.174  0.00  0.00     0.165 HD
BRANCH  67  70
ATOM     70  O1  0TQ d   1      -8.378  17.024  23.274  0.00  0.00    -0.296 OA
BRANCH  70  71
ATOM     71  C4  0TQ d   1      -8.157  16.115  22.203  0.00  0.00     0.078 C 
ATOM     72  C2  0TQ d   1      -6.835  16.556  21.613  0.00  0.00     0.023 C 
ATOM     73  C26 0TQ d   1      -5.913  17.186  22.656  0.00  0.00    -0.035 C 
ATOM     74  C25 0TQ d   1      -7.202  17.671  20.669  0.00  0.00     0.137 C 
ATOM     75  H35 0TQ d   1      -6.333  15.721  21.102  0.00  0.00     0.051 H 
ATOM     76  C27 0TQ d   1      -5.774  18.622  22.209  0.00  0.00     0.023 C 
ATOM     77  H36 0TQ d   1      -4.934  16.684  22.666  0.00  0.00     0.037 H 
ATOM     78  H37 0TQ d   1      -6.363  17.131  23.658  0.00  0.00     0.037 H 
ATOM     79  O7  0TQ d   1      -6.942  18.862  21.435  0.00  0.00    -0.361 OA
ATOM     80  H38 0TQ d   1      -4.868  18.755  21.599  0.00  0.00     0.074 H 
ATOM     81  H39 0TQ d   1      -5.735  19.298  23.076  0.00  0.00     0.074 H 
ATOM     82  O6  0TQ d   1      -8.580  17.439  20.286  0.00  0.00    -0.358 OA
ATOM     83  H40 0TQ d   1      -6.572  17.666  19.768  0.00  0.00     0.129 H 
ATOM     84  C1  0TQ d   1      -9.191  16.472  21.145  0.00  0.00     0.048 C 
ATOM     85  H41 0TQ d   1     -10.088  16.898  21.619  0.00  0.00     0.078 H 
ATOM     86  H42 0TQ d   1      -9.471  15.577  20.570  0.00  0.00     0.078 H 
ATOM     87  H34 0TQ d   1      -8.181  15.058  22.506  0.00  0.00     0.088 H 
ENDBRANCH  70  71
ENDBRANCH  67  70
ENDBRANCH  50  66
ENDBRANCH  46  50
ENDBRANCH   1  46
TORSDOF 18
