REMARK  24 active torsions:
REMARK  status: ('A' for Active; 'I' for Inactive)
REMARK    1  A    between atoms: O14_1  and  C14_2 
REMARK    2  A    between atoms: C13_3  and  O13_4 
REMARK    3  A    between atoms: C12_5  and  O12_6 
REMARK    4  A    between atoms: C11_7  and  O24_12 
REMARK    5  A    between atoms: C15_8  and  C16_10 
REMARK    6  A    between atoms: C16_10  and  O16_11 
REMARK    7  A    between atoms: O24_12  and  C24_13 
REMARK    8  A    between atoms: C23_14  and  O23_15 
REMARK    9  A    between atoms: C22_16  and  O22_17 
REMARK   10  A    between atoms: C21_18  and  O34_23 
REMARK   11  A    between atoms: C25_19  and  C26_21 
REMARK   12  A    between atoms: C26_21  and  O26_22 
REMARK   13  A    between atoms: O34_23  and  C34_24 
REMARK   14  A    between atoms: C33_25  and  O33_26 
REMARK   15  A    between atoms: C32_27  and  O32_28 
REMARK   16  A    between atoms: C31_29  and  O44_34 
REMARK   17  A    between atoms: C35_30  and  C36_32 
REMARK   18  A    between atoms: C36_32  and  O36_33 
REMARK   19  A    between atoms: O44_34  and  C44_35 
REMARK   20  A    between atoms: C43_36  and  O43_37 
REMARK   21  A    between atoms: C42_38  and  O42_39 
REMARK   22  A    between atoms: C41_40  and  O41_41 
REMARK   23  A    between atoms: C45_42  and  C46_44 
REMARK   24  A    between atoms: C46_44  and  O46_45 
ROOT
ATOM      1  O34 MTT d   1     -20.909  92.865  35.632  0.00  0.00    -0.348 OA
ENDROOT
BRANCH   1   2
ATOM      2  C21 MTT d   1     -19.983  93.574  36.438  0.00  0.00     0.159 C 
ATOM      3  C22 MTT d   1     -19.197  94.510  35.548  0.00  0.00     0.110 C 
ATOM      4  C23 MTT d   1     -18.236  93.724  34.640  0.00  0.00     0.092 C 
ATOM      5  H15 MTT d   1     -18.635  95.234  36.156  0.00  0.00     0.094 H 
ATOM      6  C24 MTT d   1     -17.343  92.813  35.455  0.00  0.00     0.096 C 
ATOM      7  H13 MTT d   1     -18.831  93.107  33.950  0.00  0.00     0.091 H 
ATOM      8  C25 MTT d   1     -18.240  91.893  36.279  0.00  0.00     0.089 C 
ATOM      9  H12 MTT d   1     -16.702  93.407  36.122  0.00  0.00     0.091 H 
ATOM     10  O25 MTT d   1     -19.100  92.667  37.114  0.00  0.00    -0.348 OA
ATOM     11  H18 MTT d   1     -18.842  91.276  35.596  0.00  0.00     0.090 H 
ATOM     12  H17 MTT d   1     -20.532  94.161  37.189  0.00  0.00     0.133 H 
BRANCH   3  13
ATOM     13  O22 MTT d   1     -20.142  95.169  34.718  0.00  0.00    -0.388 OA
ATOM     14  H16 MTT d   1     -20.621  94.524  34.212  0.00  0.00     0.210 HD
ENDBRANCH   3  13
BRANCH   4  15
ATOM     15  O23 MTT d   1     -17.438  94.631  33.877  0.00  0.00    -0.390 OA
ATOM     16  H14 MTT d   1     -16.873  94.139  33.292  0.00  0.00     0.210 HD
ENDBRANCH   4  15
BRANCH   6  17
ATOM     17  O24 MTT d   1     -16.526  92.039  34.559  0.00  0.00    -0.348 OA
BRANCH  17  18
ATOM     18  C11 MTT d   1     -15.097  92.297  34.619  0.00  0.00     0.159 C 
ATOM     19  C12 MTT d   1     -14.552  92.254  33.183  0.00  0.00     0.110 C 
ATOM     20  C13 MTT d   1     -14.766  90.861  32.581  0.00  0.00     0.092 C 
ATOM     21  H5  MTT d   1     -13.478  92.491  33.192  0.00  0.00     0.094 H 
ATOM     22  C14 MTT d   1     -14.085  89.832  33.458  0.00  0.00     0.090 C 
ATOM     23  H3  MTT d   1     -15.846  90.652  32.572  0.00  0.00     0.091 H 
ATOM     24  C15 MTT d   1     -14.737  89.943  34.832  0.00  0.00     0.089 C 
ATOM     25  H2  MTT d   1     -13.011  90.055  33.538  0.00  0.00     0.091 H 
ATOM     26  O15 MTT d   1     -14.450  91.251  35.379  0.00  0.00    -0.348 OA
ATOM     27  H8  MTT d   1     -15.825  89.883  34.681  0.00  0.00     0.090 H 
ATOM     28  H7  MTT d   1     -14.904  93.278  35.078  0.00  0.00     0.133 H 
BRANCH  19  29
ATOM     29  O12 MTT d   1     -15.249  93.206  32.379  0.00  0.00    -0.388 OA
ATOM     30  H6  MTT d   1     -16.175  92.994  32.371  0.00  0.00     0.210 HD
ENDBRANCH  19  29
BRANCH  20  31
ATOM     31  O13 MTT d   1     -14.291  90.779  31.236  0.00  0.00    -0.390 OA
ATOM     32  H4  MTT d   1     -14.473  89.913  30.889  0.00  0.00     0.210 HD
ENDBRANCH  20  31
BRANCH  22  33
ATOM     33  O14 MTT d   1     -14.249  88.519  32.894  0.00  0.00    -0.390 OA
ATOM     34  H1  MTT d   1     -13.861  88.497  32.027  0.00  0.00     0.210 HD
ENDBRANCH  22  33
BRANCH  24  35
ATOM     35  C16 MTT d   1     -14.371  88.798  35.785  0.00  0.00     0.043 C 
ATOM     36  H9  MTT d   1     -14.641  87.837  35.322  0.00  0.00     0.078 H 
ATOM     37  H10 MTT d   1     -14.922  88.918  36.729  0.00  0.00     0.078 H 
BRANCH  35  38
ATOM     38  O16 MTT d   1     -12.966  88.820  36.049  0.00  0.00    -0.398 OA
ATOM     39  H11 MTT d   1     -12.733  89.650  36.449  0.00  0.00     0.209 HD
ENDBRANCH  35  38
ENDBRANCH  24  35
ENDBRANCH  17  18
ENDBRANCH   6  17
BRANCH   8  40
ATOM     40  C26 MTT d   1     -17.418  90.989  37.190  0.00  0.00     0.043 C 
ATOM     41  H19 MTT d   1     -17.002  91.577  38.021  0.00  0.00     0.078 H 
ATOM     42  H20 MTT d   1     -16.597  90.531  36.618  0.00  0.00     0.078 H 
BRANCH  40  43
ATOM     43  O26 MTT d   1     -18.277  89.971  37.701  0.00  0.00    -0.398 OA
ATOM     44  H21 MTT d   1     -18.985  90.372  38.191  0.00  0.00     0.209 HD
ENDBRANCH  40  43
ENDBRANCH   8  40
ENDBRANCH   1   2
BRANCH   1  45
ATOM     45  C34 MTT d   1     -22.207  92.827  36.167  0.00  0.00     0.096 C 
ATOM     46  C33 MTT d   1     -23.161  93.524  35.216  0.00  0.00     0.092 C 
ATOM     47  C32 MTT d   1     -24.587  93.317  35.676  0.00  0.00     0.110 C 
ATOM     48  H23 MTT d   1     -23.048  93.085  34.214  0.00  0.00     0.091 H 
ATOM     49  C31 MTT d   1     -24.903  91.835  35.841  0.00  0.00     0.159 C 
ATOM     50  H25 MTT d   1     -24.733  93.826  36.640  0.00  0.00     0.094 H 
ATOM     51  O35 MTT d   1     -23.954  91.245  36.729  0.00  0.00    -0.348 OA
ATOM     52  H27 MTT d   1     -25.914  91.724  36.259  0.00  0.00     0.133 H 
ATOM     53  C35 MTT d   1     -22.591  91.377  36.307  0.00  0.00     0.089 C 
ATOM     54  H28 MTT d   1     -22.478  90.893  35.326  0.00  0.00     0.090 H 
ATOM     55  H22 MTT d   1     -22.231  93.323  37.149  0.00  0.00     0.091 H 
BRANCH  46  56
ATOM     56  O33 MTT d   1     -22.841  94.919  35.144  0.00  0.00    -0.390 OA
ATOM     57  H24 MTT d   1     -21.951  95.023  34.829  0.00  0.00     0.210 HD
ENDBRANCH  46  56
BRANCH  47  58
ATOM     58  O32 MTT d   1     -25.463  93.868  34.709  0.00  0.00    -0.388 OA
ATOM     59  H26 MTT d   1     -25.327  93.433  33.876  0.00  0.00     0.210 HD
ENDBRANCH  47  58
BRANCH  49  60
ATOM     60  O44 MTT d   1     -24.841  91.178  34.580  0.00  0.00    -0.348 OA
BRANCH  60  61
ATOM     61  C44 MTT d   1     -26.010  90.418  34.263  0.00  0.00     0.096 C 
ATOM     62  C43 MTT d   1     -26.674  91.046  33.042  0.00  0.00     0.092 C 
ATOM     63  C42 MTT d   1     -27.754  90.143  32.445  0.00  0.00     0.110 C 
ATOM     64  H33 MTT d   1     -25.900  91.208  32.277  0.00  0.00     0.091 H 
ATOM     65  C41 MTT d   1     -27.284  88.695  32.274  0.00  0.00     0.156 C 
ATOM     66  H35 MTT d   1     -28.629  90.152  33.112  0.00  0.00     0.094 H 
ATOM     67  O45 MTT d   1     -26.695  88.211  33.485  0.00  0.00    -0.349 OA
ATOM     68  H37 MTT d   1     -28.160  88.071  32.045  0.00  0.00     0.133 H 
ATOM     69  C45 MTT d   1     -25.579  88.993  33.931  0.00  0.00     0.089 C 
ATOM     70  H39 MTT d   1     -24.822  89.028  33.133  0.00  0.00     0.090 H 
ATOM     71  H32 MTT d   1     -26.707  90.415  35.114  0.00  0.00     0.091 H 
BRANCH  62  72
ATOM     72  O43 MTT d   1     -27.244  92.312  33.392  0.00  0.00    -0.390 OA
ATOM     73  H34 MTT d   1     -26.559  92.890  33.708  0.00  0.00     0.210 HD
ENDBRANCH  62  72
BRANCH  63  74
ATOM     74  O42 MTT d   1     -28.125  90.664  31.165  0.00  0.00    -0.388 OA
ATOM     75  H36 MTT d   1     -27.363  90.678  30.597  0.00  0.00     0.210 HD
ENDBRANCH  63  74
BRANCH  65  76
ATOM     76  O41 MTT d   1     -26.360  88.596  31.176  0.00  0.00    -0.369 OA
ATOM     77  H38 MTT d   1     -26.773  88.923  30.385  0.00  0.00     0.212 HD
ENDBRANCH  65  76
BRANCH  69  78
ATOM     78  C46 MTT d   1     -24.984  88.334  35.156  0.00  0.00     0.043 C 
ATOM     79  H40 MTT d   1     -25.789  87.965  35.808  0.00  0.00     0.078 H 
ATOM     80  H41 MTT d   1     -24.370  89.061  35.708  0.00  0.00     0.078 H 
BRANCH  78  81
ATOM     81  O46 MTT d   1     -24.173  87.245  34.729  0.00  0.00    -0.398 OA
ATOM     82  H42 MTT d   1     -23.791  86.820  35.488  0.00  0.00     0.209 HD
ENDBRANCH  78  81
ENDBRANCH  69  78
ENDBRANCH  60  61
ENDBRANCH  49  60
BRANCH  53  83
ATOM     83  C36 MTT d   1     -21.684  90.669  37.308  0.00  0.00     0.043 C 
ATOM     84  H29 MTT d   1     -21.777  91.141  38.297  0.00  0.00     0.078 H 
ATOM     85  H30 MTT d   1     -20.638  90.725  36.972  0.00  0.00     0.078 H 
BRANCH  83  86
ATOM     86  O36 MTT d   1     -22.100  89.306  37.378  0.00  0.00    -0.398 OA
ATOM     87  H31 MTT d   1     -23.005  89.267  37.665  0.00  0.00     0.209 HD
ENDBRANCH  83  86
ENDBRANCH  53  83
ENDBRANCH   1  45
TORSDOF 24
