REMARK  3 active torsions:
REMARK  status: ('A' for Active; 'I' for Inactive)
REMARK    1  A    between atoms: C12_19  and  S2_7 
REMARK    2  A    between atoms: S2_7  and  C13_20 
REMARK    3  A    between atoms: C6_13  and  C7_14 
ROOT
ATOM      1 CL1  0TE d   1     -49.463  32.045  27.351  0.00  0.00     0.000 Cl
ATOM      2  C1  0TE d   1     -49.813  35.342  27.376  0.00  0.00     0.003 A 
ATOM      3  N1  0TE d   1     -50.474  34.985  26.199  0.00  0.00    -0.259 N 
ATOM      4  S1  0TE d   1     -50.994  31.098  24.451  0.00  0.00    -0.024 SA
ATOM      5  C2  0TE d   1     -49.777  36.699  27.746  0.00  0.00    -0.066 A 
ATOM      6  C3  0TE d   1     -50.399  37.636  26.876  0.00  0.00    -0.079 A 
ATOM      7  N3  0TE d   1     -51.556  33.854  24.060  0.00  0.00    -0.169 N 
ATOM      8  C4  0TE d   1     -51.074  37.258  25.650  0.00  0.00    -0.053 A 
ATOM      9  N4  0TE d   1     -52.092  33.019  22.977  0.00  0.00    -0.264 N 
ATOM     10  C5  0TE d   1     -51.093  35.874  25.275  0.00  0.00     0.089 A 
ATOM     11  C6  0TE d   1     -51.746  35.231  24.072  0.00  0.00     0.134 A 
ATOM     12  C12 0TE d   1     -51.855  31.811  23.113  0.00  0.00     0.134 A 
ATOM     13 CU1  0TE d   1     -50.580  32.992  25.550  0.00  0.00     0.000 Cu
ATOM     14  H   0TE d   1     -49.334  34.584  27.996  0.00  0.00     0.114 H 
ATOM     15  H   0TE d   1     -49.290  37.020  28.666  0.00  0.00     0.085 H 
ATOM     16  H   0TE d   1     -50.367  38.692  27.145  0.00  0.00     0.083 H 
ATOM     17  H   0TE d   1     -51.557  38.010  25.026  0.00  0.00     0.087 H 
ATOM     18  H   0TE d   1     -52.612  33.399  22.186  0.00  0.00     0.190 HD
ENDROOT
BRANCH  11  19
ATOM     19  C7  0TE d   1     -52.490  35.990  22.952  0.00  0.00     0.089 A 
ATOM     20  N2  0TE d   1     -52.939  37.299  23.283  0.00  0.00    -0.259 NA
ATOM     21  C11 0TE d   1     -53.647  38.078  22.374  0.00  0.00     0.003 A 
ATOM     22  C10 0TE d   1     -53.939  37.552  21.067  0.00  0.00    -0.066 A 
ATOM     23  H   0TE d   1     -53.978  39.079  22.650  0.00  0.00     0.114 H 
ATOM     24  C9  0TE d   1     -53.482  36.261  20.771  0.00  0.00    -0.079 A 
ATOM     25  H   0TE d   1     -54.495  38.136  20.334  0.00  0.00     0.085 H 
ATOM     26  C8  0TE d   1     -52.759  35.412  21.649  0.00  0.00    -0.053 A 
ATOM     27  H   0TE d   1     -53.702  35.873  19.776  0.00  0.00     0.083 H 
ATOM     28  H   0TE d   1     -52.433  34.410  21.368  0.00  0.00     0.087 H 
ENDBRANCH  11  19
BRANCH  12  29
ATOM     29  S2  0TE d   1     -52.479  30.717  21.792  0.00  0.00    -0.107 SA
BRANCH  29  30
ATOM     30  C13 0TE d   1     -53.291  31.902  20.659  0.00  0.00    -0.028 C 
ATOM     31  H   0TE d   1     -54.087  32.424  21.191  0.00  0.00     0.042 H 
ATOM     32  H   0TE d   1     -52.556  32.624  20.302  0.00  0.00     0.042 H 
ATOM     33  H   0TE d   1     -53.712  31.362  19.811  0.00  0.00     0.042 H 
ENDBRANCH  29  30
ENDBRANCH  12  29
TORSDOF 3
