REMARK  24 active torsions:
REMARK  status: ('A' for Active; 'I' for Inactive)
REMARK    1  A    between atoms: C2A_2  and  O2A_8 
REMARK    2  A    between atoms: C3A_3  and  O3A_9 
REMARK    3  A    between atoms: C5A_5  and  C6A_6 
REMARK    4  A    between atoms: C6A_6  and  O6A_11 
REMARK    5  A    between atoms: C2B_13  and  O2B_19 
REMARK    6  A    between atoms: C3B_14  and  O3B_20 
REMARK    7  A    between atoms: C5B_16  and  C6B_17 
REMARK    8  A    between atoms: C6B_17  and  O6B_22 
REMARK    9  A    between atoms: C2C_24  and  O2C_30 
REMARK   10  A    between atoms: C3C_25  and  O3C_31 
REMARK   11  A    between atoms: C5C_27  and  C6C_28 
REMARK   12  A    between atoms: C6C_28  and  O6C_33 
REMARK   13  A    between atoms: C2D_35  and  O2D_41 
REMARK   14  A    between atoms: C3D_36  and  O3D_42 
REMARK   15  A    between atoms: C5D_38  and  C6D_39 
REMARK   16  A    between atoms: C6D_39  and  O6D_44 
REMARK   17  A    between atoms: C2E_46  and  O2E_52 
REMARK   18  A    between atoms: C3E_47  and  O3E_53 
REMARK   19  A    between atoms: C5E_49  and  C6E_50 
REMARK   20  A    between atoms: C6E_50  and  O6E_55 
REMARK   21  A    between atoms: C2F_57  and  O2F_63 
REMARK   22  A    between atoms: C3F_58  and  O3F_64 
REMARK   23  A    between atoms: C5F_60  and  C6F_61 
REMARK   24  A    between atoms: C6F_61  and  O6F_66 
ROOT
ATOM      1  C1A ACX d   1      25.633  32.329 102.948  0.00  0.00     0.159 C 
ATOM      2  C2A ACX d   1      24.828  32.893 101.784  0.00  0.00     0.110 C 
ATOM      3  C3A ACX d   1      25.387  34.261 101.422  0.00  0.00     0.092 C 
ATOM      4  C4A ACX d   1      25.295  35.179 102.611  0.00  0.00     0.096 C 
ATOM      5  C5A ACX d   1      25.990  34.551 103.802  0.00  0.00     0.089 C 
ATOM      6  O1A ACX d   1      27.003  32.228 102.562  0.00  0.00    -0.348 OA
ATOM      7  O5A ACX d   1      25.521  33.229 104.064  0.00  0.00    -0.348 OA
ATOM      8  C1B ACX d   1      30.386  30.028 103.191  0.00  0.00     0.159 C 
ATOM      9  C2B ACX d   1      29.483  29.434 102.120  0.00  0.00     0.110 C 
ATOM     10  C3B ACX d   1      28.411  30.462 101.729  0.00  0.00     0.092 C 
ATOM     11  C4B ACX d   1      27.633  30.985 102.943  0.00  0.00     0.096 C 
ATOM     12  C5B ACX d   1      28.556  31.225 104.165  0.00  0.00     0.089 C 
ATOM     13  O1B ACX d   1      30.861  31.321 102.793  0.00  0.00    -0.348 OA
ATOM     14  O5B ACX d   1      29.549  30.204 104.328  0.00  0.00    -0.348 OA
ATOM     15  C1C ACX d   1      34.193  33.765 103.301  0.00  0.00     0.159 C 
ATOM     16  C2C ACX d   1      34.152  32.919 102.053  0.00  0.00     0.110 C 
ATOM     17  C3C ACX d   1      32.779  32.288 101.833  0.00  0.00     0.092 C 
ATOM     18  C4C ACX d   1      32.248  31.585 103.059  0.00  0.00     0.096 C 
ATOM     19  C5C ACX d   1      32.393  32.491 104.287  0.00  0.00     0.089 C 
ATOM     20  O1C ACX d   1      33.398  34.906 103.085  0.00  0.00    -0.348 OA
ATOM     21  O5C ACX d   1      33.714  33.030 104.425  0.00  0.00    -0.348 OA
ATOM     22  C1D ACX d   1      33.810  38.995 103.220  0.00  0.00     0.159 C 
ATOM     23  C2D ACX d   1      34.635  38.277 102.175  0.00  0.00     0.110 C 
ATOM     24  C3D ACX d   1      34.082  36.877 101.983  0.00  0.00     0.092 C 
ATOM     25  C4D ACX d   1      34.100  36.117 103.280  0.00  0.00     0.096 C 
ATOM     26  C5D ACX d   1      33.347  36.918 104.306  0.00  0.00     0.089 C 
ATOM     27  O1D ACX d   1      32.452  39.048 102.763  0.00  0.00    -0.348 OA
ATOM     28  O5D ACX d   1      33.894  38.232 104.424  0.00  0.00    -0.348 OA
ATOM     29  C1E ACX d   1      29.079  41.229 102.599  0.00  0.00     0.159 C 
ATOM     30  C2E ACX d   1      30.098  41.669 101.569  0.00  0.00     0.110 C 
ATOM     31  C3E ACX d   1      31.250  40.668 101.503  0.00  0.00     0.092 C 
ATOM     32  C4E ACX d   1      31.840  40.338 102.870  0.00  0.00     0.096 C 
ATOM     33  C5E ACX d   1      30.752  40.236 103.941  0.00  0.00     0.089 C 
ATOM     34  O1E ACX d   1      28.678  39.861 102.331  0.00  0.00    -0.348 OA
ATOM     35  O5E ACX d   1      29.781  41.291 103.831  0.00  0.00    -0.348 OA
ATOM     36  C1F ACX d   1      25.212  37.539 102.285  0.00  0.00     0.159 C 
ATOM     37  C2F ACX d   1      25.534  38.279 101.014  0.00  0.00     0.110 C 
ATOM     38  C3F ACX d   1      26.973  38.756 101.048  0.00  0.00     0.092 C 
ATOM     39  C4F ACX d   1      27.247  39.620 102.262  0.00  0.00     0.096 C 
ATOM     40  C5F ACX d   1      26.805  38.872 103.518  0.00  0.00     0.089 C 
ATOM     41  O1F ACX d   1      26.013  36.375 102.328  0.00  0.00    -0.348 OA
ATOM     42  O5F ACX d   1      25.472  38.369 103.411  0.00  0.00    -0.348 OA
ATOM     43  H1  ACX d   1      25.248  31.337 103.226  0.00  0.00     0.133 H 
ATOM     44  H2  ACX d   1      23.782  33.014 102.101  0.00  0.00     0.094 H 
ATOM     45  H3  ACX d   1      26.445  34.142 101.145  0.00  0.00     0.091 H 
ATOM     46  H4  ACX d   1      24.242  35.397 102.843  0.00  0.00     0.091 H 
ATOM     47  H5  ACX d   1      27.070  34.504 103.599  0.00  0.00     0.090 H 
ATOM     48  H11 ACX d   1      31.231  29.358 103.410  0.00  0.00     0.133 H 
ATOM     49  H12 ACX d   1      28.984  28.545 102.532  0.00  0.00     0.094 H 
ATOM     50  H13 ACX d   1      28.924  31.316 101.263  0.00  0.00     0.091 H 
ATOM     51  H14 ACX d   1      26.863  30.251 103.221  0.00  0.00     0.091 H 
ATOM     52  H15 ACX d   1      29.075  32.181 104.000  0.00  0.00     0.090 H 
ATOM     53  H21 ACX d   1      35.230  34.075 103.496  0.00  0.00     0.133 H 
ATOM     54  H22 ACX d   1      34.920  32.133 102.097  0.00  0.00     0.094 H 
ATOM     55  H23 ACX d   1      32.079  33.093 101.566  0.00  0.00     0.091 H 
ATOM     56  H24 ACX d   1      32.792  30.644 103.229  0.00  0.00     0.091 H 
ATOM     57  H25 ACX d   1      31.668  33.314 104.200  0.00  0.00     0.090 H 
ATOM     58  H31 ACX d   1      34.193  40.013 103.386  0.00  0.00     0.133 H 
ATOM     59  H32 ACX d   1      35.681  38.214 102.510  0.00  0.00     0.094 H 
ATOM     60  H33 ACX d   1      33.046  36.951 101.620  0.00  0.00     0.091 H 
ATOM     61  H34 ACX d   1      35.132  35.927 103.609  0.00  0.00     0.091 H 
ATOM     62  H35 ACX d   1      32.305  37.010 103.966  0.00  0.00     0.090 H 
ATOM     63  H41 ACX d   1      28.200  41.891 102.604  0.00  0.00     0.133 H 
ATOM     64  H42 ACX d   1      30.493  42.658 101.845  0.00  0.00     0.094 H 
ATOM     65  H43 ACX d   1      30.864  39.736 101.064  0.00  0.00     0.091 H 
ATOM     66  H44 ACX d   1      32.579  41.101 103.156  0.00  0.00     0.091 H 
ATOM     67  H45 ACX d   1      30.234  39.275 103.804  0.00  0.00     0.090 H 
ATOM     68  H51 ACX d   1      24.150  37.253 102.287  0.00  0.00     0.133 H 
ATOM     69  H52 ACX d   1      24.858  39.138 100.893  0.00  0.00     0.094 H 
ATOM     70  H53 ACX d   1      27.636  37.879 101.081  0.00  0.00     0.091 H 
ATOM     71  H54 ACX d   1      26.704  40.573 102.181  0.00  0.00     0.091 H 
ATOM     72  H55 ACX d   1      27.490  38.026 103.677  0.00  0.00     0.090 H 
ENDROOT
BRANCH   5  73
ATOM     73  C6A ACX d   1      25.745  35.438 105.009  0.00  0.00     0.043 C 
ATOM     74  H6  ACX d   1      24.691  35.362 105.313  0.00  0.00     0.078 H 
ATOM     75  H7  ACX d   1      25.978  36.482 104.751  0.00  0.00     0.078 H 
BRANCH  73  76
ATOM     76  O6A ACX d   1      26.579  35.016 106.080  0.00  0.00    -0.398 OA
ATOM     77  H10 ACX d   1      26.377  34.114 106.301  0.00  0.00     0.209 HD
ENDBRANCH  73  76
ENDBRANCH   5  73
BRANCH   3  78
ATOM     78  O3A ACX d   1      24.694  34.838 100.320  0.00  0.00    -0.390 OA
ATOM     79  H9  ACX d   1      25.086  35.676 100.104  0.00  0.00     0.210 HD
ENDBRANCH   3  78
BRANCH   2  80
ATOM     80  O2A ACX d   1      24.857  31.987 100.657  0.00  0.00    -0.388 OA
ATOM     81  H8  ACX d   1      24.334  32.346  99.950  0.00  0.00     0.210 HD
ENDBRANCH   2  80
BRANCH  37  82
ATOM     82  O2F ACX d   1      25.369  37.358  99.928  0.00  0.00    -0.388 OA
ATOM     83  H58 ACX d   1      25.949  36.616 100.053  0.00  0.00     0.210 HD
ENDBRANCH  37  82
BRANCH  38  84
ATOM     84  O3F ACX d   1      27.245  39.504  99.875  0.00  0.00    -0.390 OA
ATOM     85  H59 ACX d   1      28.156  39.774  99.877  0.00  0.00     0.210 HD
ENDBRANCH  38  84
BRANCH  40  86
ATOM     86  C6F ACX d   1      26.867  39.801 104.723  0.00  0.00     0.043 C 
ATOM     87  H56 ACX d   1      26.060  40.546 104.656  0.00  0.00     0.078 H 
ATOM     88  H57 ACX d   1      27.839  40.315 104.743  0.00  0.00     0.078 H 
BRANCH  86  89
ATOM     89  O6F ACX d   1      26.709  39.029 105.916  0.00  0.00    -0.398 OA
ATOM     90  H60 ACX d   1      25.869  38.586 105.896  0.00  0.00     0.209 HD
ENDBRANCH  86  89
ENDBRANCH  40  86
BRANCH  10  91
ATOM     91  O3B ACX d   1      27.495  29.916 100.770  0.00  0.00    -0.390 OA
ATOM     92  H19 ACX d   1      26.890  30.593 100.490  0.00  0.00     0.210 HD
ENDBRANCH  10  91
BRANCH  12  93
ATOM     93  C6B ACX d   1      27.763  31.331 105.463  0.00  0.00     0.043 C 
ATOM     94  H16 ACX d   1      27.970  30.459 106.101  0.00  0.00     0.078 H 
ATOM     95  H17 ACX d   1      26.686  31.377 105.242  0.00  0.00     0.078 H 
BRANCH  93  96
ATOM     96  O6B ACX d   1      28.178  32.533 106.127  0.00  0.00    -0.398 OA
ATOM     97  H20 ACX d   1      28.000  33.280 105.568  0.00  0.00     0.209 HD
ENDBRANCH  93  96
ENDBRANCH  12  93
BRANCH   9  98
ATOM     98  O2B ACX d   1      30.251  29.033 100.976  0.00  0.00    -0.388 OA
ATOM     99  H18 ACX d   1      29.674  28.642 100.330  0.00  0.00     0.210 HD
ENDBRANCH   9  98
BRANCH  30 100
ATOM    100  O2E ACX d   1      29.463  41.749 100.302  0.00  0.00    -0.388 OA
ATOM    101  H48 ACX d   1      28.747  42.372 100.347  0.00  0.00     0.210 HD
ENDBRANCH  30 100
BRANCH  31 102
ATOM    102  O3E ACX d   1      32.279  41.176 100.666  0.00  0.00    -0.390 OA
ATOM    103  H49 ACX d   1      32.961  40.521 100.572  0.00  0.00     0.210 HD
ENDBRANCH  31 102
BRANCH  33 104
ATOM    104  C6E ACX d   1      31.350  40.265 105.330  0.00  0.00     0.043 C 
ATOM    105  H46 ACX d   1      32.440  40.403 105.270  0.00  0.00     0.078 H 
ATOM    106  H47 ACX d   1      31.128  39.325 105.857  0.00  0.00     0.078 H 
BRANCH 104 107
ATOM    107  O6E ACX d   1      30.753  41.364 106.014  0.00  0.00    -0.398 OA
ATOM    108  H50 ACX d   1      29.812  41.237 106.054  0.00  0.00     0.209 HD
ENDBRANCH 104 107
ENDBRANCH  33 104
BRANCH  17 109
ATOM    109  O3C ACX d   1      32.818  31.341 100.765  0.00  0.00    -0.390 OA
ATOM    110  H29 ACX d   1      31.942  31.013 100.602  0.00  0.00     0.210 HD
ENDBRANCH  17 109
BRANCH  19 111
ATOM    111  C6C ACX d   1      32.141  31.716 105.560  0.00  0.00     0.043 C 
ATOM    112  H26 ACX d   1      32.696  30.767 105.542  0.00  0.00     0.078 H 
ATOM    113  H27 ACX d   1      31.066  31.510 105.672  0.00  0.00     0.078 H 
BRANCH 111 114
ATOM    114  O6C ACX d   1      32.599  32.532 106.635  0.00  0.00    -0.398 OA
ATOM    115  H30 ACX d   1      33.526  32.709 106.525  0.00  0.00     0.209 HD
ENDBRANCH 111 114
ENDBRANCH  19 111
BRANCH  16 116
ATOM    116  O2C ACX d   1      34.401  33.818 100.989  0.00  0.00    -0.388 OA
ATOM    117  H28 ACX d   1      33.730  34.490 100.980  0.00  0.00     0.210 HD
ENDBRANCH  16 116
BRANCH  23 118
ATOM    118  O2D ACX d   1      34.574  39.006 100.939  0.00  0.00    -0.388 OA
ATOM    119  H38 ACX d   1      33.671  39.064 100.651  0.00  0.00     0.210 HD
ENDBRANCH  23 118
BRANCH  24 120
ATOM    120  O3D ACX d   1      34.858  36.165 101.041  0.00  0.00    -0.390 OA
ATOM    121  H39 ACX d   1      34.487  35.299 100.917  0.00  0.00     0.210 HD
ENDBRANCH  24 120
BRANCH  26 122
ATOM    122  C6D ACX d   1      33.342  36.227 105.656  0.00  0.00     0.043 C 
ATOM    123  H36 ACX d   1      34.261  35.635 105.778  0.00  0.00     0.078 H 
ATOM    124  H37 ACX d   1      32.466  35.566 105.736  0.00  0.00     0.078 H 
BRANCH 122 125
ATOM    125  O6D ACX d   1      33.279  37.254 106.671  0.00  0.00    -0.398 OA
ATOM    126  H40 ACX d   1      34.036  37.823 106.592  0.00  0.00     0.209 HD
ENDBRANCH 122 125
ENDBRANCH  26 122
TORSDOF 24
