REMARK  11 active torsions:
REMARK  status: ('A' for Active; 'I' for Inactive)
REMARK       I    between atoms: C4_3  and  N4_19 
REMARK    1  A    between atoms: C2_21  and  C4_3 
REMARK    2  A    between atoms: N5_27  and  C5_4 
REMARK    3  A    between atoms: N2_23  and  C6_5 
REMARK    4  A    between atoms: C10_8  and  N5_27 
REMARK    5  A    between atoms: C14_28  and  C10_8 
REMARK    6  A    between atoms: C13_9  and  C15_10 
REMARK    7  A    between atoms: C9_18  and  C13_9 
REMARK    8  A    between atoms: C15_10  and  N6_17 
REMARK    9  A    between atoms: N4_19  and  C9_18 
REMARK   10  A    between atoms: C1_22  and  N2_23 
REMARK   11  A    between atoms: C16_29  and  C14_28 
ROOT
ATOM      1  N1  0T8 d   1       8.797 -10.511  15.126  0.00  0.00    -0.044 NA
ATOM      2  N3  0T8 d   1      10.797 -11.413  14.321  0.00  0.00    -0.074 NA
ATOM      3  C5  0T8 d   1       9.958 -10.363  14.446  0.00  0.00     0.724 A 
ATOM      4  C2  0T8 d   1       9.309 -12.785  15.571  0.00  0.00     0.096 A 
ATOM      5  C1  0T8 d   1       8.448 -11.694  15.693  0.00  0.00     0.160 A 
ATOM      6  C3  0T8 d   1      10.490 -12.603  14.857  0.00  0.00     0.040 A 
ATOM      7  H27 0T8 d   1      11.172 -13.436  14.732  0.00  0.00     0.117 H 
ENDROOT
BRANCH   4   8
ATOM      8  C4  0T8 d   1       9.011 -14.141  16.158  0.00  0.00     0.256 C 
ATOM      9  N4  0T8 d   1      10.046 -14.970  16.370  0.00  0.00    -0.357 N 
ATOM     10  H21 0T8 d   1      10.936 -14.579  16.136  0.00  0.00     0.162 HD
ATOM     11  O1  0T8 d   1       7.857 -14.440  16.435  0.00  0.00    -0.267 OA
BRANCH   9  12
ATOM     12  C9  0T8 d   1      10.111 -16.336  16.879  0.00  0.00    -0.003 C 
ATOM     13  H19 0T8 d   1       9.475 -16.982  16.256  0.00  0.00     0.064 H 
ATOM     14  H20 0T8 d   1      11.152 -16.688  16.828  0.00  0.00     0.064 H 
BRANCH  12  15
ATOM     15  C13 0T8 d   1       9.632 -16.410  18.320  0.00  0.00    -0.035 C 
ATOM     16  H8  0T8 d   1      10.424 -16.047  18.992  0.00  0.00     0.037 H 
ATOM     17  H9  0T8 d   1       8.733 -15.788  18.443  0.00  0.00     0.037 H 
BRANCH  15  18
ATOM     18  C15 0T8 d   1       9.299 -17.870  18.658  0.00  0.00    -0.001 C 
ATOM     19  H10 0T8 d   1       9.686 -18.522  17.861  0.00  0.00     0.064 H 
ATOM     20  H11 0T8 d   1       8.207 -17.984  18.728  0.00  0.00     0.064 H 
BRANCH  18  21
ATOM     21  N6  0T8 d   1       9.908 -18.260  19.939  0.00  0.00    -0.352 N 
ATOM     22  C20 0T8 d   1       9.937 -19.508  20.396  0.00  0.00     0.219 C 
ATOM     23  C24 0T8 d   1      10.507 -19.572  21.799  0.00  0.00     0.011 C 
ATOM     24  O25 0T8 d   1       9.543 -20.512  19.802  0.00  0.00    -0.273 OA
ATOM     25  C26 0T8 d   1      11.032 -18.058  22.048  0.00  0.00    -0.042 C 
ATOM     26  H15 0T8 d   1      11.336 -20.293  21.857  0.00  0.00     0.047 H 
ATOM     27  H16 0T8 d   1       9.731 -19.847  22.529  0.00  0.00     0.047 H 
ATOM     28  C21 0T8 d   1      10.511 -17.236  20.787  0.00  0.00    -0.002 C 
ATOM     29  H17 0T8 d   1      10.611 -17.649  22.978  0.00  0.00     0.036 H 
ATOM     30  H18 0T8 d   1      12.130 -18.032  22.101  0.00  0.00     0.036 H 
ATOM     31  H12 0T8 d   1      11.345 -16.738  20.270  0.00  0.00     0.064 H 
ATOM     32  H13 0T8 d   1       9.765 -16.485  21.088  0.00  0.00     0.064 H 
ENDBRANCH  18  21
ENDBRANCH  15  18
ENDBRANCH  12  15
ENDBRANCH   9  12
ENDBRANCH   4   8
BRANCH   5  33
ATOM     33  N2  0T8 d   1       7.276 -11.776  16.353  0.00  0.00    -0.369 N 
ATOM     34  H22 0T8 d   1       7.059 -12.603  16.927  0.00  0.00     0.161 HD
BRANCH  33  35
ATOM     35  C6  0T8 d   1       6.319 -10.684  16.246  0.00  0.00     0.011 C 
ATOM     36  C7  0T8 d   1       4.912 -11.208  15.991  0.00  0.00    -0.046 C 
ATOM     37  C11 0T8 d   1       4.139 -11.112  17.298  0.00  0.00    -0.063 C 
ATOM     38  H2  0T8 d   1       4.957 -12.255  15.658  0.00  0.00     0.035 H 
ATOM     39  H3  0T8 d   1       4.420 -10.599  15.219  0.00  0.00     0.035 H 
ATOM     40  C12 0T8 d   1       5.063 -10.470  18.323  0.00  0.00    -0.063 C 
ATOM     41  H25 0T8 d   1       3.843 -12.116  17.635  0.00  0.00     0.033 H 
ATOM     42  H26 0T8 d   1       3.241 -10.492  17.160  0.00  0.00     0.033 H 
ATOM     43  C8  0T8 d   1       6.264  -9.930  17.561  0.00  0.00    -0.046 C 
ATOM     44  H23 0T8 d   1       4.543  -9.650  18.839  0.00  0.00     0.033 H 
ATOM     45  H24 0T8 d   1       5.388 -11.219  19.060  0.00  0.00     0.033 H 
ATOM     46  H4  0T8 d   1       6.143  -8.853  17.376  0.00  0.00     0.035 H 
ATOM     47  H5  0T8 d   1       7.186 -10.102  18.136  0.00  0.00     0.035 H 
ATOM     48  H1  0T8 d   1       6.623 -10.010  15.431  0.00  0.00     0.072 H 
ENDBRANCH  33  35
ENDBRANCH   5  33
BRANCH   3  49
ATOM     49  N5  0T8 d   1      10.288  -9.169  13.911  0.00  0.00    -0.222 N 
ATOM     50  H28 0T8 d   1      10.929  -9.134  13.106  0.00  0.00     0.177 HD
BRANCH  49  51
ATOM     51  C10 0T8 d   1       9.748  -7.919  14.458  0.00  0.00     0.013 C 
ATOM     52  H6  0T8 d   1      10.559  -7.179  14.524  0.00  0.00     0.065 H 
ATOM     53  H7  0T8 d   1       9.346  -8.113  15.463  0.00  0.00     0.065 H 
BRANCH  51  54
ATOM     54  C14 0T8 d   1       8.633  -7.356  13.578  0.00  0.00    -0.026 C 
ATOM     55  H29 0T8 d   1       8.023  -8.198  13.220  0.00  0.00     0.042 H 
ATOM     56  H30 0T8 d   1       9.099  -6.850  12.720  0.00  0.00     0.042 H 
BRANCH  54  57
ATOM     57  C16 0T8 d   1       7.706  -6.360  14.268  0.00  0.00    -0.054 A 
ATOM     58  C19 0T8 d   1       6.942  -6.712  15.380  0.00  0.00    -0.060 A 
ATOM     59  C23 0T8 d   1       6.097  -5.761  15.952  0.00  0.00     0.002 A 
ATOM     60  H31 0T8 d   1       7.004  -7.712  15.795  0.00  0.00     0.086 H 
ATOM     61  N7  0T8 d   1       6.006  -4.523  15.434  0.00  0.00    -0.273 NA
ATOM     62  H32 0T8 d   1       5.507  -6.022  16.823  0.00  0.00     0.114 H 
ATOM     63  C22 0T8 d   1       6.719  -4.148  14.359  0.00  0.00     0.002 A 
ATOM     64  C18 0T8 d   1       7.575  -5.068  13.755  0.00  0.00    -0.060 A 
ATOM     65  H14 0T8 d   1       6.630  -3.142  13.966  0.00  0.00     0.114 H 
ATOM     66  H33 0T8 d   1       8.144  -4.778  12.879  0.00  0.00     0.086 H 
ENDBRANCH  54  57
ENDBRANCH  51  54
ENDBRANCH  49  51
ENDBRANCH   3  49
TORSDOF 11
