REMARK  12 active torsions:
REMARK  status: ('A' for Active; 'I' for Inactive)
REMARK    1  A    between atoms: N24_6  and  C21_7 
REMARK    2  A    between atoms: C21_7  and  C19_8 
REMARK    3  A    between atoms: C19_8  and  C15_9 
REMARK    4  A    between atoms: C15_9  and  N10_10 
REMARK       I    between atoms: N10_10  and  C6_11 
REMARK    5  A    between atoms: C6_11  and  C2_13 
REMARK    6  A    between atoms: C1_14  and  N4_15 
REMARK    7  A    between atoms: N4_15  and  C8_16 
REMARK    8  A    between atoms: C7_23  and  N12_25 
REMARK    9  A    between atoms: N12_25  and  C16_26 
REMARK   10  A    between atoms: C16_26  and  C20_27 
REMARK   11  A    between atoms: C22_32  and  O26_33 
REMARK   12  A    between atoms: O26_33  and  C31_34 
ROOT
ATOM      1  C2  14S d   1      34.140  14.103  14.622  0.00  0.00     0.096 A 
ATOM      2  C1  14S d   1      33.197  15.125  14.537  0.00  0.00     0.160 A 
ATOM      3  C5  14S d   1      35.377  14.289  14.027  0.00  0.00     0.040 A 
ATOM      4  N9  14S d   1      35.654  15.428  13.390  0.00  0.00    -0.074 NA
ATOM      5  C7  14S d   1      34.745  16.417  13.305  0.00  0.00     0.724 A 
ATOM      6  N3  14S d   1      33.526  16.267  13.877  0.00  0.00    -0.044 NA
ATOM      7  H24 14S d   1      36.124  13.505  14.079  0.00  0.00     0.117 H 
ENDROOT
BRANCH   1   8
ATOM      8  C6  14S d   1      33.864  12.813  15.338  0.00  0.00     0.256 C 
ATOM      9  N10 14S d   1      34.887  12.114  15.829  0.00  0.00    -0.357 N 
ATOM     10  H13 14S d   1      35.811  12.474  15.701  0.00  0.00     0.162 HD
ATOM     11  O11 14S d   1      32.712  12.443  15.466  0.00  0.00    -0.267 OA
BRANCH   9  12
ATOM     12  C15 14S d   1      34.732  10.858  16.540  0.00  0.00    -0.003 C 
ATOM     13  H11 14S d   1      33.965  10.255  16.033  0.00  0.00     0.064 H 
ATOM     14  H12 14S d   1      35.691  10.320  16.525  0.00  0.00     0.064 H 
BRANCH  12  15
ATOM     15  C19 14S d   1      34.311  11.075  17.990  0.00  0.00    -0.035 C 
ATOM     16  H9  14S d   1      35.208  11.292  18.589  0.00  0.00     0.037 H 
ATOM     17  H10 14S d   1      33.624  11.933  18.034  0.00  0.00     0.037 H 
BRANCH  15  18
ATOM     18  C21 14S d   1      33.608   9.854  18.583  0.00  0.00    -0.001 C 
ATOM     19  H7  14S d   1      32.546   9.848  18.297  0.00  0.00     0.064 H 
ATOM     20  H8  14S d   1      34.088   8.929  18.231  0.00  0.00     0.064 H 
BRANCH  18  21
ATOM     21  N24 14S d   1      33.742   9.976  20.035  0.00  0.00    -0.352 N 
ATOM     22  C28 14S d   1      34.798   9.600  20.755  0.00  0.00     0.219 C 
ATOM     23  O33 14S d   1      35.869   9.190  20.329  0.00  0.00    -0.273 OA
ATOM     24  C32 14S d   1      34.499   9.759  22.226  0.00  0.00     0.011 C 
ATOM     25  C34 14S d   1      33.016  10.207  22.240  0.00  0.00    -0.042 C 
ATOM     26  H1  14S d   1      35.146  10.524  22.680  0.00  0.00     0.047 H 
ATOM     27  H2  14S d   1      34.628   8.806  22.760  0.00  0.00     0.047 H 
ATOM     28  C29 14S d   1      32.620  10.544  20.779  0.00  0.00    -0.002 C 
ATOM     29  H3  14S d   1      32.898  11.097  22.876  0.00  0.00     0.036 H 
ATOM     30  H4  14S d   1      32.381   9.395  22.624  0.00  0.00     0.036 H 
ATOM     31  H5  14S d   1      32.544  11.630  20.624  0.00  0.00     0.064 H 
ATOM     32  H6  14S d   1      31.669  10.066  20.500  0.00  0.00     0.064 H 
ENDBRANCH  18  21
ENDBRANCH  15  18
ENDBRANCH  12  15
ENDBRANCH   9  12
ENDBRANCH   1   8
BRANCH   2  33
ATOM     33  N4  14S d   1      31.977  14.972  15.113  0.00  0.00    -0.369 N 
ATOM     34  H14 14S d   1      31.790  14.091  15.612  0.00  0.00     0.161 HD
BRANCH  33  35
ATOM     35  C8  14S d   1      30.914  15.969  15.074  0.00  0.00     0.011 C 
ATOM     36  C14 14S d   1      31.080  17.028  16.155  0.00  0.00    -0.046 C 
ATOM     37  C18 14S d   1      29.959  16.879  17.173  0.00  0.00    -0.063 C 
ATOM     38  H16 14S d   1      31.035  18.029  15.701  0.00  0.00     0.035 H 
ATOM     39  H17 14S d   1      32.051  16.896  16.654  0.00  0.00     0.035 H 
ATOM     40  C17 14S d   1      29.113  15.688  16.748  0.00  0.00    -0.063 C 
ATOM     41  H18 14S d   1      29.343  17.790  17.190  0.00  0.00     0.033 H 
ATOM     42  H19 14S d   1      30.381  16.703  18.174  0.00  0.00     0.033 H 
ATOM     43  C13 14S d   1      29.578  15.285  15.351  0.00  0.00    -0.046 C 
ATOM     44  H20 14S d   1      28.050  15.969  16.726  0.00  0.00     0.033 H 
ATOM     45  H21 14S d   1      29.257  14.853  17.449  0.00  0.00     0.033 H 
ATOM     46  H22 14S d   1      29.702  14.193  15.301  0.00  0.00     0.035 H 
ATOM     47  H23 14S d   1      28.835  15.604  14.605  0.00  0.00     0.035 H 
ATOM     48  H15 14S d   1      30.902  16.447  14.083  0.00  0.00     0.072 H 
ENDBRANCH  33  35
ENDBRANCH   2  33
BRANCH   5  49
ATOM     49  N12 14S d   1      35.086  17.551  12.651  0.00  0.00    -0.218 N 
ATOM     50  H25 14S d   1      36.029  17.640  12.246  0.00  0.00     0.178 HD
BRANCH  49  51
ATOM     51  C16 14S d   1      34.142  18.645  12.511  0.00  0.00     0.036 C 
ATOM     52  H26 14S d   1      33.168  18.318  12.903  0.00  0.00     0.072 H 
ATOM     53  H27 14S d   1      34.044  18.887  11.442  0.00  0.00     0.072 H 
BRANCH  51  54
ATOM     54  C20 14S d   1      34.560  19.895  13.249  0.00  0.00    -0.007 A 
ATOM     55  C23 14S d   1      35.910  20.163  13.481  0.00  0.00    -0.073 A 
ATOM     56  C27 14S d   1      36.289  21.321  14.153  0.00  0.00    -0.082 A 
ATOM     57  H28 14S d   1      36.666  19.467  13.136  0.00  0.00     0.084 H 
ATOM     58  C30 14S d   1      35.313  22.210  14.593  0.00  0.00    -0.080 A 
ATOM     59  H29 14S d   1      37.338  21.529  14.333  0.00  0.00     0.083 H 
ATOM     60  C25 14S d   1      33.965  21.946  14.364  0.00  0.00    -0.050 A 
ATOM     61  H30 14S d   1      35.604  23.113  15.117  0.00  0.00     0.083 H 
ATOM     62  C22 14S d   1      33.584  20.783  13.696  0.00  0.00     0.076 A 
ATOM     63  H31 14S d   1      33.211  22.646  14.706  0.00  0.00     0.087 H 
BRANCH  62  64
ATOM     64  O26 14S d   1      32.253  20.532  13.460  0.00  0.00    -0.355 OA
BRANCH  64  65
ATOM     65  C31 14S d   1      31.321  20.395  14.529  0.00  0.00     0.010 C 
ATOM     66  H32 14S d   1      30.319  20.199  14.119  0.00  0.00     0.066 H 
ATOM     67  H33 14S d   1      31.300  21.323  15.119  0.00  0.00     0.066 H 
ATOM     68  H34 14S d   1      31.624  19.557  15.174  0.00  0.00     0.066 H 
ENDBRANCH  64  65
ENDBRANCH  62  64
ENDBRANCH  51  54
ENDBRANCH  49  51
ENDBRANCH   5  49
TORSDOF 12
