REMARK  20 active torsions:
REMARK  status: ('A' for Active; 'I' for Inactive)
REMARK    1  A    between atoms: CA_2  and  N_1 
REMARK    2  A    between atoms: CA_2  and  CB_5 
REMARK    3  A    between atoms: C_3  and  CA_2 
REMARK       I    between atoms: N_7  and  C_3 
REMARK    4  A    between atoms: CB_5  and  SG_6 
REMARK    5  A    between atoms: CA_8  and  N_7 
REMARK    6  A    between atoms: CA_8  and  CB_11 
REMARK    7  A    between atoms: C_9  and  CA_8 
REMARK       I    between atoms: N_16  and  C_9 
REMARK    8  A    between atoms: CB_11  and  CG_12 
REMARK    9  A    between atoms: CG_12  and  CD_13 
REMARK       I    between atoms: CD_13  and  NE2_15 
REMARK   10  A    between atoms: CA_17  and  N_16 
REMARK   11  A    between atoms: CA_17  and  CB_20 
REMARK   12  A    between atoms: C_18  and  CA_17 
REMARK       I    between atoms: C_18  and  N_24 
REMARK   13  A    between atoms: CB_20  and  CG_21 
REMARK   14  A    between atoms: CG_21  and  CD1_22 
REMARK   15  A    between atoms: CG_21  and  CD2_23 
REMARK   16  A    between atoms: N_24  and  CA_25 
REMARK   17  A    between atoms: CA_25  and  CB_28 
REMARK   18  A    between atoms: CA_25  and  C_26 
REMARK   19  A    between atoms: CB_28  and  CG_29 
REMARK   20  A    between atoms: CZ_34  and  OH_35 
ROOT
ATOM      1  CA  LEU d   1      28.025 -58.666  13.402  0.00  0.00     0.089 C 
ATOM      2  H17 LEU d   1      26.932 -58.545  13.431  0.00  0.00     0.087 H 
ENDROOT
BRANCH   1   3
ATOM      3  N   LEU d   1      28.512 -57.541  12.544  0.00  0.00    -0.346 N 
ATOM      4  C   GLN d   1      28.532 -56.270  12.979  0.00  0.00     0.241 C 
ATOM      5  O   GLN d   1      28.268 -55.987  14.142  0.00  0.00    -0.271 OA
ATOM      6  H16 LEU d   1      28.832 -57.741  11.618  0.00  0.00     0.163 HD
BRANCH   4   7
ATOM      7  CA  GLN d   1      28.993 -55.165  11.993  0.00  0.00     0.090 C 
ATOM      8  H9  GLN d   1      28.378 -55.211  11.082  0.00  0.00     0.087 H 
BRANCH   7   9
ATOM      9  N   GLN d   1      28.866 -53.846  12.599  0.00  0.00    -0.346 N 
ATOM     10  C   CYS d   1      28.829 -52.645  11.988  0.00  0.00     0.249 C 
ATOM     11  O   CYS d   1      29.069 -51.664  12.684  0.00  0.00    -0.271 OA
ATOM     12  H8  GLN d   1      28.797 -53.830  13.597  0.00  0.00     0.163 HD
BRANCH  10  13
ATOM     13  CA  CYS d   1      28.576 -52.345  10.467  0.00  0.00     0.183 C 
ATOM     14  H4  CYS d   1      29.554 -52.125  10.015  0.00  0.00     0.100 H 
BRANCH  13  15
ATOM     15  N   CYS d   1      27.904 -53.313   9.542  0.00  0.00    -0.066 N 
ATOM     16  H1  CYS d   1      27.849 -52.912   8.619  0.00  0.00     0.275 HD
ATOM     17  H2  CYS d   1      26.975 -53.510   9.879  0.00  0.00     0.275 HD
ATOM     18  H3  CYS d   1      28.436 -54.168   9.506  0.00  0.00     0.275 HD
ENDBRANCH  13  15
BRANCH  13  19
ATOM     19  CB  CYS d   1      27.735 -51.089  10.528  0.00  0.00     0.009 C 
ATOM     20  H5  CYS d   1      28.201 -50.447  11.290  0.00  0.00     0.052 H 
ATOM     21  H6  CYS d   1      26.740 -51.406  10.874  0.00  0.00     0.052 H 
BRANCH  19  22
ATOM     22  SG  CYS d   1      27.459 -50.062   9.131  0.00  0.00    -0.180 SA
ATOM     23  H7  CYS d   1      26.874 -49.285   9.397  0.00  0.00     0.101 HD
ENDBRANCH  19  22
ENDBRANCH  13  19
ENDBRANCH  10  13
ENDBRANCH   7   9
BRANCH   7  24
ATOM     24  CB  GLN d   1      30.465 -55.388  11.636  0.00  0.00    -0.030 C 
ATOM     25  H10 GLN d   1      30.889 -54.423  11.322  0.00  0.00     0.037 H 
ATOM     26  H11 GLN d   1      30.507 -56.097  10.796  0.00  0.00     0.037 H 
BRANCH  24  27
ATOM     27  CG  GLN d   1      31.339 -55.943  12.771  0.00  0.00     0.011 C 
ATOM     28  H12 GLN d   1      32.297 -56.273  12.344  0.00  0.00     0.047 H 
ATOM     29  H13 GLN d   1      30.822 -56.804  13.220  0.00  0.00     0.047 H 
BRANCH  27  30
ATOM     30  CD  GLN d   1      31.621 -54.937  13.856  0.00  0.00     0.215 C 
ATOM     31  NE2 GLN d   1      32.530 -55.291  14.754  0.00  0.00    -0.370 N 
ATOM     32  H14 GLN d   1      32.764 -54.669  15.501  0.00  0.00     0.159 HD
ATOM     33  H15 GLN d   1      32.982 -56.181  14.684  0.00  0.00     0.159 HD
ATOM     34  OE1 GLN d   1      31.045 -53.851  13.887  0.00  0.00    -0.274 OA
ENDBRANCH  27  30
ENDBRANCH  24  27
ENDBRANCH   7  24
ENDBRANCH   4   7
ENDBRANCH   1   3
BRANCH   1  35
ATOM     35  CB  LEU d   1      28.256 -60.094  12.794  0.00  0.00    -0.035 C 
ATOM     36  H18 LEU d   1      27.345 -60.289  12.210  0.00  0.00     0.037 H 
ATOM     37  H19 LEU d   1      28.280 -60.760  13.669  0.00  0.00     0.037 H 
BRANCH  35  38
ATOM     38  CG  LEU d   1      29.398 -60.608  11.897  0.00  0.00    -0.059 C 
ATOM     39  H20 LEU d   1      29.724 -59.772  11.261  0.00  0.00     0.038 H 
BRANCH  38  40
ATOM     40  CD1 LEU d   1      30.613 -61.085  12.701  0.00  0.00    -0.073 C 
ATOM     41  H21 LEU d   1      31.393 -61.439  12.011  0.00  0.00     0.028 H 
ATOM     42  H22 LEU d   1      30.312 -61.907  13.367  0.00  0.00     0.028 H 
ATOM     43  H23 LEU d   1      31.006 -60.251  13.302  0.00  0.00     0.028 H 
ENDBRANCH  38  40
BRANCH  38  44
ATOM     44  CD2 LEU d   1      28.899 -61.737  10.986  0.00  0.00    -0.073 C 
ATOM     45  H24 LEU d   1      28.028 -61.388  10.413  0.00  0.00     0.028 H 
ATOM     46  H25 LEU d   1      28.611 -62.603  11.600  0.00  0.00     0.028 H 
ATOM     47  H26 LEU d   1      29.701 -62.030  10.292  0.00  0.00     0.028 H 
ENDBRANCH  38  44
ENDBRANCH  35  38
ENDBRANCH   1  35
BRANCH   1  48
ATOM     48  C   LEU d   1      28.476 -58.558  14.854  0.00  0.00     0.241 C 
ATOM     49  O   LEU d   1      29.583 -58.995  15.198  0.00  0.00    -0.271 OA
ATOM     50  N   TYR d   1      27.598 -57.964  15.679  0.00  0.00    -0.344 N 
ATOM     51  H27 TYR d   1      26.649 -57.891  15.371  0.00  0.00     0.163 HD
BRANCH  50  52
ATOM     52  CA  TYR d   1      27.932 -57.408  17.014  0.00  0.00     0.100 C 
ATOM     53  H28 TYR d   1      28.179 -56.350  16.843  0.00  0.00     0.090 H 
BRANCH  52  54
ATOM     54  CB  TYR d   1      26.722 -57.438  17.952  0.00  0.00    -0.013 C 
ATOM     55  H29 TYR d   1      25.812 -57.535  17.342  0.00  0.00     0.043 H 
ATOM     56  H30 TYR d   1      26.691 -56.490  18.509  0.00  0.00     0.043 H 
BRANCH  54  57
ATOM     57  CG  TYR d   1      26.753 -58.567  18.940  0.00  0.00    -0.056 A 
ATOM     58  CD1 TYR d   1      26.818 -58.318  20.313  0.00  0.00    -0.074 A 
ATOM     59  CE1 TYR d   1      26.848 -59.373  21.223  0.00  0.00    -0.051 A 
ATOM     60  H31 TYR d   1      26.845 -57.296  20.673  0.00  0.00     0.084 H 
ATOM     61  CZ  TYR d   1      26.834 -60.684  20.748  0.00  0.00     0.065 A 
ATOM     62  H33 TYR d   1      26.882 -59.177  22.288  0.00  0.00     0.087 H 
ATOM     63  CE2 TYR d   1      26.786 -60.955  19.396  0.00  0.00    -0.051 A 
ATOM     64  CD2 TYR d   1      26.751 -59.902  18.501  0.00  0.00    -0.074 A 
ATOM     65  H34 TYR d   1      26.776 -61.979  19.041  0.00  0.00     0.087 H 
ATOM     66  H32 TYR d   1      26.721 -60.111  17.438  0.00  0.00     0.084 H 
BRANCH  61  67
ATOM     67  OH  TYR d   1      26.869 -61.743  21.612  0.00  0.00    -0.361 OA
ATOM     68  H35 TYR d   1      27.641 -62.268  21.436  0.00  0.00     0.217 HD
ENDBRANCH  61  67
ENDBRANCH  54  57
ENDBRANCH  52  54
BRANCH  52  69
ATOM     69  C   TYR d   1      29.150 -58.019  17.713  0.00  0.00     0.197 C 
ATOM     70  O   TYR d   1      30.237 -57.434  17.719  0.00  0.00    -0.646 OA
ATOM     71  OXT TYR d   1      29.071 -59.110  18.286  0.00  0.00    -0.646 OA
ENDBRANCH  52  69
ENDBRANCH  50  52
ENDBRANCH   1  48
TORSDOF 20
