REMARK WARNING: 32 MAX_TORS EXCEEDED!!!
REMARK  35 active torsions:
REMARK  status: ('A' for Active; 'I' for Inactive)
REMARK    1  A    between atoms: C_1  and  CA_5 
REMARK       I    between atoms: N_6  and  C_1 
REMARK    2  A    between atoms: CA_5  and  CB_3 
REMARK    3  A    between atoms: CA_5  and  OHN_4 
REMARK    4  A    between atoms: CA_7  and  N_6 
REMARK    5  A    between atoms: C_8  and  CA_7 
REMARK    6  A    between atoms: CA_7  and  CB_10 
REMARK       I    between atoms: N_22  and  C_8 
REMARK    7  A    between atoms: CB_10  and  CG1_11 
REMARK    8  A    between atoms: CB_10  and  CG2_12 
REMARK    9  A    between atoms: N_22  and  C1_13 
REMARK       I    between atoms: CD_19  and  NE2_14 
REMARK   10  A    between atoms: CB_18  and  CG_17 
REMARK   11  A    between atoms: CG_17  and  CD_19 
REMARK   12  A    between atoms: CA_21  and  CB_18 
REMARK   13  A    between atoms: CA_21  and  C_20 
REMARK       I    between atoms: C_20  and  N_23 
REMARK   14  A    between atoms: CA_21  and  N_22 
REMARK   15  A    between atoms: N_23  and  CA_24 
REMARK   16  A    between atoms: CA_24  and  CB_25 
REMARK   17  A    between atoms: CA_24  and  CH_32 
REMARK   18  A    between atoms: CB_25  and  CG_26 
REMARK   19  A    between atoms: CH_32  and  OH_33 
REMARK   20  A    between atoms: CH_32  and  CM_34 
REMARK   21  A    between atoms: CM_34  and  C_35 
REMARK       I    between atoms: C_35  and  N_37 
REMARK   22  A    between atoms: N_37  and  CA_38 
REMARK   23  A    between atoms: CA_38  and  C_39 
REMARK   24  A    between atoms: CA_38  and  CB_41 
REMARK       I    between atoms: C_39  and  N_45 
REMARK   25  A    between atoms: CB_41  and  CG_42 
REMARK   26  A    between atoms: CG_42  and  CD1_43 
REMARK   27  A    between atoms: CG_42  and  CD2_44 
REMARK   28  A    between atoms: N_45  and  CA_46 
REMARK   29  A    between atoms: CA_46  and  C_47 
REMARK   30  A    between atoms: CA_46  and  CB_49 
REMARK       I    between atoms: C_47  and  N_50 
REMARK   31  A    between atoms: N_50  and  CA_51 
REMARK   32  A    between atoms: N_50  and  C10_62 
REMARK   33  A    between atoms: CA_51  and  C_52 
REMARK   34  A    between atoms: CA_51  and  CB_55 
REMARK   35  A    between atoms: CB_55  and  CG_56 
ROOT
ATOM      1  CA  PSA d   1      20.847  25.217   1.855  0.00  0.00     0.041 C 
ATOM      2  H26 PSA d   1      20.764  25.621   0.835  0.00  0.00     0.076 H 
ENDROOT
BRANCH   1   3
ATOM      3  N   PSA d   1      21.462  23.882   1.827  0.00  0.00    -0.352 N 
ATOM      4  C   GNC d   1      22.122  23.382   0.611  0.00  0.00     0.241 C 
ATOM      5  O   GNC d   1      22.157  24.039  -0.424  0.00  0.00    -0.271 OA
ATOM      6  H25 PSA d   1      21.431  23.307   2.644  0.00  0.00     0.163 HD
BRANCH   4   7
ATOM      7  CA  GNC d   1      22.711  21.975   0.749  0.00  0.00     0.091 C 
ATOM      8  H24 GNC d   1      23.245  21.943   1.710  0.00  0.00     0.087 H 
BRANCH   7   9
ATOM      9  CB  GNC d   1      23.747  21.624  -0.316  0.00  0.00    -0.030 C 
ATOM     10  H22 GNC d   1      23.482  20.678  -0.810  0.00  0.00     0.037 H 
ATOM     11  H23 GNC d   1      23.809  22.425  -1.067  0.00  0.00     0.037 H 
BRANCH   9  12
ATOM     12  CG  GNC d   1      25.081  21.483   0.422  0.00  0.00     0.011 C 
ATOM     13  H20 GNC d   1      24.967  20.744   1.228  0.00  0.00     0.047 H 
ATOM     14  H21 GNC d   1      25.355  22.457   0.853  0.00  0.00     0.047 H 
BRANCH  12  15
ATOM     15  CD  GNC d   1      26.204  21.021  -0.525  0.00  0.00     0.215 C 
ATOM     16  NE2 GNC d   1      26.372  21.700  -1.818  0.00  0.00    -0.370 N 
ATOM     17  H18 GNC d   1      25.762  22.451  -2.072  0.00  0.00     0.159 HD
ATOM     18  H19 GNC d   1      27.096  21.411  -2.444  0.00  0.00     0.159 HD
ATOM     19  OE1 GNC d   1      26.952  20.095  -0.205  0.00  0.00    -0.274 OA
ENDBRANCH  12  15
ENDBRANCH   9  12
ENDBRANCH   7   9
BRANCH   7  20
ATOM     20  N   GNC d   1      21.604  21.020   0.843  0.00  0.00    -0.341 N 
ATOM     21  C   VAL d   1      21.713  19.933   1.804  0.00  0.00     0.243 C 
ATOM     22  O   VAL d   1      22.718  19.823   2.497  0.00  0.00    -0.271 OA
BRANCH  21  23
ATOM     23  CA  VAL d   1      20.579  18.932   1.919  0.00  0.00     0.092 C 
ATOM     24  H7  VAL d   1      20.077  18.846   0.944  0.00  0.00     0.088 H 
BRANCH  23  25
ATOM     25  N   VAL d   1      21.131  17.647   2.240  0.00  0.00    -0.345 N 
ATOM     26  C   2OP d   1      21.380  16.713   1.144  0.00  0.00     0.246 C 
ATOM     27  O   2OP d   1      21.103  17.046  -0.006  0.00  0.00    -0.271 OA
ATOM     28  H6  VAL d   1      21.339  17.398   3.186  0.00  0.00     0.163 HD
BRANCH  26  29
ATOM     29  CA  2OP d   1      21.974  15.334   1.430  0.00  0.00     0.109 C 
ATOM     30  H5  2OP d   1      22.860  15.215   0.788  0.00  0.00     0.097 H 
BRANCH  29  31
ATOM     31  CB  2OP d   1      20.985  14.235   1.110  0.00  0.00    -0.044 C 
ATOM     32  H1  2OP d   1      21.441  13.257   1.326  0.00  0.00     0.031 H 
ATOM     33  H2  2OP d   1      20.712  14.286   0.045  0.00  0.00     0.031 H 
ATOM     34  H3  2OP d   1      20.083  14.363   1.726  0.00  0.00     0.031 H 
ENDBRANCH  29  31
BRANCH  29  35
ATOM     35  OHN 2OP d   1      22.360  15.154   2.742  0.00  0.00    -0.387 OA
ATOM     36  H4  2OP d   1      21.598  15.211   3.306  0.00  0.00     0.210 HD
ENDBRANCH  29  35
ENDBRANCH  26  29
ENDBRANCH  23  25
BRANCH  23  37
ATOM     37  CB  VAL d   1      19.548  19.469   2.932  0.00  0.00    -0.033 C 
ATOM     38  H8  VAL d   1      19.452  20.554   2.778  0.00  0.00     0.042 H 
BRANCH  37  39
ATOM     39  CG1 VAL d   1      18.197  18.832   2.685  0.00  0.00    -0.071 C 
ATOM     40  H9  VAL d   1      17.470  19.222   3.412  0.00  0.00     0.028 H 
ATOM     41  H10 VAL d   1      18.280  17.741   2.798  0.00  0.00     0.028 H 
ATOM     42  H11 VAL d   1      17.860  19.071   1.665  0.00  0.00     0.028 H 
ENDBRANCH  37  39
BRANCH  37  43
ATOM     43  CG2 VAL d   1      19.990  19.238   4.357  0.00  0.00    -0.071 C 
ATOM     44  H12 VAL d   1      20.972  19.707   4.517  0.00  0.00     0.028 H 
ATOM     45  H13 VAL d   1      20.065  18.157   4.547  0.00  0.00     0.028 H 
ATOM     46  H14 VAL d   1      19.255  19.681   5.045  0.00  0.00     0.028 H 
ENDBRANCH  37  43
ENDBRANCH  23  37
ENDBRANCH  21  23
BRANCH  20  47
ATOM     47  C1  GNC d   1      20.435  21.172  -0.004  0.00  0.00    -0.015 C 
ATOM     48  H15 GNC d   1      19.719  20.365   0.211  0.00  0.00     0.056 H 
ATOM     49  H16 GNC d   1      20.738  21.121  -1.060  0.00  0.00     0.056 H 
ATOM     50  H17 GNC d   1      19.962  22.145   0.195  0.00  0.00     0.056 H 
ENDBRANCH  20  47
ENDBRANCH   7  20
ENDBRANCH   4   7
ENDBRANCH   1   3
BRANCH   1  51
ATOM     51  CB  PSA d   1      19.496  25.158   2.481  0.00  0.00    -0.020 C 
ATOM     52  H27 PSA d   1      19.034  26.156   2.453  0.00  0.00     0.043 H 
ATOM     53  H28 PSA d   1      19.589  24.826   3.526  0.00  0.00     0.043 H 
BRANCH  51  54
ATOM     54  CG  PSA d   1      18.628  24.173   1.710  0.00  0.00    -0.056 A 
ATOM     55  CD1 PSA d   1      18.508  24.280   0.238  0.00  0.00    -0.077 A 
ATOM     56  CE1 PSA d   1      17.640  23.308  -0.520  0.00  0.00    -0.082 A 
ATOM     57  H29 PSA d   1      19.044  25.057  -0.294  0.00  0.00     0.084 H 
ATOM     58  CZ  PSA d   1      16.896  22.236   0.213  0.00  0.00    -0.083 A 
ATOM     59  H31 PSA d   1      17.555  23.386  -1.598  0.00  0.00     0.083 H 
ATOM     60  CE2 PSA d   1      17.015  22.126   1.688  0.00  0.00    -0.082 A 
ATOM     61  H33 PSA d   1      16.270  21.540  -0.334  0.00  0.00     0.083 H 
ATOM     62  CD2 PSA d   1      17.883  23.093   2.443  0.00  0.00    -0.077 A 
ATOM     63  H32 PSA d   1      16.477  21.350   2.220  0.00  0.00     0.083 H 
ATOM     64  H30 PSA d   1      17.972  23.011   3.520  0.00  0.00     0.084 H 
ENDBRANCH  51  54
ENDBRANCH   1  51
BRANCH   1  65
ATOM     65  CH  PSA d   1      21.762  26.081   2.693  0.00  0.00     0.063 C 
ATOM     66  H34 PSA d   1      21.204  27.022   2.812  0.00  0.00     0.086 H 
BRANCH  65  67
ATOM     67  OH  PSA d   1      21.911  25.631   4.011  0.00  0.00    -0.393 OA
ATOM     68  H35 PSA d   1      22.495  26.215   4.480  0.00  0.00     0.210 HD
ENDBRANCH  65  67
BRANCH  65  69
ATOM     69  CM  PSA d   1      23.029  26.515   1.946  0.00  0.00     0.035 C 
ATOM     70  H36 PSA d   1      23.458  25.646   1.425  0.00  0.00     0.051 H 
ATOM     71  H37 PSA d   1      23.760  26.906   2.669  0.00  0.00     0.051 H 
BRANCH  69  72
ATOM     72  C   PSA d   1      22.697  27.616   0.912  0.00  0.00     0.220 C 
ATOM     73  O   PSA d   1      22.420  27.340  -0.241  0.00  0.00    -0.274 OA
ATOM     74  N   LEU d   1      22.689  29.031   1.346  0.00  0.00    -0.348 N 
ATOM     75  H38 LEU d   1      22.901  29.263   2.295  0.00  0.00     0.163 HD
BRANCH  74  76
ATOM     76  CA  LEU d   1      22.374  30.083   0.394  0.00  0.00     0.089 C 
ATOM     77  H39 LEU d   1      21.445  29.834  -0.140  0.00  0.00     0.087 H 
BRANCH  76  78
ATOM     78  C   LEU d   1      23.508  30.157  -0.624  0.00  0.00     0.241 C 
ATOM     79  O   LEU d   1      24.673  29.972  -0.286  0.00  0.00    -0.271 OA
ATOM     80  N   ALA d   1      23.196  30.440  -2.018  0.00  0.00    -0.346 N 
ATOM     81  H49 ALA d   1      22.252  30.576  -2.319  0.00  0.00     0.163 HD
BRANCH  80  82
ATOM     82  CA  ALA d   1      24.315  30.519  -2.966  0.00  0.00     0.086 C 
ATOM     83  H50 ALA d   1      24.872  29.570  -2.970  0.00  0.00     0.086 H 
BRANCH  82  84
ATOM     84  C   ALA d   1      25.203  31.648  -2.490  0.00  0.00     0.242 C 
ATOM     85  O   ALA d   1      24.694  32.660  -2.007  0.00  0.00    -0.271 OA
ATOM     86  N   ZAE d   1      26.689  31.587  -2.565  0.00  0.00    -0.340 N 
BRANCH  86  87
ATOM     87  CA  ZAE d   1      27.408  32.754  -2.078  0.00  0.00     0.102 C 
ATOM     88  H54 ZAE d   1      26.704  33.391  -1.522  0.00  0.00     0.090 H 
BRANCH  87  89
ATOM     89  C   ZAE d   1      28.459  32.322  -1.134  0.00  0.00     0.197 C 
ATOM     90  O   ZAE d   1      29.650  32.681  -1.324  0.00  0.00    -0.646 OA
ATOM     91  OXT ZAE d   1      28.148  31.608  -0.132  0.00  0.00    -0.646 OA
ENDBRANCH  87  89
BRANCH  87  92
ATOM     92  CB  ZAE d   1      27.923  33.560  -3.253  0.00  0.00    -0.013 C 
ATOM     93  H55 ZAE d   1      28.735  33.021  -3.762  0.00  0.00     0.043 H 
ATOM     94  H56 ZAE d   1      28.290  34.541  -2.915  0.00  0.00     0.043 H 
BRANCH  92  95
ATOM     95  CG  ZAE d   1      26.715  33.733  -4.199  0.00  0.00    -0.056 A 
ATOM     96  CD1 ZAE d   1      25.708  34.784  -3.917  0.00  0.00    -0.077 A 
ATOM     97  CE1 ZAE d   1      24.512  34.952  -4.819  0.00  0.00    -0.082 A 
ATOM     98  H57 ZAE d   1      25.832  35.434  -3.059  0.00  0.00     0.084 H 
ATOM     99  CZ  ZAE d   1      24.340  34.048  -6.016  0.00  0.00    -0.083 A 
ATOM    100  H59 ZAE d   1      23.777  35.720  -4.609  0.00  0.00     0.083 H 
ATOM    101  CE2 ZAE d   1      25.349  32.987  -6.297  0.00  0.00    -0.082 A 
ATOM    102  H61 ZAE d   1      23.484  34.170  -6.670  0.00  0.00     0.083 H 
ATOM    103  CD2 ZAE d   1      26.537  32.813  -5.395  0.00  0.00    -0.077 A 
ATOM    104  H60 ZAE d   1      25.224  32.338  -7.156  0.00  0.00     0.083 H 
ATOM    105  H58 ZAE d   1      27.264  32.035  -5.596  0.00  0.00     0.084 H 
ENDBRANCH  92  95
ENDBRANCH  87  92
ENDBRANCH  86  87
BRANCH  86 106
ATOM    106  C10 ZAE d   1      27.395  30.433  -3.121  0.00  0.00    -0.015 C 
ATOM    107  H62 ZAE d   1      26.665  29.669  -3.426  0.00  0.00     0.056 H 
ATOM    108  H63 ZAE d   1      28.068  30.013  -2.359  0.00  0.00     0.056 H 
ATOM    109  H64 ZAE d   1      27.982  30.749  -3.996  0.00  0.00     0.056 H 
ENDBRANCH  86 106
ENDBRANCH  82  84
BRANCH  82 110
ATOM    110  CB  ALA d   1      23.829  30.816  -4.352  0.00  0.00    -0.049 C 
ATOM    111  H51 ALA d   1      24.687  30.869  -5.038  0.00  0.00     0.030 H 
ATOM    112  H52 ALA d   1      23.297  31.779  -4.356  0.00  0.00     0.030 H 
ATOM    113  H53 ALA d   1      23.146  30.018  -4.680  0.00  0.00     0.030 H 
ENDBRANCH  82 110
ENDBRANCH  80  82
ENDBRANCH  76  78
BRANCH  76 114
ATOM    114  CB  LEU d   1      22.149  31.349   1.171  0.00  0.00    -0.035 C 
ATOM    115  H40 LEU d   1      23.074  31.595   1.713  0.00  0.00     0.037 H 
ATOM    116  H41 LEU d   1      21.337  31.176   1.892  0.00  0.00     0.037 H 
BRANCH 114 117
ATOM    117  CG  LEU d   1      21.776  32.524   0.302  0.00  0.00    -0.059 C 
ATOM    118  H42 LEU d   1      22.438  32.568  -0.575  0.00  0.00     0.038 H 
BRANCH 117 119
ATOM    119  CD1 LEU d   1      20.352  32.416  -0.138  0.00  0.00    -0.073 C 
ATOM    120  H43 LEU d   1      20.097  33.280  -0.770  0.00  0.00     0.028 H 
ATOM    121  H44 LEU d   1      19.696  32.401   0.745  0.00  0.00     0.028 H 
ATOM    122  H45 LEU d   1      20.215  31.488  -0.713  0.00  0.00     0.028 H 
ENDBRANCH 117 119
BRANCH 117 123
ATOM    123  CD2 LEU d   1      21.913  33.777   1.131  0.00  0.00    -0.073 C 
ATOM    124  H46 LEU d   1      22.955  33.881   1.469  0.00  0.00     0.028 H 
ATOM    125  H47 LEU d   1      21.249  33.713   2.005  0.00  0.00     0.028 H 
ATOM    126  H48 LEU d   1      21.636  34.651   0.523  0.00  0.00     0.028 H 
ENDBRANCH 117 123
ENDBRANCH 114 117
ENDBRANCH  76 114
ENDBRANCH  74  76
ENDBRANCH  69  72
ENDBRANCH  65  69
ENDBRANCH   1  65
TORSDOF 35
