REMARK WARNING: 32 MAX_TORS EXCEEDED!!!
REMARK  61 active torsions:
REMARK  status: ('A' for Active; 'I' for Inactive)
REMARK    1  A    between atoms: N_1  and  CA_2 
REMARK    2  A    between atoms: CA_2  and  C_3 
REMARK    3  A    between atoms: CA_2  and  CB_5 
REMARK       I    between atoms: C_3  and  N_12 
REMARK    4  A    between atoms: CB_5  and  CG_6 
REMARK    5  A    between atoms: CG_6  and  CD_7 
REMARK    6  A    between atoms: CD_7  and  NE_8 
REMARK       I    between atoms: NE_8  and  CZ_9 
REMARK       I    between atoms: CZ_9  and  NH1_10 
REMARK       I    between atoms: CZ_9  and  NH2_11 
REMARK    7  A    between atoms: N_12  and  CA_13 
REMARK    8  A    between atoms: CA_13  and  C_14 
REMARK    9  A    between atoms: CA_13  and  CB_16 
REMARK       I    between atoms: C_14  and  N_22 
REMARK   10  A    between atoms: CB_16  and  CG_17 
REMARK   11  A    between atoms: N_22  and  CA_23 
REMARK   12  A    between atoms: CA_23  and  C_24 
REMARK   13  A    between atoms: CA_23  and  CB_26 
REMARK       I    between atoms: C_24  and  N_31 
REMARK   14  A    between atoms: CB_26  and  CG_27 
REMARK   15  A    between atoms: CG_27  and  CD_28 
REMARK   16  A    between atoms: CD_28  and  CE_29 
REMARK   17  A    between atoms: CE_29  and  NZ_30 
REMARK   18  A    between atoms: N_31  and  CA_32 
REMARK   19  A    between atoms: CA_32  and  C_33 
REMARK   20  A    between atoms: CA_32  and  CB_35 
REMARK       I    between atoms: C_33  and  N_39 
REMARK   21  A    between atoms: CB_35  and  CG1_36 
REMARK   22  A    between atoms: CB_35  and  CG2_37 
REMARK   23  A    between atoms: CG1_36  and  CD1_38 
REMARK   24  A    between atoms: N_39  and  CA_40 
REMARK   25  A    between atoms: CA_40  and  C_41 
REMARK   26  A    between atoms: CA_40  and  CB_43 
REMARK       I    between atoms: C_41  and  N_47 
REMARK   27  A    between atoms: CB_43  and  CG_44 
REMARK   28  A    between atoms: CG_44  and  CD1_45 
REMARK   29  A    between atoms: CG_44  and  CD2_46 
REMARK   30  A    between atoms: N_47  and  CA_48 
REMARK   31  A    between atoms: CA_48  and  C_49 
REMARK   32  A    between atoms: CA_48  and  CB_51 
REMARK       I    between atoms: C_49  and  N_57 
REMARK   33  A    between atoms: CB_51  and  CG_52 
REMARK   34  A    between atoms: N_57  and  CA_58 
REMARK   35  A    between atoms: CA_58  and  C_59 
REMARK   36  A    between atoms: CA_58  and  CB_61 
REMARK       I    between atoms: C_59  and  N_68 
REMARK   37  A    between atoms: CB_61  and  CG_62 
REMARK   38  A    between atoms: CG_62  and  CD_63 
REMARK   39  A    between atoms: CD_63  and  NE_64 
REMARK       I    between atoms: NE_64  and  CZ_65 
REMARK       I    between atoms: CZ_65  and  NH1_66 
REMARK   40  A    between atoms: N_68  and  CA_69 
REMARK   41  A    between atoms: CA_69  and  C_70 
REMARK   42  A    between atoms: CA_69  and  CB_72 
REMARK       I    between atoms: C_70  and  N_76 
REMARK   43  A    between atoms: CB_72  and  CG_73 
REMARK   44  A    between atoms: CG_73  and  CD1_74 
REMARK   45  A    between atoms: CG_73  and  CD2_75 
REMARK   46  A    between atoms: N_76  and  CA_77 
REMARK   47  A    between atoms: CA_77  and  C_78 
REMARK   48  A    between atoms: CA_77  and  CB_80 
REMARK       I    between atoms: C_78  and  N_84 
REMARK   49  A    between atoms: CB_80  and  CG_81 
REMARK   50  A    between atoms: CG_81  and  CD1_82 
REMARK   51  A    between atoms: CG_81  and  CD2_83 
REMARK   52  A    between atoms: N_84  and  CA_85 
REMARK   53  A    between atoms: CA_85  and  C_86 
REMARK   54  A    between atoms: CA_85  and  CB_88 
REMARK       I    between atoms: C_86  and  N_93 
REMARK   55  A    between atoms: CB_88  and  CG_89 
REMARK   56  A    between atoms: CG_89  and  CD_90 
REMARK       I    between atoms: CD_90  and  NE2_92 
REMARK   57  A    between atoms: N_93  and  CA_94 
REMARK   58  A    between atoms: CA_94  and  C_95 
REMARK   59  A    between atoms: CA_94  and  CB_97 
REMARK   60  A    between atoms: CB_97  and  CG_98 
REMARK   61  A    between atoms: CG_98  and  CD_99 
ROOT
ATOM      1  CA  HIS d   1     -25.359 -10.631 -13.711  0.00  0.00     0.094 C 
ATOM      2  H59 HIS d   1     -25.544  -9.868 -14.481  0.00  0.00     0.088 H 
ENDROOT
BRANCH   1   3
ATOM      3  N   HIS d   1     -23.949 -10.980 -13.609  0.00  0.00    -0.346 N 
ATOM      4  C   LEU d   1     -23.551 -12.207 -13.917  0.00  0.00     0.241 C 
ATOM      5  O   LEU d   1     -24.296 -13.032 -14.469  0.00  0.00    -0.271 OA
ATOM      6  H58 HIS d   1     -23.283 -10.297 -13.308  0.00  0.00     0.163 HD
BRANCH   4   7
ATOM      7  CA  LEU d   1     -22.134 -12.586 -13.573  0.00  0.00     0.089 C 
ATOM      8  H48 LEU d   1     -21.662 -11.858 -12.896  0.00  0.00     0.087 H 
BRANCH   7   9
ATOM      9  N   LEU d   1     -22.272 -13.895 -12.937  0.00  0.00    -0.346 N 
ATOM     10  C   ILE d   1     -22.949 -14.021 -11.795  0.00  0.00     0.241 C 
ATOM     11  O   ILE d   1     -23.160 -13.063 -11.048  0.00  0.00    -0.271 OA
ATOM     12  H47 LEU d   1     -21.857 -14.700 -13.361  0.00  0.00     0.163 HD
BRANCH  10  13
ATOM     13  CA  ILE d   1     -23.465 -15.417 -11.417  0.00  0.00     0.092 C 
ATOM     14  H37 ILE d   1     -24.134 -15.272 -10.556  0.00  0.00     0.088 H 
BRANCH  13  15
ATOM     15  N   ILE d   1     -24.277 -16.108 -12.443  0.00  0.00    -0.346 N 
ATOM     16  C   LYS d   1     -25.465 -15.634 -12.818  0.00  0.00     0.241 C 
ATOM     17  O   LYS d   1     -25.935 -14.598 -12.349  0.00  0.00    -0.271 OA
ATOM     18  H36 ILE d   1     -23.928 -16.946 -12.863  0.00  0.00     0.163 HD
BRANCH  16  19
ATOM     19  CA  LYS d   1     -26.255 -16.411 -13.881  0.00  0.00     0.089 C 
ATOM     20  H24 LYS d   1     -26.998 -15.708 -14.287  0.00  0.00     0.087 H 
BRANCH  19  21
ATOM     21  N   LYS d   1     -25.447 -16.853 -15.028  0.00  0.00    -0.346 N 
ATOM     22  C   HIS d   1     -25.060 -15.992 -15.945  0.00  0.00     0.241 C 
ATOM     23  O   HIS d   1     -25.151 -14.776 -15.778  0.00  0.00    -0.271 OA
ATOM     24  H23 LYS d   1     -25.190 -17.816 -15.112  0.00  0.00     0.163 HD
BRANCH  22  25
ATOM     25  CA  HIS d   1     -24.408 -16.546 -17.170  0.00  0.00     0.094 C 
ATOM     26  H17 HIS d   1     -23.523 -17.072 -16.782  0.00  0.00     0.088 H 
BRANCH  25  27
ATOM     27  N   HIS d   1     -25.069 -17.553 -17.997  0.00  0.00    -0.346 N 
ATOM     28  C   ARG d   1     -26.142 -17.260 -18.719  0.00  0.00     0.249 C 
ATOM     29  O   ARG d   1     -26.686 -18.045 -19.483  0.00  0.00    -0.271 OA
ATOM     30  H16 HIS d   1     -24.704 -18.484 -18.019  0.00  0.00     0.163 HD
BRANCH  28  31
ATOM     31  CA  ARG d   1     -26.663 -15.855 -18.557  0.00  0.00     0.176 C 
ATOM     32  H4  ARG d   1     -26.385 -15.493 -17.556  0.00  0.00     0.099 H 
BRANCH  31  33
ATOM     33  N   ARG d   1     -26.022 -15.008 -19.548  0.00  0.00    -0.067 N 
ATOM     34  H1  ARG d   1     -26.361 -14.063 -19.452  0.00  0.00     0.275 HD
ATOM     35  H2  ARG d   1     -26.237 -15.350 -20.472  0.00  0.00     0.275 HD
ATOM     36  H3  ARG d   1     -25.024 -15.023 -19.408  0.00  0.00     0.275 HD
ENDBRANCH  31  33
BRANCH  31  37
ATOM     37  CB  ARG d   1     -28.191 -15.798 -18.671  0.00  0.00    -0.029 C 
ATOM     38  H5  ARG d   1     -28.602 -15.618 -17.667  0.00  0.00     0.036 H 
ATOM     39  H6  ARG d   1     -28.542 -16.773 -19.041  0.00  0.00     0.036 H 
BRANCH  37  40
ATOM     40  CG  ARG d   1     -28.730 -14.713 -19.606  0.00  0.00    -0.047 C 
ATOM     41  H7  ARG d   1     -29.827 -14.703 -19.522  0.00  0.00     0.035 H 
ATOM     42  H8  ARG d   1     -28.443 -14.975 -20.635  0.00  0.00     0.035 H 
BRANCH  40  43
ATOM     43  CD  ARG d   1     -28.219 -13.305 -19.314  0.00  0.00     0.009 C 
ATOM     44  H9  ARG d   1     -28.018 -13.219 -18.236  0.00  0.00     0.064 H 
ATOM     45  H10 ARG d   1     -28.996 -12.581 -19.602  0.00  0.00     0.064 H 
BRANCH  43  46
ATOM     46  NE  ARG d   1     -26.995 -12.993 -20.044  0.00  0.00    -0.227 N 
ATOM     47  CZ  ARG d   1     -26.645 -13.544 -21.200  0.00  0.00     0.665 C 
ATOM     48  NH1 ARG d   1     -27.435 -14.424 -21.772  0.00  0.00    -0.235 N 
ATOM     49  NH2 ARG d   1     -25.511 -13.224 -21.787  0.00  0.00    -0.235 N 
ATOM     50  H12 ARG d   1     -27.165 -14.852 -22.669  0.00  0.00     0.174 HD
ATOM     51  H13 ARG d   1     -28.325 -14.686 -21.324  0.00  0.00     0.174 HD
ATOM     52  H14 ARG d   1     -24.881 -12.536 -21.350  0.00  0.00     0.174 HD
ATOM     53  H15 ARG d   1     -25.253 -13.662 -22.683  0.00  0.00     0.174 HD
ATOM     54  H11 ARG d   1     -26.357 -12.296 -19.634  0.00  0.00     0.177 HD
ENDBRANCH  43  46
ENDBRANCH  40  43
ENDBRANCH  37  40
ENDBRANCH  31  37
ENDBRANCH  28  31
ENDBRANCH  25  27
BRANCH  25  55
ATOM     55  CB  HIS d   1     -23.885 -15.424 -18.005  0.00  0.00     0.004 C 
ATOM     56  H18 HIS d   1     -23.386 -14.699 -17.345  0.00  0.00     0.046 H 
ATOM     57  H19 HIS d   1     -24.733 -14.938 -18.509  0.00  0.00     0.046 H 
BRANCH  55  58
ATOM     58  CG  HIS d   1     -22.916 -15.870 -19.035  0.00  0.00     0.053 A 
ATOM     59  ND1 HIS d   1     -22.972 -17.068 -19.572  0.00  0.00    -0.247 NA
ATOM     60  CE1 HIS d   1     -22.003 -17.198 -20.457  0.00  0.00     0.064 A 
ATOM     61  NE2 HIS d   1     -21.327 -16.076 -20.481  0.00  0.00    -0.359 N 
ATOM     62  H21 HIS d   1     -21.801 -18.081 -21.061  0.00  0.00     0.143 H 
ATOM     63  CD2 HIS d   1     -21.861 -15.235 -19.613  0.00  0.00     0.002 A 
ATOM     64  H22 HIS d   1     -20.512 -15.881 -21.079  0.00  0.00     0.166 HD
ATOM     65  H20 HIS d   1     -21.520 -14.223 -19.400  0.00  0.00     0.114 H 
ENDBRANCH  55  58
ENDBRANCH  25  55
ENDBRANCH  22  25
ENDBRANCH  19  21
BRANCH  19  66
ATOM     66  CB  LYS d   1     -27.049 -17.571 -13.241  0.00  0.00    -0.038 C 
ATOM     67  H25 LYS d   1     -27.738 -17.138 -12.501  0.00  0.00     0.036 H 
ATOM     68  H26 LYS d   1     -26.330 -18.230 -12.732  0.00  0.00     0.036 H 
BRANCH  66  69
ATOM     69  CG  LYS d   1     -27.875 -18.433 -14.201  0.00  0.00    -0.061 C 
ATOM     70  H27 LYS d   1     -28.074 -17.848 -15.111  0.00  0.00     0.033 H 
ATOM     71  H28 LYS d   1     -28.827 -18.685 -13.711  0.00  0.00     0.033 H 
BRANCH  69  72
ATOM     72  CD  LYS d   1     -27.174 -19.741 -14.606  0.00  0.00    -0.043 C 
ATOM     73  H29 LYS d   1     -27.909 -20.392 -15.102  0.00  0.00     0.035 H 
ATOM     74  H30 LYS d   1     -26.802 -20.235 -13.696  0.00  0.00     0.035 H 
BRANCH  72  75
ATOM     75  CE  LYS d   1     -25.993 -19.523 -15.560  0.00  0.00     0.080 C 
ATOM     76  H31 LYS d   1     -25.321 -18.782 -15.102  0.00  0.00     0.075 H 
ATOM     77  H32 LYS d   1     -26.391 -19.123 -16.504  0.00  0.00     0.075 H 
BRANCH  75  78
ATOM     78  NZ  LYS d   1     -25.186 -20.736 -15.880  0.00  0.00    -0.079 N 
ATOM     79  H33 LYS d   1     -24.440 -20.486 -16.510  0.00  0.00     0.274 HD
ATOM     80  H34 LYS d   1     -25.776 -21.427 -16.316  0.00  0.00     0.274 HD
ATOM     81  H35 LYS d   1     -24.796 -21.114 -15.031  0.00  0.00     0.274 HD
ENDBRANCH  75  78
ENDBRANCH  72  75
ENDBRANCH  69  72
ENDBRANCH  66  69
ENDBRANCH  19  66
ENDBRANCH  16  19
ENDBRANCH  13  15
BRANCH  13  82
ATOM     82  CB  ILE d   1     -22.314 -16.279 -10.941  0.00  0.00    -0.030 C 
ATOM     83  H38 ILE d   1     -21.528 -16.293 -11.710  0.00  0.00     0.043 H 
BRANCH  82  84
ATOM     84  CG1 ILE d   1     -22.821 -17.713 -10.742  0.00  0.00    -0.063 C 
ATOM     85  H39 ILE d   1     -23.119 -18.105 -11.726  0.00  0.00     0.033 H 
ATOM     86  H40 ILE d   1     -23.700 -17.671 -10.082  0.00  0.00     0.033 H 
BRANCH  84  87
ATOM     87  CD1 ILE d   1     -21.833 -18.686 -10.136  0.00  0.00    -0.076 C 
ATOM     88  H44 ILE d   1     -22.304 -19.676 -10.041  0.00  0.00     0.027 H 
ATOM     89  H45 ILE d   1     -21.529 -18.328  -9.141  0.00  0.00     0.027 H 
ATOM     90  H46 ILE d   1     -20.948 -18.762 -10.785  0.00  0.00     0.027 H 
ENDBRANCH  84  87
ENDBRANCH  82  84
BRANCH  82  91
ATOM     91  CG2 ILE d   1     -21.737 -15.662  -9.678  0.00  0.00    -0.071 C 
ATOM     92  H41 ILE d   1     -21.395 -14.639  -9.893  0.00  0.00     0.028 H 
ATOM     93  H42 ILE d   1     -20.887 -16.267  -9.329  0.00  0.00     0.028 H 
ATOM     94  H43 ILE d   1     -22.511 -15.633  -8.897  0.00  0.00     0.028 H 
ENDBRANCH  82  91
ENDBRANCH  13  82
ENDBRANCH  10  13
ENDBRANCH   7   9
BRANCH   7  95
ATOM     95  CB  LEU d   1     -21.354 -12.690 -14.879  0.00  0.00    -0.035 C 
ATOM     96  H49 LEU d   1     -21.543 -11.751 -15.419  0.00  0.00     0.037 H 
ATOM     97  H50 LEU d   1     -21.802 -13.528 -15.432  0.00  0.00     0.037 H 
BRANCH  95  98
ATOM     98  CG  LEU d   1     -19.846 -12.909 -14.936  0.00  0.00    -0.059 C 
ATOM     99  H51 LEU d   1     -19.550 -13.611 -14.143  0.00  0.00     0.038 H 
BRANCH  98 100
ATOM    100  CD1 LEU d   1     -19.538 -13.513 -16.289  0.00  0.00    -0.073 C 
ATOM    101  H52 LEU d   1     -18.456 -13.689 -16.374  0.00  0.00     0.028 H 
ATOM    102  H53 LEU d   1     -19.861 -12.822 -17.081  0.00  0.00     0.028 H 
ATOM    103  H54 LEU d   1     -20.074 -14.468 -16.395  0.00  0.00     0.028 H 
ENDBRANCH  98 100
BRANCH  98 104
ATOM    104  CD2 LEU d   1     -19.077 -11.612 -14.747  0.00  0.00    -0.073 C 
ATOM    105  H55 LEU d   1     -19.312 -11.187 -13.760  0.00  0.00     0.028 H 
ATOM    106  H56 LEU d   1     -19.365 -10.897 -15.532  0.00  0.00     0.028 H 
ATOM    107  H57 LEU d   1     -17.997 -11.813 -14.812  0.00  0.00     0.028 H 
ENDBRANCH  98 104
ENDBRANCH  95  98
ENDBRANCH   7  95
ENDBRANCH   4   7
ENDBRANCH   1   3
BRANCH   1 108
ATOM    108  C   HIS d   1     -25.694 -10.178 -12.361  0.00  0.00     0.241 C 
ATOM    109  O   HIS d   1     -26.011  -9.015 -12.161  0.00  0.00    -0.271 OA
ATOM    110  N   ARG d   1     -25.627 -11.119 -11.414  0.00  0.00    -0.346 N 
ATOM    111  H65 ARG d   1     -25.400 -12.058 -11.671  0.00  0.00     0.163 HD
BRANCH 110 112
ATOM    112  CA  ARG d   1     -25.878 -10.803 -10.014  0.00  0.00     0.089 C 
ATOM    113  H66 ARG d   1     -26.836 -10.269  -9.931  0.00  0.00     0.087 H 
BRANCH 112 114
ATOM    114  C   ARG d   1     -24.758  -9.890  -9.574  0.00  0.00     0.241 C 
ATOM    115  O   ARG d   1     -25.008  -8.853  -8.941  0.00  0.00    -0.271 OA
ATOM    116  N   LEU d   1     -23.530 -10.259  -9.960  0.00  0.00    -0.346 N 
ATOM    117  H78 LEU d   1     -23.416 -11.136 -10.426  0.00  0.00     0.163 HD
BRANCH 116 118
ATOM    118  CA  LEU d   1     -22.348  -9.426  -9.725  0.00  0.00     0.089 C 
ATOM    119  H79 LEU d   1     -22.303  -9.182  -8.653  0.00  0.00     0.087 H 
BRANCH 118 120
ATOM    120  C   LEU d   1     -22.437  -8.137 -10.517  0.00  0.00     0.241 C 
ATOM    121  O   LEU d   1     -21.831  -7.139 -10.152  0.00  0.00    -0.271 OA
ATOM    122  N   LEU d   1     -23.180  -8.168 -11.616  0.00  0.00    -0.346 N 
ATOM    123  H89 LEU d   1     -23.605  -9.026 -11.904  0.00  0.00     0.163 HD
BRANCH 122 124
ATOM    124  CA  LEU d   1     -23.382  -6.957 -12.408  0.00  0.00     0.089 C 
ATOM    125  H90 LEU d   1     -22.457  -6.365 -12.345  0.00  0.00     0.087 H 
BRANCH 124 126
ATOM    126  C   LEU d   1     -24.509  -6.099 -11.862  0.00  0.00     0.241 C 
ATOM    127  O   LEU d   1     -24.367  -4.884 -11.782  0.00  0.00    -0.271 OA
ATOM    128  N   GLN d   1     -25.615  -6.743 -11.484  0.00  0.00    -0.346 N 
ATOM    129 0H10 GLN d   1     -25.653  -7.735 -11.605  0.00  0.00     0.163 HD
BRANCH 128 130
ATOM    130  CA  GLN d   1     -26.773  -6.068 -10.902  0.00  0.00     0.090 C 
ATOM    131 1H10 GLN d   1     -27.131  -5.343 -11.648  0.00  0.00     0.087 H 
BRANCH 130 132
ATOM    132  C   GLN d   1     -26.427  -5.268  -9.641  0.00  0.00     0.241 C 
ATOM    133  O   GLN d   1     -26.983  -4.186  -9.432  0.00  0.00    -0.271 OA
ATOM    134  N   GLU d   1     -25.518  -5.801  -8.820  0.00  0.00    -0.345 N 
ATOM    135 8H10 GLU d   1     -25.262  -6.759  -8.952  0.00  0.00     0.163 HD
BRANCH 134 136
ATOM    136  CA  GLU d   1     -24.873  -5.047  -7.728  0.00  0.00     0.097 C 
ATOM    137 9H10 GLU d   1     -24.364  -4.184  -8.183  0.00  0.00     0.089 H 
BRANCH 136 138
ATOM    138  C   GLU d   1     -23.816  -5.885  -7.008  0.00  0.00     0.196 C 
ATOM    139  O   GLU d   1     -22.701  -5.388  -6.695  0.00  0.00    -0.646 OA
ATOM    140  O   GLU d   1     -24.063  -7.088  -6.724  0.00  0.00    -0.646 OA
ENDBRANCH 136 138
BRANCH 136 141
ATOM    141  CB  GLU d   1     -25.891  -4.505  -6.713  0.00  0.00    -0.028 C 
ATOM    142 0H11 GLU d   1     -26.019  -5.254  -5.918  0.00  0.00     0.037 H 
ATOM    143 1H11 GLU d   1     -26.849  -4.353  -7.231  0.00  0.00     0.037 H 
BRANCH 141 144
ATOM    144  CG  GLU d   1     -25.480  -3.185  -6.067  0.00  0.00     0.018 C 
ATOM    145 2H11 GLU d   1     -24.436  -3.273  -5.732  0.00  0.00     0.049 H 
ATOM    146 3H11 GLU d   1     -26.130  -3.007  -5.198  0.00  0.00     0.049 H 
BRANCH 144 147
ATOM    147  CD  GLU d   1     -25.586  -1.978  -7.004  0.00  0.00     0.172 C 
ATOM    148  OE1 GLU d   1     -25.643  -2.152  -8.241  0.00  0.00    -0.648 OA
ATOM    149  OE2 GLU d   1     -25.607  -0.833  -6.504  0.00  0.00    -0.648 OA
ENDBRANCH 144 147
ENDBRANCH 141 144
ENDBRANCH 136 141
ENDBRANCH 134 136
ENDBRANCH 130 132
BRANCH 130 150
ATOM    150  CB  GLN d   1     -27.912  -7.064 -10.655  0.00  0.00    -0.030 C 
ATOM    151 2H10 GLN d   1     -28.524  -6.696  -9.818  0.00  0.00     0.037 H 
ATOM    152 3H10 GLN d   1     -27.475  -8.038 -10.389  0.00  0.00     0.037 H 
BRANCH 150 153
ATOM    153  CG  GLN d   1     -28.817  -7.253 -11.874  0.00  0.00     0.011 C 
ATOM    154 4H10 GLN d   1     -28.285  -6.881 -12.762  0.00  0.00     0.047 H 
ATOM    155 5H10 GLN d   1     -29.733  -6.664 -11.721  0.00  0.00     0.047 H 
BRANCH 153 156
ATOM    156  CD  GLN d   1     -29.213  -8.700 -12.123  0.00  0.00     0.215 C 
ATOM    157  OE1 GLN d   1     -29.815  -9.358 -11.270  0.00  0.00    -0.274 OA
ATOM    158  NE2 GLN d   1     -28.872  -9.203 -13.306  0.00  0.00    -0.370 N 
ATOM    159 6H10 GLN d   1     -29.103 -10.149 -13.532  0.00  0.00     0.159 HD
ATOM    160 7H10 GLN d   1     -28.384  -8.635 -13.969  0.00  0.00     0.159 HD
ENDBRANCH 153 156
ENDBRANCH 150 153
ENDBRANCH 130 150
ENDBRANCH 128 130
ENDBRANCH 124 126
BRANCH 124 161
ATOM    161  CB  LEU d   1     -23.618  -7.290 -13.876  0.00  0.00    -0.035 C 
ATOM    162  H91 LEU d   1     -24.116  -6.437 -14.359  0.00  0.00     0.037 H 
ATOM    163  H92 LEU d   1     -24.265  -8.177 -13.941  0.00  0.00     0.037 H 
BRANCH 161 164
ATOM    164  CG  LEU d   1     -22.314  -7.577 -14.605  0.00  0.00    -0.059 C 
ATOM    165  H93 LEU d   1     -21.672  -8.176 -13.943  0.00  0.00     0.038 H 
BRANCH 164 166
ATOM    166  CD1 LEU d   1     -22.578  -8.379 -15.863  0.00  0.00    -0.073 C 
ATOM    167  H94 LEU d   1     -21.626  -8.578 -16.378  0.00  0.00     0.028 H 
ATOM    168  H95 LEU d   1     -23.243  -7.809 -16.529  0.00  0.00     0.028 H 
ATOM    169  H96 LEU d   1     -23.057  -9.333 -15.596  0.00  0.00     0.028 H 
ENDBRANCH 164 166
BRANCH 164 170
ATOM    170  CD2 LEU d   1     -21.586  -6.282 -14.928  0.00  0.00    -0.073 C 
ATOM    171  H97 LEU d   1     -21.407  -5.720 -13.999  0.00  0.00     0.028 H 
ATOM    172  H98 LEU d   1     -22.201  -5.676 -15.610  0.00  0.00     0.028 H 
ATOM    173  H99 LEU d   1     -20.623  -6.512 -15.408  0.00  0.00     0.028 H 
ENDBRANCH 164 170
ENDBRANCH 161 164
ENDBRANCH 124 161
ENDBRANCH 122 124
ENDBRANCH 118 120
BRANCH 118 174
ATOM    174  CB  LEU d   1     -21.062 -10.162 -10.115  0.00  0.00    -0.035 C 
ATOM    175  H80 LEU d   1     -20.232  -9.477  -9.886  0.00  0.00     0.037 H 
ATOM    176  H81 LEU d   1     -21.116 -10.323 -11.202  0.00  0.00     0.037 H 
BRANCH 174 177
ATOM    177  CG  LEU d   1     -20.687 -11.512  -9.498  0.00  0.00    -0.059 C 
ATOM    178  H82 LEU d   1     -21.547 -12.191  -9.596  0.00  0.00     0.038 H 
BRANCH 177 179
ATOM    179  CD1 LEU d   1     -19.522 -12.070 -10.297  0.00  0.00    -0.073 C 
ATOM    180  H83 LEU d   1     -19.224 -13.044  -9.880  0.00  0.00     0.028 H 
ATOM    181  H84 LEU d   1     -18.673 -11.373 -10.243  0.00  0.00     0.028 H 
ATOM    182  H85 LEU d   1     -19.825 -12.198 -11.347  0.00  0.00     0.028 H 
ENDBRANCH 177 179
BRANCH 177 183
ATOM    183  CD2 LEU d   1     -20.333 -11.420  -8.024  0.00  0.00    -0.073 C 
ATOM    184  H86 LEU d   1     -21.190 -11.014  -7.466  0.00  0.00     0.028 H 
ATOM    185  H87 LEU d   1     -19.465 -10.757  -7.896  0.00  0.00     0.028 H 
ATOM    186  H88 LEU d   1     -20.088 -12.422  -7.642  0.00  0.00     0.028 H 
ENDBRANCH 177 183
ENDBRANCH 174 177
ENDBRANCH 118 174
ENDBRANCH 116 118
ENDBRANCH 112 114
BRANCH 112 187
ATOM    187  CB  ARG d   1     -25.956 -12.063  -9.139  0.00  0.00    -0.036 C 
ATOM    188  H67 ARG d   1     -26.476 -11.800  -8.206  0.00  0.00     0.036 H 
ATOM    189  H68 ARG d   1     -24.929 -12.384  -8.909  0.00  0.00     0.036 H 
BRANCH 187 190
ATOM    190  CG  ARG d   1     -26.689 -13.239  -9.776  0.00  0.00    -0.048 C 
ATOM    191  H69 ARG d   1     -26.643 -14.095  -9.086  0.00  0.00     0.035 H 
ATOM    192  H70 ARG d   1     -26.182 -13.499 -10.717  0.00  0.00     0.035 H 
BRANCH 190 193
ATOM    193  CD  ARG d   1     -28.158 -12.937 -10.081  0.00  0.00     0.009 C 
ATOM    194  H71 ARG d   1     -28.289 -11.846 -10.132  0.00  0.00     0.064 H 
ATOM    195  H72 ARG d   1     -28.776 -13.343  -9.267  0.00  0.00     0.064 H 
BRANCH 193 196
ATOM    196  NE  ARG d   1     -28.609 -13.524 -11.351  0.00  0.00    -0.227 N 
ATOM    197  CZ  ARG d   1     -29.018 -14.786 -11.512  0.00  0.00     0.665 C 
ATOM    198  NH1 ARG d   1     -29.041 -15.640 -10.485  0.00  0.00    -0.235 N 
ATOM    199  NH2 ARG d   1     -29.400 -15.201 -12.715  0.00  0.00    -0.235 N 
ATOM    200  H74 ARG d   1     -29.359 -16.609 -10.628  0.00  0.00     0.174 HD
ATOM    201  H75 ARG d   1     -28.740 -15.329  -9.550  0.00  0.00     0.174 HD
ATOM    202  H76 ARG d   1     -29.386 -14.550 -13.513  0.00  0.00     0.174 HD
ATOM    203  H77 ARG d   1     -29.710 -16.174 -12.850  0.00  0.00     0.174 HD
ATOM    204  H73 ARG d   1     -28.610 -12.915 -12.182  0.00  0.00     0.177 HD
ENDBRANCH 193 196
ENDBRANCH 190 193
ENDBRANCH 187 190
ENDBRANCH 112 187
ENDBRANCH 110 112
ENDBRANCH   1 108
BRANCH   1 205
ATOM    205  CB  HIS d   1     -26.185 -11.877 -13.946  0.00  0.00     0.004 C 
ATOM    206  H60 HIS d   1     -26.777 -12.072 -13.040  0.00  0.00     0.046 H 
ATOM    207  H61 HIS d   1     -25.497 -12.717 -14.122  0.00  0.00     0.046 H 
BRANCH 205 208
ATOM    208  CG  HIS d   1     -27.126 -11.793 -15.109  0.00  0.00     0.053 A 
ATOM    209  ND1 HIS d   1     -26.755 -12.137 -16.356  0.00  0.00    -0.247 NA
ATOM    210  CE1 HIS d   1     -27.802 -11.999 -17.185  0.00  0.00     0.064 A 
ATOM    211  NE2 HIS d   1     -28.857 -11.578 -16.461  0.00  0.00    -0.359 N 
ATOM    212  H63 HIS d   1     -27.799 -12.194 -18.256  0.00  0.00     0.143 H 
ATOM    213  CD2 HIS d   1     -28.476 -11.453 -15.174  0.00  0.00     0.002 A 
ATOM    214  H64 HIS d   1     -29.799 -11.384 -16.830  0.00  0.00     0.166 HD
ATOM    215  H62 HIS d   1     -29.105 -11.144 -14.341  0.00  0.00     0.114 H 
ENDBRANCH 205 208
ENDBRANCH   1 205
TORSDOF 61
