REMARK  9 active torsions:
REMARK  status: ('A' for Active; 'I' for Inactive)
REMARK    1  A    between atoms: C7_7  and  N2_12 
REMARK    2  A    between atoms: N2_12  and  C10_13 
REMARK    3  A    between atoms: C13_16  and  O_19 
REMARK    4  A    between atoms: C14_17  and  C16_20 
REMARK    5  A    between atoms: C16_20  and  N3_21 
REMARK    6  A    between atoms: N3_21  and  C17_22 
REMARK    7  A    between atoms: N3_21  and  C19_24 
REMARK    8  A    between atoms: C17_22  and  C18_23 
REMARK    9  A    between atoms: C19_24  and  C20_25 
ROOT
ATOM      1  C10 CQA d   1      31.413  35.160  28.646  0.00  0.00     0.033 A 
ATOM      2  C11 CQA d   1      30.047  34.889  28.937  0.00  0.00    -0.055 A 
ATOM      3  C12 CQA d   1      29.082  35.121  27.946  0.00  0.00    -0.048 A 
ATOM      4  C13 CQA d   1      29.477  35.625  26.686  0.00  0.00     0.073 A 
ATOM      5  C14 CQA d   1      30.826  35.897  26.404  0.00  0.00     0.003 A 
ATOM      6  C15 CQA d   1      31.814  35.666  27.408  0.00  0.00    -0.047 A 
ATOM      7  H7  CQA d   1      29.756  34.509  29.910  0.00  0.00     0.087 H 
ATOM      8  H8  CQA d   1      28.037  34.914  28.146  0.00  0.00     0.087 H 
ATOM      9  H9  CQA d   1      32.858  35.880  27.212  0.00  0.00     0.088 H 
ENDROOT
BRANCH   5  10
ATOM     10  C16 CQA d   1      31.197  36.452  25.014  0.00  0.00     0.110 C 
ATOM     11  H11 CQA d   1      30.424  36.116  24.307  0.00  0.00     0.083 H 
ATOM     12  H12 CQA d   1      32.167  36.016  24.732  0.00  0.00     0.083 H 
BRANCH  10  13
ATOM     13  N3  CQA d   1      31.315  37.930  24.878  0.00  0.00    -0.068 N 
ATOM     14  H13 CQA d   1      32.215  38.136  25.284  0.00  0.00     0.280 HD
BRANCH  13  15
ATOM     15  C17 CQA d   1      30.375  38.693  25.687  0.00  0.00     0.081 C 
ATOM     16  H14 CQA d   1      29.602  37.999  26.049  0.00  0.00     0.075 H 
ATOM     17  H15 CQA d   1      29.912  39.451  25.038  0.00  0.00     0.075 H 
BRANCH  15  18
ATOM     18  C18 CQA d   1      30.947  39.396  26.873  0.00  0.00    -0.053 C 
ATOM     19  H16 CQA d   1      30.146  39.934  27.401  0.00  0.00     0.029 H 
ATOM     20  H17 CQA d   1      31.713  40.112  26.541  0.00  0.00     0.029 H 
ATOM     21  H18 CQA d   1      31.403  38.660  27.551  0.00  0.00     0.029 H 
ENDBRANCH  15  18
ENDBRANCH  13  15
BRANCH  13  22
ATOM     22  C19 CQA d   1      31.421  38.436  23.495  0.00  0.00     0.081 C 
ATOM     23  H19 CQA d   1      30.808  37.778  22.861  0.00  0.00     0.075 H 
ATOM     24  H20 CQA d   1      32.477  38.351  23.199  0.00  0.00     0.075 H 
BRANCH  22  25
ATOM     25  C20 CQA d   1      30.992  39.853  23.210  0.00  0.00    -0.053 C 
ATOM     26  H21 CQA d   1      31.133  40.071  22.141  0.00  0.00     0.029 H 
ATOM     27  H22 CQA d   1      31.599  40.547  23.809  0.00  0.00     0.029 H 
ATOM     28  H23 CQA d   1      29.930  39.974  23.472  0.00  0.00     0.029 H 
ENDBRANCH  22  25
ENDBRANCH  13  22
ENDBRANCH  10  13
ENDBRANCH   5  10
BRANCH   4  29
ATOM     29  O   CQA d   1      28.528  35.859  25.689  0.00  0.00    -0.360 OA
ATOM     30  H10 CQA d   1      27.665  35.633  26.015  0.00  0.00     0.217 HD
ENDBRANCH   4  29
BRANCH   1  31
ATOM     31  N2  CQA d   1      32.412  34.920  29.691  0.00  0.00    -0.355 N 
ATOM     32  H6  CQA d   1      32.968  35.703  30.062  0.00  0.00     0.166 HD
BRANCH  31  33
ATOM     33  C7  CQA d   1      32.620  33.556  30.211  0.00  0.00     0.046 A 
ATOM     34  C4  CQA d   1      33.396  33.395  31.404  0.00  0.00     0.019 A 
ATOM     35  C3  CQA d   1      33.939  34.547  32.061  0.00  0.00    -0.067 A 
ATOM     36  C5  CQA d   1      33.602  32.117  31.898  0.00  0.00     0.070 A 
ATOM     37  C2  CQA d   1      34.694  34.369  33.222  0.00  0.00    -0.061 A 
ATOM     38  H2  CQA d   1      33.766  35.541  31.663  0.00  0.00     0.085 H 
ATOM     39  C1  CQA d   1      34.892  33.053  33.747  0.00  0.00     0.036 A 
ATOM     40  H1  CQA d   1      35.129  35.226  33.724  0.00  0.00     0.086 H 
ATOM     41  C6  CQA d   1      34.351  31.940  33.092  0.00  0.00    -0.033 A 
ATOM     42 CL   CQA d   1      35.821  32.867  35.206  0.00  0.00    -0.084 Cl
ATOM     43  H3  CQA d   1      34.503  30.945  33.495  0.00  0.00     0.089 H 
ATOM     44  N1  CQA d   1      33.053  31.008  31.236  0.00  0.00    -0.260 NA
ATOM     45  C9  CQA d   1      32.299  31.128  30.117  0.00  0.00     0.005 A 
ATOM     46  C8  CQA d   1      32.073  32.405  29.567  0.00  0.00    -0.039 A 
ATOM     47  H5  CQA d   1      31.873  30.248  29.648  0.00  0.00     0.114 H 
ATOM     48  H4  CQA d   1      31.488  32.513  28.661  0.00  0.00     0.089 H 
ENDBRANCH  31  33
ENDBRANCH   1  31
TORSDOF 9
