REMARK  20 active torsions:
REMARK  status: ('A' for Active; 'I' for Inactive)
REMARK    1  A    between atoms: C2_2  and  O19_19 
REMARK    2  A    between atoms: C3_3  and  C33_33 
REMARK    3  A    between atoms: C7_7  and  C5_5 
REMARK    4  A    between atoms: C8_8  and  C7_7 
REMARK    5  A    between atoms: C7_7  and  C9_9 
REMARK    6  A    between atoms: C7_7  and  C10_10 
REMARK    7  A    between atoms: C9_9  and  C12_12 
REMARK    8  A    between atoms: C10_10  and  C11_11 
REMARK    9  A    between atoms: C14_14  and  C16_16 
REMARK   10  A    between atoms: O30_30  and  C15_15 
REMARK   11  A    between atoms: O19_19  and  C20_21 
REMARK   12  A    between atoms: N23_23  and  O22_20 
REMARK   13  A    between atoms: C20_21  and  C21_22 
REMARK       I    between atoms: C21_22  and  N23_23 
REMARK   14  A    between atoms: C25_25  and  C26_26 
REMARK   15  A    between atoms: C25_25  and  C27_27 
REMARK   16  A    between atoms: C25_25  and  C28_28 
REMARK   17  A    between atoms: C31_31  and  C25_25 
REMARK   18  A    between atoms: C29_29  and  O30_30 
REMARK   19  A    between atoms: C29_29  and  C31_31 
REMARK   20  A    between atoms: C31_31  and  O32_32 
ROOT
ATOM      1  C7  0U3 d   1       0.331  34.224  38.803  0.00  0.00     0.013 C 
ENDROOT
BRANCH   1   2
ATOM      2  C5  0U3 d   1       0.772  35.731  38.455  0.00  0.00    -0.044 A 
ATOM      3  C4  0U3 d   1      -0.162  36.848  38.734  0.00  0.00    -0.067 A 
ATOM      4  C3  0U3 d   1       0.152  38.209  38.460  0.00  0.00    -0.028 A 
ATOM      5  H2  0U3 d   1      -1.129  36.618  39.167  0.00  0.00     0.085 H 
ATOM      6  C2  0U3 d   1       1.522  38.527  37.851  0.00  0.00     0.075 A 
ATOM      7  C1  0U3 d   1       2.442  37.469  37.571  0.00  0.00    -0.050 A 
ATOM      8  C6  0U3 d   1       2.077  36.106  37.866  0.00  0.00    -0.073 A 
ATOM      9  H1  0U3 d   1       3.411  37.691  37.138  0.00  0.00     0.087 H 
ATOM     10  H3  0U3 d   1       2.791  35.320  37.647  0.00  0.00     0.084 H 
BRANCH   4  11
ATOM     11  C33 0U3 d   1      -0.924  39.252  38.807  0.00  0.00    -0.049 C 
ATOM     12  H37 0U3 d   1      -0.558  40.257  38.548  0.00  0.00     0.033 H 
ATOM     13  H38 0U3 d   1      -1.143  39.208  39.884  0.00  0.00     0.033 H 
ATOM     14  H39 0U3 d   1      -1.840  39.037  38.237  0.00  0.00     0.033 H 
ENDBRANCH   4  11
BRANCH   6  15
ATOM     15  O19 0U3 d   1       1.854  39.789  37.583  0.00  0.00    -0.342 OA
BRANCH  15  16
ATOM     16  C20 0U3 d   1       2.461  40.463  38.705  0.00  0.00     0.101 C 
ATOM     17  H21 0U3 d   1       2.926  39.718  39.367  0.00  0.00     0.089 H 
ATOM     18  H22 0U3 d   1       1.687  41.014  39.259  0.00  0.00     0.089 H 
BRANCH  16  19
ATOM     19  C21 0U3 d   1       3.528  41.443  38.224  0.00  0.00     0.265 C 
ATOM     20  N23 0U3 d   1       4.033  41.205  37.039  0.00  0.00    -0.236 N 
ATOM     21  H23 0U3 d   1       3.741  40.432  36.475  0.00  0.00     0.197 HD
ATOM     22  O24 0U3 d   1       3.899  42.396  38.900  0.00  0.00    -0.269 OA
BRANCH  20  23
ATOM     23  O22 0U3 d   1       4.990  42.094  36.631  0.00  0.00    -0.287 OA
ATOM     24  H20 0U3 d   1       4.617  42.967  36.599  0.00  0.00     0.244 HD
ENDBRANCH  20  23
ENDBRANCH  16  19
ENDBRANCH  15  16
ENDBRANCH   6  15
ENDBRANCH   1   2
BRANCH   1  25
ATOM     25  C8  0U3 d   1       0.859  32.969  37.955  0.00  0.00    -0.044 A 
ATOM     26  C13 0U3 d   1       1.194  31.645  38.600  0.00  0.00    -0.067 A 
ATOM     27  C14 0U3 d   1       1.646  30.530  37.842  0.00  0.00    -0.028 A 
ATOM     28  H14 0U3 d   1       1.087  31.542  39.674  0.00  0.00     0.085 H 
ATOM     29  C15 0U3 d   1       1.774  30.734  36.308  0.00  0.00     0.074 A 
ATOM     30  C17 0U3 d   1       1.441  32.041  35.727  0.00  0.00    -0.050 A 
ATOM     31  C18 0U3 d   1       1.013  33.083  36.509  0.00  0.00    -0.073 A 
ATOM     32  H18 0U3 d   1       1.536  32.185  34.657  0.00  0.00     0.087 H 
ATOM     33  H19 0U3 d   1       0.780  34.029  36.034  0.00  0.00     0.084 H 
BRANCH  27  34
ATOM     34  C16 0U3 d   1       1.977  29.215  38.519  0.00  0.00    -0.049 C 
ATOM     35  H15 0U3 d   1       1.811  29.308  39.602  0.00  0.00     0.033 H 
ATOM     36  H16 0U3 d   1       3.030  28.960  38.330  0.00  0.00     0.033 H 
ATOM     37  H17 0U3 d   1       1.330  28.422  38.116  0.00  0.00     0.033 H 
ENDBRANCH  27  34
BRANCH  29  38
ATOM     38  O30 0U3 d   1       2.249  29.533  35.495  0.00  0.00    -0.348 OA
BRANCH  38  39
ATOM     39  C29 0U3 d   1       3.126  30.173  34.457  0.00  0.00     0.050 C 
ATOM     40  H33 0U3 d   1       3.329  31.199  34.797  0.00  0.00     0.079 H 
ATOM     41  H34 0U3 d   1       2.546  30.204  33.523  0.00  0.00     0.079 H 
BRANCH  39  42
ATOM     42  C31 0U3 d   1       4.444  29.555  34.131  0.00  0.00     0.062 C 
ATOM     43  H35 0U3 d   1       5.256  30.142  34.584  0.00  0.00     0.087 H 
BRANCH  42  44
ATOM     44  C25 0U3 d   1       4.656  29.566  32.591  0.00  0.00    -0.023 C 
BRANCH  44  45
ATOM     45  C26 0U3 d   1       4.770  28.132  32.015  0.00  0.00    -0.067 C 
ATOM     46  H24 0U3 d   1       4.919  28.185  30.926  0.00  0.00     0.028 H 
ATOM     47  H25 0U3 d   1       3.847  27.575  32.232  0.00  0.00     0.028 H 
ATOM     48  H26 0U3 d   1       5.626  27.618  32.477  0.00  0.00     0.028 H 
ENDBRANCH  44  45
BRANCH  44  49
ATOM     49  C27 0U3 d   1       3.603  30.214  31.608  0.00  0.00    -0.067 C 
ATOM     50  H27 0U3 d   1       3.420  31.258  31.903  0.00  0.00     0.028 H 
ATOM     51  H28 0U3 d   1       2.660  29.649  31.656  0.00  0.00     0.028 H 
ATOM     52  H29 0U3 d   1       3.995  30.187  30.581  0.00  0.00     0.028 H 
ENDBRANCH  44  49
BRANCH  44  53
ATOM     53  C28 0U3 d   1       5.999  30.191  32.483  0.00  0.00    -0.067 C 
ATOM     54  H30 0U3 d   1       6.689  29.702  33.187  0.00  0.00     0.028 H 
ATOM     55  H31 0U3 d   1       5.926  31.262  32.725  0.00  0.00     0.028 H 
ATOM     56  H32 0U3 d   1       6.377  30.072  31.457  0.00  0.00     0.028 H 
ENDBRANCH  44  53
ENDBRANCH  42  44
BRANCH  42  57
ATOM     57  O32 0U3 d   1       4.409  28.268  34.755  0.00  0.00    -0.393 OA
ATOM     58  H36 0U3 d   1       4.292  28.375  35.692  0.00  0.00     0.210 HD
ENDBRANCH  42  57
ENDBRANCH  39  42
ENDBRANCH  38  39
ENDBRANCH  29  38
ENDBRANCH   1  25
BRANCH   1  59
ATOM     59  C9  0U3 d   1      -1.295  34.002  38.756  0.00  0.00    -0.053 C 
ATOM     60  H4  0U3 d   1      -1.720  34.772  39.416  0.00  0.00     0.034 H 
ATOM     61  H5  0U3 d   1      -1.473  33.008  39.191  0.00  0.00     0.034 H 
BRANCH  59  62
ATOM     62  C12 0U3 d   1      -2.155  34.050  37.433  0.00  0.00    -0.075 C 
ATOM     63  H11 0U3 d   1      -3.213  33.871  37.676  0.00  0.00     0.027 H 
ATOM     64  H12 0U3 d   1      -1.802  33.274  36.738  0.00  0.00     0.027 H 
ATOM     65  H13 0U3 d   1      -2.050  35.039  36.963  0.00  0.00     0.027 H 
ENDBRANCH  59  62
ENDBRANCH   1  59
BRANCH   1  66
ATOM     66  C10 0U3 d   1       0.725  34.095  40.390  0.00  0.00    -0.053 C 
ATOM     67  H6  0U3 d   1       0.387  33.097  40.706  0.00  0.00     0.034 H 
ATOM     68  H7  0U3 d   1       0.136  34.864  40.911  0.00  0.00     0.034 H 
BRANCH  66  69
ATOM     69  C11 0U3 d   1       2.205  34.243  40.927  0.00  0.00    -0.075 C 
ATOM     70  H8  0U3 d   1       2.213  34.117  42.020  0.00  0.00     0.027 H 
ATOM     71  H9  0U3 d   1       2.590  35.241  40.670  0.00  0.00     0.027 H 
ATOM     72  H10 0U3 d   1       2.841  33.474  40.465  0.00  0.00     0.027 H 
ENDBRANCH  66  69
ENDBRANCH   1  66
TORSDOF 20
