REMARK  20 active torsions:
REMARK  status: ('A' for Active; 'I' for Inactive)
REMARK    1  A    between atoms: C2_2  and  O19_19 
REMARK    2  A    between atoms: C3_3  and  C33_33 
REMARK    3  A    between atoms: C7_7  and  C5_5 
REMARK    4  A    between atoms: C8_8  and  C7_7 
REMARK    5  A    between atoms: C7_7  and  C9_9 
REMARK    6  A    between atoms: C7_7  and  C10_10 
REMARK    7  A    between atoms: C9_9  and  C12_12 
REMARK    8  A    between atoms: C10_10  and  C11_11 
REMARK    9  A    between atoms: C14_14  and  C16_16 
REMARK   10  A    between atoms: O30_30  and  C15_15 
REMARK   11  A    between atoms: O19_19  and  C20_21 
REMARK   12  A    between atoms: N23_23  and  O22_20 
REMARK   13  A    between atoms: C20_21  and  C21_22 
REMARK       I    between atoms: C21_22  and  N23_23 
REMARK   14  A    between atoms: C25_25  and  C26_26 
REMARK   15  A    between atoms: C25_25  and  C27_27 
REMARK   16  A    between atoms: C25_25  and  C28_28 
REMARK   17  A    between atoms: C31_31  and  C25_25 
REMARK   18  A    between atoms: C29_29  and  O30_30 
REMARK   19  A    between atoms: C29_29  and  C31_31 
REMARK   20  A    between atoms: C31_31  and  O32_32 
ROOT
ATOM      1  C7  0S4 d   1       0.187  34.065  38.909  0.00  0.00     0.013 C 
ENDROOT
BRANCH   1   2
ATOM      2  C5  0S4 d   1       0.653  35.585  38.630  0.00  0.00    -0.044 A 
ATOM      3  C4  0S4 d   1      -0.316  36.708  38.806  0.00  0.00    -0.067 A 
ATOM      4  C3  0S4 d   1       0.052  38.078  38.578  0.00  0.00    -0.028 A 
ATOM      5  H2  0S4 d   1      -1.330  36.482  39.116  0.00  0.00     0.085 H 
ATOM      6  C2  0S4 d   1       1.479  38.366  38.149  0.00  0.00     0.075 A 
ATOM      7  C1  0S4 d   1       2.420  37.304  37.978  0.00  0.00    -0.050 A 
ATOM      8  C6  0S4 d   1       2.021  35.959  38.211  0.00  0.00    -0.073 A 
ATOM      9  H1  0S4 d   1       3.436  37.523  37.671  0.00  0.00     0.087 H 
ATOM     10  H3  0S4 d   1       2.753  35.172  38.075  0.00  0.00     0.084 H 
BRANCH   4  11
ATOM     11  C33 0S4 d   1      -1.018  39.164  38.783  0.00  0.00    -0.049 C 
ATOM     12  H37 0S4 d   1      -0.583  40.152  38.571  0.00  0.00     0.033 H 
ATOM     13  H38 0S4 d   1      -1.374  39.136  39.823  0.00  0.00     0.033 H 
ATOM     14  H39 0S4 d   1      -1.862  38.981  38.102  0.00  0.00     0.033 H 
ENDBRANCH   4  11
BRANCH   6  15
ATOM     15  O19 0S4 d   1       1.851  39.630  37.932  0.00  0.00    -0.342 OA
BRANCH  15  16
ATOM     16  C20 0S4 d   1       2.572  40.285  38.964  0.00  0.00     0.101 C 
ATOM     17  H21 0S4 d   1       2.998  39.521  39.631  0.00  0.00     0.089 H 
ATOM     18  H22 0S4 d   1       1.873  40.918  39.530  0.00  0.00     0.089 H 
BRANCH  16  19
ATOM     19  C21 0S4 d   1       3.698  41.155  38.451  0.00  0.00     0.265 C 
ATOM     20  N23 0S4 d   1       4.085  40.908  37.221  0.00  0.00    -0.236 N 
ATOM     21  H23 0S4 d   1       3.899  40.034  36.773  0.00  0.00     0.197 HD
ATOM     22  O24 0S4 d   1       4.207  42.030  39.141  0.00  0.00    -0.269 OA
BRANCH  20  23
ATOM     23  O22 0S4 d   1       4.758  41.919  36.589  0.00  0.00    -0.287 OA
ATOM     24  H20 0S4 d   1       4.992  41.642  35.711  0.00  0.00     0.244 HD
ENDBRANCH  20  23
ENDBRANCH  16  19
ENDBRANCH  15  16
ENDBRANCH   6  15
ENDBRANCH   1   2
BRANCH   1  25
ATOM     25  C8  0S4 d   1       0.870  32.856  38.066  0.00  0.00    -0.044 A 
ATOM     26  C13 0S4 d   1       1.179  31.501  38.673  0.00  0.00    -0.067 A 
ATOM     27  C14 0S4 d   1       1.783  30.446  37.904  0.00  0.00    -0.028 A 
ATOM     28  H14 0S4 d   1       0.938  31.323  39.715  0.00  0.00     0.085 H 
ATOM     29  C15 0S4 d   1       2.109  30.745  36.417  0.00  0.00     0.074 A 
ATOM     30  C17 0S4 d   1       1.794  32.073  35.859  0.00  0.00    -0.050 A 
ATOM     31  C18 0S4 d   1       1.214  33.051  36.645  0.00  0.00    -0.073 A 
ATOM     32  H18 0S4 d   1       2.020  32.285  34.820  0.00  0.00     0.087 H 
ATOM     33  H19 0S4 d   1       1.000  34.013  36.193  0.00  0.00     0.084 H 
BRANCH  27  34
ATOM     34  C16 0S4 d   1       2.093  29.079  38.524  0.00  0.00    -0.049 C 
ATOM     35  H15 0S4 d   1       1.786  29.077  39.580  0.00  0.00     0.033 H 
ATOM     36  H16 0S4 d   1       3.173  28.882  38.456  0.00  0.00     0.033 H 
ATOM     37  H17 0S4 d   1       1.543  28.297  37.981  0.00  0.00     0.033 H 
ENDBRANCH  27  34
BRANCH  29  38
ATOM     38  O30 0S4 d   1       2.681  29.777  35.637  0.00  0.00    -0.348 OA
BRANCH  38  39
ATOM     39  C29 0S4 d   1       3.481  30.157  34.501  0.00  0.00     0.050 C 
ATOM     40  H33 0S4 d   1       4.341  30.750  34.846  0.00  0.00     0.079 H 
ATOM     41  H34 0S4 d   1       2.870  30.761  33.814  0.00  0.00     0.079 H 
BRANCH  39  42
ATOM     42  C31 0S4 d   1       3.985  28.922  33.770  0.00  0.00     0.062 C 
ATOM     43  H35 0S4 d   1       3.119  28.326  33.447  0.00  0.00     0.087 H 
BRANCH  42  44
ATOM     44  C25 0S4 d   1       4.840  29.227  32.508  0.00  0.00    -0.023 C 
BRANCH  44  45
ATOM     45  C26 0S4 d   1       4.060  30.040  31.454  0.00  0.00    -0.067 C 
ATOM     46  H24 0S4 d   1       4.707  30.229  30.584  0.00  0.00     0.028 H 
ATOM     47  H25 0S4 d   1       3.744  30.999  31.891  0.00  0.00     0.028 H 
ATOM     48  H26 0S4 d   1       3.173  29.472  31.135  0.00  0.00     0.028 H 
ENDBRANCH  44  45
BRANCH  44  49
ATOM     49  C27 0S4 d   1       6.125  30.026  32.806  0.00  0.00    -0.067 C 
ATOM     50  H27 0S4 d   1       6.724  29.490  33.556  0.00  0.00     0.028 H 
ATOM     51  H28 0S4 d   1       5.857  31.020  33.193  0.00  0.00     0.028 H 
ATOM     52  H29 0S4 d   1       6.710  30.138  31.881  0.00  0.00     0.028 H 
ENDBRANCH  44  49
BRANCH  44  53
ATOM     53  C28 0S4 d   1       5.198  27.856  31.919  0.00  0.00    -0.067 C 
ATOM     54  H30 0S4 d   1       4.276  27.294  31.710  0.00  0.00     0.028 H 
ATOM     55  H31 0S4 d   1       5.813  27.297  32.640  0.00  0.00     0.028 H 
ATOM     56  H32 0S4 d   1       5.763  27.994  30.985  0.00  0.00     0.028 H 
ENDBRANCH  44  53
ENDBRANCH  42  44
BRANCH  42  57
ATOM     57  O32 0S4 d   1       4.742  28.172  34.760  0.00  0.00    -0.393 OA
ATOM     58  H36 0S4 d   1       4.172  27.941  35.484  0.00  0.00     0.210 HD
ENDBRANCH  42  57
ENDBRANCH  39  42
ENDBRANCH  38  39
ENDBRANCH  29  38
ENDBRANCH   1  25
BRANCH   1  59
ATOM     59  C9  0S4 d   1      -1.428  33.868  38.715  0.00  0.00    -0.053 C 
ATOM     60  H4  0S4 d   1      -1.910  34.632  39.343  0.00  0.00     0.034 H 
ATOM     61  H5  0S4 d   1      -1.666  32.868  39.107  0.00  0.00     0.034 H 
BRANCH  59  62
ATOM     62  C12 0S4 d   1      -2.120  33.964  37.284  0.00  0.00    -0.075 C 
ATOM     63  H11 0S4 d   1      -3.203  33.800  37.389  0.00  0.00     0.027 H 
ATOM     64  H12 0S4 d   1      -1.696  33.197  36.619  0.00  0.00     0.027 H 
ATOM     65  H13 0S4 d   1      -1.940  34.961  36.855  0.00  0.00     0.027 H 
ENDBRANCH  59  62
ENDBRANCH   1  59
BRANCH   1  66
ATOM     66  C10 0S4 d   1       0.493  33.908  40.525  0.00  0.00    -0.053 C 
ATOM     67  H6  0S4 d   1       0.129  32.910  40.808  0.00  0.00     0.034 H 
ATOM     68  H7  0S4 d   1      -0.115  34.676  41.026  0.00  0.00     0.034 H 
BRANCH  66  69
ATOM     69  C11 0S4 d   1       1.968  34.035  41.144  0.00  0.00    -0.075 C 
ATOM     70  H8  0S4 d   1       1.922  33.894  42.234  0.00  0.00     0.027 H 
ATOM     71  H9  0S4 d   1       2.375  35.032  40.920  0.00  0.00     0.027 H 
ATOM     72  H10 0S4 d   1       2.619  33.266  40.702  0.00  0.00     0.027 H 
ENDBRANCH  66  69
ENDBRANCH   1  66
TORSDOF 20
