REMARK WARNING: 32 MAX_TORS EXCEEDED!!!
REMARK  52 active torsions:
REMARK  status: ('A' for Active; 'I' for Inactive)
REMARK    1  A    between atoms: N_1  and  CA_2 
REMARK    2  A    between atoms: CA_2  and  C_3 
REMARK    3  A    between atoms: CA_2  and  CB_5 
REMARK       I    between atoms: C_3  and  N_12 
REMARK    4  A    between atoms: CB_5  and  CG_6 
REMARK    5  A    between atoms: N_12  and  CA_13 
REMARK    6  A    between atoms: CA_13  and  C_14 
REMARK    7  A    between atoms: CA_13  and  CB_16 
REMARK       I    between atoms: C_14  and  N_24 
REMARK    8  A    between atoms: CB_16  and  CG_17 
REMARK    9  A    between atoms: CZ_22  and  OH_23 
REMARK   10  A    between atoms: CA_25  and  C_26 
REMARK       I    between atoms: C_26  and  N_31 
REMARK   11  A    between atoms: N_31  and  CA_32 
REMARK   12  A    between atoms: CA_32  and  C_33 
REMARK   13  A    between atoms: CA_32  and  CB_35 
REMARK       I    between atoms: C_33  and  N_39 
REMARK   14  A    between atoms: CB_35  and  CG_36 
REMARK   15  A    between atoms: CG_36  and  SD_37 
REMARK   16  A    between atoms: SD_37  and  CE_38 
REMARK   17  A    between atoms: N_39  and  CA_40 
REMARK   18  A    between atoms: CA_40  and  C_41 
REMARK   19  A    between atoms: CA_40  and  CB_43 
REMARK       I    between atoms: C_41  and  N_47 
REMARK   20  A    between atoms: CB_43  and  CG_44 
REMARK   21  A    between atoms: CG_44  and  CD1_45 
REMARK   22  A    between atoms: CG_44  and  CD2_46 
REMARK   23  A    between atoms: N_47  and  CA_48 
REMARK   24  A    between atoms: CA_48  and  C_49 
REMARK   25  A    between atoms: CA_48  and  CB_51 
REMARK       I    between atoms: C_49  and  N_58 
REMARK   26  A    between atoms: CB_51  and  CG_52 
REMARK   27  A    between atoms: CG_52  and  CD_53 
REMARK   28  A    between atoms: CD_53  and  NE_54 
REMARK       I    between atoms: NE_54  and  CZ_55 
REMARK       I    between atoms: CZ_55  and  NH1_56 
REMARK       I    between atoms: CZ_55  and  NH2_57 
REMARK   29  A    between atoms: N_58  and  CA_59 
REMARK   30  A    between atoms: CA_59  and  C_60 
REMARK   31  A    between atoms: CA_59  and  CB_62 
REMARK       I    between atoms: C_60  and  N_70 
REMARK   32  A    between atoms: CB_62  and  CG_63 
REMARK   33  A    between atoms: CZ_68  and  OH_69 
REMARK   34  A    between atoms: N_70  and  CA_71 
REMARK   35  A    between atoms: CA_71  and  C_72 
REMARK   36  A    between atoms: CA_71  and  CB_74 
REMARK       I    between atoms: C_72  and  N_77 
REMARK   37  A    between atoms: CB_74  and  OG1_75 
REMARK   38  A    between atoms: CB_74  and  CG2_76 
REMARK   39  A    between atoms: N_77  and  CA_78 
REMARK   40  A    between atoms: CA_78  and  C_79 
REMARK   41  A    between atoms: CA_78  and  CB_81 
REMARK       I    between atoms: C_79  and  N_85 
REMARK   42  A    between atoms: CB_81  and  CG_82 
REMARK       I    between atoms: CG_82  and  ND2_84 
REMARK   43  A    between atoms: N_85  and  CA_86 
REMARK   44  A    between atoms: CA_86  and  C_87 
REMARK       I    between atoms: C_87  and  N_89 
REMARK   45  A    between atoms: CA_90  and  C_91 
REMARK       I    between atoms: C_91  and  N_96 
REMARK   46  A    between atoms: CA_97  and  C_98 
REMARK       I    between atoms: C_98  and  N_103 
REMARK   47  A    between atoms: CA_104  and  C_105 
REMARK       I    between atoms: C_105  and  N_110 
REMARK   48  A    between atoms: N_110  and  CA_111 
REMARK   49  A    between atoms: CA_111  and  C_112 
REMARK   50  A    between atoms: CA_111  and  CB_114 
REMARK   51  A    between atoms: CB_114  and  OG1_115 
REMARK   52  A    between atoms: CB_114  and  CG2_116 
ROOT
ATOM      1  CA  ARG d   1      15.252 -37.726 -29.066  0.00  0.00     0.089 C 
ATOM      2  H49 ARG d   1      15.759 -38.051 -28.145  0.00  0.00     0.087 H 
ENDROOT
BRANCH   1   3
ATOM      3  N   ARG d   1      14.104 -38.587 -29.305  0.00  0.00    -0.346 N 
ATOM      4  C   LEU d   1      14.036 -39.843 -28.875  0.00  0.00     0.241 C 
ATOM      5  O   LEU d   1      14.932 -40.391 -28.222  0.00  0.00    -0.271 OA
ATOM      6  H48 ARG d   1      13.329 -38.216 -29.817  0.00  0.00     0.163 HD
BRANCH   4   7
ATOM      7  CA  LEU d   1      12.748 -40.586 -29.242  0.00  0.00     0.089 C 
ATOM      8  H38 LEU d   1      12.285 -40.047 -30.082  0.00  0.00     0.087 H 
BRANCH   7   9
ATOM      9  N   LEU d   1      12.993 -41.957 -29.685  0.00  0.00    -0.346 N 
ATOM     10  C   MET d   1      12.689 -42.382 -30.911  0.00  0.00     0.241 C 
ATOM     11  O   MET d   1      12.147 -41.671 -31.764  0.00  0.00    -0.271 OA
ATOM     12  H37 LEU d   1      13.405 -42.602 -29.042  0.00  0.00     0.163 HD
BRANCH  10  13
ATOM     13  CA  MET d   1      13.032 -43.839 -31.217  0.00  0.00     0.090 C 
ATOM     14  H29 MET d   1      13.019 -44.398 -30.270  0.00  0.00     0.087 H 
BRANCH  13  15
ATOM     15  N   MET d   1      12.025 -44.423 -32.106  0.00  0.00    -0.346 N 
ATOM     16  C   PRO d   1      10.847 -44.861 -31.665  0.00  0.00     0.241 C 
ATOM     17  O   PRO d   1      10.543 -44.905 -30.468  0.00  0.00    -0.271 OA
ATOM     18  H28 MET d   1      12.230 -44.496 -33.082  0.00  0.00     0.163 HD
BRANCH  16  19
ATOM     19  CA  PRO d   1       9.858 -45.336 -32.739  0.00  0.00     0.091 C 
ATOM     20  N   PRO d   1       9.308 -46.662 -32.464  0.00  0.00    -0.337 N 
ATOM     21  C   TYR d   1       9.919 -47.775 -32.927  0.00  0.00     0.243 C 
ATOM     22  CD  PRO d   1       8.045 -46.584 -31.702  0.00  0.00    -0.001 C 
ATOM     23  O   TYR d   1      10.937 -47.729 -33.635  0.00  0.00    -0.271 OA
ATOM     24  CG  PRO d   1       7.578 -45.168 -31.933  0.00  0.00    -0.048 C 
ATOM     25  H26 PRO d   1       8.220 -46.770 -30.632  0.00  0.00     0.064 H 
ATOM     26  H27 PRO d   1       7.310 -47.307 -32.085  0.00  0.00     0.064 H 
ATOM     27  CB  PRO d   1       8.612 -44.443 -32.771  0.00  0.00    -0.036 C 
ATOM     28  H24 PRO d   1       6.614 -45.178 -32.463  0.00  0.00     0.035 H 
ATOM     29  H25 PRO d   1       7.460 -44.656 -30.967  0.00  0.00     0.035 H 
ATOM     30  H22 PRO d   1       8.253 -44.319 -33.803  0.00  0.00     0.036 H 
ATOM     31  H23 PRO d   1       8.834 -43.456 -32.339  0.00  0.00     0.036 H 
ATOM     32  H21 PRO d   1      10.366 -45.329 -33.715  0.00  0.00     0.087 H 
BRANCH  21  33
ATOM     33  CA  TYR d   1       9.290 -49.125 -32.531  0.00  0.00     0.093 C 
ATOM     34  H13 TYR d   1       8.959 -49.000 -31.490  0.00  0.00     0.088 H 
BRANCH  33  35
ATOM     35  N   TYR d   1       8.080 -49.463 -33.294  0.00  0.00    -0.346 N 
ATOM     36  C   PHE d   1       7.021 -50.016 -32.704  0.00  0.00     0.249 C 
ATOM     37  O   PHE d   1       7.025 -50.386 -31.525  0.00  0.00    -0.271 OA
ATOM     38  H12 TYR d   1       8.051 -49.274 -34.276  0.00  0.00     0.163 HD
BRANCH  36  39
ATOM     39  CA  PHE d   1       5.778 -50.225 -33.576  0.00  0.00     0.179 C 
ATOM     40  H4  PHE d   1       6.116 -50.309 -34.620  0.00  0.00     0.099 H 
BRANCH  39  41
ATOM     41  N   PHE d   1       5.096 -51.502 -33.212  0.00  0.00    -0.066 N 
ATOM     42  H1  PHE d   1       4.282 -51.625 -33.793  0.00  0.00     0.275 HD
ATOM     43  H2  PHE d   1       4.816 -51.470 -32.244  0.00  0.00     0.275 HD
ATOM     44  H3  PHE d   1       5.729 -52.273 -33.353  0.00  0.00     0.275 HD
ENDBRANCH  39  41
BRANCH  39  45
ATOM     45  CB  PHE d   1       4.794 -49.031 -33.502  0.00  0.00    -0.006 C 
ATOM     46  H5  PHE d   1       3.895 -49.293 -34.079  0.00  0.00     0.043 H 
ATOM     47  H6  PHE d   1       5.282 -48.157 -33.959  0.00  0.00     0.043 H 
BRANCH  45  48
ATOM     48  CG  PHE d   1       4.357 -48.646 -32.091  0.00  0.00    -0.056 A 
ATOM     49  CD1 PHE d   1       4.335 -47.300 -31.706  0.00  0.00    -0.077 A 
ATOM     50  CE1 PHE d   1       3.929 -46.920 -30.413  0.00  0.00    -0.082 A 
ATOM     51  H7  PHE d   1       4.636 -46.538 -32.416  0.00  0.00     0.084 H 
ATOM     52  CZ  PHE d   1       3.538 -47.896 -29.488  0.00  0.00    -0.083 A 
ATOM     53  H9  PHE d   1       3.919 -45.873 -30.133  0.00  0.00     0.083 H 
ATOM     54  CE2 PHE d   1       3.552 -49.246 -29.858  0.00  0.00    -0.082 A 
ATOM     55  H11 PHE d   1       3.226 -47.608 -28.491  0.00  0.00     0.083 H 
ATOM     56  CD2 PHE d   1       3.954 -49.613 -31.157  0.00  0.00    -0.077 A 
ATOM     57  H10 PHE d   1       3.254 -50.007 -29.146  0.00  0.00     0.083 H 
ATOM     58  H8  PHE d   1       3.952 -50.659 -31.440  0.00  0.00     0.084 H 
ENDBRANCH  45  48
ENDBRANCH  39  45
ENDBRANCH  36  39
ENDBRANCH  33  35
BRANCH  33  59
ATOM     59  CB  TYR d   1      10.313 -50.286 -32.511  0.00  0.00    -0.014 C 
ATOM     60  H14 TYR d   1       9.896 -51.088 -31.884  0.00  0.00     0.043 H 
ATOM     61  H15 TYR d   1      11.239 -49.907 -32.054  0.00  0.00     0.043 H 
BRANCH  59  62
ATOM     62  CG  TYR d   1      10.678 -50.896 -33.858  0.00  0.00    -0.056 A 
ATOM     63  CD1 TYR d   1      11.924 -50.640 -34.448  0.00  0.00    -0.074 A 
ATOM     64  CE1 TYR d   1      12.271 -51.203 -35.678  0.00  0.00    -0.051 A 
ATOM     65  H16 TYR d   1      12.631 -49.993 -33.940  0.00  0.00     0.084 H 
ATOM     66  CZ  TYR d   1      11.370 -52.045 -36.326  0.00  0.00     0.065 A 
ATOM     67  H18 TYR d   1      13.234 -50.986 -36.125  0.00  0.00     0.087 H 
ATOM     68  CE2 TYR d   1      10.130 -52.324 -35.758  0.00  0.00    -0.051 A 
ATOM     69  CD2 TYR d   1       9.794 -51.755 -34.528  0.00  0.00    -0.074 A 
ATOM     70  H19 TYR d   1       9.431 -52.978 -36.267  0.00  0.00     0.087 H 
ATOM     71  H17 TYR d   1       8.832 -51.981 -34.082  0.00  0.00     0.084 H 
BRANCH  66  72
ATOM     72  OH  TYR d   1      11.707 -52.607 -37.539  0.00  0.00    -0.361 OA
ATOM     73  H20 TYR d   1      12.578 -52.321 -37.788  0.00  0.00     0.217 HD
ENDBRANCH  66  72
ENDBRANCH  59  62
ENDBRANCH  33  59
ENDBRANCH  21  33
ENDBRANCH  16  19
ENDBRANCH  13  15
BRANCH  13  74
ATOM     74  CB  MET d   1      14.444 -43.973 -31.830  0.00  0.00    -0.030 C 
ATOM     75  H30 MET d   1      14.406 -43.541 -32.841  0.00  0.00     0.037 H 
ATOM     76  H31 MET d   1      14.672 -45.047 -31.899  0.00  0.00     0.037 H 
BRANCH  74  77
ATOM     77  CG  MET d   1      15.628 -43.293 -31.077  0.00  0.00    -0.021 C 
ATOM     78  H32 MET d   1      15.634 -42.235 -31.379  0.00  0.00     0.049 H 
ATOM     79  H33 MET d   1      16.551 -43.779 -31.426  0.00  0.00     0.049 H 
BRANCH  77  80
ATOM     80  SD  MET d   1      15.669 -43.324 -29.251  0.00  0.00    -0.173 SA
BRANCH  80  81
ATOM     81  CE  MET d   1      15.371 -45.056 -28.843  0.00  0.00    -0.035 C 
ATOM     82  H34 MET d   1      15.377 -45.181 -27.750  0.00  0.00     0.041 H 
ATOM     83  H35 MET d   1      16.161 -45.679 -29.288  0.00  0.00     0.041 H 
ATOM     84  H36 MET d   1      14.393 -45.364 -29.242  0.00  0.00     0.041 H 
ENDBRANCH  80  81
ENDBRANCH  77  80
ENDBRANCH  74  77
ENDBRANCH  13  74
ENDBRANCH  10  13
ENDBRANCH   7   9
BRANCH   7  85
ATOM     85  CB  LEU d   1      11.762 -40.561 -28.069  0.00  0.00    -0.035 C 
ATOM     86  H39 LEU d   1      12.297 -40.915 -27.176  0.00  0.00     0.037 H 
ATOM     87  H40 LEU d   1      10.944 -41.257 -28.306  0.00  0.00     0.037 H 
BRANCH  85  88
ATOM     88  CG  LEU d   1      11.134 -39.206 -27.728  0.00  0.00    -0.059 C 
ATOM     89  H41 LEU d   1      11.950 -38.487 -27.566  0.00  0.00     0.038 H 
BRANCH  88  90
ATOM     90  CD1 LEU d   1      10.276 -38.689 -28.876  0.00  0.00    -0.073 C 
ATOM     91  H42 LEU d   1       9.841 -37.717 -28.600  0.00  0.00     0.028 H 
ATOM     92  H43 LEU d   1       9.469 -39.407 -29.082  0.00  0.00     0.028 H 
ATOM     93  H44 LEU d   1      10.899 -38.570 -29.775  0.00  0.00     0.028 H 
ENDBRANCH  88  90
BRANCH  88  94
ATOM     94  CD2 LEU d   1      10.321 -39.291 -26.444  0.00  0.00    -0.073 C 
ATOM     95  H45 LEU d   1      10.959 -39.666 -25.630  0.00  0.00     0.028 H 
ATOM     96  H46 LEU d   1       9.474 -39.977 -26.591  0.00  0.00     0.028 H 
ATOM     97  H47 LEU d   1       9.943 -38.292 -26.183  0.00  0.00     0.028 H 
ENDBRANCH  88  94
ENDBRANCH  85  88
ENDBRANCH   7  85
ENDBRANCH   4   7
ENDBRANCH   1   3
BRANCH   1  98
ATOM     98  C   ARG d   1      14.774 -36.289 -28.887  0.00  0.00     0.241 C 
ATOM     99  O   ARG d   1      13.869 -35.838 -29.593  0.00  0.00    -0.271 OA
ATOM    100  N   TYR d   1      15.377 -35.585 -27.931  0.00  0.00    -0.346 N 
ATOM    101  H61 TYR d   1      16.059 -36.038 -27.356  0.00  0.00     0.163 HD
BRANCH 100 102
ATOM    102  CA  TYR d   1      15.078 -34.175 -27.692  0.00  0.00     0.093 C 
ATOM    103  H62 TYR d   1      14.135 -33.933 -28.204  0.00  0.00     0.088 H 
BRANCH 102 104
ATOM    104  C   TYR d   1      16.182 -33.300 -28.294  0.00  0.00     0.241 C 
ATOM    105  O   TYR d   1      17.225 -33.082 -27.678  0.00  0.00    -0.271 OA
ATOM    106  N   THR d   1      15.943 -32.820 -29.514  0.00  0.00    -0.344 N 
ATOM    107  H70 THR d   1      15.059 -33.011 -29.941  0.00  0.00     0.163 HD
BRANCH 106 108
ATOM    108  CA  THR d   1      16.926 -32.022 -30.254  0.00  0.00     0.113 C 
ATOM    109  H71 THR d   1      17.855 -32.608 -30.310  0.00  0.00     0.091 H 
BRANCH 108 110
ATOM    110  C   THR d   1      17.227 -30.723 -29.521  0.00  0.00     0.243 C 
ATOM    111  O   THR d   1      18.390 -30.391 -29.288  0.00  0.00    -0.271 OA
ATOM    112  N   ASN d   1      16.175 -30.000 -29.150  0.00  0.00    -0.345 N 
ATOM    113  H77 ASN d   1      15.258 -30.286 -29.428  0.00  0.00     0.163 HD
BRANCH 112 114
ATOM    114  CA  ASN d   1      16.338 -28.799 -28.345  0.00  0.00     0.097 C 
ATOM    115  H78 ASN d   1      17.326 -28.381 -28.590  0.00  0.00     0.088 H 
BRANCH 114 116
ATOM    116  C   ASN d   1      16.350 -29.100 -26.850  0.00  0.00     0.241 C 
ATOM    117  O   ASN d   1      16.890 -30.132 -26.436  0.00  0.00    -0.271 OA
ATOM    118  N   GLY d   1      15.767 -28.217 -26.044  0.00  0.00    -0.351 N 
ATOM    119  H83 GLY d   1      15.256 -27.454 -26.440  0.00  0.00     0.163 HD
BRANCH 118 120
ATOM    120  CA  GLY d   1      15.859 -28.341 -24.589  0.00  0.00     0.069 C 
ATOM    121  H84 GLY d   1      15.495 -27.403 -24.145  0.00  0.00     0.078 H 
ATOM    122  H85 GLY d   1      16.918 -28.484 -24.327  0.00  0.00     0.078 H 
BRANCH 120 123
ATOM    123  C   GLY d   1      15.066 -29.488 -23.978  0.00  0.00     0.238 C 
ATOM    124  O   GLY d   1      14.921 -30.552 -24.587  0.00  0.00    -0.272 OA
ATOM    125  N   PRO d   1      14.578 -29.290 -22.742  0.00  0.00    -0.337 N 
ATOM    126  CA  PRO d   1      13.575 -30.191 -22.196  0.00  0.00     0.092 C 
ATOM    127  CD  PRO d   1      15.050 -28.311 -21.743  0.00  0.00    -0.001 C 
ATOM    128  CB  PRO d   1      13.657 -29.926 -20.689  0.00  0.00    -0.036 C 
ATOM    129  H86 PRO d   1      13.803 -31.240 -22.434  0.00  0.00     0.087 H 
ATOM    130  CG  PRO d   1      14.124 -28.517 -20.581  0.00  0.00    -0.048 C 
ATOM    131  H87 PRO d   1      14.374 -30.610 -20.213  0.00  0.00     0.036 H 
ATOM    132  H88 PRO d   1      12.669 -30.045 -20.219  0.00  0.00     0.036 H 
ATOM    133  H89 PRO d   1      14.658 -28.361 -19.632  0.00  0.00     0.035 H 
ATOM    134  H90 PRO d   1      13.272 -27.824 -20.641  0.00  0.00     0.035 H 
ATOM    135  H91 PRO d   1      14.971 -27.285 -22.131  0.00  0.00     0.064 H 
ATOM    136  H92 PRO d   1      16.092 -28.515 -21.456  0.00  0.00     0.064 H 
BRANCH 126 137
ATOM    137  C   PRO d   1      12.186 -29.823 -22.726  0.00  0.00     0.243 C 
ATOM    138  O   PRO d   1      12.008 -28.738 -23.281  0.00  0.00    -0.271 OA
ATOM    139  N   PRO d   1      11.205 -30.729 -22.575  0.00  0.00    -0.337 N 
ATOM    140  CA  PRO d   1       9.822 -30.365 -22.849  0.00  0.00     0.092 C 
ATOM    141  CD  PRO d   1      11.342 -32.160 -22.248  0.00  0.00    -0.001 C 
ATOM    142  CB  PRO d   1       9.108 -31.720 -22.901  0.00  0.00    -0.036 C 
ATOM    143  H93 PRO d   1       9.730 -29.827 -23.804  0.00  0.00     0.087 H 
ATOM    144  CG  PRO d   1       9.928 -32.610 -22.063  0.00  0.00    -0.048 C 
ATOM    145  H94 PRO d   1       9.062 -32.094 -23.934  0.00  0.00     0.036 H 
ATOM    146  H95 PRO d   1       8.089 -31.637 -22.496  0.00  0.00     0.036 H 
ATOM    147  H96 PRO d   1       9.813 -33.654 -22.388  0.00  0.00     0.035 H 
ATOM    148  H97 PRO d   1       9.633 -32.520 -21.007  0.00  0.00     0.035 H 
ATOM    149  H98 PRO d   1      11.923 -32.299 -21.325  0.00  0.00     0.064 H 
ATOM    150  H99 PRO d   1      11.825 -32.707 -23.071  0.00  0.00     0.064 H 
BRANCH 140 151
ATOM    151  C   PRO d   1       9.264 -29.509 -21.714  0.00  0.00     0.243 C 
ATOM    152  O   PRO d   1       9.926 -29.354 -20.684  0.00  0.00    -0.271 OA
ATOM    153  N   PRO d   1       8.067 -28.933 -21.905  0.00  0.00    -0.337 N 
ATOM    154  CA  PRO d   1       7.386 -28.214 -20.830  0.00  0.00     0.091 C 
ATOM    155  CD  PRO d   1       7.408 -28.715 -23.206  0.00  0.00    -0.001 C 
ATOM    156  CB  PRO d   1       6.103 -27.736 -21.509  0.00  0.00    -0.036 C 
ATOM    157 0H10 PRO d   1       7.995 -27.358 -20.504  0.00  0.00     0.087 H 
ATOM    158  CG  PRO d   1       6.484 -27.586 -22.932  0.00  0.00    -0.048 C 
ATOM    159 1H10 PRO d   1       5.774 -26.774 -21.089  0.00  0.00     0.036 H 
ATOM    160 2H10 PRO d   1       5.300 -28.480 -21.396  0.00  0.00     0.036 H 
ATOM    161 3H10 PRO d   1       6.991 -26.624 -23.097  0.00  0.00     0.035 H 
ATOM    162 4H10 PRO d   1       5.596 -27.648 -23.578  0.00  0.00     0.035 H 
ATOM    163 5H10 PRO d   1       6.854 -29.611 -23.523  0.00  0.00     0.064 H 
ATOM    164 6H10 PRO d   1       8.142 -28.445 -23.980  0.00  0.00     0.064 H 
BRANCH 154 165
ATOM    165  C   PRO d   1       7.069 -29.082 -19.600  0.00  0.00     0.241 C 
ATOM    166  O   PRO d   1       6.726 -30.253 -19.738  0.00  0.00    -0.271 OA
ATOM    167  N   THR d   1       7.190 -28.502 -18.411  0.00  0.00    -0.343 N 
ATOM    168 7H10 THR d   1       7.405 -27.527 -18.363  0.00  0.00     0.163 HD
BRANCH 167 169
ATOM    169  CA  THR d   1       7.017 -29.253 -17.180  0.00  0.00     0.120 C 
ATOM    170 8H10 THR d   1       6.450 -30.164 -17.423  0.00  0.00     0.093 H 
BRANCH 169 171
ATOM    171  C   THR d   1       6.206 -28.474 -16.150  0.00  0.00     0.199 C 
ATOM    172  O   THR d   1       6.523 -28.388 -14.957  0.00  0.00    -0.646 OA
ATOM    173  OXT THR d   1       5.168 -27.899 -16.488  0.00  0.00    -0.646 OA
ENDBRANCH 169 171
BRANCH 169 174
ATOM    174  CB  THR d   1       8.378 -29.689 -16.621  0.00  0.00     0.061 C 
ATOM    175 9H10 THR d   1       8.969 -28.795 -16.373  0.00  0.00     0.086 H 
BRANCH 174 176
ATOM    176  OG1 THR d   1       9.057 -30.457 -17.619  0.00  0.00    -0.393 OA
ATOM    177 0H11 THR d   1       9.181 -29.925 -18.396  0.00  0.00     0.210 HD
ENDBRANCH 174 176
BRANCH 174 178
ATOM    178  CG2 THR d   1       8.224 -30.553 -15.368  0.00  0.00    -0.050 C 
ATOM    179 1H11 THR d   1       9.219 -30.844 -14.999  0.00  0.00     0.031 H 
ATOM    180 2H11 THR d   1       7.645 -31.456 -15.614  0.00  0.00     0.031 H 
ATOM    181 3H11 THR d   1       7.697 -29.980 -14.590  0.00  0.00     0.031 H 
ENDBRANCH 174 178
ENDBRANCH 169 174
ENDBRANCH 167 169
ENDBRANCH 154 165
ENDBRANCH 140 151
ENDBRANCH 126 137
ENDBRANCH 120 123
ENDBRANCH 118 120
ENDBRANCH 114 116
BRANCH 114 182
ATOM    182  CB  ASN d   1      15.306 -27.743 -28.722  0.00  0.00     0.036 C 
ATOM    183  H79 ASN d   1      15.261 -26.989 -27.923  0.00  0.00     0.051 H 
ATOM    184  H80 ASN d   1      14.324 -28.227 -28.826  0.00  0.00     0.051 H 
BRANCH 182 185
ATOM    185  CG  ASN d   1      15.651 -27.058 -30.019  0.00  0.00     0.217 C 
ATOM    186  OD1 ASN d   1      15.409 -27.593 -31.107  0.00  0.00    -0.274 OA
ATOM    187  ND2 ASN d   1      16.244 -25.876 -29.916  0.00  0.00    -0.370 N 
ATOM    188  H81 ASN d   1      16.498 -25.371 -30.741  0.00  0.00     0.159 HD
ATOM    189  H82 ASN d   1      16.437 -25.490 -29.014  0.00  0.00     0.159 HD
ENDBRANCH 182 185
ENDBRANCH 114 182
ENDBRANCH 112 114
ENDBRANCH 108 110
BRANCH 108 190
ATOM    190  CB  THR d   1      16.474 -31.708 -31.706  0.00  0.00     0.060 C 
ATOM    191  H72 THR d   1      17.355 -31.392 -32.284  0.00  0.00     0.086 H 
BRANCH 190 192
ATOM    192  OG1 THR d   1      15.518 -30.633 -31.703  0.00  0.00    -0.393 OA
ATOM    193  H73 THR d   1      15.916 -29.858 -31.325  0.00  0.00     0.210 HD
ENDBRANCH 190 192
BRANCH 190 194
ATOM    194  CG2 THR d   1      15.875 -32.949 -32.377  0.00  0.00    -0.050 C 
ATOM    195  H74 THR d   1      15.564 -32.698 -33.402  0.00  0.00     0.031 H 
ATOM    196  H75 THR d   1      15.002 -33.291 -31.802  0.00  0.00     0.031 H 
ATOM    197  H76 THR d   1      16.629 -33.749 -32.408  0.00  0.00     0.031 H 
ENDBRANCH 190 194
ENDBRANCH 108 190
ENDBRANCH 106 108
ENDBRANCH 102 104
BRANCH 102 198
ATOM    198  CB  TYR d   1      14.882 -33.898 -26.192  0.00  0.00    -0.014 C 
ATOM    199  H63 TYR d   1      14.710 -32.819 -26.062  0.00  0.00     0.043 H 
ATOM    200  H64 TYR d   1      15.804 -34.188 -25.666  0.00  0.00     0.043 H 
BRANCH 198 201
ATOM    201  CG  TYR d   1      13.719 -34.644 -25.557  0.00  0.00    -0.056 A 
ATOM    202  CD1 TYR d   1      13.846 -35.984 -25.172  0.00  0.00    -0.074 A 
ATOM    203  CE1 TYR d   1      12.780 -36.680 -24.582  0.00  0.00    -0.051 A 
ATOM    204  H65 TYR d   1      14.788 -36.495 -25.333  0.00  0.00     0.084 H 
ATOM    205  CZ  TYR d   1      11.575 -36.035 -24.369  0.00  0.00     0.065 A 
ATOM    206  H67 TYR d   1      12.900 -37.718 -24.294  0.00  0.00     0.087 H 
ATOM    207  CE2 TYR d   1      11.423 -34.702 -24.742  0.00  0.00    -0.051 A 
ATOM    208  CD2 TYR d   1      12.497 -34.012 -25.331  0.00  0.00    -0.074 A 
ATOM    209  H68 TYR d   1      10.478 -34.197 -24.578  0.00  0.00     0.087 H 
ATOM    210  H66 TYR d   1      12.373 -32.973 -25.614  0.00  0.00     0.084 H 
BRANCH 205 211
ATOM    211  OH  TYR d   1      10.528 -36.721 -23.795  0.00  0.00    -0.361 OA
ATOM    212  H69 TYR d   1      10.801 -37.611 -23.604  0.00  0.00     0.217 HD
ENDBRANCH 205 211
ENDBRANCH 198 201
ENDBRANCH 102 198
ENDBRANCH 100 102
ENDBRANCH   1  98
BRANCH   1 213
ATOM    213  CB  ARG d   1      16.241 -37.828 -30.235  0.00  0.00    -0.036 C 
ATOM    214  H50 ARG d   1      15.721 -37.510 -31.151  0.00  0.00     0.036 H 
ATOM    215  H51 ARG d   1      16.547 -38.880 -30.333  0.00  0.00     0.036 H 
BRANCH 213 216
ATOM    216  CG  ARG d   1      17.504 -36.979 -30.088  0.00  0.00    -0.048 C 
ATOM    217  H52 ARG d   1      17.843 -37.026 -29.043  0.00  0.00     0.035 H 
ATOM    218  H53 ARG d   1      17.263 -35.938 -30.349  0.00  0.00     0.035 H 
BRANCH 216 219
ATOM    219  CD  ARG d   1      18.634 -37.464 -30.994  0.00  0.00     0.009 C 
ATOM    220  H54 ARG d   1      18.843 -38.517 -30.757  0.00  0.00     0.064 H 
ATOM    221  H55 ARG d   1      19.529 -36.858 -30.791  0.00  0.00     0.064 H 
BRANCH 219 222
ATOM    222  NE  ARG d   1      18.319 -37.363 -32.422  0.00  0.00    -0.227 N 
ATOM    223  CZ  ARG d   1      18.547 -36.288 -33.176  0.00  0.00     0.665 C 
ATOM    224  NH1 ARG d   1      19.087 -35.189 -32.652  0.00  0.00    -0.235 N 
ATOM    225  NH2 ARG d   1      18.227 -36.312 -34.465  0.00  0.00    -0.235 N 
ATOM    226  H57 ARG d   1      19.258 -34.365 -33.246  0.00  0.00     0.174 HD
ATOM    227  H58 ARG d   1      19.334 -35.163 -31.652  0.00  0.00     0.174 HD
ATOM    228  H59 ARG d   1      17.809 -37.159 -34.876  0.00  0.00     0.174 HD
ATOM    229  H60 ARG d   1      18.397 -35.484 -35.053  0.00  0.00     0.174 HD
ATOM    230  H56 ARG d   1      17.890 -38.182 -32.876  0.00  0.00     0.177 HD
ENDBRANCH 219 222
ENDBRANCH 216 219
ENDBRANCH 213 216
ENDBRANCH   1 213
TORSDOF 52
