REMARK  2 active torsions:
REMARK  status: ('A' for Active; 'I' for Inactive)
REMARK    1  A    between atoms: CAM_6  and  CAN_7 
REMARK    2  A    between atoms: CAL_12  and  NAA_13 
ROOT
ATOM      1  CAN 0UL d   1      12.881 -37.083  -2.274  0.00  0.00     0.084 A 
ATOM      2  NAI 0UL d   1      11.609 -37.539  -2.340  0.00  0.00    -0.255 NA
ATOM      3  CAG 0UL d   1      10.604 -36.814  -3.003  0.00  0.00     0.050 A 
ATOM      4  CAO 0UL d   1      10.906 -35.642  -3.579  0.00  0.00     0.187 A 
ATOM      5  NAJ 0UL d   1      10.170 -34.764  -4.258  0.00  0.00    -0.041 NA
ATOM      6  CAL 0UL d   1      11.005 -33.777  -4.573  0.00  0.00     0.739 A 
ATOM      7  NAK 0UL d   1      12.237 -34.036  -4.113  0.00  0.00     0.027 NA
ATOM      8  NAP 0UL d   1      12.163 -35.173  -3.519  0.00  0.00    -0.207 N 
ATOM      9  CAH 0UL d   1      13.195 -35.861  -2.870  0.00  0.00     0.035 A 
ATOM     10  H6  0UL d   1       9.587 -37.202  -3.048  0.00  0.00     0.120 H 
ATOM     11  H9  0UL d   1      14.206 -35.457  -2.832  0.00  0.00     0.118 H 
ENDROOT
BRANCH   1  12
ATOM     12  CAM 0UL d   1      13.875 -37.812  -1.606  0.00  0.00    -0.006 A 
ATOM     13  CAE 0UL d   1      13.542 -38.977  -0.896  0.00  0.00    -0.071 A 
ATOM     14  CAC 0UL d   1      14.539 -39.687  -0.219  0.00  0.00    -0.082 A 
ATOM     15  H1  0UL d   1      12.516 -39.325  -0.873  0.00  0.00     0.084 H 
ATOM     16  CAB 0UL d   1      15.868 -39.249  -0.240  0.00  0.00    -0.083 A 
ATOM     17  H2  0UL d   1      14.279 -40.586   0.328  0.00  0.00     0.083 H 
ATOM     18  CAD 0UL d   1      16.200 -38.089  -0.944  0.00  0.00    -0.082 A 
ATOM     19  H3  0UL d   1      16.635 -39.806   0.286  0.00  0.00     0.083 H 
ATOM     20  CAF 0UL d   1      15.209 -37.368  -1.623  0.00  0.00    -0.071 A 
ATOM     21  H4  0UL d   1      17.228 -37.745  -0.965  0.00  0.00     0.083 H 
ATOM     22  H5  0UL d   1      15.471 -36.465  -2.163  0.00  0.00     0.084 H 
ENDBRANCH   1  12
BRANCH   6  23
ATOM     23  NAA 0UL d   1      10.634 -32.691  -5.256  0.00  0.00    -0.230 N 
ATOM     24  H7  0UL d   1       9.657 -32.586  -5.566  0.00  0.00     0.174 HD
ATOM     25  H8  0UL d   1      11.325 -31.958  -5.473  0.00  0.00     0.174 HD
ENDBRANCH   6  23
TORSDOF 2
