REMARK  7 active torsions:
REMARK  status: ('A' for Active; 'I' for Inactive)
REMARK    1  A    between atoms: N11_7  and  C39_34 
REMARK    2  A    between atoms: C31_32  and  C32_33 
REMARK    3  A    between atoms: C39_34  and  C40_35 
REMARK    4  A    between atoms: C40_35  and  C41_36 
REMARK    5  A    between atoms: C41_36  and  C42_37 
REMARK    6  A    between atoms: C42_37  and  C43_38 
REMARK    7  A    between atoms: C43_38  and  N44_39 
ROOT
ATOM      1  O11 0UE d   1      22.136  14.107  25.034  0.00  0.00    -0.084 OA
ATOM      2  O12 0UE d   1      20.063  14.481  23.629  0.00  0.00    -0.175 OA
ATOM      3  O21 0UE d   1      19.791  14.377  26.619  0.00  0.00    -0.084 OA
ATOM      4  O22 0UE d   1      18.969  16.475  25.461  0.00  0.00    -0.175 OA
ATOM      5  O31 0UE d   1      21.409  17.044  24.268  0.00  0.00    -0.084 OA
ATOM      6  O32 0UE d   1      21.832  16.411  26.708  0.00  0.00    -0.175 OA
ATOM      7  N11 0UE d   1      21.817  13.174  24.069  0.00  0.00    -0.203 N 
ATOM      8  C11 0UE d   1      20.727  13.400  23.365  0.00  0.00     0.180 C 
ATOM      9  C12 0UE d   1      20.188  12.537  22.258  0.00  0.00     0.007 C 
ATOM     10  C13 0UE d   1      20.016  11.052  22.556  0.00  0.00     0.016 C 
ATOM     11  C14 0UE d   1      18.644  10.620  23.049  0.00  0.00     0.217 C 
ATOM     12  O13 0UE d   1      17.866  10.033  22.271  0.00  0.00    -0.274 OA
ATOM     13  N12 0UE d   1      18.384  10.892  24.301  0.00  0.00    -0.361 N 
ATOM     14  C15 0UE d   1      17.118  10.538  24.931  0.00  0.00    -0.005 C 
ATOM     15  C16 0UE d   1      17.119  10.912  26.406  0.00  0.00    -0.050 C 
ATOM     16  C18 0UE d   1      17.894  12.757  27.947  0.00  0.00    -0.048 C 
ATOM     17  C17 0UE d   1      17.186  12.399  26.658  0.00  0.00    -0.062 C 
ATOM     18  C19 0UE d   1      18.020  14.265  28.184  0.00  0.00     0.026 C 
ATOM     19  N21 0UE d   1      18.629  14.962  27.064  0.00  0.00    -0.203 N 
ATOM     20  C21 0UE d   1      18.247  16.045  26.432  0.00  0.00     0.180 C 
ATOM     21  C22 0UE d   1      17.012  16.796  26.800  0.00  0.00     0.007 C 
ATOM     22  C23 0UE d   1      17.298  18.202  27.340  0.00  0.00     0.016 C 
ATOM     23  C24 0UE d   1      17.584  19.197  26.232  0.00  0.00     0.217 C 
ATOM     24  O23 0UE d   1      16.811  19.331  25.287  0.00  0.00    -0.274 OA
ATOM     25  N22 0UE d   1      18.709  19.909  26.350  0.00  0.00    -0.361 N 
ATOM     26  C25 0UE d   1      19.130  20.912  25.377  0.00  0.00    -0.005 C 
ATOM     27  C26 0UE d   1      20.484  20.657  24.778  0.00  0.00    -0.050 C 
ATOM     28  C27 0UE d   1      20.560  19.934  23.447  0.00  0.00    -0.062 C 
ATOM     29  C28 0UE d   1      21.922  19.474  23.134  0.00  0.00    -0.048 C 
ATOM     30  C29 0UE d   1      22.784  19.029  24.358  0.00  0.00     0.026 C 
ATOM     31  N31 0UE d   1      22.220  17.851  25.032  0.00  0.00    -0.204 N 
ATOM     32  C31 0UE d   1      22.402  17.470  26.291  0.00  0.00     0.175 A 
ATOM     33 FE   0UE d   1      20.733  15.477  25.283  0.00  0.00     0.000 Fe
ATOM     34  H1  0UE d   1      20.875  12.626  21.404  0.00  0.00     0.046 H 
ATOM     35  H2  0UE d   1      19.202  12.935  21.978  0.00  0.00     0.046 H 
ATOM     36  H3  0UE d   1      20.751  10.777  23.327  0.00  0.00     0.047 H 
ATOM     37  H4  0UE d   1      20.230  10.497  21.631  0.00  0.00     0.047 H 
ATOM     38  H5  0UE d   1      19.079  11.360  24.847  0.00  0.00     0.162 HD
ATOM     39  H6  0UE d   1      16.959   9.454  24.835  0.00  0.00     0.064 H 
ATOM     40  H7  0UE d   1      16.302  11.074  24.425  0.00  0.00     0.064 H 
ATOM     41  H8  0UE d   1      17.991  10.440  26.883  0.00  0.00     0.035 H 
ATOM     42  H9  0UE d   1      16.197  10.524  26.863  0.00  0.00     0.035 H 
ATOM     43  H10 0UE d   1      18.905  12.325  27.919  0.00  0.00     0.035 H 
ATOM     44  H11 0UE d   1      17.331  12.320  28.785  0.00  0.00     0.035 H 
ATOM     45  H12 0UE d   1      16.160  12.792  26.703  0.00  0.00     0.033 H 
ATOM     46  H13 0UE d   1      17.723  12.871  25.822  0.00  0.00     0.033 H 
ATOM     47  H14 0UE d   1      18.638  14.430  29.079  0.00  0.00     0.068 H 
ATOM     48  H15 0UE d   1      17.015  14.680  28.352  0.00  0.00     0.068 H 
ATOM     49  H16 0UE d   1      16.474  16.227  27.573  0.00  0.00     0.046 H 
ATOM     50  H17 0UE d   1      16.379  16.887  25.905  0.00  0.00     0.046 H 
ATOM     51  H18 0UE d   1      18.172  18.154  28.006  0.00  0.00     0.047 H 
ATOM     52  H19 0UE d   1      16.422  18.548  27.908  0.00  0.00     0.047 H 
ATOM     53  H20 0UE d   1      19.292  19.746  27.146  0.00  0.00     0.162 HD
ATOM     54  H21 0UE d   1      19.153  21.891  25.878  0.00  0.00     0.064 H 
ATOM     55  H22 0UE d   1      18.391  20.934  24.563  0.00  0.00     0.064 H 
ATOM     56  H23 0UE d   1      21.054  20.060  25.505  0.00  0.00     0.035 H 
ATOM     57  H24 0UE d   1      20.970  21.635  24.645  0.00  0.00     0.035 H 
ATOM     58  H25 0UE d   1      20.228  20.619  22.653  0.00  0.00     0.033 H 
ATOM     59  H26 0UE d   1      19.892  19.061  23.481  0.00  0.00     0.033 H 
ATOM     60  H27 0UE d   1      22.450  20.297  22.631  0.00  0.00     0.035 H 
ATOM     61  H28 0UE d   1      21.840  18.617  22.449  0.00  0.00     0.035 H 
ATOM     62  H29 0UE d   1      22.834  19.860  25.078  0.00  0.00     0.068 H 
ATOM     63  H30 0UE d   1      23.798  18.786  24.008  0.00  0.00     0.068 H 
ENDROOT
BRANCH   7  64
ATOM     64  C39 0UE d   1      22.812  12.088  24.049  0.00  0.00     0.026 C 
ATOM     65  H34 0UE d   1      23.716  12.436  23.528  0.00  0.00     0.068 H 
ATOM     66  H35 0UE d   1      22.392  11.223  23.516  0.00  0.00     0.068 H 
BRANCH  64  67
ATOM     67  C40 0UE d   1      23.179  11.673  25.460  0.00  0.00    -0.048 C 
ATOM     68  H36 0UE d   1      22.600  10.772  25.713  0.00  0.00     0.035 H 
ATOM     69  H37 0UE d   1      22.900  12.491  26.140  0.00  0.00     0.035 H 
BRANCH  67  70
ATOM     70  C41 0UE d   1      24.667  11.360  25.676  0.00  0.00    -0.062 C 
ATOM     71  H38 0UE d   1      25.233  11.768  24.826  0.00  0.00     0.033 H 
ATOM     72  H39 0UE d   1      24.790  10.267  25.707  0.00  0.00     0.033 H 
BRANCH  70  73
ATOM     73  C42 0UE d   1      25.242  11.942  26.957  0.00  0.00    -0.043 C 
ATOM     74  H40 0UE d   1      24.951  11.303  27.804  0.00  0.00     0.035 H 
ATOM     75  H41 0UE d   1      24.837  12.954  27.105  0.00  0.00     0.035 H 
BRANCH  73  76
ATOM     76  C43 0UE d   1      26.752  12.020  26.895  0.00  0.00     0.080 C 
ATOM     77  H42 0UE d   1      27.147  11.030  26.624  0.00  0.00     0.075 H 
ATOM     78  H43 0UE d   1      27.133  12.308  27.886  0.00  0.00     0.075 H 
BRANCH  76  79
ATOM     79  N44 0UE d   1      27.221  13.010  25.897  0.00  0.00    -0.079 N 
ATOM     80  H44 0UE d   1      28.229  13.028  25.890  0.00  0.00     0.274 HD
ATOM     81  H45 0UE d   1      26.870  13.923  26.139  0.00  0.00     0.274 HD
ATOM     82  H46 0UE d   1      26.883  12.752  24.983  0.00  0.00     0.274 HD
ENDBRANCH  76  79
ENDBRANCH  73  76
ENDBRANCH  70  73
ENDBRANCH  67  70
ENDBRANCH  64  67
ENDBRANCH   7  64
BRANCH  32  83
ATOM     83  C32 0UE d   1      23.266  18.263  27.224  0.00  0.00    -0.013 C 
ATOM     84  H31 0UE d   1      23.672  19.137  26.694  0.00  0.00     0.038 H 
ATOM     85  H32 0UE d   1      24.095  17.634  27.581  0.00  0.00     0.038 H 
ATOM     86  H33 0UE d   1      22.666  18.600  28.082  0.00  0.00     0.038 H 
ENDBRANCH  32  83
TORSDOF 7
