REMARK  4 active torsions:
REMARK  status: ('A' for Active; 'I' for Inactive)
REMARK    1  A    between atoms: C8_25  and  C11_1 
REMARK    2  A    between atoms: C21_7  and  N5_20 
REMARK    3  A    between atoms: C7_24  and  N2_23 
REMARK    4  A    between atoms: C10_35  and  C9_34 
ROOT
ATOM      1  C16 4FJ d   1      24.470  16.186  18.958  0.00  0.00     0.013 C 
ATOM      2  C17 4FJ d   1      25.425  15.105  19.469  0.00  0.00     0.027 C 
ATOM      3  C19 4FJ d   1      23.372  14.959  20.619  0.00  0.00     0.062 A 
ATOM      4  C21 4FJ d   1      22.937  13.469  22.449  0.00  0.00     0.050 A 
ATOM      5  C22 4FJ d   1      22.501  14.461  21.582  0.00  0.00    -0.028 A 
ATOM      6  C23 4FJ d   1      25.733  14.046  18.393  0.00  0.00    -0.031 C 
ATOM      7  C24 4FJ d   1      26.801  14.550  17.418  0.00  0.00     0.021 C 
ATOM      8  C25 4FJ d   1      27.548  16.242  18.842  0.00  0.00     0.021 C 
ATOM      9  O1  4FJ d   1      27.949  15.092  18.087  0.00  0.00    -0.391 OA
ATOM     10  C26 4FJ d   1      26.714  15.733  20.013  0.00  0.00    -0.031 C 
ATOM     11  C18 4FJ d   1      24.663  14.428  20.576  0.00  0.00     0.071 A 
ATOM     12  N4  4FJ d   1      25.059  13.467  21.426  0.00  0.00    -0.260 NA
ATOM     13  C20 4FJ d   1      24.243  12.988  22.348  0.00  0.00     0.028 A 
ATOM     14  N2  4FJ d   1      23.214  15.909  19.681  0.00  0.00    -0.343 N 
ATOM     15  H   4FJ d   1      24.344  16.153  17.876  0.00  0.00     0.066 H 
ATOM     16  H   4FJ d   1      24.844  17.193  19.142  0.00  0.00     0.066 H 
ATOM     17  H   4FJ d   1      21.484  14.847  21.655  0.00  0.00     0.090 H 
ATOM     18  H   4FJ d   1      24.820  13.838  17.835  0.00  0.00     0.037 H 
ATOM     19  H   4FJ d   1      26.104  13.146  18.884  0.00  0.00     0.037 H 
ATOM     20  H   4FJ d   1      26.358  15.344  16.817  0.00  0.00     0.074 H 
ATOM     21  H   4FJ d   1      27.132  13.703  16.817  0.00  0.00     0.074 H 
ATOM     22  H   4FJ d   1      26.969  16.928  18.224  0.00  0.00     0.074 H 
ATOM     23  H   4FJ d   1      28.418  16.794  19.198  0.00  0.00     0.074 H 
ATOM     24  H   4FJ d   1      27.280  14.988  20.572  0.00  0.00     0.037 H 
ATOM     25  H   4FJ d   1      26.468  16.561  20.678  0.00  0.00     0.037 H 
ATOM     26  H   4FJ d   1      24.591  12.214  23.032  0.00  0.00     0.118 H 
ENDROOT
BRANCH  14  27
ATOM     27  C7  4FJ d   1      22.052  16.546  19.427  0.00  0.00     0.056 A 
ATOM     28  C8  4FJ d   1      21.532  17.501  20.308  0.00  0.00    -0.003 A 
ATOM     29  C9  4FJ d   1      20.315  18.141  19.998  0.00  0.00     0.094 A 
ATOM     30  N1  4FJ d   1      19.646  17.833  18.874  0.00  0.00    -0.245 NA
ATOM     31  C2  4FJ d   1      20.119  16.923  18.015  0.00  0.00     0.073 A 
ATOM     32  C1  4FJ d   1      21.322  16.263  18.268  0.00  0.00     0.020 A 
ATOM     33  C3  4FJ d   1      19.401  16.644  16.858  0.00  0.00    -0.017 A 
ATOM     34  C6  4FJ d   1      21.791  15.324  17.354  0.00  0.00    -0.066 A 
ATOM     35  C5  4FJ d   1      21.069  15.044  16.200  0.00  0.00    -0.045 A 
ATOM     36  H   4FJ d   1      22.730  14.805  17.544  0.00  0.00     0.085 H 
ATOM     37  C4  4FJ d   1      19.873  15.704  15.949  0.00  0.00     0.118 A 
ATOM     38  H   4FJ d   1      21.442  14.305  15.491  0.00  0.00     0.088 H 
ATOM     39  F1  4FJ d   1      19.189  15.428  14.819  0.00  0.00    -0.206 F 
ATOM     40  H   4FJ d   1      18.463  17.165  16.663  0.00  0.00     0.091 H 
BRANCH  28  41
ATOM     41  C11 4FJ d   1      22.299  17.839  21.594  0.00  0.00    -0.047 C 
ATOM     42  H   4FJ d   1      22.562  18.897  21.591  0.00  0.00     0.033 H 
ATOM     43  H   4FJ d   1      21.671  17.622  22.458  0.00  0.00     0.033 H 
ATOM     44  H   4FJ d   1      23.207  17.238  21.643  0.00  0.00     0.033 H 
ENDBRANCH  28  41
BRANCH  29  45
ATOM     45  C10 4FJ d   1      19.744  19.085  20.853  0.00  0.00     0.085 A 
ATOM     46  C12 4FJ d   1      18.515  18.788  21.454  0.00  0.00    -0.053 A 
ATOM     47  C13 4FJ d   1      17.921  19.707  22.314  0.00  0.00    -0.079 A 
ATOM     48  H   4FJ d   1      18.023  17.837  21.248  0.00  0.00     0.087 H 
ATOM     49  C14 4FJ d   1      18.578  20.909  22.553  0.00  0.00    -0.066 A 
ATOM     50  H   4FJ d   1      16.964  19.490  22.789  0.00  0.00     0.083 H 
ATOM     51  C15 4FJ d   1      19.803  21.156  21.927  0.00  0.00     0.003 A 
ATOM     52  H   4FJ d   1      18.142  21.651  23.222  0.00  0.00     0.085 H 
ATOM     53  N3  4FJ d   1      20.349  20.261  21.108  0.00  0.00    -0.259 NA
ATOM     54  H   4FJ d   1      20.320  22.098  22.113  0.00  0.00     0.114 H 
ENDBRANCH  29  45
ENDBRANCH  14  27
BRANCH   4  55
ATOM     55  N5  4FJ d   1      22.070  12.966  23.408  0.00  0.00    -0.376 N 
ATOM     56  C27 4FJ d   1      22.330  11.677  24.035  0.00  0.00     0.015 C 
ATOM     57  C28 4FJ d   1      21.034  10.905  24.025  0.00  0.00     0.034 C 
ATOM     58  H   4FJ d   1      23.103  11.135  23.491  0.00  0.00     0.067 H 
ATOM     59  H   4FJ d   1      22.688  11.812  25.056  0.00  0.00     0.067 H 
ATOM     60  O2  4FJ d   1      20.051  11.622  24.778  0.00  0.00    -0.388 OA
ATOM     61  H   4FJ d   1      21.191   9.923  24.471  0.00  0.00     0.076 H 
ATOM     62  H   4FJ d   1      20.690  10.783  22.998  0.00  0.00     0.076 H 
ATOM     63  C29 4FJ d   1      19.666  12.788  24.049  0.00  0.00     0.034 C 
ATOM     64  C30 4FJ d   1      20.870  13.714  23.817  0.00  0.00     0.015 C 
ATOM     65  H   4FJ d   1      19.269  12.481  23.081  0.00  0.00     0.076 H 
ATOM     66  H   4FJ d   1      18.915  13.329  24.625  0.00  0.00     0.076 H 
ATOM     67  H   4FJ d   1      20.615  14.412  23.019  0.00  0.00     0.067 H 
ATOM     68  H   4FJ d   1      21.091  14.227  24.753  0.00  0.00     0.067 H 
ENDBRANCH   4  55
TORSDOF 4
