REMARK  1 active torsions:
REMARK  status: ('A' for Active; 'I' for Inactive)
REMARK    1  A    between atoms: NAM_1  and  CAP_2 
ROOT
ATOM      1  CAP P34 d   1      -1.760  -1.522 -11.944  0.00  0.00     0.026 A 
ATOM      2  CAK P34 d   1      -1.705  -2.790 -11.475  0.00  0.00    -0.045 A 
ATOM      3  CAU P34 d   1      -1.456  -3.860 -12.307  0.00  0.00     0.004 A 
ATOM      4  CAT P34 d   1      -1.352  -5.256 -11.838  0.00  0.00    -0.008 A 
ATOM      5  CAI P34 d   1      -1.499  -5.684 -10.503  0.00  0.00    -0.071 A 
ATOM      6  CAF P34 d   1      -1.312  -7.006 -10.187  0.00  0.00    -0.082 A 
ATOM      7  CAE P34 d   1      -1.006  -7.951 -11.142  0.00  0.00    -0.082 A 
ATOM      8  CAH P34 d   1      -0.911  -7.569 -12.489  0.00  0.00    -0.067 A 
ATOM      9  CAS P34 d   1      -1.048  -6.244 -12.828  0.00  0.00     0.043 A 
ATOM     10  CAQ P34 d   1      -0.986  -5.850 -14.261  0.00  0.00     0.257 A 
ATOM     11  OAD P34 d   1      -0.814  -6.740 -15.070  0.00  0.00    -0.267 OA
ATOM     12  NAN P34 d   1      -1.076  -4.590 -14.629  0.00  0.00    -0.322 N 
ATOM     13  CAR P34 d   1      -1.282  -3.580 -13.776  0.00  0.00     0.046 A 
ATOM     14  CAJ P34 d   1      -1.405  -2.241 -14.243  0.00  0.00    -0.054 A 
ATOM     15  CAG P34 d   1      -1.656  -1.211 -13.322  0.00  0.00    -0.056 A 
ATOM     16  H3  P34 d   1      -1.861  -2.969 -10.417  0.00  0.00     0.088 H 
ATOM     17  H4  P34 d   1      -1.759  -4.971  -9.729  0.00  0.00     0.084 H 
ATOM     18  H5  P34 d   1      -1.408  -7.317  -9.153  0.00  0.00     0.083 H 
ATOM     19  H6  P34 d   1      -0.840  -8.983 -10.855  0.00  0.00     0.083 H 
ATOM     20  H7  P34 d   1      -0.731  -8.313 -13.256  0.00  0.00     0.085 H 
ATOM     21  H8  P34 d   1      -0.985  -4.375 -15.601  0.00  0.00     0.169 HD
ATOM     22  H9  P34 d   1      -1.306  -2.018 -15.299  0.00  0.00     0.087 H 
ATOM     23  H10 P34 d   1      -1.769  -0.188 -13.662  0.00  0.00     0.087 H 
ENDROOT
BRANCH   1  24
ATOM     24  NAM P34 d   1      -2.043  -0.550 -10.981  0.00  0.00    -0.399 N 
ATOM     25  H1  P34 d   1      -2.111  -0.814  -9.988  0.00  0.00     0.156 HD
ATOM     26  H2  P34 d   1      -2.184   0.430 -11.264  0.00  0.00     0.156 HD
ENDBRANCH   1  24
TORSDOF 1
