REMARK  12 active torsions:
REMARK  status: ('A' for Active; 'I' for Inactive)
REMARK    1  A    between atoms: N2_1  and  C1_2 
REMARK    2  A    between atoms: C1_2  and  C6_3 
REMARK    3  A    between atoms: C1_2  and  C2_10 
REMARK    4  A    between atoms: C6_3  and  C7_4 
REMARK    5  A    between atoms: C2_10  and  O2_11 
REMARK    6  A    between atoms: C2_10  and  C3_12 
REMARK       I    between atoms: C3_12  and  N1_14 
REMARK    7  A    between atoms: N1_14  and  C4_15 
REMARK    8  A    between atoms: C4_15  and  C13_16 
REMARK    9  A    between atoms: C4_15  and  C5_20 
REMARK   10  A    between atoms: C13_16  and  C14_17 
REMARK   11  A    between atoms: C14_17  and  C15_18 
REMARK   12  A    between atoms: C14_17  and  C16_19 
ROOT
ATOM      1  C2  BES d   1      29.773  17.290  59.677  0.00  0.00     0.139 C 
ATOM      2  H12 BES d   1      30.262  17.709  58.785  0.00  0.00     0.101 H 
ENDROOT
BRANCH   1   3
ATOM      3  C1  BES d   1      29.931  15.742  59.626  0.00  0.00     0.136 C 
ATOM      4  H4  BES d   1      28.957  15.306  59.893  0.00  0.00     0.089 H 
BRANCH   3   5
ATOM      5  N2  BES d   1      30.921  15.251  60.565  0.00  0.00    -0.072 N 
ATOM      6  H1  BES d   1      30.984  14.248  60.492  0.00  0.00     0.274 HD
ATOM      7  H2  BES d   1      30.649  15.503  61.502  0.00  0.00     0.274 HD
ATOM      8  H3  BES d   1      31.817  15.661  60.353  0.00  0.00     0.274 HD
ENDBRANCH   3   5
BRANCH   3   9
ATOM      9  C6  BES d   1      30.321  15.229  58.230  0.00  0.00    -0.012 C 
ATOM     10  H5  BES d   1      31.284  14.705  58.321  0.00  0.00     0.043 H 
ATOM     11  H6  BES d   1      30.440  16.102  57.572  0.00  0.00     0.043 H 
BRANCH   9  12
ATOM     12  C7  BES d   1      29.335  14.279  57.569  0.00  0.00    -0.056 A 
ATOM     13  C8  BES d   1      28.042  14.697  57.207  0.00  0.00    -0.077 A 
ATOM     14  C9  BES d   1      27.138  13.821  56.588  0.00  0.00    -0.082 A 
ATOM     15  H7  BES d   1      27.738  15.717  57.410  0.00  0.00     0.084 H 
ATOM     16  C10 BES d   1      27.522  12.507  56.322  0.00  0.00    -0.083 A 
ATOM     17  H9  BES d   1      26.146  14.164  56.318  0.00  0.00     0.083 H 
ATOM     18  C11 BES d   1      28.811  12.085  56.673  0.00  0.00    -0.082 A 
ATOM     19  H11 BES d   1      26.831  11.819  55.849  0.00  0.00     0.083 H 
ATOM     20  C12 BES d   1      29.717  12.961  57.288  0.00  0.00    -0.077 A 
ATOM     21  H10 BES d   1      29.113  11.065  56.466  0.00  0.00     0.083 H 
ATOM     22  H8  BES d   1      30.713  12.618  57.546  0.00  0.00     0.084 H 
ENDBRANCH   9  12
ENDBRANCH   3   9
ENDBRANCH   1   3
BRANCH   1  23
ATOM     23  O2  BES d   1      30.337  17.945  60.842  0.00  0.00    -0.384 OA
ATOM     24  H13 BES d   1      31.270  17.772  60.880  0.00  0.00     0.210 HD
ENDBRANCH   1  23
BRANCH   1  25
ATOM     25  C3  BES d   1      28.305  17.600  59.635  0.00  0.00     0.249 C 
ATOM     26  O3  BES d   1      27.640  17.116  60.536  0.00  0.00    -0.271 OA
ATOM     27  N1  BES d   1      27.808  18.359  58.633  0.00  0.00    -0.344 N 
ATOM     28  H14 BES d   1      28.426  18.713  57.931  0.00  0.00     0.163 HD
BRANCH  27  29
ATOM     29  C4  BES d   1      26.364  18.674  58.558  0.00  0.00     0.096 C 
ATOM     30  H15 BES d   1      25.868  18.071  59.333  0.00  0.00     0.089 H 
BRANCH  29  31
ATOM     31  C13 BES d   1      26.173  20.152  58.906  0.00  0.00    -0.034 C 
ATOM     32  H16 BES d   1      25.425  20.595  58.232  0.00  0.00     0.037 H 
ATOM     33  H17 BES d   1      27.130  20.683  58.793  0.00  0.00     0.037 H 
BRANCH  31  34
ATOM     34  C14 BES d   1      25.692  20.270  60.348  0.00  0.00    -0.059 C 
ATOM     35  H18 BES d   1      26.482  19.874  61.003  0.00  0.00     0.038 H 
BRANCH  34  36
ATOM     36  C15 BES d   1      25.486  21.738  60.684  0.00  0.00    -0.073 C 
ATOM     37  H19 BES d   1      25.139  21.831  61.724  0.00  0.00     0.028 H 
ATOM     38  H20 BES d   1      24.733  22.167  60.006  0.00  0.00     0.028 H 
ATOM     39  H21 BES d   1      26.437  22.278  60.565  0.00  0.00     0.028 H 
ENDBRANCH  34  36
BRANCH  34  40
ATOM     40  C16 BES d   1      24.425  19.457  60.610  0.00  0.00    -0.073 C 
ATOM     41  H22 BES d   1      24.608  18.402  60.357  0.00  0.00     0.028 H 
ATOM     42  H23 BES d   1      23.605  19.846  59.989  0.00  0.00     0.028 H 
ATOM     43  H24 BES d   1      24.151  19.538  61.672  0.00  0.00     0.028 H 
ENDBRANCH  34  40
ENDBRANCH  31  34
ENDBRANCH  29  31
BRANCH  29  44
ATOM     44  C5  BES d   1      25.656  18.366  57.253  0.00  0.00     0.196 C 
ATOM     45  O1  BES d   1      25.533  17.159  56.930  0.00  0.00    -0.646 OA
ATOM     46  O4  BES d   1      25.190  19.309  56.556  0.00  0.00    -0.646 OA
ENDBRANCH  29  44
ENDBRANCH  27  29
ENDBRANCH   1  25
TORSDOF 12
