REMARK  12 active torsions:
REMARK  status: ('A' for Active; 'I' for Inactive)
REMARK    1  A    between atoms: C15_1  and  O14_2 
REMARK    2  A    between atoms: O14_2  and  C11_3 
REMARK    3  A    between atoms: C8_9  and  N7_10 
REMARK    4  A    between atoms: N7_10  and  C2_11 
REMARK    5  A    between atoms: C5_14  and  C25_15 
REMARK    6  A    between atoms: C25_15  and  C36_16 
REMARK    7  A    between atoms: C25_15  and  N26_17 
REMARK    8  A    between atoms: N29_22  and  S32_23 
REMARK    9  A    between atoms: S32_23  and  C33_24 
REMARK   10  A    between atoms: C3_28  and  C17_29 
REMARK   11  A    between atoms: C19_32  and  C23_33 
REMARK   12  A    between atoms: C21_35  and  N24_36 
ROOT
ATOM      1  C2  14K d   1      23.293  14.990  22.210  0.00  0.00     0.141 A 
ATOM      2  N1  14K d   1      23.960  15.941  21.534  0.00  0.00    -0.242 NA
ATOM      3  C6  14K d   1      23.516  17.178  21.397  0.00  0.00     0.013 A 
ATOM      4  C5  14K d   1      22.304  17.544  21.979  0.00  0.00    -0.007 A 
ATOM      5  C4  14K d   1      21.567  16.597  22.689  0.00  0.00    -0.056 A 
ATOM      6  C3  14K d   1      22.056  15.303  22.806  0.00  0.00     0.059 A 
ATOM      7  H   14K d   1      24.095  17.908  20.832  0.00  0.00     0.115 H 
ATOM      8  H   14K d   1      20.616  16.870  23.148  0.00  0.00     0.086 H 
ENDROOT
BRANCH   4   9
ATOM      9  C25 14K d   1      21.769  18.985  21.844  0.00  0.00     0.158 C 
ATOM     10  H   14K d   1      21.094  19.263  22.654  0.00  0.00     0.095 H 
BRANCH   9  11
ATOM     11  C36 14K d   1      22.933  20.004  21.935  0.00  0.00    -0.043 C 
ATOM     12  H   14K d   1      23.432  19.899  22.898  0.00  0.00     0.030 H 
ATOM     13  H   14K d   1      23.645  19.812  21.133  0.00  0.00     0.030 H 
ATOM     14  H   14K d   1      22.538  21.015  21.838  0.00  0.00     0.030 H 
ENDBRANCH   9  11
BRANCH   9  15
ATOM     15  N26 14K d   1      21.038  19.027  20.569  0.00  0.00     0.099 N 
ATOM     16  C31 14K d   1      21.380  20.155  19.705  0.00  0.00     0.126 C 
ATOM     17  C30 14K d   1      20.641  19.972  18.383  0.00  0.00     0.018 C 
ATOM     18  H   14K d   1      22.456  20.188  19.535  0.00  0.00     0.081 H 
ATOM     19  H   14K d   1      21.087  21.094  20.175  0.00  0.00     0.081 H 
ATOM     20  N29 14K d   1      19.187  19.935  18.608  0.00  0.00    -0.208 NA
ATOM     21  H   14K d   1      20.954  19.032  17.929  0.00  0.00     0.060 H 
ATOM     22  H   14K d   1      20.877  20.809  17.726  0.00  0.00     0.060 H 
ATOM     23  C28 14K d   1      18.860  18.838  19.520  0.00  0.00     0.018 C 
ATOM     24  C27 14K d   1      19.599  19.083  20.841  0.00  0.00     0.126 C 
ATOM     25  H   14K d   1      17.784  18.799  19.692  0.00  0.00     0.060 H 
ATOM     26  H   14K d   1      19.167  17.885  19.088  0.00  0.00     0.060 H 
ATOM     27  H   14K d   1      19.330  20.057  21.249  0.00  0.00     0.081 H 
ATOM     28  H   14K d   1      19.323  18.325  21.574  0.00  0.00     0.081 H 
BRANCH  20  29
ATOM     29  S32 14K d   1      18.433  19.766  17.155  0.00  0.00     0.207 S 
ATOM     30  O35 14K d   1      17.404  18.667  17.145  0.00  0.00    -0.212 OA
ATOM     31  O34 14K d   1      19.476  19.461  16.127  0.00  0.00    -0.212 OA
BRANCH  29  32
ATOM     32  C33 14K d   1      17.633  21.309  16.773  0.00  0.00     0.028 C 
ATOM     33  H   14K d   1      17.172  21.244  15.787  0.00  0.00     0.050 H 
ATOM     34  H   14K d   1      16.867  21.514  17.520  0.00  0.00     0.050 H 
ATOM     35  H   14K d   1      18.372  22.111  16.778  0.00  0.00     0.050 H 
ENDBRANCH  29  32
ENDBRANCH  20  29
ENDBRANCH   9  15
ENDBRANCH   4   9
BRANCH   6  36
ATOM     36  C17 14K d   1      21.325  14.370  23.544  0.00  0.00     0.184 A 
ATOM     37  N22 14K d   1      20.029  14.564  23.849  0.00  0.00    -0.042 NA
ATOM     38  C21 14K d   1      19.364  13.649  24.581  0.00  0.00     0.723 A 
ATOM     39  N20 14K d   1      19.987  12.535  25.020  0.00  0.00    -0.048 NA
ATOM     40  C19 14K d   1      21.281  12.360  24.739  0.00  0.00     0.143 A 
ATOM     41  N18 14K d   1      21.946  13.272  24.015  0.00  0.00    -0.212 NA
BRANCH  38  42
ATOM     42  N24 14K d   1      18.079  13.828  24.856  0.00  0.00    -0.231 N 
ATOM     43  H   14K d   1      17.570  13.127  25.395  0.00  0.00     0.174 HD
ATOM     44  H   14K d   1      17.599  14.667  24.529  0.00  0.00     0.174 HD
ENDBRANCH  38  42
BRANCH  40  45
ATOM     45  C23 14K d   1      22.013  11.126  25.236  0.00  0.00    -0.019 C 
ATOM     46  H   14K d   1      22.399  10.566  24.384  0.00  0.00     0.037 H 
ATOM     47  H   14K d   1      22.840  11.430  25.877  0.00  0.00     0.037 H 
ATOM     48  H   14K d   1      21.324  10.500  25.802  0.00  0.00     0.037 H 
ENDBRANCH  40  45
ENDBRANCH   6  36
BRANCH   1  49
ATOM     49  N7  14K d   1      23.809  13.750  22.289  0.00  0.00    -0.339 N 
ATOM     50  H   14K d   1      23.305  13.061  22.847  0.00  0.00     0.167 HD
BRANCH  49  51
ATOM     51  C8  14K d   1      24.939  13.358  21.685  0.00  0.00     0.054 A 
ATOM     52  C13 14K d   1      25.149  13.552  20.326  0.00  0.00    -0.014 A 
ATOM     53  C12 14K d   1      26.337  13.107  19.763  0.00  0.00     0.171 A 
ATOM     54  H   14K d   1      24.395  14.045  19.713  0.00  0.00     0.092 H 
ATOM     55  C11 14K d   1      27.292  12.461  20.545  0.00  0.00     0.203 A 
ATOM     56  F16 14K d   1      26.548  13.285  18.451  0.00  0.00    -0.201 F 
ATOM     57  N10 14K d   1      27.047  12.286  21.856  0.00  0.00    -0.232 NA
ATOM     58  C9  14K d   1      25.927  12.704  22.420  0.00  0.00     0.031 A 
ATOM     59  H   14K d   1      25.772  12.533  23.485  0.00  0.00     0.118 H 
BRANCH  55  60
ATOM     60  O14 14K d   1      28.460  12.022  19.962  0.00  0.00    -0.337 OA
BRANCH  60  61
ATOM     61  C15 14K d   1      29.323  11.270  20.831  0.00  0.00     0.012 C 
ATOM     62  H   14K d   1      29.609  11.889  21.681  0.00  0.00     0.067 H 
ATOM     63  H   14K d   1      28.797  10.384  21.186  0.00  0.00     0.067 H 
ATOM     64  H   14K d   1      30.215  10.969  20.283  0.00  0.00     0.067 H 
ENDBRANCH  60  61
ENDBRANCH  55  60
ENDBRANCH  49  51
ENDBRANCH   1  49
TORSDOF 12
