REMARK  17 active torsions:
REMARK  status: ('A' for Active; 'I' for Inactive)
REMARK       I    between atoms: N1_1  and  C11_19 
REMARK    1  A    between atoms: C12_20  and  N1_1 
REMARK    2  A    between atoms: C04_12  and  O1_2 
REMARK       I    between atoms: C13_21  and  N2_3 
REMARK    3  A    between atoms: C06_14  and  O2_4 
REMARK    4  A    between atoms: C05_13  and  O3_5 
REMARK    5  A    between atoms: C07_15  and  O6_8 
REMARK    6  A    between atoms: O6_8  and  C14_22 
REMARK    7  A    between atoms: C02_10  and  C01_9 
REMARK    8  A    between atoms: C01_9  and  C08_16 
REMARK    9  A    between atoms: C01_9  and  C09_17 
REMARK   10  A    between atoms: C01_9  and  C10_18 
REMARK   11  A    between atoms: C03_11  and  C02_10 
REMARK   12  A    between atoms: C04_12  and  C03_11 
REMARK   13  A    between atoms: C05_13  and  C04_12 
REMARK   14  A    between atoms: C06_14  and  C05_13 
REMARK   15  A    between atoms: C07_15  and  C06_14 
REMARK   16  A    between atoms: C11_19  and  C07_15 
REMARK   17  A    between atoms: C12_20  and  C13_21 
ROOT
ATOM      1  C05 Y16 d   1      22.013  -2.750  11.112  0.00  0.00     0.087 C 
ATOM      2  H12 Y16 d   1      21.221  -3.211  10.503  0.00  0.00     0.091 H 
ENDROOT
BRANCH   1   3
ATOM      3  O3  Y16 d   1      22.132  -1.358  10.734  0.00  0.00    -0.390 OA
ATOM      4  H6  Y16 d   1      21.315  -0.910  10.919  0.00  0.00     0.210 HD
ENDBRANCH   1   3
BRANCH   1   5
ATOM      5  C04 Y16 d   1      23.328  -3.482  10.817  0.00  0.00     0.063 C 
ATOM      6  H11 Y16 d   1      24.054  -3.344  11.632  0.00  0.00     0.086 H 
BRANCH   5   7
ATOM      7  O1  Y16 d   1      23.825  -2.917   9.553  0.00  0.00    -0.393 OA
ATOM      8  H2  Y16 d   1      24.617  -3.373   9.293  0.00  0.00     0.210 HD
ENDBRANCH   5   7
BRANCH   5   9
ATOM      9  C03 Y16 d   1      23.036  -4.932  10.607  0.00  0.00    -0.038 C 
ATOM     10  H9  Y16 d   1      21.946  -5.080  10.595  0.00  0.00     0.036 H 
ATOM     11  H10 Y16 d   1      23.459  -5.246   9.642  0.00  0.00     0.036 H 
BRANCH   9  12
ATOM     12  C02 Y16 d   1      23.567  -5.681  11.580  0.00  0.00    -0.057 C 
ATOM     13  H7  Y16 d   1      24.642  -5.447  11.568  0.00  0.00     0.034 H 
ATOM     14  H8  Y16 d   1      23.120  -5.302  12.511  0.00  0.00     0.034 H 
BRANCH  12  15
ATOM     15  C01 Y16 d   1      23.492  -7.181  11.690  0.00  0.00    -0.051 C 
BRANCH  15  16
ATOM     16  C08 Y16 d   1      22.664  -7.808  10.614  0.00  0.00    -0.070 C 
ATOM     17  H15 Y16 d   1      22.650  -8.899  10.751  0.00  0.00     0.028 H 
ATOM     18  H16 Y16 d   1      23.096  -7.567   9.632  0.00  0.00     0.028 H 
ATOM     19  H17 Y16 d   1      21.637  -7.418  10.668  0.00  0.00     0.028 H 
ENDBRANCH  15  16
BRANCH  15  20
ATOM     20  C09 Y16 d   1      22.803  -7.416  13.082  0.00  0.00    -0.070 C 
ATOM     21  H18 Y16 d   1      23.411  -6.955  13.874  0.00  0.00     0.028 H 
ATOM     22  H19 Y16 d   1      22.714  -8.496  13.269  0.00  0.00     0.028 H 
ATOM     23  H20 Y16 d   1      21.802  -6.961  13.077  0.00  0.00     0.028 H 
ENDBRANCH  15  20
BRANCH  15  24
ATOM     24  C10 Y16 d   1      24.900  -7.741  11.748  0.00  0.00    -0.070 C 
ATOM     25  H21 Y16 d   1      25.397  -7.584  10.779  0.00  0.00     0.028 H 
ATOM     26  H22 Y16 d   1      24.858  -8.818  11.968  0.00  0.00     0.028 H 
ATOM     27  H23 Y16 d   1      25.467  -7.227  12.538  0.00  0.00     0.028 H 
ENDBRANCH  15  24
ENDBRANCH  12  15
ENDBRANCH   9  12
ENDBRANCH   5   9
ENDBRANCH   1   5
BRANCH   1  28
ATOM     28  C06 Y16 d   1      21.605  -2.865  12.584  0.00  0.00     0.096 C 
ATOM     29  H13 Y16 d   1      21.879  -3.858  12.968  0.00  0.00     0.091 H 
BRANCH  28  30
ATOM     30  O2  Y16 d   1      22.347  -1.878  13.213  0.00  0.00    -0.390 OA
ATOM     31  H5  Y16 d   1      22.124  -1.032  12.844  0.00  0.00     0.210 HD
ENDBRANCH  28  30
BRANCH  28  32
ATOM     32  C07 Y16 d   1      20.125  -2.642  12.836  0.00  0.00     0.141 C 
ATOM     33  H14 Y16 d   1      19.934  -1.559  12.842  0.00  0.00     0.102 H 
BRANCH  32  34
ATOM     34  O6  Y16 d   1      19.319  -3.197  11.768  0.00  0.00    -0.379 OA
BRANCH  34  35
ATOM     35  C14 Y16 d   1      18.032  -2.592  11.656  0.00  0.00     0.005 C 
ATOM     36  H26 Y16 d   1      17.478  -3.060  10.829  0.00  0.00     0.066 H 
ATOM     37  H27 Y16 d   1      18.148  -1.516  11.457  0.00  0.00     0.066 H 
ATOM     38  H28 Y16 d   1      17.477  -2.733  12.595  0.00  0.00     0.066 H 
ENDBRANCH  34  35
ENDBRANCH  32  34
BRANCH  32  39
ATOM     39  C11 Y16 d   1      19.835  -3.160  14.230  0.00  0.00     0.249 C 
ATOM     40  N1  Y16 d   1      19.556  -2.136  15.002  0.00  0.00    -0.350 N 
ATOM     41  H1  Y16 d   1      19.503  -1.183  14.706  0.00  0.00     0.163 HD
ATOM     42  O4  Y16 d   1      19.789  -4.307  14.419  0.00  0.00    -0.271 OA
BRANCH  40  43
ATOM     43  C12 Y16 d   1      19.338  -2.611  16.354  0.00  0.00     0.069 C 
ATOM     44  H24 Y16 d   1      19.564  -1.784  17.042  0.00  0.00     0.078 H 
ATOM     45  H25 Y16 d   1      20.036  -3.441  16.536  0.00  0.00     0.078 H 
BRANCH  43  46
ATOM     46  C13 Y16 d   1      17.966  -3.095  16.660  0.00  0.00     0.233 C 
ATOM     47  N2  Y16 d   1      17.854  -3.642  17.929  0.00  0.00    -0.369 N 
ATOM     48  H3  Y16 d   1      18.657  -3.698  18.522  0.00  0.00     0.159 HD
ATOM     49  H4  Y16 d   1      16.970  -3.980  18.252  0.00  0.00     0.159 HD
ATOM     50  O5  Y16 d   1      17.024  -3.006  15.909  0.00  0.00    -0.272 OA
ENDBRANCH  43  46
ENDBRANCH  40  43
ENDBRANCH  32  39
ENDBRANCH  28  32
ENDBRANCH   1  28
TORSDOF 17
