REMARK  17 active torsions:
REMARK  status: ('A' for Active; 'I' for Inactive)
REMARK       I    between atoms: N1_1  and  C11_19 
REMARK    1  A    between atoms: C12_20  and  N1_1 
REMARK    2  A    between atoms: C04_12  and  O1_2 
REMARK       I    between atoms: N2_3  and  C18_26 
REMARK    3  A    between atoms: C06_14  and  O2_4 
REMARK    4  A    between atoms: C05_13  and  O3_5 
REMARK    5  A    between atoms: C07_15  and  O6_8 
REMARK    6  A    between atoms: O6_8  and  C22_30 
REMARK    7  A    between atoms: C02_10  and  C01_9 
REMARK    8  A    between atoms: C01_9  and  C08_16 
REMARK    9  A    between atoms: C01_9  and  C09_17 
REMARK   10  A    between atoms: C01_9  and  C10_18 
REMARK   11  A    between atoms: C04_12  and  C03_11 
REMARK   12  A    between atoms: C05_13  and  C04_12 
REMARK   13  A    between atoms: C06_14  and  C05_13 
REMARK   14  A    between atoms: C07_15  and  C06_14 
REMARK   15  A    between atoms: C11_19  and  C07_15 
REMARK   16  A    between atoms: C13_21  and  C12_20 
REMARK   17  A    between atoms: C18_26  and  C19_27 
ROOT
ATOM      1  C07 Y08 d   1      19.991  -2.510  12.618  0.00  0.00     0.141 C 
ATOM      2  H10 Y08 d   1      19.796  -1.432  12.716  0.00  0.00     0.102 H 
ENDROOT
BRANCH   1   3
ATOM      3  O6  Y08 d   1      19.399  -3.018  11.441  0.00  0.00    -0.379 OA
BRANCH   3   4
ATOM      4  C22 Y08 d   1      18.043  -2.500  11.301  0.00  0.00     0.005 C 
ATOM      5  H36 Y08 d   1      17.590  -2.901  10.382  0.00  0.00     0.066 H 
ATOM      6  H37 Y08 d   1      18.074  -1.402  11.245  0.00  0.00     0.066 H 
ATOM      7  H38 Y08 d   1      17.442  -2.807  12.170  0.00  0.00     0.066 H 
ENDBRANCH   3   4
ENDBRANCH   1   3
BRANCH   1   8
ATOM      8  C06 Y08 d   1      21.493  -2.832  12.501  0.00  0.00     0.096 C 
ATOM      9  H9  Y08 d   1      21.654  -3.861  12.855  0.00  0.00     0.091 H 
BRANCH   8  10
ATOM     10  O2  Y08 d   1      22.301  -1.904  13.266  0.00  0.00    -0.390 OA
ATOM     11  H3  Y08 d   1      22.182  -1.026  12.924  0.00  0.00     0.210 HD
ENDBRANCH   8  10
BRANCH   8  12
ATOM     12  C05 Y08 d   1      22.040  -2.676  11.075  0.00  0.00     0.091 C 
ATOM     13  H8  Y08 d   1      21.312  -3.119  10.380  0.00  0.00     0.091 H 
BRANCH  12  14
ATOM     14  O3  Y08 d   1      22.160  -1.261  10.777  0.00  0.00    -0.390 OA
ATOM     15  H4  Y08 d   1      21.321  -0.837  10.915  0.00  0.00     0.210 HD
ENDBRANCH  12  14
BRANCH  12  16
ATOM     16  C04 Y08 d   1      23.389  -3.396  10.861  0.00  0.00     0.079 C 
ATOM     17  H7  Y08 d   1      24.033  -3.215  11.734  0.00  0.00     0.093 H 
BRANCH  16  18
ATOM     18  O1  Y08 d   1      24.025  -2.839   9.713  0.00  0.00    -0.389 OA
ATOM     19  H2  Y08 d   1      24.872  -3.252   9.590  0.00  0.00     0.210 HD
ENDBRANCH  16  18
BRANCH  16  20
ATOM     20  C03 Y08 d   1      23.157  -4.910  10.746  0.00  0.00    -0.076 C 
ATOM     21  C02 Y08 d   1      23.743  -5.666  11.640  0.00  0.00    -0.097 C 
ATOM     22  H5  Y08 d   1      24.370  -5.163  12.375  0.00  0.00     0.077 H 
ATOM     23  H6  Y08 d   1      22.535  -5.334   9.959  0.00  0.00     0.080 H 
BRANCH  21  24
ATOM     24  C01 Y08 d   1      23.634  -7.161  11.749  0.00  0.00    -0.034 C 
BRANCH  24  25
ATOM     25  C08 Y08 d   1      22.795  -7.834  10.637  0.00  0.00    -0.066 C 
ATOM     26  H11 Y08 d   1      22.773  -8.921  10.801  0.00  0.00     0.028 H 
ATOM     27  H12 Y08 d   1      23.246  -7.620   9.657  0.00  0.00     0.028 H 
ATOM     28  H13 Y08 d   1      21.769  -7.439  10.662  0.00  0.00     0.028 H 
ENDBRANCH  24  25
BRANCH  24  29
ATOM     29  C09 Y08 d   1      22.991  -7.455  13.087  0.00  0.00    -0.066 C 
ATOM     30  H14 Y08 d   1      23.578  -6.982  13.888  0.00  0.00     0.028 H 
ATOM     31  H15 Y08 d   1      22.961  -8.543  13.248  0.00  0.00     0.028 H 
ATOM     32  H16 Y08 d   1      21.967  -7.054  13.098  0.00  0.00     0.028 H 
ENDBRANCH  24  29
BRANCH  24  33
ATOM     33  C10 Y08 d   1      25.051  -7.684  11.687  0.00  0.00    -0.066 C 
ATOM     34  H17 Y08 d   1      25.485  -7.452  10.703  0.00  0.00     0.028 H 
ATOM     35  H18 Y08 d   1      25.047  -8.774  11.839  0.00  0.00     0.028 H 
ATOM     36  H19 Y08 d   1      25.653  -7.207  12.474  0.00  0.00     0.028 H 
ENDBRANCH  24  33
ENDBRANCH  21  24
ENDBRANCH  16  20
ENDBRANCH  12  16
ENDBRANCH   8  12
ENDBRANCH   1   8
BRANCH   1  37
ATOM     37  C11 Y08 d   1      19.570  -3.246  13.848  0.00  0.00     0.249 C 
ATOM     38  N1  Y08 d   1      19.474  -2.470  14.951  0.00  0.00    -0.358 N 
ATOM     39  H1  Y08 d   1      19.756  -1.511  14.915  0.00  0.00     0.162 HD
ATOM     40  O4  Y08 d   1      19.371  -4.477  13.867  0.00  0.00    -0.271 OA
BRANCH  38  41
ATOM     41  C12 Y08 d   1      18.948  -3.044  16.219  0.00  0.00     0.000 C 
ATOM     42  H20 Y08 d   1      18.187  -3.801  15.978  0.00  0.00     0.064 H 
ATOM     43  H21 Y08 d   1      18.489  -2.238  16.811  0.00  0.00     0.064 H 
BRANCH  41  44
ATOM     44  C13 Y08 d   1      20.046  -3.695  17.042  0.00  0.00    -0.023 C 
ATOM     45  C14 Y08 d   1      20.577  -4.963  16.302  0.00  0.00    -0.057 C 
ATOM     46  C15 Y08 d   1      21.461  -5.986  17.083  0.00  0.00    -0.050 C 
ATOM     47  H23 Y08 d   1      21.173  -4.611  15.447  0.00  0.00     0.033 H 
ATOM     48  H24 Y08 d   1      19.698  -5.513  15.935  0.00  0.00     0.033 H 
ATOM     49  C16 Y08 d   1      20.758  -6.307  18.403  0.00  0.00    -0.002 C 
ATOM     50  H25 Y08 d   1      22.450  -5.548  17.284  0.00  0.00     0.035 H 
ATOM     51  H26 Y08 d   1      21.580  -6.905  16.491  0.00  0.00     0.035 H 
ATOM     52  N2  Y08 d   1      20.465  -4.993  19.036  0.00  0.00    -0.351 N 
ATOM     53  H27 Y08 d   1      19.825  -6.859  18.216  0.00  0.00     0.064 H 
ATOM     54  H28 Y08 d   1      21.415  -6.906  19.051  0.00  0.00     0.064 H 
ATOM     55  C17 Y08 d   1      19.429  -4.158  18.363  0.00  0.00     0.002 C 
ATOM     56  C18 Y08 d   1      21.037  -4.518  20.179  0.00  0.00     0.224 C 
ATOM     57  H29 Y08 d   1      19.173  -3.291  18.989  0.00  0.00     0.065 H 
ATOM     58  H30 Y08 d   1      18.524  -4.753  18.173  0.00  0.00     0.065 H 
ATOM     59  O5  Y08 d   1      20.929  -3.325  20.441  0.00  0.00    -0.273 OA
ATOM     60  H22 Y08 d   1      20.865  -2.983  17.221  0.00  0.00     0.044 H 
BRANCH  56  61
ATOM     61  C19 Y08 d   1      21.680  -5.451  21.199  0.00  0.00     0.024 A 
ATOM     62  C20 Y08 d   1      23.107  -5.899  20.872  0.00  0.00    -0.053 A 
ATOM     63  C21 Y08 d   1      22.883  -4.767  21.877  0.00  0.00    -0.053 A 
ATOM     64  H32 Y08 d   1      23.539  -5.679  19.884  0.00  0.00     0.034 H 
ATOM     65  H33 Y08 d   1      23.468  -6.878  21.220  0.00  0.00     0.034 H 
ATOM     66  H34 Y08 d   1      23.080  -4.933  22.946  0.00  0.00     0.034 H 
ATOM     67  H35 Y08 d   1      23.151  -3.734  21.611  0.00  0.00     0.034 H 
ATOM     68  H31 Y08 d   1      20.960  -6.098  21.722  0.00  0.00     0.054 H 
ENDBRANCH  56  61
ENDBRANCH  41  44
ENDBRANCH  38  41
ENDBRANCH   1  37
TORSDOF 17
