REMARK  16 active torsions:
REMARK  status: ('A' for Active; 'I' for Inactive)
REMARK       I    between atoms: C11_17  and  N_1 
REMARK    1  A    between atoms: N_1  and  C12_18 
REMARK    2  A    between atoms: C04_10  and  O1_2 
REMARK    3  A    between atoms: C06_12  and  O2_3 
REMARK    4  A    between atoms: C05_11  and  O3_4 
REMARK    5  A    between atoms: C07_13  and  O5_6 
REMARK    6  A    between atoms: O5_6  and  C21_27 
REMARK    7  A    between atoms: C02_8  and  C01_7 
REMARK    8  A    between atoms: C01_7  and  C08_14 
REMARK    9  A    between atoms: C01_7  and  C09_15 
REMARK   10  A    between atoms: C01_7  and  C10_16 
REMARK   11  A    between atoms: C03_9  and  C02_8 
REMARK   12  A    between atoms: C04_10  and  C03_9 
REMARK   13  A    between atoms: C05_11  and  C04_10 
REMARK   14  A    between atoms: C06_12  and  C05_11 
REMARK   15  A    between atoms: C07_13  and  C06_12 
REMARK   16  A    between atoms: C07_13  and  C11_17 
ROOT
ATOM      1  C06 Y10 d   1      21.396  -2.823  12.503  0.00  0.00     0.096 C 
ATOM      2  H11 Y10 d   1      21.578  -3.846  12.864  0.00  0.00     0.091 H 
ENDROOT
BRANCH   1   3
ATOM      3  O2  Y10 d   1      22.201  -1.935  13.132  0.00  0.00    -0.390 OA
ATOM      4  H3  Y10 d   1      22.053  -1.067  12.775  0.00  0.00     0.210 HD
ENDBRANCH   1   3
BRANCH   1   5
ATOM      5  C05 Y10 d   1      21.901  -2.633  11.066  0.00  0.00     0.087 C 
ATOM      6  H10 Y10 d   1      21.130  -3.012  10.379  0.00  0.00     0.091 H 
BRANCH   5   7
ATOM      7  O3  Y10 d   1      22.097  -1.212  10.805  0.00  0.00    -0.390 OA
ATOM      8  H4  Y10 d   1      21.287  -0.745  10.975  0.00  0.00     0.210 HD
ENDBRANCH   5   7
BRANCH   5   9
ATOM      9  C04 Y10 d   1      23.202  -3.410  10.796  0.00  0.00     0.063 C 
ATOM     10  H9  Y10 d   1      23.899  -3.246  11.631  0.00  0.00     0.086 H 
BRANCH   9  11
ATOM     11  O1  Y10 d   1      23.784  -2.861   9.563  0.00  0.00    -0.393 OA
ATOM     12  H2  Y10 d   1      24.612  -3.292   9.385  0.00  0.00     0.210 HD
ENDBRANCH   9  11
BRANCH   9  13
ATOM     13  C03 Y10 d   1      22.949  -4.930  10.667  0.00  0.00    -0.038 C 
ATOM     14  H7  Y10 d   1      21.864  -5.109  10.670  0.00  0.00     0.036 H 
ATOM     15  H8  Y10 d   1      23.376  -5.280   9.716  0.00  0.00     0.036 H 
BRANCH  13  16
ATOM     16  C02 Y10 d   1      23.513  -5.640  11.688  0.00  0.00    -0.057 C 
ATOM     17  H5  Y10 d   1      24.587  -5.406  11.657  0.00  0.00     0.034 H 
ATOM     18  H6  Y10 d   1      23.076  -5.233  12.612  0.00  0.00     0.034 H 
BRANCH  16  19
ATOM     19  C01 Y10 d   1      23.422  -7.165  11.820  0.00  0.00    -0.051 C 
BRANCH  19  20
ATOM     20  C08 Y10 d   1      22.665  -7.782  10.613  0.00  0.00    -0.070 C 
ATOM     21  H13 Y10 d   1      22.614  -8.874  10.732  0.00  0.00     0.028 H 
ATOM     22  H14 Y10 d   1      23.199  -7.539   9.682  0.00  0.00     0.028 H 
ATOM     23  H15 Y10 d   1      21.646  -7.370  10.570  0.00  0.00     0.028 H 
ENDBRANCH  19  20
BRANCH  19  24
ATOM     24  C09 Y10 d   1      24.826  -7.663  11.797  0.00  0.00    -0.070 C 
ATOM     25  H16 Y10 d   1      25.380  -7.237  12.646  0.00  0.00     0.028 H 
ATOM     26  H17 Y10 d   1      25.307  -7.360  10.855  0.00  0.00     0.028 H 
ATOM     27  H18 Y10 d   1      24.827  -8.760  11.873  0.00  0.00     0.028 H 
ENDBRANCH  19  24
BRANCH  19  28
ATOM     28  C10 Y10 d   1      22.660  -7.386  13.149  0.00  0.00    -0.070 C 
ATOM     29  H19 Y10 d   1      21.640  -6.984  13.058  0.00  0.00     0.028 H 
ATOM     30  H20 Y10 d   1      23.187  -6.868  13.964  0.00  0.00     0.028 H 
ATOM     31  H21 Y10 d   1      22.611  -8.463  13.369  0.00  0.00     0.028 H 
ENDBRANCH  19  28
ENDBRANCH  16  19
ENDBRANCH  13  16
ENDBRANCH   9  13
ENDBRANCH   5   9
ENDBRANCH   1   5
BRANCH   1  32
ATOM     32  C07 Y10 d   1      19.920  -2.523  12.628  0.00  0.00     0.141 C 
ATOM     33  H12 Y10 d   1      19.732  -1.442  12.706  0.00  0.00     0.102 H 
BRANCH  32  34
ATOM     34  O5  Y10 d   1      19.231  -3.054  11.512  0.00  0.00    -0.379 OA
BRANCH  34  35
ATOM     35  C21 Y10 d   1      17.910  -2.528  11.369  0.00  0.00     0.005 C 
ATOM     36  H31 Y10 d   1      17.430  -2.978  10.488  0.00  0.00     0.066 H 
ATOM     37  H32 Y10 d   1      17.962  -1.437  11.241  0.00  0.00     0.066 H 
ATOM     38  H33 Y10 d   1      17.322  -2.764  12.268  0.00  0.00     0.066 H 
ENDBRANCH  34  35
ENDBRANCH  32  34
BRANCH  32  39
ATOM     39  C11 Y10 d   1      19.540  -3.226  13.878  0.00  0.00     0.249 C 
ATOM     40  N   Y10 d   1      19.339  -2.373  14.858  0.00  0.00    -0.354 N 
ATOM     41  H1  Y10 d   1      19.418  -1.385  14.722  0.00  0.00     0.163 HD
ATOM     42  O4  Y10 d   1      19.415  -4.406  13.996  0.00  0.00    -0.271 OA
BRANCH  40  43
ATOM     43  C12 Y10 d   1      18.982  -2.964  16.200  0.00  0.00     0.020 C 
ATOM     44  C13 Y10 d   1      19.221  -2.024  17.398  0.00  0.00    -0.021 C 
ATOM     45  C14 Y10 d   1      19.845  -2.994  18.435  0.00  0.00    -0.050 A 
ATOM     46  H23 Y10 d   1      18.277  -1.595  17.766  0.00  0.00     0.043 H 
ATOM     47  H24 Y10 d   1      19.916  -1.212  17.139  0.00  0.00     0.043 H 
ATOM     48  C15 Y10 d   1      20.084  -4.272  17.924  0.00  0.00    -0.050 A 
ATOM     49  C17 Y10 d   1      20.198  -2.762  19.790  0.00  0.00    -0.076 A 
ATOM     50  C16 Y10 d   1      19.681  -4.283  16.468  0.00  0.00    -0.021 C 
ATOM     51  C20 Y10 d   1      20.713  -5.330  18.666  0.00  0.00    -0.076 A 
ATOM     52  H25 Y10 d   1      20.571  -4.377  15.829  0.00  0.00     0.043 H 
ATOM     53  H26 Y10 d   1      18.997  -5.122  16.270  0.00  0.00     0.043 H 
ATOM     54  C19 Y10 d   1      21.047  -5.049  20.016  0.00  0.00    -0.082 A 
ATOM     55  H30 Y10 d   1      20.922  -6.294  18.217  0.00  0.00     0.084 H 
ATOM     56  C18 Y10 d   1      20.785  -3.784  20.571  0.00  0.00    -0.082 A 
ATOM     57  H29 Y10 d   1      21.509  -5.817  20.626  0.00  0.00     0.083 H 
ATOM     58  H28 Y10 d   1      21.035  -3.590  21.608  0.00  0.00     0.083 H 
ATOM     59  H27 Y10 d   1      20.015  -1.789  20.232  0.00  0.00     0.084 H 
ATOM     60  H22 Y10 d   1      17.902  -3.169  16.165  0.00  0.00     0.073 H 
ENDBRANCH  40  43
ENDBRANCH  32  39
ENDBRANCH   1  32
TORSDOF 16
