REMARK  19 active torsions:
REMARK  status: ('A' for Active; 'I' for Inactive)
REMARK    1  A    between atoms: C11_2  and  C07_3 
REMARK       I    between atoms: C11_2  and  N_18 
REMARK    2  A    between atoms: C07_3  and  O6_4 
REMARK    3  A    between atoms: C07_3  and  C06_6 
REMARK    4  A    between atoms: O6_4  and  C25_5 
REMARK    5  A    between atoms: C06_6  and  O2_7 
REMARK    6  A    between atoms: C06_6  and  C05_8 
REMARK    7  A    between atoms: C05_8  and  O3_9 
REMARK    8  A    between atoms: C05_8  and  C04_10 
REMARK    9  A    between atoms: C04_10  and  O1_11 
REMARK   10  A    between atoms: C04_10  and  C03_12 
REMARK   11  A    between atoms: C02_13  and  C01_14 
REMARK   12  A    between atoms: C01_14  and  C10_15 
REMARK   13  A    between atoms: C01_14  and  C09_16 
REMARK   14  A    between atoms: C01_14  and  C08_17 
REMARK   15  A    between atoms: N_18  and  C12_19 
REMARK   16  A    between atoms: C12_19  and  C13_20 
REMARK   17  A    between atoms: C13_20  and  C14_21 
REMARK   18  A    between atoms: C14_21  and  C16_22 
REMARK   19  A    between atoms: C14_21  and  C15_27 
ROOT
ATOM      1  C07 YZ6 d   1      20.019  -2.673  12.670  0.00  0.00     0.141 C 
ATOM      2  H1  YZ6 d   1      19.877  -1.586  12.760  0.00  0.00     0.102 H 
ENDROOT
BRANCH   1   3
ATOM      3  C11 YZ6 d   1      19.523  -3.289  13.969  0.00  0.00     0.249 C 
ATOM      4  O4  YZ6 d   1      19.359  -4.483  13.985  0.00  0.00    -0.271 OA
ATOM      5  N   YZ6 d   1      19.177  -2.379  14.910  0.00  0.00    -0.359 N 
ATOM      6  H22 YZ6 d   1      19.238  -1.389  14.784  0.00  0.00     0.162 HD
BRANCH   5   7
ATOM      7  C12 YZ6 d   1      18.698  -3.032  16.146  0.00  0.00    -0.004 C 
ATOM      8  H23 YZ6 d   1      18.890  -4.114  16.106  0.00  0.00     0.064 H 
ATOM      9  H24 YZ6 d   1      17.620  -2.856  16.279  0.00  0.00     0.064 H 
BRANCH   7  10
ATOM     10  C13 YZ6 d   1      19.475  -2.403  17.275  0.00  0.00    -0.037 C 
ATOM     11  H25 YZ6 d   1      19.291  -1.319  17.232  0.00  0.00     0.036 H 
ATOM     12  H26 YZ6 d   1      20.540  -2.602  17.087  0.00  0.00     0.036 H 
BRANCH  10  13
ATOM     13  C14 YZ6 d   1      19.168  -2.869  18.749  0.00  0.00     0.020 C 
ATOM     14  H27 YZ6 d   1      19.641  -3.862  18.773  0.00  0.00     0.058 H 
BRANCH  13  15
ATOM     15  C16 YZ6 d   1      19.956  -2.087  19.853  0.00  0.00     0.061 A 
ATOM     16  C19 YZ6 d   1      19.953  -0.672  20.057  0.00  0.00    -0.052 A 
ATOM     17  C18 YZ6 d   1      20.785  -0.345  21.192  0.00  0.00    -0.059 A 
ATOM     18  H28 YZ6 d   1      19.407   0.049  19.450  0.00  0.00     0.087 H 
ATOM     19  C17 YZ6 d   1      21.256  -1.640  21.602  0.00  0.00     0.019 A 
ATOM     20  H29 YZ6 d   1      21.000   0.631  21.625  0.00  0.00     0.086 H 
ATOM     21  O5  YZ6 d   1      20.695  -2.664  20.747  0.00  0.00    -0.326 OA
ATOM     22  H30 YZ6 d   1      21.935  -1.823  22.433  0.00  0.00     0.123 H 
ENDBRANCH  13  15
BRANCH  13  23
ATOM     23  C15 YZ6 d   1      17.723  -3.201  19.131  0.00  0.00    -0.048 A 
ATOM     24  C24 YZ6 d   1      17.522  -4.036  20.290  0.00  0.00    -0.076 A 
ATOM     25  C23 YZ6 d   1      16.245  -4.412  20.780  0.00  0.00    -0.082 A 
ATOM     26  H31 YZ6 d   1      18.398  -4.397  20.817  0.00  0.00     0.084 H 
ATOM     27  C22 YZ6 d   1      15.092  -3.957  20.107  0.00  0.00    -0.083 A 
ATOM     28  H32 YZ6 d   1      16.157  -5.040  21.659  0.00  0.00     0.083 H 
ATOM     29  C21 YZ6 d   1      15.252  -3.134  18.962  0.00  0.00    -0.082 A 
ATOM     30  H33 YZ6 d   1      14.103  -4.231  20.457  0.00  0.00     0.083 H 
ATOM     31  C20 YZ6 d   1      16.539  -2.753  18.487  0.00  0.00    -0.076 A 
ATOM     32  H34 YZ6 d   1      14.371  -2.786  18.435  0.00  0.00     0.083 H 
ATOM     33  H35 YZ6 d   1      16.617  -2.109  17.618  0.00  0.00     0.084 H 
ENDBRANCH  13  23
ENDBRANCH  10  13
ENDBRANCH   7  10
ENDBRANCH   5   7
ENDBRANCH   1   3
BRANCH   1  34
ATOM     34  O6  YZ6 d   1      19.291  -3.094  11.487  0.00  0.00    -0.379 OA
BRANCH  34  35
ATOM     35  C25 YZ6 d   1      17.979  -2.539  11.407  0.00  0.00     0.005 C 
ATOM     36  H2  YZ6 d   1      17.485  -2.897  10.492  0.00  0.00     0.066 H 
ATOM     37  H3  YZ6 d   1      18.046  -1.441  11.383  0.00  0.00     0.066 H 
ATOM     38  H4  YZ6 d   1      17.395  -2.851  12.285  0.00  0.00     0.066 H 
ENDBRANCH  34  35
ENDBRANCH   1  34
BRANCH   1  39
ATOM     39  C06 YZ6 d   1      21.515  -2.929  12.491  0.00  0.00     0.096 C 
ATOM     40  H5  YZ6 d   1      21.767  -3.942  12.837  0.00  0.00     0.091 H 
BRANCH  39  41
ATOM     41  O2  YZ6 d   1      22.172  -1.980  13.232  0.00  0.00    -0.390 OA
ATOM     42  H6  YZ6 d   1      21.938  -1.115  12.916  0.00  0.00     0.210 HD
ENDBRANCH  39  41
BRANCH  39  43
ATOM     43  C05 YZ6 d   1      21.950  -2.752  11.043  0.00  0.00     0.091 C 
ATOM     44  H7  YZ6 d   1      21.196  -3.176  10.364  0.00  0.00     0.091 H 
BRANCH  43  45
ATOM     45  O3  YZ6 d   1      22.115  -1.349  10.774  0.00  0.00    -0.390 OA
ATOM     46  H8  YZ6 d   1      21.290  -0.901  10.919  0.00  0.00     0.210 HD
ENDBRANCH  43  45
BRANCH  43  47
ATOM     47  C04 YZ6 d   1      23.285  -3.478  10.866  0.00  0.00     0.079 C 
ATOM     48  H9  YZ6 d   1      23.954  -3.295  11.720  0.00  0.00     0.093 H 
BRANCH  47  49
ATOM     49  O1  YZ6 d   1      23.848  -2.974   9.606  0.00  0.00    -0.389 OA
ATOM     50  H10 YZ6 d   1      24.685  -3.394   9.444  0.00  0.00     0.210 HD
ENDBRANCH  47  49
BRANCH  47  51
ATOM     51  C03 YZ6 d   1      23.055  -4.962  10.662  0.00  0.00    -0.076 C 
ATOM     52  C02 YZ6 d   1      23.529  -5.757  11.653  0.00  0.00    -0.097 C 
ATOM     53  H12 YZ6 d   1      24.041  -5.248  12.468  0.00  0.00     0.077 H 
ATOM     54  H11 YZ6 d   1      22.547  -5.360   9.785  0.00  0.00     0.080 H 
BRANCH  52  55
ATOM     55  C01 YZ6 d   1      23.436  -7.261  11.769  0.00  0.00    -0.034 C 
BRANCH  55  56
ATOM     56  C10 YZ6 d   1      22.793  -7.472  13.117  0.00  0.00    -0.066 C 
ATOM     57  H13 YZ6 d   1      22.677  -8.550  13.303  0.00  0.00     0.028 H 
ATOM     58  H14 YZ6 d   1      21.805  -6.989  13.131  0.00  0.00     0.028 H 
ATOM     59  H15 YZ6 d   1      23.428  -7.031  13.899  0.00  0.00     0.028 H 
ENDBRANCH  55  56
BRANCH  55  60
ATOM     60  C09 YZ6 d   1      22.682  -7.866  10.630  0.00  0.00    -0.066 C 
ATOM     61  H16 YZ6 d   1      23.217  -7.667   9.690  0.00  0.00     0.028 H 
ATOM     62  H17 YZ6 d   1      21.676  -7.424  10.580  0.00  0.00     0.028 H 
ATOM     63  H18 YZ6 d   1      22.599  -8.952  10.781  0.00  0.00     0.028 H 
ENDBRANCH  55  60
BRANCH  55  64
ATOM     64  C08 YZ6 d   1      24.886  -7.744  11.802  0.00  0.00    -0.066 C 
ATOM     65  H19 YZ6 d   1      25.408  -7.279  12.651  0.00  0.00     0.028 H 
ATOM     66  H20 YZ6 d   1      25.388  -7.463  10.864  0.00  0.00     0.028 H 
ATOM     67  H21 YZ6 d   1      24.906  -8.838  11.914  0.00  0.00     0.028 H 
ENDBRANCH  55  64
ENDBRANCH  52  55
ENDBRANCH  47  51
ENDBRANCH  43  47
ENDBRANCH  39  43
ENDBRANCH   1  39
TORSDOF 19
