REMARK WARNING: 32 MAX_TORS EXCEEDED!!!
REMARK  39 active torsions:
REMARK  status: ('A' for Active; 'I' for Inactive)
REMARK    1  A    between atoms: C_1  and  CH3_3 
REMARK       I    between atoms: C_1  and  N_4 
REMARK    2  A    between atoms: N_4  and  CA_5 
REMARK    3  A    between atoms: CA_5  and  C_6 
REMARK    4  A    between atoms: CA_5  and  CB_8 
REMARK       I    between atoms: C_6  and  N_11 
REMARK    5  A    between atoms: CB_8  and  CG1_9 
REMARK    6  A    between atoms: CB_8  and  CG2_10 
REMARK    7  A    between atoms: N_11  and  CA_12 
REMARK    8  A    between atoms: CA_12  and  C_13 
REMARK    9  A    between atoms: CA_12  and  CB_15 
REMARK       I    between atoms: C_13  and  N_22 
REMARK   10  A    between atoms: CB_15  and  CG_16 
REMARK   11  A    between atoms: CG_16  and  CD_17 
REMARK   12  A    between atoms: CD_17  and  NE_18 
REMARK       I    between atoms: NE_18  and  CZ_19 
REMARK       I    between atoms: CZ_19  and  NH1_20 
REMARK   13  A    between atoms: N_22  and  CA_23 
REMARK   14  A    between atoms: CA_23  and  C_24 
REMARK   15  A    between atoms: CA_23  and  CB_26 
REMARK       I    between atoms: C_24  and  N_28 
REMARK   16  A    between atoms: CB_26  and  OG_27 
REMARK   17  A    between atoms: N_28  and  CA_29 
REMARK   18  A    between atoms: CA_29  and  C_30 
REMARK   19  A    between atoms: CA_29  and  CB_32 
REMARK       I    between atoms: C_30  and  N_37 
REMARK   20  A    between atoms: CB_32  and  CG_33 
REMARK   21  A    between atoms: CG_33  and  CD_34 
REMARK   22  A    between atoms: CD_34  and  CE_35 
REMARK   23  A    between atoms: CE_35  and  NZ_36 
REMARK   24  A    between atoms: N_37  and  CA_38 
REMARK   25  A    between atoms: CA_38  and  C_39 
REMARK   26  A    between atoms: CA_38  and  CB_41 
REMARK       I    between atoms: C_39  and  N_49 
REMARK   27  A    between atoms: CB_41  and  CG_42 
REMARK   28  A    between atoms: CZ_47  and  OH_48 
REMARK   29  A    between atoms: N_49  and  CA_50 
REMARK   30  A    between atoms: CA_50  and  C_51 
REMARK   31  A    between atoms: CA_50  and  CB_53 
REMARK       I    between atoms: C_51  and  N_60 
REMARK   32  A    between atoms: CB_53  and  CG_54 
REMARK   33  A    between atoms: N_60  and  CA_61 
REMARK   34  A    between atoms: CA_61  and  C_62 
REMARK   35  A    between atoms: CA_61  and  CB_64 
REMARK   36  A    between atoms: CB_64  and  CG_65 
REMARK   37  A    between atoms: CG_65  and  CD_66 
REMARK   38  A    between atoms: CD_66  and  CE_67 
REMARK   39  A    between atoms: CE_67  and  NZ_68 
ROOT
ATOM      1  CA  LYS d   1      64.793  -7.884  36.272  0.00  0.00     0.089 C 
ATOM      2  H32 LYS d   1      65.086  -8.653  37.002  0.00  0.00     0.087 H 
ENDROOT
BRANCH   1   3
ATOM      3  N   LYS d   1      64.418  -8.602  35.041  0.00  0.00    -0.346 N 
ATOM      4  C   SER d   1      63.302  -9.410  34.973  0.00  0.00     0.243 C 
ATOM      5  O   SER d   1      62.500  -9.597  35.918  0.00  0.00    -0.271 OA
ATOM      6  H31 LYS d   1      64.991  -8.500  34.228  0.00  0.00     0.163 HD
BRANCH   4   7
ATOM      7  CA  SER d   1      63.008 -10.025  33.617  0.00  0.00     0.109 C 
ATOM      8  H27 SER d   1      63.892  -9.873  32.980  0.00  0.00     0.090 H 
BRANCH   7   9
ATOM      9  N   SER d   1      62.770 -11.478  33.716  0.00  0.00    -0.344 N 
ATOM     10  C   ARG d   1      63.734 -12.422  33.727  0.00  0.00     0.241 C 
ATOM     11  O   ARG d   1      64.943 -12.153  33.645  0.00  0.00    -0.271 OA
ATOM     12  H26 SER d   1      61.821 -11.787  33.780  0.00  0.00     0.163 HD
BRANCH  10  13
ATOM     13  CA  ARG d   1      63.256 -13.899  33.770  0.00  0.00     0.089 C 
ATOM     14  H14 ARG d   1      62.400 -13.993  33.086  0.00  0.00     0.087 H 
BRANCH  13  15
ATOM     15  N   ARG d   1      64.322 -14.778  33.270  0.00  0.00    -0.346 N 
ATOM     16  C   VAL d   1      64.396 -15.232  31.999  0.00  0.00     0.241 C 
ATOM     17  O   VAL d   1      63.555 -14.966  31.124  0.00  0.00    -0.271 OA
ATOM     18  H13 ARG d   1      65.037 -15.058  33.910  0.00  0.00     0.163 HD
BRANCH  16  19
ATOM     19  CA  VAL d   1      65.649 -16.068  31.670  0.00  0.00     0.092 C 
ATOM     20  H5  VAL d   1      66.123 -16.228  32.650  0.00  0.00     0.088 H 
BRANCH  19  21
ATOM     21  N   VAL d   1      65.471 -17.439  31.143  0.00  0.00    -0.348 N 
ATOM     22  C   ACE d   1      65.564 -18.542  31.895  0.00  0.00     0.214 C 
ATOM     23  O   ACE d   1      65.747 -18.534  33.120  0.00  0.00    -0.274 OA
ATOM     24  H4  VAL d   1      65.270 -17.548  30.169  0.00  0.00     0.163 HD
BRANCH  22  25
ATOM     25  CH3 ACE d   1      65.409 -19.875  31.152  0.00  0.00    -0.003 C 
ATOM     26  H1  ACE d   1      65.255 -19.682  30.080  0.00  0.00     0.040 H 
ATOM     27  H2  ACE d   1      64.542 -20.420  31.554  0.00  0.00     0.040 H 
ATOM     28  H3  ACE d   1      66.318 -20.479  31.289  0.00  0.00     0.040 H 
ENDBRANCH  22  25
ENDBRANCH  19  21
BRANCH  19  29
ATOM     29  CB  VAL d   1      66.670 -15.248  30.864  0.00  0.00    -0.033 C 
ATOM     30  H6  VAL d   1      66.122 -14.618  30.148  0.00  0.00     0.042 H 
BRANCH  29  31
ATOM     31  CG1 VAL d   1      67.464 -14.350  31.786  0.00  0.00    -0.071 C 
ATOM     32  H7  VAL d   1      68.190 -13.770  31.197  0.00  0.00     0.028 H 
ATOM     33  H8  VAL d   1      67.999 -14.964  32.525  0.00  0.00     0.028 H 
ATOM     34  H9  VAL d   1      66.781 -13.663  32.306  0.00  0.00     0.028 H 
ENDBRANCH  29  31
BRANCH  29  35
ATOM     35  CG2 VAL d   1      67.603 -16.160  30.086  0.00  0.00    -0.071 C 
ATOM     36  H10 VAL d   1      67.013 -16.807  29.420  0.00  0.00     0.028 H 
ATOM     37  H11 VAL d   1      68.177 -16.783  30.788  0.00  0.00     0.028 H 
ATOM     38  H12 VAL d   1      68.295 -15.551  29.486  0.00  0.00     0.028 H 
ENDBRANCH  29  35
ENDBRANCH  19  29
ENDBRANCH  16  19
ENDBRANCH  13  15
BRANCH  13  39
ATOM     39  CB  ARG d   1      62.759 -14.305  35.180  0.00  0.00    -0.036 C 
ATOM     40  H15 ARG d   1      61.898 -13.667  35.428  0.00  0.00     0.036 H 
ATOM     41  H16 ARG d   1      63.576 -14.111  35.891  0.00  0.00     0.036 H 
BRANCH  39  42
ATOM     42  CG  ARG d   1      62.323 -15.766  35.358  0.00  0.00    -0.048 C 
ATOM     43  H17 ARG d   1      62.188 -15.954  36.433  0.00  0.00     0.035 H 
ATOM     44  H18 ARG d   1      63.125 -16.412  34.970  0.00  0.00     0.035 H 
BRANCH  42  45
ATOM     45  CD  ARG d   1      61.032 -16.138  34.648  0.00  0.00     0.009 C 
ATOM     46  H19 ARG d   1      61.084 -17.199  34.364  0.00  0.00     0.064 H 
ATOM     47  H20 ARG d   1      60.942 -15.520  33.743  0.00  0.00     0.064 H 
BRANCH  45  48
ATOM     48  NE  ARG d   1      59.831 -15.936  35.470  0.00  0.00    -0.227 N 
ATOM     49  CZ  ARG d   1      59.137 -16.914  36.053  0.00  0.00     0.665 C 
ATOM     50  NH1 ARG d   1      59.536 -18.179  35.949  0.00  0.00    -0.235 N 
ATOM     51  NH2 ARG d   1      58.040 -16.635  36.748  0.00  0.00    -0.235 N 
ATOM     52  H22 ARG d   1      58.994 -18.929  36.402  0.00  0.00     0.174 HD
ATOM     53  H23 ARG d   1      60.386 -18.409  35.415  0.00  0.00     0.174 HD
ATOM     54  H24 ARG d   1      57.720 -15.660  36.836  0.00  0.00     0.174 HD
ATOM     55  H25 ARG d   1      57.509 -17.394  37.199  0.00  0.00     0.174 HD
ATOM     56  H21 ARG d   1      59.502 -14.970  35.606  0.00  0.00     0.177 HD
ENDBRANCH  45  48
ENDBRANCH  42  45
ENDBRANCH  39  42
ENDBRANCH  13  39
ENDBRANCH  10  13
ENDBRANCH   7   9
BRANCH   7  57
ATOM     57  CB  SER d   1      61.818  -9.320  32.951  0.00  0.00     0.044 C 
ATOM     58  H28 SER d   1      60.897  -9.766  33.355  0.00  0.00     0.077 H 
ATOM     59  H29 SER d   1      61.877  -9.515  31.870  0.00  0.00     0.077 H 
BRANCH  57  60
ATOM     60  OG  SER d   1      61.731  -7.914  33.131  0.00  0.00    -0.398 OA
ATOM     61  H30 SER d   1      62.509  -7.502  32.775  0.00  0.00     0.209 HD
ENDBRANCH  57  60
ENDBRANCH   7  57
ENDBRANCH   4   7
ENDBRANCH   1   3
BRANCH   1  62
ATOM     62  C   LYS d   1      63.617  -7.119  36.892  0.00  0.00     0.241 C 
ATOM     63  O   LYS d   1      63.542  -7.018  38.107  0.00  0.00    -0.271 OA
ATOM     64  N   TYR d   1      62.677  -6.647  36.056  0.00  0.00    -0.346 N 
ATOM     65  H44 TYR d   1      62.783  -6.844  35.081  0.00  0.00     0.163 HD
BRANCH  64  66
ATOM     66  CA  TYR d   1      61.516  -5.870  36.463  0.00  0.00     0.093 C 
ATOM     67  H45 TYR d   1      61.870  -5.124  37.190  0.00  0.00     0.088 H 
BRANCH  66  68
ATOM     68  C   TYR d   1      60.444  -6.656  37.140  0.00  0.00     0.241 C 
ATOM     69  O   TYR d   1      59.463  -6.073  37.600  0.00  0.00    -0.271 OA
ATOM     70  N   PHE d   1      60.608  -7.977  37.201  0.00  0.00    -0.346 N 
ATOM     71  H53 PHE d   1      61.427  -8.390  36.803  0.00  0.00     0.163 HD
BRANCH  70  72
ATOM     72  CA  PHE d   1      59.614  -8.828  37.837  0.00  0.00     0.093 C 
ATOM     73  H54 PHE d   1      58.864  -8.182  38.316  0.00  0.00     0.088 H 
BRANCH  72  74
ATOM     74  C   PHE d   1      60.284  -9.654  38.940  0.00  0.00     0.241 C 
ATOM     75  O   PHE d   1      61.267 -10.371  38.672  0.00  0.00    -0.271 OA
ATOM     76  N   LYS d   1      59.831  -9.457  40.202  0.00  0.00    -0.345 N 
ATOM     77  H62 LYS d   1      59.081  -8.809  40.335  0.00  0.00     0.163 HD
BRANCH  76  78
ATOM     78  CA  LYS d   1      60.374 -10.139  41.393  0.00  0.00     0.096 C 
ATOM     79  H63 LYS d   1      60.829 -11.084  41.061  0.00  0.00     0.089 H 
BRANCH  78  80
ATOM     80  C   LYS d   1      59.257 -10.472  42.390  0.00  0.00     0.196 C 
ATOM     81  O   LYS d   1      58.287  -9.686  42.556  0.00  0.00    -0.646 OA
ATOM     82  O   LYS d   1      59.310 -11.544  43.050  0.00  0.00    -0.646 OA
ENDBRANCH  78  80
BRANCH  78  83
ATOM     83  CB  LYS d   1      61.474  -9.298  42.089  0.00  0.00    -0.037 C 
ATOM     84  H64 LYS d   1      61.822  -9.865  42.965  0.00  0.00     0.036 H 
ATOM     85  H65 LYS d   1      61.013  -8.356  42.421  0.00  0.00     0.036 H 
BRANCH  83  86
ATOM     86  CG  LYS d   1      62.715  -8.937  41.243  0.00  0.00    -0.061 C 
ATOM     87  H66 LYS d   1      63.235  -8.100  41.732  0.00  0.00     0.033 H 
ATOM     88  H67 LYS d   1      62.374  -8.624  40.245  0.00  0.00     0.033 H 
BRANCH  86  89
ATOM     89  CD  LYS d   1      63.708 -10.084  41.072  0.00  0.00    -0.043 C 
ATOM     90  H68 LYS d   1      63.153 -11.001  40.825  0.00  0.00     0.035 H 
ATOM     91  H69 LYS d   1      64.252 -10.228  42.017  0.00  0.00     0.035 H 
BRANCH  89  92
ATOM     92  CE  LYS d   1      64.704  -9.806  39.974  0.00  0.00     0.080 C 
ATOM     93  H70 LYS d   1      65.663  -9.516  40.429  0.00  0.00     0.075 H 
ATOM     94  H71 LYS d   1      64.328  -8.980  39.353  0.00  0.00     0.075 H 
BRANCH  92  95
ATOM     95  NZ  LYS d   1      64.923 -10.998  39.108  0.00  0.00    -0.079 N 
ATOM     96  H72 LYS d   1      65.593 -10.773  38.389  0.00  0.00     0.274 HD
ATOM     97  H73 LYS d   1      64.051 -11.268  38.682  0.00  0.00     0.274 HD
ATOM     98  H74 LYS d   1      65.274 -11.760  39.667  0.00  0.00     0.274 HD
ENDBRANCH  92  95
ENDBRANCH  89  92
ENDBRANCH  86  89
ENDBRANCH  83  86
ENDBRANCH  78  83
ENDBRANCH  76  78
ENDBRANCH  72  74
BRANCH  72  99
ATOM     99  CB  PHE d   1      58.880  -9.679  36.779  0.00  0.00    -0.014 C 
ATOM    100  H55 PHE d   1      58.191 -10.363  37.295  0.00  0.00     0.043 H 
ATOM    101  H56 PHE d   1      59.626 -10.263  36.219  0.00  0.00     0.043 H 
BRANCH  99 102
ATOM    102  CG  PHE d   1      58.087  -8.844  35.799  0.00  0.00    -0.056 A 
ATOM    103  CD1 PHE d   1      56.753  -8.526  36.048  0.00  0.00    -0.077 A 
ATOM    104  CE1 PHE d   1      56.032  -7.706  35.169  0.00  0.00    -0.082 A 
ATOM    105  H57 PHE d   1      56.266  -8.918  36.934  0.00  0.00     0.084 H 
ATOM    106  CZ  PHE d   1      56.641  -7.216  34.044  0.00  0.00    -0.083 A 
ATOM    107  H59 PHE d   1      54.997  -7.461  35.379  0.00  0.00     0.083 H 
ATOM    108  CE2 PHE d   1      57.969  -7.506  33.787  0.00  0.00    -0.082 A 
ATOM    109  H61 PHE d   1      56.080  -6.598  33.352  0.00  0.00     0.083 H 
ATOM    110  CD2 PHE d   1      58.687  -8.326  34.654  0.00  0.00    -0.077 A 
ATOM    111  H60 PHE d   1      58.452  -7.094  32.908  0.00  0.00     0.083 H 
ATOM    112  H58 PHE d   1      59.722  -8.563  34.436  0.00  0.00     0.084 H 
ENDBRANCH  99 102
ENDBRANCH  72  99
ENDBRANCH  70  72
ENDBRANCH  66  68
BRANCH  66 113
ATOM    113  CB  TYR d   1      60.952  -5.120  35.269  0.00  0.00    -0.014 C 
ATOM    114  H46 TYR d   1      60.071  -4.548  35.596  0.00  0.00     0.043 H 
ATOM    115  H47 TYR d   1      60.652  -5.850  34.503  0.00  0.00     0.043 H 
BRANCH 113 116
ATOM    116  CG  TYR d   1      61.956  -4.161  34.660  0.00  0.00    -0.056 A 
ATOM    117  CD1 TYR d   1      62.328  -2.997  35.326  0.00  0.00    -0.074 A 
ATOM    118  CE1 TYR d   1      63.245  -2.114  34.771  0.00  0.00    -0.051 A 
ATOM    119  H48 TYR d   1      61.895  -2.776  36.295  0.00  0.00     0.084 H 
ATOM    120  CZ  TYR d   1      63.791  -2.378  33.524  0.00  0.00     0.065 A 
ATOM    121  H50 TYR d   1      63.533  -1.220  35.312  0.00  0.00     0.087 H 
ATOM    122  CE2 TYR d   1      63.425  -3.518  32.829  0.00  0.00    -0.051 A 
ATOM    123  CD2 TYR d   1      62.519  -4.408  33.403  0.00  0.00    -0.074 A 
ATOM    124  H51 TYR d   1      63.839  -3.717  31.847  0.00  0.00     0.087 H 
ATOM    125  H49 TYR d   1      62.245  -5.309  32.865  0.00  0.00     0.084 H 
BRANCH 120 126
ATOM    126  OH  TYR d   1      64.718  -1.513  33.009  0.00  0.00    -0.361 OA
ATOM    127  H52 TYR d   1      64.847  -0.792  33.614  0.00  0.00     0.217 HD
ENDBRANCH 120 126
ENDBRANCH 113 116
ENDBRANCH  66 113
ENDBRANCH  64  66
ENDBRANCH   1  62
BRANCH   1 128
ATOM    128  CB  LYS d   1      66.025  -6.969  36.078  0.00  0.00    -0.038 C 
ATOM    129  H33 LYS d   1      66.801  -7.564  35.574  0.00  0.00     0.036 H 
ATOM    130  H34 LYS d   1      66.379  -6.677  37.078  0.00  0.00     0.036 H 
BRANCH 128 131
ATOM    131  CG  LYS d   1      65.831  -5.684  35.266  0.00  0.00    -0.061 C 
ATOM    132  H35 LYS d   1      65.393  -4.906  35.908  0.00  0.00     0.033 H 
ATOM    133  H36 LYS d   1      65.158  -5.882  34.419  0.00  0.00     0.033 H 
BRANCH 131 134
ATOM    134  CD  LYS d   1      67.191  -5.208  34.739  0.00  0.00    -0.043 C 
ATOM    135  H37 LYS d   1      67.632  -6.019  34.141  0.00  0.00     0.035 H 
ATOM    136  H38 LYS d   1      67.840  -4.994  35.601  0.00  0.00     0.035 H 
BRANCH 134 137
ATOM    137  CE  LYS d   1      67.121  -3.969  33.879  0.00  0.00     0.080 C 
ATOM    138  H39 LYS d   1      66.764  -3.128  34.492  0.00  0.00     0.075 H 
ATOM    139  H40 LYS d   1      66.416  -4.146  33.054  0.00  0.00     0.075 H 
BRANCH 137 140
ATOM    140  NZ  LYS d   1      68.450  -3.623  33.312  0.00  0.00    -0.079 N 
ATOM    141  H41 LYS d   1      68.368  -2.794  32.745  0.00  0.00     0.274 HD
ATOM    142  H42 LYS d   1      68.782  -4.387  32.744  0.00  0.00     0.274 HD
ATOM    143  H43 LYS d   1      69.102  -3.454  34.062  0.00  0.00     0.274 HD
ENDBRANCH 137 140
ENDBRANCH 134 137
ENDBRANCH 131 134
ENDBRANCH 128 131
ENDBRANCH   1 128
TORSDOF 39
