REMARK WARNING: 32 MAX_TORS EXCEEDED!!!
REMARK  34 active torsions:
REMARK  status: ('A' for Active; 'I' for Inactive)
REMARK    1  A    between atoms: N_1  and  CA_2 
REMARK    2  A    between atoms: CA_2  and  C_3 
REMARK    3  A    between atoms: CA_2  and  CB_5 
REMARK       I    between atoms: C_3  and  N_8 
REMARK    4  A    between atoms: CB_5  and  OG1_6 
REMARK    5  A    between atoms: CB_5  and  CG2_7 
REMARK    6  A    between atoms: N_8  and  CA_9 
REMARK    7  A    between atoms: CA_9  and  C_10 
REMARK    8  A    between atoms: CA_9  and  CB_12 
REMARK       I    between atoms: C_10  and  N_19 
REMARK    9  A    between atoms: CB_12  and  CG_13 
REMARK   10  A    between atoms: CG_13  and  CD_14 
REMARK   11  A    between atoms: CD_14  and  NE_15 
REMARK       I    between atoms: NE_15  and  CZ_16 
REMARK       I    between atoms: CZ_16  and  NH1_17 
REMARK   12  A    between atoms: N_19  and  CA_20 
REMARK   13  A    between atoms: CA_20  and  C_21 
REMARK   14  A    between atoms: CA_20  and  CB_23 
REMARK       I    between atoms: C_21  and  N_25 
REMARK   15  A    between atoms: CB_23  and  OG_24 
REMARK   16  A    between atoms: N_25  and  CA_26 
REMARK   17  A    between atoms: CA_26  and  C_27 
REMARK   18  A    between atoms: CA_26  and  CB_29 
REMARK       I    between atoms: C_27  and  N_34 
REMARK   19  A    between atoms: CB_29  and  CG_30 
REMARK   20  A    between atoms: CG_30  and  CD_31 
REMARK   21  A    between atoms: CD_31  and  CE_32 
REMARK   22  A    between atoms: CE_32  and  NZ_33 
REMARK   23  A    between atoms: N_34  and  CA_35 
REMARK   24  A    between atoms: CA_35  and  C_36 
REMARK   25  A    between atoms: CA_35  and  CB_38 
REMARK       I    between atoms: C_36  and  N_45 
REMARK   26  A    between atoms: CB_38  and  CG_39 
REMARK   27  A    between atoms: N_45  and  CA_46 
REMARK   28  A    between atoms: CA_46  and  C_47 
REMARK   29  A    between atoms: CA_46  and  CB_49 
REMARK       I    between atoms: C_47  and  N_56 
REMARK   30  A    between atoms: CB_49  and  CG_50 
REMARK   31  A    between atoms: N_56  and  CA_57 
REMARK   32  A    between atoms: CA_57  and  C_58 
REMARK   33  A    between atoms: CA_57  and  CB_60 
REMARK   34  A    between atoms: CB_60  and  CG_61 
REMARK       I    between atoms: CG_61  and  ND2_63 
ROOT
ATOM      1  CA  LYS d   1      64.773  -7.803  36.867  0.00  0.00     0.089 C 
ATOM      2  H29 LYS d   1      65.064  -8.553  37.618  0.00  0.00     0.087 H 
ENDROOT
BRANCH   1   3
ATOM      3  N   LYS d   1      64.407  -8.512  35.638  0.00  0.00    -0.346 N 
ATOM      4  C   SER d   1      63.436  -9.446  35.519  0.00  0.00     0.243 C 
ATOM      5  O   SER d   1      62.732  -9.851  36.463  0.00  0.00    -0.271 OA
ATOM      6  H28 LYS d   1      64.922  -8.284  34.812  0.00  0.00     0.163 HD
BRANCH   4   7
ATOM      7  CA  SER d   1      63.232  -9.978  34.105  0.00  0.00     0.109 C 
ATOM      8  H24 SER d   1      64.126  -9.719  33.520  0.00  0.00     0.090 H 
BRANCH   7   9
ATOM      9  N   SER d   1      63.098 -11.445  34.078  0.00  0.00    -0.344 N 
ATOM     10  C   ARG d   1      64.120 -12.347  34.122  0.00  0.00     0.241 C 
ATOM     11  O   ARG d   1      65.323 -12.020  34.128  0.00  0.00    -0.271 OA
ATOM     12  H23 SER d   1      62.170 -11.814  34.022  0.00  0.00     0.163 HD
BRANCH  10  13
ATOM     13  CA  ARG d   1      63.715 -13.857  34.066  0.00  0.00     0.089 C 
ATOM     14  H11 ARG d   1      62.866 -13.924  33.370  0.00  0.00     0.087 H 
BRANCH  13  15
ATOM     15  N   ARG d   1      64.786 -14.677  33.505  0.00  0.00    -0.346 N 
ATOM     16  C   THR d   1      64.696 -15.325  32.328  0.00  0.00     0.251 C 
ATOM     17  O   THR d   1      63.664 -15.341  31.656  0.00  0.00    -0.271 OA
ATOM     18  H10 ARG d   1      65.636 -14.762  34.026  0.00  0.00     0.163 HD
BRANCH  16  19
ATOM     19  CA  THR d   1      65.968 -16.069  31.857  0.00  0.00     0.199 C 
ATOM     20  H4  THR d   1      66.248 -16.770  32.657  0.00  0.00     0.103 H 
BRANCH  19  21
ATOM     21  N   THR d   1      65.758 -16.849  30.644  0.00  0.00    -0.064 N 
ATOM     22  H1  THR d   1      64.988 -17.484  30.782  0.00  0.00     0.275 HD
ATOM     23  H2  THR d   1      66.593 -17.374  30.433  0.00  0.00     0.275 HD
ATOM     24  H3  THR d   1      65.549 -16.229  29.878  0.00  0.00     0.275 HD
ENDBRANCH  19  21
BRANCH  19  25
ATOM     25  CB  THR d   1      67.142 -15.099  31.650  0.00  0.00     0.068 C 
ATOM     26  H5  THR d   1      67.100 -14.337  32.442  0.00  0.00     0.086 H 
BRANCH  25  27
ATOM     27  OG1 THR d   1      66.986 -14.456  30.387  0.00  0.00    -0.393 OA
ATOM     28  H6  THR d   1      66.982 -15.110  29.698  0.00  0.00     0.210 HD
ENDBRANCH  25  27
BRANCH  25  29
ATOM     29  CG2 THR d   1      68.500 -15.779  31.728  0.00  0.00    -0.050 C 
ATOM     30  H7  THR d   1      69.293 -15.033  31.572  0.00  0.00     0.031 H 
ATOM     31  H8  THR d   1      68.567 -16.554  30.950  0.00  0.00     0.031 H 
ATOM     32  H9  THR d   1      68.622 -16.242  32.718  0.00  0.00     0.031 H 
ENDBRANCH  25  29
ENDBRANCH  19  25
ENDBRANCH  16  19
ENDBRANCH  13  15
BRANCH  13  33
ATOM     33  CB  ARG d   1      63.217 -14.412  35.406  0.00  0.00    -0.036 C 
ATOM     34  H12 ARG d   1      63.180 -13.591  36.137  0.00  0.00     0.036 H 
ATOM     35  H13 ARG d   1      63.921 -15.182  35.754  0.00  0.00     0.036 H 
BRANCH  33  36
ATOM     36  CG  ARG d   1      61.840 -15.027  35.295  0.00  0.00    -0.048 C 
ATOM     37  H14 ARG d   1      61.887 -16.078  35.618  0.00  0.00     0.035 H 
ATOM     38  H15 ARG d   1      61.507 -14.980  34.248  0.00  0.00     0.035 H 
BRANCH  36  39
ATOM     39  CD  ARG d   1      60.846 -14.280  36.169  0.00  0.00     0.009 C 
ATOM     40  H16 ARG d   1      60.886 -13.211  35.914  0.00  0.00     0.064 H 
ATOM     41  H17 ARG d   1      61.131 -14.416  37.223  0.00  0.00     0.064 H 
BRANCH  39  42
ATOM     42  NE  ARG d   1      59.469 -14.755  35.989  0.00  0.00    -0.227 N 
ATOM     43  CZ  ARG d   1      58.931 -15.790  36.634  0.00  0.00     0.665 C 
ATOM     44  NH1 ARG d   1      59.652 -16.487  37.507  0.00  0.00    -0.235 N 
ATOM     45  NH2 ARG d   1      57.671 -16.141  36.405  0.00  0.00    -0.235 N 
ATOM     46  H19 ARG d   1      59.230 -17.286  38.002  0.00  0.00     0.174 HD
ATOM     47  H20 ARG d   1      60.632 -16.228  37.688  0.00  0.00     0.174 HD
ATOM     48  H21 ARG d   1      57.102 -15.609  35.731  0.00  0.00     0.174 HD
ATOM     49  H22 ARG d   1      57.262 -16.946  36.901  0.00  0.00     0.174 HD
ATOM     50  H18 ARG d   1      58.875 -14.252  35.315  0.00  0.00     0.177 HD
ENDBRANCH  39  42
ENDBRANCH  36  39
ENDBRANCH  33  36
ENDBRANCH  13  33
ENDBRANCH  10  13
ENDBRANCH   7   9
BRANCH   7  51
ATOM     51  CB  SER d   1      62.029  -9.294  33.447  0.00  0.00     0.044 C 
ATOM     52  H25 SER d   1      61.117  -9.812  33.780  0.00  0.00     0.077 H 
ATOM     53  H26 SER d   1      62.132  -9.396  32.357  0.00  0.00     0.077 H 
BRANCH  51  54
ATOM     54  OG  SER d   1      61.888  -7.914  33.749  0.00  0.00    -0.398 OA
ATOM     55  H27 SER d   1      62.662  -7.447  33.458  0.00  0.00     0.209 HD
ENDBRANCH  51  54
ENDBRANCH   7  51
ENDBRANCH   4   7
ENDBRANCH   1   3
BRANCH   1  56
ATOM     56  C   LYS d   1      63.556  -7.037  37.412  0.00  0.00     0.241 C 
ATOM     57  O   LYS d   1      63.331  -7.027  38.625  0.00  0.00    -0.271 OA
ATOM     58  N   PHE d   1      62.734  -6.479  36.501  0.00  0.00    -0.346 N 
ATOM     59  H41 PHE d   1      62.959  -6.609  35.535  0.00  0.00     0.163 HD
BRANCH  58  60
ATOM     60  CA  PHE d   1      61.541  -5.700  36.817  0.00  0.00     0.093 C 
ATOM     61  H42 PHE d   1      61.855  -4.954  37.562  0.00  0.00     0.088 H 
BRANCH  60  62
ATOM     62  C   PHE d   1      60.394  -6.475  37.465  0.00  0.00     0.241 C 
ATOM     63  O   PHE d   1      59.435  -5.868  37.954  0.00  0.00    -0.271 OA
ATOM     64  N   PHE d   1      60.509  -7.809  37.487  0.00  0.00    -0.346 N 
ATOM     65  H50 PHE d   1      61.327  -8.215  37.080  0.00  0.00     0.163 HD
BRANCH  64  66
ATOM     66  CA  PHE d   1      59.514  -8.709  38.068  0.00  0.00     0.093 C 
ATOM     67  H51 PHE d   1      58.738  -8.105  38.560  0.00  0.00     0.088 H 
BRANCH  66  68
ATOM     68  C   PHE d   1      60.186  -9.568  39.128  0.00  0.00     0.241 C 
ATOM     69  O   PHE d   1      60.672 -10.666  38.833  0.00  0.00    -0.271 OA
ATOM     70  N   ASN d   1      60.294  -9.006  40.347  0.00  0.00    -0.344 N 
ATOM     71  H59 ASN d   1      59.902  -8.094  40.466  0.00  0.00     0.163 HD
BRANCH  70  72
ATOM     72  CA  ASN d   1      60.939  -9.618  41.517  0.00  0.00     0.104 C 
ATOM     73  H60 ASN d   1      60.949 -10.710  41.383  0.00  0.00     0.090 H 
BRANCH  72  74
ATOM     74  C   ASN d   1      60.132  -9.277  42.782  0.00  0.00     0.197 C 
ATOM     75  O   ASN d   1      59.723  -8.103  42.989  0.00  0.00    -0.646 OA
ATOM     76  O   ASN d   1      59.877 -10.182  43.621  0.00  0.00    -0.646 OA
ENDBRANCH  72  74
BRANCH  72  77
ATOM     77  CB  ASN d   1      62.410  -9.124  41.677  0.00  0.00     0.037 C 
ATOM     78  H61 ASN d   1      62.775  -9.509  42.641  0.00  0.00     0.051 H 
ATOM     79  H62 ASN d   1      62.378  -8.025  41.710  0.00  0.00     0.051 H 
BRANCH  77  80
ATOM     80  CG  ASN d   1      63.450  -9.509  40.619  0.00  0.00     0.217 C 
ATOM     81  OD1 ASN d   1      64.511  -8.884  40.520  0.00  0.00    -0.274 OA
ATOM     82  ND2 ASN d   1      63.235 -10.564  39.847  0.00  0.00    -0.370 N 
ATOM     83  H63 ASN d   1      63.908 -10.822  39.154  0.00  0.00     0.159 HD
ATOM     84  H64 ASN d   1      62.399 -11.102  39.957  0.00  0.00     0.159 HD
ENDBRANCH  77  80
ENDBRANCH  72  77
ENDBRANCH  70  72
ENDBRANCH  66  68
BRANCH  66  85
ATOM     85  CB  PHE d   1      58.833  -9.542  36.958  0.00  0.00    -0.014 C 
ATOM     86  H52 PHE d   1      58.115 -10.232  37.426  0.00  0.00     0.043 H 
ATOM     87  H53 PHE d   1      59.605 -10.120  36.428  0.00  0.00     0.043 H 
BRANCH  85  88
ATOM     88  CG  PHE d   1      58.096  -8.686  35.954  0.00  0.00    -0.056 A 
ATOM     89  CD1 PHE d   1      56.750  -8.357  36.148  0.00  0.00    -0.077 A 
ATOM     90  CE1 PHE d   1      56.083  -7.520  35.248  0.00  0.00    -0.082 A 
ATOM     91  H54 PHE d   1      56.219  -8.755  37.005  0.00  0.00     0.084 H 
ATOM     92  CZ  PHE d   1      56.758  -7.008  34.151  0.00  0.00    -0.083 A 
ATOM     93  H56 PHE d   1      55.040  -7.272  35.408  0.00  0.00     0.083 H 
ATOM     94  CE2 PHE d   1      58.093  -7.313  33.945  0.00  0.00    -0.082 A 
ATOM     95  H58 PHE d   1      56.238  -6.365  33.450  0.00  0.00     0.083 H 
ATOM     96  CD2 PHE d   1      58.761  -8.154  34.844  0.00  0.00    -0.077 A 
ATOM     97  H57 PHE d   1      58.619  -6.902  33.091  0.00  0.00     0.083 H 
ATOM     98  H55 PHE d   1      59.805  -8.395  34.678  0.00  0.00     0.084 H 
ENDBRANCH  85  88
ENDBRANCH  66  85
ENDBRANCH  64  66
ENDBRANCH  60  62
BRANCH  60  99
ATOM     99  CB  PHE d   1      61.070  -4.923  35.584  0.00  0.00    -0.014 C 
ATOM    100  H43 PHE d   1      60.294  -4.211  35.901  0.00  0.00     0.043 H 
ATOM    101  H44 PHE d   1      60.640  -5.639  34.868  0.00  0.00     0.043 H 
BRANCH  99 102
ATOM    102  CG  PHE d   1      62.164  -4.151  34.883  0.00  0.00    -0.056 A 
ATOM    103  CD1 PHE d   1      62.704  -3.005  35.454  0.00  0.00    -0.077 A 
ATOM    104  CE1 PHE d   1      63.709  -2.290  34.797  0.00  0.00    -0.082 A 
ATOM    105  H45 PHE d   1      62.343  -2.663  36.417  0.00  0.00     0.084 H 
ATOM    106  CZ  PHE d   1      64.145  -2.698  33.559  0.00  0.00    -0.083 A 
ATOM    107  H47 PHE d   1      64.145  -1.414  35.264  0.00  0.00     0.083 H 
ATOM    108  CE2 PHE d   1      63.607  -3.814  32.965  0.00  0.00    -0.082 A 
ATOM    109  H49 PHE d   1      64.918  -2.136  33.048  0.00  0.00     0.083 H 
ATOM    110  CD2 PHE d   1      62.626  -4.548  33.629  0.00  0.00    -0.077 A 
ATOM    111  H48 PHE d   1      63.945  -4.123  31.982  0.00  0.00     0.083 H 
ATOM    112  H46 PHE d   1      62.217  -5.438  33.165  0.00  0.00     0.084 H 
ENDBRANCH  99 102
ENDBRANCH  60  99
ENDBRANCH  58  60
ENDBRANCH   1  56
BRANCH   1 113
ATOM    113  CB  LYS d   1      65.996  -6.868  36.639  0.00  0.00    -0.038 C 
ATOM    114  H30 LYS d   1      66.882  -7.502  36.488  0.00  0.00     0.036 H 
ATOM    115  H31 LYS d   1      66.130  -6.260  37.546  0.00  0.00     0.036 H 
BRANCH 113 116
ATOM    116  CG  LYS d   1      65.890  -5.913  35.442  0.00  0.00    -0.061 C 
ATOM    117  H32 LYS d   1      65.160  -5.126  35.682  0.00  0.00     0.033 H 
ATOM    118  H33 LYS d   1      65.542  -6.481  34.567  0.00  0.00     0.033 H 
BRANCH 116 119
ATOM    119  CD  LYS d   1      67.218  -5.259  35.101  0.00  0.00    -0.043 C 
ATOM    120  H34 LYS d   1      68.011  -6.021  35.122  0.00  0.00     0.035 H 
ATOM    121  H35 LYS d   1      67.438  -4.480  35.846  0.00  0.00     0.035 H 
BRANCH 119 122
ATOM    122  CE  LYS d   1      67.173  -4.631  33.729  0.00  0.00     0.080 C 
ATOM    123  H36 LYS d   1      66.347  -3.906  33.699  0.00  0.00     0.075 H 
ATOM    124  H37 LYS d   1      66.995  -5.421  32.985  0.00  0.00     0.075 H 
BRANCH 122 125
ATOM    125  NZ  LYS d   1      68.436  -3.929  33.386  0.00  0.00    -0.079 N 
ATOM    126  H38 LYS d   1      68.358  -3.528  32.465  0.00  0.00     0.274 HD
ATOM    127  H39 LYS d   1      69.201  -4.586  33.403  0.00  0.00     0.274 HD
ATOM    128  H40 LYS d   1      68.607  -3.197  34.058  0.00  0.00     0.274 HD
ENDBRANCH 122 125
ENDBRANCH 119 122
ENDBRANCH 116 119
ENDBRANCH 113 116
ENDBRANCH   1 113
TORSDOF 34
