REMARK WARNING: 32 MAX_TORS EXCEEDED!!!
REMARK  72 active torsions:
REMARK  status: ('A' for Active; 'I' for Inactive)
REMARK    1  A    between atoms: N_1  and  CA_2 
REMARK    2  A    between atoms: CA_2  and  C_3 
REMARK    3  A    between atoms: CA_2  and  CB_5 
REMARK       I    between atoms: C_3  and  N_9 
REMARK    4  A    between atoms: CB_5  and  CG_6 
REMARK    5  A    between atoms: CG_6  and  CD1_7 
REMARK    6  A    between atoms: CG_6  and  CD2_8 
REMARK    7  A    between atoms: N_9  and  CA_10 
REMARK    8  A    between atoms: CA_10  and  C_11 
REMARK    9  A    between atoms: CA_10  and  CB_13 
REMARK       I    between atoms: C_11  and  N_15 
REMARK   10  A    between atoms: CB_13  and  OG_14 
REMARK   11  A    between atoms: N_15  and  CA_16 
REMARK   12  A    between atoms: CA_16  and  C_17 
REMARK   13  A    between atoms: CA_16  and  CB_19 
REMARK       I    between atoms: C_17  and  N_21 
REMARK   14  A    between atoms: CB_19  and  OG_20 
REMARK   15  A    between atoms: N_21  and  CA_22 
REMARK   16  A    between atoms: CA_22  and  C_23 
REMARK   17  A    between atoms: CA_22  and  CB_25 
REMARK       I    between atoms: C_23  and  N_29 
REMARK   18  A    between atoms: CB_25  and  CG_26 
REMARK   19  A    between atoms: CG_26  and  CD1_27 
REMARK   20  A    between atoms: CG_26  and  CD2_28 
REMARK   21  A    between atoms: N_29  and  CA_30 
REMARK   22  A    between atoms: CA_30  and  C_31 
REMARK   23  A    between atoms: CA_30  and  CB_33 
REMARK       I    between atoms: C_31  and  N_34 
REMARK   24  A    between atoms: N_34  and  CA_35 
REMARK   25  A    between atoms: CA_35  and  C_36 
REMARK   26  A    between atoms: CA_35  and  CB_38 
REMARK       I    between atoms: C_36  and  N_39 
REMARK   27  A    between atoms: N_39  and  CA_40 
REMARK   28  A    between atoms: CA_40  and  C_41 
REMARK   29  A    between atoms: CA_40  and  CB_43 
REMARK       I    between atoms: C_41  and  N_45 
REMARK   30  A    between atoms: CB_43  and  OG_44 
REMARK   31  A    between atoms: N_45  and  CA_46 
REMARK   32  A    between atoms: CA_46  and  C_47 
REMARK   33  A    between atoms: CA_46  and  CB_49 
REMARK       I    between atoms: C_47  and  N_51 
REMARK   34  A    between atoms: CB_49  and  OG_50 
REMARK   35  A    between atoms: N_51  and  CA_52 
REMARK   36  A    between atoms: CA_52  and  C_53 
REMARK   37  A    between atoms: CA_52  and  CB_55 
REMARK       I    between atoms: C_53  and  N_59 
REMARK   38  A    between atoms: CB_55  and  CG_56 
REMARK   39  A    between atoms: CG_56  and  CD1_57 
REMARK   40  A    between atoms: CG_56  and  CD2_58 
REMARK   41  A    between atoms: N_59  and  CA_60 
REMARK   42  A    between atoms: CA_60  and  C_61 
REMARK   43  A    between atoms: CA_60  and  CB_63 
REMARK       I    between atoms: C_61  and  N_64 
REMARK   44  A    between atoms: N_64  and  CA_65 
REMARK   45  A    between atoms: CA_65  and  C_66 
REMARK   46  A    between atoms: CA_65  and  CB_68 
REMARK       I    between atoms: C_66  and  N_73 
REMARK   47  A    between atoms: CB_68  and  CG_69 
REMARK   48  A    between atoms: CG_69  and  CD_70 
REMARK   49  A    between atoms: CD_70  and  CE_71 
REMARK   50  A    between atoms: CE_71  and  NZ_72 
REMARK   51  A    between atoms: N_73  and  CA_74 
REMARK   52  A    between atoms: CA_74  and  C_75 
REMARK   53  A    between atoms: CA_74  and  CB_77 
REMARK       I    between atoms: C_75  and  N_84 
REMARK   54  A    between atoms: CB_77  and  CG_78 
REMARK   55  A    between atoms: CG_78  and  CD_79 
REMARK   56  A    between atoms: CD_79  and  NE_80 
REMARK       I    between atoms: NE_80  and  CZ_81 
REMARK       I    between atoms: CZ_81  and  NH1_82 
REMARK       I    between atoms: CZ_81  and  NH2_83 
REMARK   57  A    between atoms: N_84  and  CA_85 
REMARK   58  A    between atoms: CA_85  and  C_86 
REMARK   59  A    between atoms: CA_85  and  CB_88 
REMARK       I    between atoms: C_86  and  N_95 
REMARK   60  A    between atoms: CB_88  and  CG_89 
REMARK   61  A    between atoms: CG_89  and  CD_90 
REMARK   62  A    between atoms: CD_90  and  NE_91 
REMARK       I    between atoms: NE_91  and  CZ_92 
REMARK       I    between atoms: CZ_92  and  NH1_93 
REMARK   63  A    between atoms: N_95  and  CA_96 
REMARK   64  A    between atoms: CA_96  and  C_97 
REMARK   65  A    between atoms: CA_96  and  CB_99 
REMARK       I    between atoms: C_97  and  N_104 
REMARK   66  A    between atoms: CB_99  and  CG_100 
REMARK   67  A    between atoms: CG_100  and  CD_101 
REMARK       I    between atoms: CD_101  and  NE2_103 
REMARK   68  A    between atoms: N_104  and  CA_105 
REMARK   69  A    between atoms: CA_105  and  C_106 
REMARK   70  A    between atoms: CA_105  and  CB_108 
REMARK   71  A    between atoms: CB_108  and  CG_109 
REMARK   72  A    between atoms: CG_109  and  CD_110 
REMARK       I    between atoms: CD_110  and  NE2_112 
ROOT
ATOM      1  CA  LEU d   1     -22.254 -27.919  16.986  0.00  0.00     0.089 C 
ATOM      2  H   LEU d   1     -21.886 -28.556  16.182  0.00  0.00     0.087 H 
ENDROOT
BRANCH   1   3
ATOM      3  N   LEU d   1     -23.344 -27.094  16.469  0.00  0.00    -0.346 N 
ATOM      4  C   SER d   1     -24.362 -27.622  15.795  0.00  0.00     0.243 C 
ATOM      5  O   SER d   1     -24.459 -28.827  15.574  0.00  0.00    -0.271 OA
ATOM      6  H   LEU d   1     -23.324 -26.087  16.629  0.00  0.00     0.163 HD
BRANCH   4   7
ATOM      7  CA  SER d   1     -25.429 -26.653  15.282  0.00  0.00     0.109 C 
ATOM      8  H   SER d   1     -26.368 -27.203  15.219  0.00  0.00     0.090 H 
BRANCH   7   9
ATOM      9  N   SER d   1     -25.654 -25.535  16.196  0.00  0.00    -0.344 N 
ATOM     10  C   SER d   1     -26.213 -25.720  17.388  0.00  0.00     0.243 C 
ATOM     11  O   SER d   1     -26.443 -26.838  17.846  0.00  0.00    -0.271 OA
ATOM     12  H   SER d   1     -25.377 -24.595  15.914  0.00  0.00     0.163 HD
BRANCH  10  13
ATOM     13  CA  SER d   1     -26.564 -24.466  18.189  0.00  0.00     0.109 C 
ATOM     14  H   SER d   1     -26.522 -23.604  17.523  0.00  0.00     0.090 H 
BRANCH  13  15
ATOM     15  N   SER d   1     -27.914 -24.576  18.737  0.00  0.00    -0.344 N 
ATOM     16  C   ALA d   1     -28.997 -24.585  17.968  0.00  0.00     0.240 C 
ATOM     17  O   ALA d   1     -28.952 -24.464  16.743  0.00  0.00    -0.271 OA
ATOM     18  H   SER d   1     -28.029 -24.649  19.748  0.00  0.00     0.163 HD
BRANCH  16  19
ATOM     19  CA  ALA d   1     -30.336 -24.753  18.690  0.00  0.00     0.086 C 
ATOM     20  H   ALA d   1     -30.908 -25.501  18.141  0.00  0.00     0.086 H 
BRANCH  19  21
ATOM     21  N   ALA d   1     -30.166 -25.247  20.058  0.00  0.00    -0.346 N 
ATOM     22  C   ALA d   1     -30.098 -26.551  20.310  0.00  0.00     0.240 C 
ATOM     23  O   ALA d   1     -30.122 -27.395  19.415  0.00  0.00    -0.271 OA
ATOM     24  H   ALA d   1     -30.099 -24.582  20.828  0.00  0.00     0.163 HD
BRANCH  22  25
ATOM     25  CA  ALA d   1     -29.994 -26.987  21.775  0.00  0.00     0.086 C 
ATOM     26  H   ALA d   1     -29.344 -27.862  21.774  0.00  0.00     0.086 H 
BRANCH  25  27
ATOM     27  N   ALA d   1     -29.356 -26.013  22.657  0.00  0.00    -0.346 N 
ATOM     28  C   LEU d   1     -28.182 -25.447  22.386  0.00  0.00     0.241 C 
ATOM     29  O   LEU d   1     -27.538 -25.693  21.368  0.00  0.00    -0.271 OA
ATOM     30  H   ALA d   1     -29.832 -25.754  23.521  0.00  0.00     0.163 HD
BRANCH  28  31
ATOM     31  CA  LEU d   1     -27.648 -24.458  23.425  0.00  0.00     0.089 C 
ATOM     32  H   LEU d   1     -27.447 -23.509  22.928  0.00  0.00     0.087 H 
BRANCH  31  33
ATOM     33  N   LEU d   1     -28.633 -24.199  24.473  0.00  0.00    -0.346 N 
ATOM     34  C   SER d   1     -29.869 -23.823  24.178  0.00  0.00     0.243 C 
ATOM     35  O   SER d   1     -30.251 -23.651  23.020  0.00  0.00    -0.271 OA
ATOM     36  H   LEU d   1     -28.364 -24.310  25.451  0.00  0.00     0.163 HD
BRANCH  34  37
ATOM     37  CA  SER d   1     -30.809 -23.575  25.348  0.00  0.00     0.109 C 
ATOM     38  H   SER d   1     -30.297 -23.509  26.308  0.00  0.00     0.090 H 
BRANCH  37  39
ATOM     39  N   SER d   1     -31.470 -22.345  24.977  0.00  0.00    -0.344 N 
ATOM     40  C   SER d   1     -30.752 -21.248  24.776  0.00  0.00     0.243 C 
ATOM     41  O   SER d   1     -29.616 -21.100  25.226  0.00  0.00    -0.271 OA
ATOM     42  H   SER d   1     -32.484 -22.320  24.870  0.00  0.00     0.163 HD
BRANCH  40  43
ATOM     43  CA  SER d   1     -31.411 -20.170  23.939  0.00  0.00     0.109 C 
ATOM     44  H   SER d   1     -32.331 -19.849  24.427  0.00  0.00     0.090 H 
BRANCH  43  45
ATOM     45  N   SER d   1     -30.566 -18.987  23.803  0.00  0.00    -0.344 N 
ATOM     46  C   LEU d   1     -30.032 -18.354  24.844  0.00  0.00     0.249 C 
ATOM     47  O   LEU d   1     -30.191 -18.713  26.011  0.00  0.00    -0.271 OA
ATOM     48  H   SER d   1     -30.377 -18.630  22.867  0.00  0.00     0.163 HD
BRANCH  46  49
ATOM     49  CA  LEU d   1     -29.187 -17.128  24.505  0.00  0.00     0.176 C 
ATOM     50  H   LEU d   1     -28.657 -17.333  23.575  0.00  0.00     0.099 H 
BRANCH  49  51
ATOM     51  N   LEU d   1     -30.027 -15.953  24.303  0.00  0.00    -0.066 N 
ATOM     52  H   LEU d   1     -30.707 -16.145  23.567  0.00  0.00     0.275 HD
ATOM     53  H   LEU d   1     -30.516 -15.733  25.171  0.00  0.00     0.275 HD
ATOM     54  H   LEU d   1     -29.443 -15.162  24.030  0.00  0.00     0.275 HD
ENDBRANCH  49  51
BRANCH  49  55
ATOM     55  CB  LEU d   1     -28.158 -16.861  25.606  0.00  0.00    -0.028 C 
ATOM     56  H   LEU d   1     -27.833 -17.838  25.963  0.00  0.00     0.037 H 
ATOM     57  H   LEU d   1     -28.653 -16.223  26.338  0.00  0.00     0.037 H 
BRANCH  55  58
ATOM     58  CG  LEU d   1     -26.888 -16.116  25.177  0.00  0.00    -0.059 C 
ATOM     59  H   LEU d   1     -26.608 -15.448  25.992  0.00  0.00     0.038 H 
BRANCH  58  60
ATOM     60  CD1 LEU d   1     -25.751 -17.097  24.936  0.00  0.00    -0.073 C 
ATOM     61  H   LEU d   1     -26.002 -17.743  24.095  0.00  0.00     0.028 H 
ATOM     62  H   LEU d   1     -24.838 -16.545  24.712  0.00  0.00     0.028 H 
ATOM     63  H   LEU d   1     -25.601 -17.704  25.829  0.00  0.00     0.028 H 
ENDBRANCH  58  60
BRANCH  58  64
ATOM     64  CD2 LEU d   1     -27.126 -15.248  23.943  0.00  0.00    -0.073 C 
ATOM     65  H   LEU d   1     -26.220 -14.687  23.715  0.00  0.00     0.028 H 
ATOM     66  H   LEU d   1     -27.384 -15.885  23.097  0.00  0.00     0.028 H 
ATOM     67  H   LEU d   1     -27.944 -14.555  24.140  0.00  0.00     0.028 H 
ENDBRANCH  58  64
ENDBRANCH  55  58
ENDBRANCH  49  55
ENDBRANCH  46  49
ENDBRANCH  43  45
BRANCH  43  68
ATOM     68  CB  SER d   1     -31.681 -20.767  22.558  0.00  0.00     0.044 C 
ATOM     69  H   SER d   1     -32.020 -19.974  21.892  0.00  0.00     0.077 H 
ATOM     70  H   SER d   1     -32.441 -21.543  22.652  0.00  0.00     0.077 H 
BRANCH  68  71
ATOM     71  OG  SER d   1     -30.501 -21.344  22.020  0.00  0.00    -0.398 OA
ATOM     72  H   SER d   1     -30.192 -22.040  22.604  0.00  0.00     0.209 HD
ENDBRANCH  68  71
ENDBRANCH  43  68
ENDBRANCH  40  43
ENDBRANCH  37  39
BRANCH  37  73
ATOM     73  CB  SER d   1     -31.805 -24.726  25.512  0.00  0.00     0.044 C 
ATOM     74  H   SER d   1     -32.600 -24.397  26.180  0.00  0.00     0.077 H 
ATOM     75  H   SER d   1     -31.269 -25.587  25.911  0.00  0.00     0.077 H 
BRANCH  73  76
ATOM     76  OG  SER d   1     -32.390 -25.100  24.275  0.00  0.00    -0.398 OA
ATOM     77  H   SER d   1     -31.701 -25.382  23.669  0.00  0.00     0.209 HD
ENDBRANCH  73  76
ENDBRANCH  37  73
ENDBRANCH  34  37
ENDBRANCH  31  33
BRANCH  31  78
ATOM     78  CB  LEU d   1     -26.350 -25.003  24.027  0.00  0.00    -0.035 C 
ATOM     79  H   LEU d   1     -25.559 -24.357  23.646  0.00  0.00     0.037 H 
ATOM     80  H   LEU d   1     -26.322 -26.057  23.752  0.00  0.00     0.037 H 
BRANCH  78  81
ATOM     81  CG  LEU d   1     -26.202 -24.975  25.551  0.00  0.00    -0.059 C 
ATOM     82  H   LEU d   1     -27.126 -25.355  25.986  0.00  0.00     0.038 H 
BRANCH  81  83
ATOM     83  CD1 LEU d   1     -25.060 -25.870  25.991  0.00  0.00    -0.073 C 
ATOM     84  H   LEU d   1     -25.259 -26.893  25.673  0.00  0.00     0.028 H 
ATOM     85  H   LEU d   1     -24.132 -25.521  25.538  0.00  0.00     0.028 H 
ATOM     86  H   LEU d   1     -24.971 -25.836  27.077  0.00  0.00     0.028 H 
ENDBRANCH  81  83
BRANCH  81  87
ATOM     87  CD2 LEU d   1     -25.999 -23.552  26.059  0.00  0.00    -0.073 C 
ATOM     88  H   LEU d   1     -25.096 -23.134  25.614  0.00  0.00     0.028 H 
ATOM     89  H   LEU d   1     -26.859 -22.942  25.781  0.00  0.00     0.028 H 
ATOM     90  H   LEU d   1     -25.897 -23.566  27.144  0.00  0.00     0.028 H 
ENDBRANCH  81  87
ENDBRANCH  78  81
ENDBRANCH  31  78
ENDBRANCH  28  31
ENDBRANCH  25  27
BRANCH  25  91
ATOM     91  CB  ALA d   1     -31.375 -27.331  22.312  0.00  0.00    -0.049 C 
ATOM     92  H   ALA d   1     -31.280 -27.754  23.312  0.00  0.00     0.030 H 
ATOM     93  H   ALA d   1     -31.982 -26.427  22.355  0.00  0.00     0.030 H 
ATOM     94  H   ALA d   1     -31.849 -28.058  21.652  0.00  0.00     0.030 H 
ENDBRANCH  25  91
ENDBRANCH  22  25
ENDBRANCH  19  21
BRANCH  19  95
ATOM     95  CB  ALA d   1     -31.106 -23.440  18.695  0.00  0.00    -0.049 C 
ATOM     96  H   ALA d   1     -32.088 -23.598  19.142  0.00  0.00     0.030 H 
ATOM     97  H   ALA d   1     -30.556 -22.700  19.276  0.00  0.00     0.030 H 
ATOM     98  H   ALA d   1     -31.224 -23.086  17.671  0.00  0.00     0.030 H 
ENDBRANCH  19  95
ENDBRANCH  16  19
ENDBRANCH  13  15
BRANCH  13  99
ATOM     99  CB  SER d   1     -25.560 -24.275  19.326  0.00  0.00     0.044 C 
ATOM    100  H   SER d   1     -25.241 -25.256  19.677  0.00  0.00     0.077 H 
ATOM    101  H   SER d   1     -26.041 -23.708  20.123  0.00  0.00     0.077 H 
BRANCH  99 102
ATOM    102  OG  SER d   1     -24.421 -23.560  18.888  0.00  0.00    -0.398 OA
ATOM    103  H   SER d   1     -24.690 -22.696  18.568  0.00  0.00     0.209 HD
ENDBRANCH  99 102
ENDBRANCH  13  99
ENDBRANCH  10  13
ENDBRANCH   7   9
BRANCH   7 104
ATOM    104  CB  SER d   1     -25.040 -26.139  13.893  0.00  0.00     0.044 C 
ATOM    105  H   SER d   1     -25.712 -25.323  13.627  0.00  0.00     0.077 H 
ATOM    106  H   SER d   1     -25.114 -26.965  13.186  0.00  0.00     0.077 H 
BRANCH 104 107
ATOM    107  OG  SER d   1     -23.708 -25.649  13.873  0.00  0.00    -0.398 OA
ATOM    108  H   SER d   1     -23.625 -24.926  14.499  0.00  0.00     0.209 HD
ENDBRANCH 104 107
ENDBRANCH   7 104
ENDBRANCH   4   7
ENDBRANCH   1   3
BRANCH   1 109
ATOM    109  C   LEU d   1     -22.756 -28.804  18.119  0.00  0.00     0.241 C 
ATOM    110  O   LEU d   1     -22.500 -30.007  18.141  0.00  0.00    -0.271 OA
ATOM    111  N   ALA d   1     -23.469 -28.197  19.063  0.00  0.00    -0.346 N 
ATOM    112  H   ALA d   1     -23.606 -27.188  19.008  0.00  0.00     0.163 HD
BRANCH 111 113
ATOM    113  CA  ALA d   1     -24.060 -28.932  20.173  0.00  0.00     0.086 C 
ATOM    114  H   ALA d   1     -23.268 -29.442  20.722  0.00  0.00     0.086 H 
BRANCH 113 115
ATOM    115  C   ALA d   1     -25.040 -29.978  19.647  0.00  0.00     0.240 C 
ATOM    116  O   ALA d   1     -25.211 -31.040  20.244  0.00  0.00    -0.271 OA
ATOM    117  N   LYS d   1     -25.679 -29.668  18.523  0.00  0.00    -0.346 N 
ATOM    118  H   LYS d   1     -25.517 -28.756  18.096  0.00  0.00     0.163 HD
BRANCH 117 119
ATOM    119  CA  LYS d   1     -26.604 -30.594  17.884  0.00  0.00     0.089 C 
ATOM    120  H   LYS d   1     -27.285 -30.974  18.645  0.00  0.00     0.087 H 
BRANCH 119 121
ATOM    121  C   LYS d   1     -25.858 -31.778  17.277  0.00  0.00     0.241 C 
ATOM    122  O   LYS d   1     -26.348 -32.907  17.301  0.00  0.00    -0.271 OA
ATOM    123  N   ARG d   1     -24.674 -31.518  16.731  0.00  0.00    -0.346 N 
ATOM    124  H   ARG d   1     -24.328 -30.558  16.717  0.00  0.00     0.163 HD
BRANCH 123 125
ATOM    125  CA  ARG d   1     -23.860 -32.581  16.151  0.00  0.00     0.089 C 
ATOM    126  H   ARG d   1     -24.485 -33.145  15.458  0.00  0.00     0.087 H 
BRANCH 125 127
ATOM    127  C   ARG d   1     -23.356 -33.520  17.242  0.00  0.00     0.241 C 
ATOM    128  O   ARG d   1     -23.141 -34.709  17.005  0.00  0.00    -0.271 OA
ATOM    129  N   ARG d   1     -23.179 -32.979  18.442  0.00  0.00    -0.346 N 
ATOM    130  H   ARG d   1     -23.388 -31.990  18.576  0.00  0.00     0.163 HD
BRANCH 129 131
ATOM    131  CA  ARG d   1     -22.694 -33.761  19.571  0.00  0.00     0.089 C 
ATOM    132  H   ARG d   1     -21.973 -34.491  19.202  0.00  0.00     0.087 H 
BRANCH 131 133
ATOM    133  C   ARG d   1     -23.844 -34.514  20.236  0.00  0.00     0.241 C 
ATOM    134  O   ARG d   1     -23.624 -35.483  20.965  0.00  0.00    -0.271 OA
ATOM    135  N   GLN d   1     -25.069 -34.069  19.971  0.00  0.00    -0.346 N 
ATOM    136  H   GLN d   1     -25.177 -33.227  19.405  0.00  0.00     0.163 HD
BRANCH 135 137
ATOM    137  CA  GLN d   1     -26.265 -34.746  20.464  0.00  0.00     0.090 C 
ATOM    138  H   GLN d   1     -26.086 -35.017  21.505  0.00  0.00     0.087 H 
BRANCH 137 139
ATOM    139  C   GLN d   1     -26.547 -36.020  19.672  0.00  0.00     0.241 C 
ATOM    140  O   GLN d   1     -27.686 -36.482  19.614  0.00  0.00    -0.271 OA
ATOM    141  N   GLN d   1     -25.508 -36.581  19.060  0.00  0.00    -0.345 N 
ATOM    142  H   GLN d   1     -24.591 -36.142  19.135  0.00  0.00     0.163 HD
BRANCH 141 143
ATOM    143  CA  GLN d   1     -25.646 -37.807  18.285  0.00  0.00     0.096 C 
ATOM    144  H   GLN d   1     -26.659 -38.187  18.423  0.00  0.00     0.089 H 
BRANCH 143 145
ATOM    145  C   GLN d   1     -24.659 -38.866  18.770  0.00  0.00     0.196 C 
ATOM    146  O   GLN d   1     -24.774 -39.375  19.917  0.00  0.00    -0.646 OA
ATOM    147  O   GLN d   1     -23.720 -39.234  18.015  0.00  0.00    -0.646 OA
ENDBRANCH 143 145
BRANCH 143 148
ATOM    148  CB  GLN d   1     -25.416 -37.522  16.801  0.00  0.00    -0.029 C 
ATOM    149  H   GLN d   1     -25.578 -38.458  16.266  0.00  0.00     0.037 H 
ATOM    150  H   GLN d   1     -24.408 -37.119  16.704  0.00  0.00     0.037 H 
BRANCH 148 151
ATOM    151  CG  GLN d   1     -26.368 -36.496  16.207  0.00  0.00     0.011 C 
ATOM    152  H   GLN d   1     -26.154 -35.531  16.666  0.00  0.00     0.047 H 
ATOM    153  H   GLN d   1     -27.387 -36.830  16.400  0.00  0.00     0.047 H 
BRANCH 151 154
ATOM    154  CD  GLN d   1     -26.197 -36.351  14.709  0.00  0.00     0.215 C 
ATOM    155  OE1 GLN d   1     -26.157 -37.342  13.979  0.00  0.00    -0.274 OA
ATOM    156  NE2 GLN d   1     -26.088 -35.112  14.241  0.00  0.00    -0.370 N 
ATOM    157  H   GLN d   1     -25.966 -34.953  13.241  0.00  0.00     0.159 HD
ATOM    158  H   GLN d   1     -26.127 -34.319  14.882  0.00  0.00     0.159 HD
ENDBRANCH 151 154
ENDBRANCH 148 151
ENDBRANCH 143 148
ENDBRANCH 141 143
ENDBRANCH 137 139
BRANCH 137 159
ATOM    159  CB  GLN d   1     -27.478 -33.814  20.378  0.00  0.00    -0.030 C 
ATOM    160  H   GLN d   1     -28.367 -34.442  20.441  0.00  0.00     0.037 H 
ATOM    161  H   GLN d   1     -27.384 -33.254  19.448  0.00  0.00     0.037 H 
BRANCH 159 162
ATOM    162  CG  GLN d   1     -27.573 -32.794  21.503  0.00  0.00     0.011 C 
ATOM    163  H   GLN d   1     -26.598 -32.319  21.610  0.00  0.00     0.047 H 
ATOM    164  H   GLN d   1     -27.883 -33.318  22.407  0.00  0.00     0.047 H 
BRANCH 162 165
ATOM    165  CD  GLN d   1     -28.594 -31.708  21.217  0.00  0.00     0.215 C 
ATOM    166  OE1 GLN d   1     -29.157 -31.643  20.124  0.00  0.00    -0.274 OA
ATOM    167  NE2 GLN d   1     -28.835 -30.847  22.199  0.00  0.00    -0.370 N 
ATOM    168  H   GLN d   1     -29.510 -30.094  22.063  0.00  0.00     0.159 HD
ATOM    169  H   GLN d   1     -28.345 -30.938  23.089  0.00  0.00     0.159 HD
ENDBRANCH 162 165
ENDBRANCH 159 162
ENDBRANCH 137 159
ENDBRANCH 135 137
ENDBRANCH 131 133
BRANCH 131 170
ATOM    170  CB  ARG d   1     -21.996 -32.850  20.585  0.00  0.00    -0.036 C 
ATOM    171  H   ARG d   1     -21.634 -33.485  21.394  0.00  0.00     0.036 H 
ATOM    172  H   ARG d   1     -22.723 -32.101  20.900  0.00  0.00     0.036 H 
BRANCH 170 173
ATOM    173  CG  ARG d   1     -20.789 -32.101  20.021  0.00  0.00    -0.048 C 
ATOM    174  H   ARG d   1     -20.426 -31.413  20.785  0.00  0.00     0.035 H 
ATOM    175  H   ARG d   1     -21.103 -31.577  19.118  0.00  0.00     0.035 H 
BRANCH 173 176
ATOM    176  CD  ARG d   1     -19.655 -33.047  19.653  0.00  0.00     0.009 C 
ATOM    177  H   ARG d   1     -20.009 -33.712  18.866  0.00  0.00     0.064 H 
ATOM    178  H   ARG d   1     -19.363 -33.594  20.550  0.00  0.00     0.064 H 
BRANCH 176 179
ATOM    179  NE  ARG d   1     -18.483 -32.330  19.153  0.00  0.00    -0.227 N 
ATOM    180  CZ  ARG d   1     -18.214 -32.129  17.866  0.00  0.00     0.665 C 
ATOM    181  NH1 ARG d   1     -19.029 -32.595  16.927  0.00  0.00    -0.235 N 
ATOM    182  NH2 ARG d   1     -17.122 -31.463  17.515  0.00  0.00    -0.235 N 
ATOM    183  H   ARG d   1     -19.868 -33.111  17.191  0.00  0.00     0.174 HD
ATOM    184  H   ARG d   1     -18.816 -32.437  15.942  0.00  0.00     0.174 HD
ATOM    185  H   ARG d   1     -16.490 -31.106  18.232  0.00  0.00     0.174 HD
ATOM    186  H   ARG d   1     -16.914 -31.308  16.529  0.00  0.00     0.174 HD
ATOM    187  H   ARG d   1     -17.826 -31.958  19.839  0.00  0.00     0.177 HD
ENDBRANCH 176 179
ENDBRANCH 173 176
ENDBRANCH 170 173
ENDBRANCH 131 170
ENDBRANCH 129 131
ENDBRANCH 125 127
BRANCH 125 188
ATOM    188  CB  ARG d   1     -22.677 -32.000  15.375  0.00  0.00    -0.036 C 
ATOM    189  H   ARG d   1     -22.070 -32.839  15.034  0.00  0.00     0.036 H 
ATOM    190  H   ARG d   1     -22.154 -31.318  16.046  0.00  0.00     0.036 H 
BRANCH 188 191
ATOM    191  CG  ARG d   1     -23.076 -31.205  14.147  0.00  0.00    -0.048 C 
ATOM    192  H   ARG d   1     -23.162 -30.155  14.427  0.00  0.00     0.035 H 
ATOM    193  H   ARG d   1     -24.023 -31.595  13.774  0.00  0.00     0.035 H 
BRANCH 191 194
ATOM    194  CD  ARG d   1     -22.036 -31.328  13.047  0.00  0.00     0.009 C 
ATOM    195  H   ARG d   1     -22.376 -30.740  12.195  0.00  0.00     0.064 H 
ATOM    196  H   ARG d   1     -21.925 -32.385  12.806  0.00  0.00     0.064 H 
BRANCH 194 197
ATOM    197  NE  ARG d   1     -20.729 -30.818  13.455  0.00  0.00    -0.227 N 
ATOM    198  CZ  ARG d   1     -20.345 -29.550  13.329  0.00  0.00     0.665 C 
ATOM    199  NH1 ARG d   1     -21.168 -28.646  12.814  0.00  0.00    -0.235 N 
ATOM    200  NH2 ARG d   1     -19.134 -29.181  13.724  0.00  0.00    -0.235 N 
ATOM    201  H   ARG d   1     -22.102 -28.921  12.511  0.00  0.00     0.174 HD
ATOM    202  H   ARG d   1     -20.866 -27.676  12.721  0.00  0.00     0.174 HD
ATOM    203  H   ARG d   1     -18.497 -29.869  14.125  0.00  0.00     0.174 HD
ATOM    204  H   ARG d   1     -18.840 -28.209  13.627  0.00  0.00     0.174 HD
ATOM    205  H   ARG d   1     -20.067 -31.478  13.864  0.00  0.00     0.177 HD
ENDBRANCH 194 197
ENDBRANCH 191 194
ENDBRANCH 188 191
ENDBRANCH 125 188
ENDBRANCH 123 125
ENDBRANCH 119 121
BRANCH 119 206
ATOM    206  CB  LYS d   1     -27.416 -29.872  16.807  0.00  0.00    -0.038 C 
ATOM    207  H   LYS d   1     -27.647 -30.602  16.031  0.00  0.00     0.036 H 
ATOM    208  H   LYS d   1     -26.817 -29.032  16.457  0.00  0.00     0.036 H 
BRANCH 206 209
ATOM    209  CG  LYS d   1     -28.735 -29.310  17.307  0.00  0.00    -0.061 C 
ATOM    210  H   LYS d   1     -28.560 -28.835  18.272  0.00  0.00     0.033 H 
ATOM    211  H   LYS d   1     -29.450 -30.130  17.381  0.00  0.00     0.033 H 
BRANCH 209 212
ATOM    212  CD  LYS d   1     -29.303 -28.265  16.356  0.00  0.00    -0.043 C 
ATOM    213  H   LYS d   1     -28.825 -27.310  16.573  0.00  0.00     0.035 H 
ATOM    214  H   LYS d   1     -30.383 -28.222  16.501  0.00  0.00     0.035 H 
BRANCH 212 215
ATOM    215  CE  LYS d   1     -29.031 -28.614  14.901  0.00  0.00     0.080 C 
ATOM    216  H   LYS d   1     -29.346 -29.644  14.734  0.00  0.00     0.075 H 
ATOM    217  H   LYS d   1     -27.967 -28.474  14.711  0.00  0.00     0.075 H 
BRANCH 215 218
ATOM    218  NZ  LYS d   1     -29.789 -27.739  13.964  0.00  0.00    -0.079 N 
ATOM    219  H   LYS d   1     -29.577 -28.008  13.003  0.00  0.00     0.274 HD
ATOM    220  H   LYS d   1     -30.789 -27.845  14.135  0.00  0.00     0.274 HD
ATOM    221  H   LYS d   1     -29.518 -26.767  14.114  0.00  0.00     0.274 HD
ENDBRANCH 215 218
ENDBRANCH 212 215
ENDBRANCH 209 212
ENDBRANCH 206 209
ENDBRANCH 119 206
ENDBRANCH 117 119
ENDBRANCH 113 115
BRANCH 113 222
ATOM    222  CB  ALA d   1     -24.764 -27.975  21.113  0.00  0.00    -0.049 C 
ATOM    223  H   ALA d   1     -24.044 -27.255  21.502  0.00  0.00     0.030 H 
ATOM    224  H   ALA d   1     -25.550 -27.449  20.572  0.00  0.00     0.030 H 
ATOM    225  H   ALA d   1     -25.202 -28.535  21.939  0.00  0.00     0.030 H 
ENDBRANCH 113 222
ENDBRANCH 111 113
ENDBRANCH   1 109
BRANCH   1 226
ATOM    226  CB  LEU d   1     -21.101 -27.033  17.473  0.00  0.00    -0.035 C 
ATOM    227  H   LEU d   1     -21.504 -26.485  18.325  0.00  0.00     0.037 H 
ATOM    228  H   LEU d   1     -20.784 -26.471  16.594  0.00  0.00     0.037 H 
BRANCH 226 229
ATOM    229  CG  LEU d   1     -19.829 -27.707  17.997  0.00  0.00    -0.059 C 
ATOM    230  H   LEU d   1     -20.095 -28.306  18.868  0.00  0.00     0.038 H 
BRANCH 229 231
ATOM    231  CD1 LEU d   1     -19.227 -28.652  16.967  0.00  0.00    -0.073 C 
ATOM    232  H   LEU d   1     -19.951 -29.429  16.721  0.00  0.00     0.028 H 
ATOM    233  H   LEU d   1     -18.973 -28.092  16.067  0.00  0.00     0.028 H 
ATOM    234  H   LEU d   1     -18.327 -29.109  17.378  0.00  0.00     0.028 H 
ENDBRANCH 229 231
BRANCH 229 235
ATOM    235  CD2 LEU d   1     -18.816 -26.643  18.403  0.00  0.00    -0.073 C 
ATOM    236  H   LEU d   1     -18.570 -26.028  17.537  0.00  0.00     0.028 H 
ATOM    237  H   LEU d   1     -19.243 -26.016  19.186  0.00  0.00     0.028 H 
ATOM    238  H   LEU d   1     -17.913 -27.126  18.775  0.00  0.00     0.028 H 
ENDBRANCH 229 235
ENDBRANCH 226 229
ENDBRANCH   1 226
TORSDOF 72
