REMARK  15 active torsions:
REMARK  status: ('A' for Active; 'I' for Inactive)
REMARK    1  A    between atoms: C6_3  and  N6_29 
REMARK    2  A    between atoms: CA_9  and  C_8 
REMARK    3  A    between atoms: CA_9  and  N_10 
REMARK    4  A    between atoms: CB_11  and  CA_9 
REMARK    5  A    between atoms: CAM_12  and  CB_11 
REMARK    6  A    between atoms: CAY_13  and  CAM_12 
REMARK    7  A    between atoms: CAY_13  and  NAR_14 
REMARK    8  A    between atoms: CAN_18  and  CAY_13 
REMARK    9  A    between atoms: NAR_14  and  CAK_15 
REMARK   10  A    between atoms: CAK_15  and  CAJ_16 
REMARK   11  A    between atoms: CAJ_16  and  CAA_17 
REMARK   12  A    between atoms: CBB_19  and  CAN_18 
REMARK   13  A    between atoms: CAZ_21  and  OAF_22 
REMARK   14  A    between atoms: CBA_23  and  OAG_24 
REMARK   15  A    between atoms: CBC_25  and  N9_26 
ROOT
ATOM      1  CAY 0UM d   1      -3.734  25.525  16.702  0.00  0.00     0.104 C 
ATOM      2  H   0UM d   1      -4.787  25.632  16.964  0.00  0.00     0.084 H 
ENDROOT
BRANCH   1   3
ATOM      3  CAM 0UM d   1      -2.956  25.305  18.036  0.00  0.00    -0.036 C 
ATOM      4  H   0UM d   1      -2.231  24.509  17.867  0.00  0.00     0.036 H 
ATOM      5  H   0UM d   1      -2.497  26.255  18.310  0.00  0.00     0.036 H 
BRANCH   3   6
ATOM      6  CB  0UM d   1      -3.861  24.870  19.206  0.00  0.00    -0.027 C 
ATOM      7  H   0UM d   1      -4.618  24.202  18.795  0.00  0.00     0.036 H 
ATOM      8  H   0UM d   1      -3.217  24.410  19.956  0.00  0.00     0.036 H 
BRANCH   6   9
ATOM      9  CA  0UM d   1      -4.597  26.017  19.889  0.00  0.00     0.182 C 
ATOM     10  H   0UM d   1      -5.032  26.681  19.141  0.00  0.00     0.101 H 
BRANCH   9  11
ATOM     11  C   0UM d   1      -5.780  25.460  20.741  0.00  0.00     0.204 C 
ATOM     12  O   0UM d   1      -5.957  25.946  21.864  0.00  0.00    -0.646 OA
ATOM     13  OXT 0UM d   1      -6.557  24.620  20.226  0.00  0.00    -0.646 OA
ENDBRANCH   9  11
BRANCH   9  14
ATOM     14  N   0UM d   1      -3.648  26.824  20.679  0.00  0.00    -0.065 N 
ATOM     15  H   0UM d   1      -2.900  27.159  20.071  0.00  0.00     0.275 HD
ATOM     16  H   0UM d   1      -4.138  27.620  21.087  0.00  0.00     0.275 HD
ATOM     17  H   0UM d   1      -3.252  26.249  21.422  0.00  0.00     0.275 HD
ENDBRANCH   9  14
ENDBRANCH   6   9
ENDBRANCH   3   6
ENDBRANCH   1   3
BRANCH   1  18
ATOM     18  NAR 0UM d   1      -3.576  24.360  15.809  0.00  0.00    -0.071 N 
ATOM     19  H   0UM d   1      -4.285  24.480  15.085  0.00  0.00     0.277 HD
ATOM     20  H   0UM d   1      -3.639  23.545  16.419  0.00  0.00     0.277 HD
BRANCH  18  21
ATOM     21  CAK 0UM d   1      -2.294  24.201  15.077  0.00  0.00     0.082 C 
ATOM     22  H   0UM d   1      -1.467  24.124  15.783  0.00  0.00     0.075 H 
ATOM     23  H   0UM d   1      -2.119  25.066  14.438  0.00  0.00     0.075 H 
BRANCH  21  24
ATOM     24  CAJ 0UM d   1      -2.379  22.928  14.227  0.00  0.00    -0.046 C 
ATOM     25  H   0UM d   1      -3.230  23.021  13.552  0.00  0.00     0.034 H 
ATOM     26  H   0UM d   1      -2.488  22.074  14.896  0.00  0.00     0.034 H 
BRANCH  24  27
ATOM     27  CAA 0UM d   1      -1.118  22.726  13.388  0.00  0.00    -0.075 C 
ATOM     28  H   0UM d   1      -0.987  23.578  12.721  0.00  0.00     0.027 H 
ATOM     29  H   0UM d   1      -0.254  22.643  14.047  0.00  0.00     0.027 H 
ATOM     30  H   0UM d   1      -1.217  21.814  12.800  0.00  0.00     0.027 H 
ENDBRANCH  24  27
ENDBRANCH  21  24
ENDBRANCH  18  21
ENDBRANCH   1  18
BRANCH   1  31
ATOM     31  CAN 0UM d   1      -3.311  26.845  15.967  0.00  0.00    -0.012 C 
ATOM     32  H   0UM d   1      -3.623  26.761  14.926  0.00  0.00     0.040 H 
ATOM     33  H   0UM d   1      -2.232  26.958  16.078  0.00  0.00     0.040 H 
BRANCH  31  34
ATOM     34  CBB 0UM d   1      -3.973  28.088  16.554  0.00  0.00     0.070 C 
ATOM     35  OAS 0UM d   1      -3.388  28.395  17.839  0.00  0.00    -0.355 OA
ATOM     36  CBC 0UM d   1      -3.183  29.821  17.941  0.00  0.00     0.139 C 
ATOM     37  CBA 0UM d   1      -3.784  30.431  16.645  0.00  0.00     0.105 C 
ATOM     38  H   0UM d   1      -3.652  30.272  18.816  0.00  0.00     0.122 H 
ATOM     39  CAZ 0UM d   1      -3.686  29.280  15.664  0.00  0.00     0.089 C 
ATOM     40  H   0UM d   1      -3.287  31.336  16.294  0.00  0.00     0.093 H 
ATOM     41  H   0UM d   1      -2.737  29.258  15.128  0.00  0.00     0.091 H 
ATOM     42  H   0UM d   1      -5.043  27.896  16.640  0.00  0.00     0.087 H 
BRANCH  36  43
ATOM     43  N9  0UM d   1      -1.721  30.049  18.016  0.00  0.00    -0.294 N 
ATOM     44  C4  0UM d   1      -1.198  31.253  18.236  0.00  0.00     0.167 A 
ATOM     45  C5  0UM d   1       0.139  31.131  18.153  0.00  0.00     0.149 A 
ATOM     46  N3  0UM d   1      -1.799  32.436  18.555  0.00  0.00    -0.222 NA
ATOM     47  C6  0UM d   1       0.921  32.213  18.379  0.00  0.00     0.155 A 
ATOM     48  N7  0UM d   1       0.408  29.860  17.812  0.00  0.00    -0.236 NA
ATOM     49  N1  0UM d   1       0.388  33.415  18.643  0.00  0.00    -0.222 NA
ATOM     50  C2  0UM d   1      -0.999  33.551  18.776  0.00  0.00     0.091 A 
ATOM     51  H   0UM d   1      -1.442  34.510  19.047  0.00  0.00     0.146 H 
ATOM     52  C8  0UM d   1      -0.737  29.200  17.699  0.00  0.00     0.071 A 
ATOM     53  H   0UM d   1      -0.855  28.158  17.402  0.00  0.00     0.144 H 
BRANCH  47  54
ATOM     54  N6  0UM d   1       2.242  32.082  18.257  0.00  0.00    -0.382 N 
ATOM     55  H   0UM d   1       2.643  31.181  17.998  0.00  0.00     0.157 HD
ATOM     56  H   0UM d   1       2.851  32.883  18.422  0.00  0.00     0.157 HD
ENDBRANCH  47  54
ENDBRANCH  36  43
BRANCH  37  57
ATOM     57  OAG 0UM d   1      -5.140  30.755  16.887  0.00  0.00    -0.388 OA
ATOM     58  H   0UM d   1      -5.590  29.990  17.254  0.00  0.00     0.210 HD
ENDBRANCH  37  57
BRANCH  39  59
ATOM     59  OAF 0UM d   1      -4.715  29.351  14.719  0.00  0.00    -0.390 OA
ATOM     60  H   0UM d   1      -5.555  29.461  15.170  0.00  0.00     0.210 HD
ENDBRANCH  39  59
ENDBRANCH  31  34
ENDBRANCH   1  31
TORSDOF 15
