REMARK  10 active torsions:
REMARK  status: ('A' for Active; 'I' for Inactive)
REMARK    1  A    between atoms: CA_2  and  CB_3 
REMARK    2  A    between atoms: CA_12  and  CB_15 
REMARK    3  A    between atoms: CB_15  and  CG_16 
REMARK    4  A    between atoms: C17_31  and  O3_25 
REMARK    5  A    between atoms: O3_25  and  C19_33 
REMARK    6  A    between atoms: C9_36  and  CA_35 
REMARK    7  A    between atoms: C9_36  and  C10_37 
REMARK    8  A    between atoms: CA_46  and  CB_49 
REMARK    9  A    between atoms: CB_49  and  CG_50 
REMARK   10  A    between atoms: N_56  and  CN_60 
ROOT
ATOM      1  N   DAL d   1     -58.611 -37.268 -17.220  0.00  0.00    -0.349 N 
ATOM      2  CA  DAL d   1     -59.766 -36.375 -17.304  0.00  0.00     0.057 C 
ATOM      3  C   DAL d   1     -59.840 -35.577 -16.014  0.00  0.00     0.098 A 
ATOM      4  H   DAL d   1     -57.758 -36.943 -17.675  0.00  0.00     0.163 HD
ATOM      5  H   DAL d   1     -60.702 -36.922 -17.419  0.00  0.00     0.082 H 
ATOM      6  N   BB9 d   1     -59.059 -34.520 -15.800  0.00  0.00    -0.238 NA
ATOM      7  CA  BB9 d   1     -59.263 -33.900 -14.562  0.00  0.00     0.132 A 
ATOM      8  C   BB9 d   1     -58.458 -32.735 -14.105  0.00  0.00     0.271 C 
ATOM      9  O   BB9 d   1     -58.756 -32.023 -13.136  0.00  0.00    -0.266 OA
ATOM     10  CB  BB9 d   1     -60.161 -34.553 -13.774  0.00  0.00    -0.010 A 
ATOM     11  SG  BB9 d   1     -60.864 -35.902 -14.597  0.00  0.00    -0.082 SA
ATOM     12  H   BB9 d   1     -60.406 -34.262 -12.752  0.00  0.00     0.099 H 
ATOM     13  N   TRP d   1     -57.355 -32.588 -14.846  0.00  0.00    -0.342 N 
ATOM     14  CA  TRP d   1     -56.288 -31.625 -14.673  0.00  0.00     0.093 C 
ATOM     15  C   TRP d   1     -55.661 -31.242 -16.026  0.00  0.00     0.241 C 
ATOM     16  O   TRP d   1     -56.010 -31.828 -17.073  0.00  0.00    -0.271 OA
ATOM     17  H   TRP d   1     -57.253 -33.233 -15.629  0.00  0.00     0.163 HD
ATOM     18  H   TRP d   1     -56.633 -30.674 -14.268  0.00  0.00     0.088 H 
ATOM     19  C   0UO d   1     -53.192 -30.622 -17.950  0.00  0.00     0.241 C 
ATOM     20  CA  0UO d   1     -54.003 -29.626 -17.089  0.00  0.00     0.093 C 
ATOM     21  N   0UO d   1     -54.741 -30.244 -15.981  0.00  0.00    -0.346 N 
ATOM     22  O   0UO d   1     -52.969 -30.371 -19.132  0.00  0.00    -0.271 OA
ATOM     23  H   0UO d   1     -54.720 -29.230 -17.808  0.00  0.00     0.088 H 
ATOM     24  H   0UO d   1     -54.535 -29.874 -15.053  0.00  0.00     0.163 HD
ATOM     25  N   GLY d   1     -52.770 -31.748 -17.351  0.00  0.00    -0.351 N 
ATOM     26  CA  GLY d   1     -51.996 -32.824 -17.965  0.00  0.00     0.069 C 
ATOM     27  C   GLY d   1     -52.813 -33.793 -18.817  0.00  0.00     0.236 C 
ATOM     28  O   GLY d   1     -52.207 -34.733 -19.338  0.00  0.00    -0.272 OA
ATOM     29  H   GLY d   1     -53.015 -31.863 -16.368  0.00  0.00     0.163 HD
ATOM     30  H   GLY d   1     -51.561 -33.406 -17.152  0.00  0.00     0.078 H 
ATOM     31  H   GLY d   1     -51.270 -32.354 -18.628  0.00  0.00     0.078 H 
ATOM     32  N   DBB d   1     -54.148 -33.599 -18.954  0.00  0.00    -0.346 N 
ATOM     33  CA  DBB d   1     -55.134 -34.428 -19.663  0.00  0.00     0.089 C 
ATOM     34  C   DBB d   1     -55.311 -35.723 -18.839  0.00  0.00     0.245 C 
ATOM     35  O   DBB d   1     -56.349 -35.959 -18.238  0.00  0.00    -0.271 OA
ATOM     36  H   DBB d   1     -54.519 -32.763 -18.503  0.00  0.00     0.163 HD
ATOM     37  H   DBB d   1     -54.822 -34.678 -20.677  0.00  0.00     0.087 H 
ATOM     38  N   DHA d   1     -54.247 -36.530 -18.779  0.00  0.00    -0.321 N 
ATOM     39  CA  DHA d   1     -54.090 -37.737 -18.104  0.00  0.00     0.093 C 
ATOM     40  CB  DHA d   1     -52.984 -38.451 -18.368  0.00  0.00    -0.091 C 
ATOM     41  C   DHA d   1     -55.084 -38.197 -17.116  0.00  0.00     0.269 C 
ATOM     42  O   DHA d   1     -54.955 -37.894 -15.930  0.00  0.00    -0.266 OA
ATOM     43  H   DHA d   1     -53.431 -36.215 -19.305  0.00  0.00     0.169 HD
ATOM     44  H   DHA d   1     -52.254 -38.079 -19.086  0.00  0.00     0.070 H 
ATOM     45  H   DHA d   1     -52.817 -39.403 -17.864  0.00  0.00     0.070 H 
ATOM     46  N   SAR d   1     -56.192 -38.865 -17.554  0.00  0.00    -0.342 N 
ATOM     47  CA  SAR d   1     -57.223 -39.269 -16.578  0.00  0.00     0.071 C 
ATOM     48  C   SAR d   1     -58.540 -38.470 -16.613  0.00  0.00     0.236 C 
ATOM     49  O   SAR d   1     -59.507 -38.995 -16.063  0.00  0.00    -0.272 OA
ATOM     50  H   SAR d   1     -56.791 -39.102 -15.591  0.00  0.00     0.079 H 
ATOM     51  H   SAR d   1     -57.485 -40.299 -16.819  0.00  0.00     0.079 H 
ENDROOT
BRANCH  20  52
ATOM     52  C9  0UO d   1     -53.158 -28.462 -16.514  0.00  0.00    -0.012 C 
ATOM     53  H   0UO d   1     -53.824 -27.874 -15.882  0.00  0.00     0.044 H 
ATOM     54  H   0UO d   1     -52.738 -27.929 -17.367  0.00  0.00     0.044 H 
BRANCH  52  55
ATOM     55  C10 0UO d   1     -52.005 -28.877 -15.655  0.00  0.00    -0.025 A 
ATOM     56  C11 0UO d   1     -50.786 -29.134 -16.175  0.00  0.00    -0.015 A 
ATOM     57  N6  0UO d   1     -49.940 -29.590 -15.200  0.00  0.00    -0.365 N 
ATOM     58  H   0UO d   1     -50.514 -28.998 -17.222  0.00  0.00     0.112 H 
ATOM     59  C13 0UO d   1     -50.571 -29.638 -13.979  0.00  0.00     0.045 A 
ATOM     60  H   0UO d   1     -48.969 -29.859 -15.358  0.00  0.00     0.165 HD
ATOM     61  C14 0UO d   1     -50.113 -30.029 -12.710  0.00  0.00    -0.056 A 
ATOM     62  C18 0UO d   1     -51.923 -29.197 -14.225  0.00  0.00     0.032 A 
ATOM     63  C15 0UO d   1     -50.981 -29.994 -11.610  0.00  0.00    -0.078 A 
ATOM     64  H   0UO d   1     -49.083 -30.360 -12.581  0.00  0.00     0.086 H 
ATOM     65  C16 0UO d   1     -52.310 -29.562 -11.798  0.00  0.00    -0.050 A 
ATOM     66  H   0UO d   1     -50.633 -30.297 -10.622  0.00  0.00     0.083 H 
ATOM     67  C17 0UO d   1     -52.796 -29.141 -13.081  0.00  0.00     0.081 A 
ATOM     68  H   0UO d   1     -52.988 -29.547 -10.944  0.00  0.00     0.087 H 
BRANCH  67  69
ATOM     69  O3  0UO d   1     -54.096 -28.714 -13.274  0.00  0.00    -0.355 OA
BRANCH  69  70
ATOM     70  C19 0UO d   1     -55.017 -28.719 -12.183  0.00  0.00     0.010 C 
ATOM     71  H   0UO d   1     -55.126 -29.736 -11.806  0.00  0.00     0.066 H 
ATOM     72  H   0UO d   1     -54.641 -28.073 -11.389  0.00  0.00     0.066 H 
ATOM     73  H   0UO d   1     -55.985 -28.352 -12.524  0.00  0.00     0.066 H 
ENDBRANCH  69  70
ENDBRANCH  67  69
ENDBRANCH  52  55
ENDBRANCH  20  52
BRANCH  14  74
ATOM     74  CB  TRP d   1     -55.310 -32.290 -13.697  0.00  0.00    -0.012 C 
ATOM     75  H   TRP d   1     -55.895 -32.603 -12.832  0.00  0.00     0.044 H 
ATOM     76  H   TRP d   1     -54.530 -31.558 -13.488  0.00  0.00     0.044 H 
BRANCH  74  77
ATOM     77  CG  TRP d   1     -54.621 -33.518 -14.220  0.00  0.00    -0.028 A 
ATOM     78  CD1 TRP d   1     -55.199 -34.670 -14.668  0.00  0.00    -0.015 A 
ATOM     79  NE1 TRP d   1     -54.218 -35.510 -15.136  0.00  0.00    -0.365 N 
ATOM     80  H   TRP d   1     -56.267 -34.889 -14.656  0.00  0.00     0.112 H 
ATOM     81  CE2 TRP d   1     -52.967 -34.946 -15.026  0.00  0.00     0.042 A 
ATOM     82  H   TRP d   1     -54.395 -36.439 -15.519  0.00  0.00     0.165 HD
ATOM     83  CD2 TRP d   1     -53.198 -33.652 -14.467  0.00  0.00    -0.002 A 
ATOM     84  CZ2 TRP d   1     -51.678 -35.408 -15.312  0.00  0.00    -0.056 A 
ATOM     85  CE3 TRP d   1     -52.093 -32.809 -14.240  0.00  0.00    -0.070 A 
ATOM     86  CZ3 TRP d   1     -50.790 -33.269 -14.479  0.00  0.00    -0.082 A 
ATOM     87  H   TRP d   1     -52.251 -31.794 -13.877  0.00  0.00     0.084 H 
ATOM     88  CH2 TRP d   1     -50.593 -34.557 -15.032  0.00  0.00    -0.081 A 
ATOM     89  H   TRP d   1     -49.934 -32.638 -14.240  0.00  0.00     0.083 H 
ATOM     90  H   TRP d   1     -49.580 -34.897 -15.245  0.00  0.00     0.083 H 
ATOM     91  H   TRP d   1     -51.519 -36.398 -15.739  0.00  0.00     0.086 H 
ENDBRANCH  74  77
ENDBRANCH  14  74
BRANCH  33  92
ATOM     92  CB  DBB d   1     -56.458 -33.632 -19.722  0.00  0.00    -0.041 C 
ATOM     93  H   DBB d   1     -56.356 -32.773 -19.059  0.00  0.00     0.036 H 
ATOM     94  H   DBB d   1     -57.262 -34.308 -19.431  0.00  0.00     0.036 H 
BRANCH  92  95
ATOM     95  CG  DBB d   1     -56.782 -33.103 -21.115  0.00  0.00    -0.074 C 
ATOM     96  H   DBB d   1     -55.983 -32.438 -21.445  0.00  0.00     0.027 H 
ATOM     97  H   DBB d   1     -56.870 -33.939 -21.808  0.00  0.00     0.027 H 
ATOM     98  H   DBB d   1     -57.724 -32.555 -21.084  0.00  0.00     0.027 H 
ENDBRANCH  92  95
ENDBRANCH  33  92
BRANCH   2  99
ATOM     99  CB  DAL d   1     -59.587 -35.475 -18.534  0.00  0.00    -0.052 C 
ATOM    100  H   DAL d   1     -60.432 -34.790 -18.607  0.00  0.00     0.030 H 
ATOM    101  H   DAL d   1     -58.663 -34.905 -18.434  0.00  0.00     0.030 H 
ATOM    102  H   DAL d   1     -59.540 -36.093 -19.431  0.00  0.00     0.030 H 
ENDBRANCH   2  99
BRANCH  46 103
ATOM    103  CN  SAR d   1     -56.460 -39.245 -18.958  0.00  0.00    -0.015 C 
ATOM    104  H   SAR d   1     -56.497 -38.347 -19.575  0.00  0.00     0.056 H 
ATOM    105  H   SAR d   1     -55.664 -39.900 -19.314  0.00  0.00     0.056 H 
ATOM    106  H   SAR d   1     -57.415 -39.767 -19.016  0.00  0.00     0.056 H 
ENDBRANCH  46 103
TORSDOF 10
