REMARK  5 active torsions:
REMARK  status: ('A' for Active; 'I' for Inactive)
REMARK    1  A    between atoms: C2_2  and  O2_3 
REMARK    2  A    between atoms: C3_4  and  O3_5 
REMARK    3  A    between atoms: C4_6  and  O4_7 
REMARK    4  A    between atoms: C5_8  and  C6_10 
REMARK    5  A    between atoms: C6_10  and  O6_11 
ROOT
ATOM      1  C1  DGJ d   1     -93.392  12.230 -44.785  0.00  0.00     0.108 C 
ATOM      2  C2  DGJ d   1     -93.239  10.862 -44.134  0.00  0.00     0.086 C 
ATOM      3  C3  DGJ d   1     -92.575   9.944 -45.130  0.00  0.00     0.088 C 
ATOM      4  C4  DGJ d   1     -93.476   9.787 -46.321  0.00  0.00     0.092 C 
ATOM      5  C5  DGJ d   1     -93.782  11.160 -46.911  0.00  0.00     0.149 C 
ATOM      6  N5  DGJ d   1     -94.245  12.131 -45.954  0.00  0.00    -0.064 N 
ATOM      7  H1  DGJ d   1     -92.402  12.602 -45.087  0.00  0.00     0.079 H 
ATOM      8  H2  DGJ d   1     -93.842  12.928 -44.064  0.00  0.00     0.079 H 
ATOM      9  H3  DGJ d   1     -94.241  10.463 -43.919  0.00  0.00     0.089 H 
ATOM     10  H5  DGJ d   1     -91.623  10.390 -45.453  0.00  0.00     0.091 H 
ATOM     11  H7  DGJ d   1     -92.960   9.188 -47.087  0.00  0.00     0.090 H 
ATOM     12  H9  DGJ d   1     -92.857  11.554 -47.357  0.00  0.00     0.091 H 
ATOM     13  H10 DGJ d   1     -94.279  13.033 -46.403  0.00  0.00     0.277 HD
ATOM     14  H11 DGJ d   1     -95.171  11.869 -45.654  0.00  0.00     0.277 HD
ENDROOT
BRANCH   5  15
ATOM     15  C6  DGJ d   1     -94.807  10.956 -48.012  0.00  0.00     0.046 C 
ATOM     16  H12 DGJ d   1     -95.624  10.324 -47.635  0.00  0.00     0.077 H 
ATOM     17  H13 DGJ d   1     -94.326  10.461 -48.868  0.00  0.00     0.077 H 
BRANCH  15  18
ATOM     18  O6  DGJ d   1     -95.327  12.185 -48.423  0.00  0.00    -0.399 OA
ATOM     19  H14 DGJ d   1     -95.966  12.043 -49.111  0.00  0.00     0.209 HD
ENDBRANCH  15  18
ENDBRANCH   5  15
BRANCH   4  20
ATOM     20  O4  DGJ d   1     -94.614   9.111 -45.930  0.00  0.00    -0.391 OA
ATOM     21  H8  DGJ d   1     -95.191   9.006 -46.677  0.00  0.00     0.210 HD
ENDBRANCH   4  20
BRANCH   3  22
ATOM     22  O3  DGJ d   1     -92.317   8.701 -44.553  0.00  0.00    -0.390 OA
ATOM     23  H6  DGJ d   1     -91.900   8.137 -45.193  0.00  0.00     0.210 HD
ENDBRANCH   3  22
BRANCH   2  24
ATOM     24  O2  DGJ d   1     -92.557  10.957 -42.919  0.00  0.00    -0.391 OA
ATOM     25  H4  DGJ d   1     -91.692  11.321 -43.070  0.00  0.00     0.210 HD
ENDBRANCH   2  24
TORSDOF 5
