REMARK  8 active torsions:
REMARK  status: ('A' for Active; 'I' for Inactive)
REMARK    1  A    between atoms: C19_1  and  O18_2 
REMARK    2  A    between atoms: O18_2  and  C13_3 
REMARK    3  A    between atoms: C12_5  and  O16_6 
REMARK    4  A    between atoms: O16_6  and  C17_7 
REMARK    5  A    between atoms: C11_14  and  O20_15 
REMARK    6  A    between atoms: O20_15  and  C21_16 
REMARK    7  A    between atoms: C4_24  and  N25_25 
REMARK    8  A    between atoms: N25_25  and  C26_26 
ROOT
ATOM      1  C21 I3K d   1       7.056  13.881  41.546  0.00  0.00     0.078 A 
ATOM      2  C22 I3K d   1       7.445  13.990  40.207  0.00  0.00    -0.020 A 
ATOM      3  C24 I3K d   1       7.388  14.869  42.465  0.00  0.00    -0.048 A 
ATOM      4  C23 I3K d   1       8.105  15.975  42.043  0.00  0.00    -0.045 A 
ATOM      5  C1  I3K d   1       8.489  16.081  40.709  0.00  0.00     0.108 A 
ATOM      6  O5  I3K d   1       9.176  17.050  40.064  0.00  0.00    -0.276 OA
ATOM      7  C2  I3K d   1       8.161  15.101  39.770  0.00  0.00     0.097 A 
ATOM      8  N3  I3K d   1       8.644  15.481  38.572  0.00  0.00    -0.206 NA
ATOM      9  C4  I3K d   1       9.260  16.663  38.764  0.00  0.00     0.252 A 
ATOM     10  H11 I3K d   1       7.188  13.205  39.505  0.00  0.00     0.091 H 
ATOM     11  H12 I3K d   1       7.088  14.774  43.502  0.00  0.00     0.087 H 
ATOM     12  H13 I3K d   1       8.367  16.756  42.748  0.00  0.00     0.088 H 
ENDROOT
BRANCH   1  13
ATOM     13  O20 I3K d   1       6.371  12.802  42.015  0.00  0.00    -0.310 OA
BRANCH  13  14
ATOM     14  C11 I3K d   1       5.079  12.522  41.620  0.00  0.00     0.090 A 
ATOM     15  C6  I3K d   1       4.453  11.389  42.153  0.00  0.00     0.029 A 
ATOM     16  C15 I3K d   1       5.106  10.552  43.071  0.00  0.00    -0.033 A 
ATOM     17  C7  I3K d   1       3.147  11.097  41.761  0.00  0.00     0.072 A 
ATOM     18  C12 I3K d   1       4.454   9.419  43.581  0.00  0.00     0.102 A 
ATOM     19  H8  I3K d   1       6.117  10.781  43.387  0.00  0.00     0.089 H 
ATOM     20  C13 I3K d   1       3.147   9.122  43.193  0.00  0.00     0.103 A 
ATOM     21  C14 I3K d   1       2.502   9.970  42.275  0.00  0.00    -0.019 A 
ATOM     22  H4  I3K d   1       1.489   9.745  41.962  0.00  0.00     0.091 H 
ATOM     23  N8  I3K d   1       2.504  11.893  40.878  0.00  0.00    -0.260 NA
ATOM     24  C9  I3K d   1       3.073  12.968  40.366  0.00  0.00     0.005 A 
ATOM     25  C10 I3K d   1       4.370  13.322  40.716  0.00  0.00    -0.032 A 
ATOM     26  H9  I3K d   1       2.522  13.582  39.664  0.00  0.00     0.114 H 
ATOM     27  H10 I3K d   1       4.828  14.209  40.293  0.00  0.00     0.090 H 
BRANCH  18  28
ATOM     28  O16 I3K d   1       5.049   8.583  44.474  0.00  0.00    -0.353 OA
BRANCH  28  29
ATOM     29  C17 I3K d   1       6.422   8.949  44.798  0.00  0.00     0.010 C 
ATOM     30  H5  I3K d   1       6.832   8.229  45.522  0.00  0.00     0.066 H 
ATOM     31  H6  I3K d   1       6.439   9.959  45.235  0.00  0.00     0.066 H 
ATOM     32  H7  I3K d   1       7.031   8.935  43.882  0.00  0.00     0.066 H 
ENDBRANCH  28  29
ENDBRANCH  18  28
BRANCH  20  33
ATOM     33  O18 I3K d   1       2.544   8.008  43.735  0.00  0.00    -0.353 OA
BRANCH  33  34
ATOM     34  C19 I3K d   1       1.199   7.656  43.311  0.00  0.00     0.010 C 
ATOM     35  H1  I3K d   1       0.874   6.747  43.839  0.00  0.00     0.066 H 
ATOM     36  H2  I3K d   1       1.193   7.472  42.227  0.00  0.00     0.066 H 
ATOM     37  H3  I3K d   1       0.512   8.482  43.547  0.00  0.00     0.066 H 
ENDBRANCH  33  34
ENDBRANCH  20  33
ENDBRANCH  13  14
ENDBRANCH   1  13
BRANCH   9  38
ATOM     38  N25 I3K d   1       9.890  17.467  37.901  0.00  0.00    -0.320 N 
ATOM     39  H14 I3K d   1      10.151  18.402  38.246  0.00  0.00     0.169 HD
BRANCH  38  40
ATOM     40  C26 I3K d   1      10.213  17.184  36.645  0.00  0.00     0.035 A 
ATOM     41  C27 I3K d   1       9.334  16.509  35.804  0.00  0.00    -0.056 A 
ATOM     42  C28 I3K d   1       9.674  16.247  34.484  0.00  0.00    -0.060 A 
ATOM     43  H15 I3K d   1       8.372  16.184  36.184  0.00  0.00     0.087 H 
ATOM     44  C29 I3K d   1      10.902  16.674  34.009  0.00  0.00     0.034 A 
ATOM     45  H16 I3K d   1       8.988  15.716  33.834  0.00  0.00     0.086 H 
ATOM     46 CL3  I3K d   1      11.325  16.335  32.370  0.00  0.00    -0.084 Cl
ATOM     47  C30 I3K d   1      11.787  17.363  34.839  0.00  0.00    -0.060 A 
ATOM     48  C31 I3K d   1      11.443  17.621  36.162  0.00  0.00    -0.056 A 
ATOM     49  H17 I3K d   1      12.743  17.697  34.453  0.00  0.00     0.086 H 
ATOM     50  H18 I3K d   1      12.126  18.157  36.810  0.00  0.00     0.087 H 
ENDBRANCH  38  40
ENDBRANCH   9  38
TORSDOF 8
