REMARK  14 active torsions:
REMARK  status: ('A' for Active; 'I' for Inactive)
REMARK    1  A    between atoms: C17_1  and  O1_2 
REMARK    2  A    between atoms: O1_2  and  C15_3 
REMARK    3  A    between atoms: C14_5  and  O2_6 
REMARK    4  A    between atoms: O2_6  and  C18_7 
REMARK    5  A    between atoms: C13_8  and  O3_9 
REMARK    6  A    between atoms: O3_9  and  C19_10 
REMARK    7  A    between atoms: C11_12  and  N4_13 
REMARK    8  A    between atoms: N4_13  and  C10_14 
REMARK    9  A    between atoms: C7_19  and  N1_20 
REMARK   10  A    between atoms: C4_25  and  C6_26 
REMARK       I    between atoms: C6_26  and  N5_28 
REMARK   11  A    between atoms: N5_28  and  C20_29 
REMARK   12  A    between atoms: C20_29  and  C21_30 
REMARK   13  A    between atoms: C25_35  and  O5_36 
REMARK   14  A    between atoms: O5_36  and  C26_37 
ROOT
ATOM      1  N1  NZF d   1      19.818  13.845  60.631  0.00  0.00    -0.364 N 
ATOM      2  C3  NZF d   1      19.134  15.094  61.019  0.00  0.00     0.008 C 
ATOM      3  C2  NZF d   1      19.127  12.915  59.699  0.00  0.00    -0.004 C 
ATOM      4  C1  NZF d   1      17.807  12.530  60.357  0.00  0.00    -0.049 C 
ATOM      5  C5  NZF d   1      17.022  13.790  60.729  0.00  0.00    -0.051 C 
ATOM      6  C4  NZF d   1      17.824  14.703  61.685  0.00  0.00     0.039 C 
ATOM      7  H15 NZF d   1      18.935  15.707  60.128  0.00  0.00     0.065 H 
ATOM      8  H16 NZF d   1      19.759  15.663  61.723  0.00  0.00     0.065 H 
ATOM      9  H17 NZF d   1      19.743  12.019  59.533  0.00  0.00     0.064 H 
ATOM     10  H18 NZF d   1      18.939  13.414  58.737  0.00  0.00     0.064 H 
ATOM     11  H19 NZF d   1      18.010  11.945  61.266  0.00  0.00     0.035 H 
ATOM     12  H20 NZF d   1      17.213  11.924  59.656  0.00  0.00     0.035 H 
ATOM     13  H21 NZF d   1      16.085  13.493  61.222  0.00  0.00     0.034 H 
ATOM     14  H22 NZF d   1      16.792  14.350  59.811  0.00  0.00     0.034 H 
ATOM     15  H23 NZF d   1      18.053  14.134  62.598  0.00  0.00     0.057 H 
ENDROOT
BRANCH   1  16
ATOM     16  C7  NZF d   1      21.037  13.467  61.207  0.00  0.00     0.146 A 
ATOM     17  N3  NZF d   1      21.578  12.289  60.862  0.00  0.00    -0.045 NA
ATOM     18  C10 NZF d   1      22.741  11.885  61.397  0.00  0.00     0.728 A 
ATOM     19  N2  NZF d   1      23.381  12.674  62.287  0.00  0.00    -0.075 NA
ATOM     20  C9  NZF d   1      22.891  13.846  62.661  0.00  0.00     0.025 A 
ATOM     21  C8  NZF d   1      21.687  14.291  62.125  0.00  0.00    -0.021 A 
ATOM     22  H13 NZF d   1      23.425  14.455  63.381  0.00  0.00     0.115 H 
ATOM     23  H14 NZF d   1      21.267  15.248  62.412  0.00  0.00     0.091 H 
BRANCH  18  24
ATOM     24  N4  NZF d   1      23.312  10.706  61.095  0.00  0.00    -0.188 N 
ATOM     25  H12 NZF d   1      24.192  10.485  61.581  0.00  0.00     0.184 HD
BRANCH  24  26
ATOM     26  C11 NZF d   1      22.860   9.786  60.229  0.00  0.00     0.054 A 
ATOM     27  C16 NZF d   1      21.550   9.676  59.759  0.00  0.00    -0.022 A 
ATOM     28  C15 NZF d   1      21.190   8.659  58.860  0.00  0.00     0.106 A 
ATOM     29  H4  NZF d   1      20.801  10.385  60.092  0.00  0.00     0.091 H 
ATOM     30  C14 NZF d   1      22.167   7.730  58.440  0.00  0.00     0.135 A 
ATOM     31  C13 NZF d   1      23.465   7.833  58.932  0.00  0.00     0.106 A 
ATOM     32  C12 NZF d   1      23.794   8.855  59.810  0.00  0.00    -0.022 A 
ATOM     33  H11 NZF d   1      24.811   8.926  60.178  0.00  0.00     0.091 H 
BRANCH  28  34
ATOM     34  O1  NZF d   1      19.887   8.594  58.400  0.00  0.00    -0.353 OA
BRANCH  34  35
ATOM     35  C17 NZF d   1      18.882   8.419  59.441  0.00  0.00     0.010 C 
ATOM     36  H1  NZF d   1      17.883   8.379  58.983  0.00  0.00     0.066 H 
ATOM     37  H2  NZF d   1      18.930   9.265  60.143  0.00  0.00     0.066 H 
ATOM     38  H3  NZF d   1      19.075   7.481  59.983  0.00  0.00     0.066 H 
ENDBRANCH  34  35
ENDBRANCH  28  34
BRANCH  30  39
ATOM     39  O2  NZF d   1      21.874   6.713  57.572  0.00  0.00    -0.351 OA
BRANCH  39  40
ATOM     40  C18 NZF d   1      22.403   6.929  56.246  0.00  0.00     0.011 C 
ATOM     41  H5  NZF d   1      22.134   6.080  55.601  0.00  0.00     0.067 H 
ATOM     42  H6  NZF d   1      23.498   7.017  56.298  0.00  0.00     0.067 H 
ATOM     43  H7  NZF d   1      21.980   7.855  55.829  0.00  0.00     0.067 H 
ENDBRANCH  39  40
ENDBRANCH  30  39
BRANCH  31  44
ATOM     44  O3  NZF d   1      24.441   6.969  58.558  0.00  0.00    -0.353 OA
BRANCH  44  45
ATOM     45  C19 NZF d   1      25.400   6.812  59.611  0.00  0.00     0.010 C 
ATOM     46  H8  NZF d   1      26.183   6.109  59.292  0.00  0.00     0.066 H 
ATOM     47  H9  NZF d   1      24.899   6.419  60.508  0.00  0.00     0.066 H 
ATOM     48  H10 NZF d   1      25.854   7.787  59.842  0.00  0.00     0.066 H 
ENDBRANCH  44  45
ENDBRANCH  31  44
ENDBRANCH  24  26
ENDBRANCH  18  24
ENDBRANCH   1  16
BRANCH   6  49
ATOM     49  C6  NZF d   1      17.012  15.950  62.092  0.00  0.00     0.223 C 
ATOM     50  O4  NZF d   1      16.554  16.762  61.283  0.00  0.00    -0.273 OA
ATOM     51  N5  NZF d   1      16.859  16.092  63.391  0.00  0.00    -0.356 N 
ATOM     52  H24 NZF d   1      17.251  15.415  64.013  0.00  0.00     0.162 HD
BRANCH  51  53
ATOM     53  C20 NZF d   1      16.119  17.234  63.934  0.00  0.00     0.019 C 
ATOM     54  H25 NZF d   1      15.040  17.064  63.806  0.00  0.00     0.071 H 
ATOM     55  H26 NZF d   1      16.413  18.148  63.397  0.00  0.00     0.071 H 
BRANCH  53  56
ATOM     56  C21 NZF d   1      16.432  17.395  65.414  0.00  0.00    -0.038 A 
ATOM     57  C27 NZF d   1      15.413  17.478  66.360  0.00  0.00    -0.043 A 
ATOM     58  C25 NZF d   1      15.751  17.618  67.706  0.00  0.00     0.078 A 
ATOM     59  H27 NZF d   1      14.374  17.434  66.055  0.00  0.00     0.088 H 
ATOM     60  C24 NZF d   1      17.078  17.698  68.100  0.00  0.00    -0.050 A 
ATOM     61  C23 NZF d   1      18.074  17.613  67.142  0.00  0.00    -0.080 A 
ATOM     62  H30 NZF d   1      17.333  17.826  69.146  0.00  0.00     0.087 H 
ATOM     63  C22 NZF d   1      17.758  17.465  65.800  0.00  0.00    -0.075 A 
ATOM     64  H29 NZF d   1      19.114  17.663  67.445  0.00  0.00     0.083 H 
ATOM     65  H28 NZF d   1      18.546  17.404  65.058  0.00  0.00     0.084 H 
BRANCH  58  66
ATOM     66  O5  NZF d   1      14.788  17.729  68.651  0.00  0.00    -0.255 OA
BRANCH  66  67
ATOM     67  C26 NZF d   1      14.360  16.547  69.269  0.00  0.00     0.530 C 
ATOM     68  F2  NZF d   1      15.354  16.037  69.999  0.00  0.00    -0.144 F 
ATOM     69  F3  NZF d   1      13.376  16.956  70.072  0.00  0.00    -0.144 F 
ATOM     70  F1  NZF d   1      13.904  15.654  68.354  0.00  0.00    -0.144 F 
ENDBRANCH  66  67
ENDBRANCH  58  66
ENDBRANCH  53  56
ENDBRANCH  51  53
ENDBRANCH   6  49
TORSDOF 14
