REMARK  11 active torsions:
REMARK  status: ('A' for Active; 'I' for Inactive)
REMARK    1  A    between atoms: C15_2  and  C21_3 
REMARK    2  A    between atoms: C21_3  and  N5_4 
REMARK    3  A    between atoms: N5_4  and  S1_5 
REMARK    4  A    between atoms: S1_5  and  C5_8 
REMARK    5  A    between atoms: C6_13  and  C4_14 
REMARK       I    between atoms: C4_14  and  N3_16 
REMARK    6  A    between atoms: N3_16  and  C1_17 
REMARK    7  A    between atoms: C11_21  and  C12_22 
REMARK    8  A    between atoms: C12_22  and  N4_23 
REMARK    9  A    between atoms: N2_32  and  C8_33 
REMARK   10  A    between atoms: C20_38  and  C27_39 
REMARK   11  A    between atoms: C27_39  and  O4_40 
ROOT
ATOM      1  C1  0US d   1      22.668  10.121   7.646  0.00  0.00     0.711 A 
ATOM      2  N1  0US d   1      23.910   9.670   7.825  0.00  0.00    -0.062 NA
ATOM      3  C2  0US d   1      24.036   8.520   7.159  0.00  0.00     0.103 A 
ATOM      4  C10 0US d   1      25.098   7.634   7.000  0.00  0.00    -0.045 A 
ATOM      5  C11 0US d   1      24.924   6.482   6.220  0.00  0.00    -0.030 A 
ATOM      6  C17 0US d   1      23.701   6.233   5.609  0.00  0.00    -0.073 A 
ATOM      7  C9  0US d   1      22.641   7.111   5.766  0.00  0.00    -0.053 A 
ATOM      8  C3  0US d   1      22.823   8.258   6.542  0.00  0.00     0.081 A 
ATOM      9  N2  0US d   1      22.016   9.258   6.867  0.00  0.00    -0.174 N 
ATOM     10  H12 0US d   1      26.052   7.833   7.475  0.00  0.00     0.088 H 
ATOM     11  H26 0US d   1      23.575   5.343   5.003  0.00  0.00     0.084 H 
ATOM     12  H27 0US d   1      21.686   6.911   5.294  0.00  0.00     0.087 H 
ENDROOT
BRANCH   1  13
ATOM     13  N3  0US d   1      22.155  11.241   8.185  0.00  0.00    -0.153 N 
ATOM     14  C4  0US d   1      22.842  12.044   9.006  0.00  0.00     0.270 C 
ATOM     15  O3  0US d   1      24.013  11.875   9.363  0.00  0.00    -0.267 OA
ATOM     16  H11 0US d   1      21.212  11.486   7.961  0.00  0.00     0.187 HD
BRANCH  14  17
ATOM     17  C6  0US d   1      22.028  13.189   9.595  0.00  0.00     0.034 A 
ATOM     18  C7  0US d   1      20.747  13.497   9.120  0.00  0.00    -0.045 A 
ATOM     19  C5  0US d   1      20.035  14.541   9.714  0.00  0.00     0.080 A 
ATOM     20  H7  0US d   1      20.314  12.932   8.302  0.00  0.00     0.087 H 
ATOM     21  C22 0US d   1      20.588  15.248  10.771  0.00  0.00    -0.060 A 
ATOM     22  C26 0US d   1      21.856  14.931  11.234  0.00  0.00    -0.081 A 
ATOM     23  H8  0US d   1      20.027  16.051  11.237  0.00  0.00     0.085 H 
ATOM     24  C23 0US d   1      22.573  13.901  10.659  0.00  0.00    -0.068 A 
ATOM     25  H9  0US d   1      22.287  15.496  12.053  0.00  0.00     0.083 H 
ATOM     26  H10 0US d   1      23.558  13.648  11.035  0.00  0.00     0.085 H 
BRANCH  19  27
ATOM     27  S1  0US d   1      18.445  14.976   9.137  0.00  0.00     0.259 S 
ATOM     28  O1  0US d   1      18.120  16.371   9.586  0.00  0.00    -0.201 OA
ATOM     29  O2  0US d   1      18.386  14.852   7.649  0.00  0.00    -0.201 OA
BRANCH  27  30
ATOM     30  N5  0US d   1      17.377  13.964   9.863  0.00  0.00    -0.312 N 
ATOM     31  H6  0US d   1      16.736  14.259  10.572  0.00  0.00     0.172 HD
BRANCH  30  32
ATOM     32  C21 0US d   1      17.453  12.597   9.375  0.00  0.00     0.017 C 
ATOM     33  H4  0US d   1      17.268  12.584   8.291  0.00  0.00     0.071 H 
ATOM     34  H5  0US d   1      18.454  12.189   9.581  0.00  0.00     0.071 H 
BRANCH  32  35
ATOM     35  C15 0US d   1      16.419  11.760  10.069  0.00  0.00    -0.095 C 
ATOM     36  C16 0US d   1      16.744  10.966  11.097  0.00  0.00    -0.123 C 
ATOM     37  H1  0US d   1      15.977  10.367  11.586  0.00  0.00     0.066 H 
ATOM     38  H2  0US d   1      17.775  10.919  11.444  0.00  0.00     0.066 H 
ATOM     39  H3  0US d   1      15.385  11.799   9.730  0.00  0.00     0.078 H 
ENDBRANCH  32  35
ENDBRANCH  30  32
ENDBRANCH  27  30
ENDBRANCH  19  27
ENDBRANCH  14  17
ENDBRANCH   1  13
BRANCH   9  40
ATOM     40  C8  0US d   1      20.628   9.305   6.395  0.00  0.00     0.034 C 
ATOM     41  C14 0US d   1      19.590   9.239   7.522  0.00  0.00    -0.045 C 
ATOM     42  C19 0US d   1      18.236   8.957   6.865  0.00  0.00    -0.058 C 
ATOM     43  H29 0US d   1      19.556  10.197   8.062  0.00  0.00     0.036 H 
ATOM     44  H30 0US d   1      19.845   8.431   8.224  0.00  0.00     0.036 H 
ATOM     45  C20 0US d   1      17.876   9.960   5.753  0.00  0.00    -0.034 C 
ATOM     46  H31 0US d   1      17.456   9.001   7.640  0.00  0.00     0.033 H 
ATOM     47  H32 0US d   1      18.263   7.948   6.429  0.00  0.00     0.033 H 
ATOM     48  C18 0US d   1      19.037  10.287   4.807  0.00  0.00    -0.058 C 
ATOM     49  H37 0US d   1      17.074   9.511   5.149  0.00  0.00     0.043 H 
ATOM     50  C13 0US d   1      20.367  10.506   5.526  0.00  0.00    -0.045 C 
ATOM     51  H35 0US d   1      19.156   9.452   4.101  0.00  0.00     0.033 H 
ATOM     52  H36 0US d   1      18.786  11.203   4.252  0.00  0.00     0.033 H 
ATOM     53  H33 0US d   1      21.176  10.617   4.789  0.00  0.00     0.036 H 
ATOM     54  H34 0US d   1      20.311  11.412   6.148  0.00  0.00     0.036 H 
ATOM     55  H28 0US d   1      20.480   8.412   5.770  0.00  0.00     0.074 H 
BRANCH  45  56
ATOM     56  C27 0US d   1      17.340  11.252   6.386  0.00  0.00     0.020 C 
ATOM     57  H38 0US d   1      18.098  11.663   7.069  0.00  0.00     0.074 H 
ATOM     58  H39 0US d   1      16.423  11.026   6.949  0.00  0.00     0.074 H 
BRANCH  56  59
ATOM     59  O4  0US d   1      17.043  12.225   5.367  0.00  0.00    -0.400 OA
ATOM     60  H40 0US d   1      16.713  13.017   5.774  0.00  0.00     0.209 HD
ENDBRANCH  56  59
ENDBRANCH  45  56
ENDBRANCH   9  40
BRANCH   5  61
ATOM     61  C12 0US d   1      26.096   5.500   6.013  0.00  0.00     0.107 C 
ATOM     62  H13 0US d   1      26.926   5.801   6.668  0.00  0.00     0.083 H 
ATOM     63  H14 0US d   1      26.419   5.556   4.963  0.00  0.00     0.083 H 
BRANCH  61  64
ATOM     64  N4  0US d   1      25.737   4.105   6.321  0.00  0.00    -0.067 N 
ATOM     65  C24 0US d   1      26.910   3.292   5.912  0.00  0.00     0.084 C 
ATOM     66  C29 0US d   1      26.800   1.820   6.356  0.00  0.00    -0.042 C 
ATOM     67  H16 0US d   1      27.814   3.728   6.362  0.00  0.00     0.076 H 
ATOM     68  H17 0US d   1      26.994   3.323   4.816  0.00  0.00     0.076 H 
ATOM     69  C30 0US d   1      26.543   1.699   7.864  0.00  0.00    -0.062 C 
ATOM     70  H18 0US d   1      27.740   1.303   6.112  0.00  0.00     0.035 H 
ATOM     71  H19 0US d   1      25.969   1.345   5.814  0.00  0.00     0.035 H 
ATOM     72  C28 0US d   1      25.307   2.517   8.231  0.00  0.00    -0.042 C 
ATOM     73  H20 0US d   1      27.414   2.080   8.417  0.00  0.00     0.033 H 
ATOM     74  H21 0US d   1      26.376   0.643   8.125  0.00  0.00     0.033 H 
ATOM     75  C25 0US d   1      25.456   3.984   7.769  0.00  0.00     0.084 C 
ATOM     76  H22 0US d   1      25.173   2.496   9.322  0.00  0.00     0.035 H 
ATOM     77  H23 0US d   1      24.425   2.075   7.744  0.00  0.00     0.035 H 
ATOM     78  H24 0US d   1      24.521   4.519   7.991  0.00  0.00     0.076 H 
ATOM     79  H25 0US d   1      26.284   4.446   8.327  0.00  0.00     0.076 H 
ATOM     80  H15 0US d   1      24.922   3.824   5.798  0.00  0.00     0.280 HD
ENDBRANCH  61  64
ENDBRANCH   5  61
TORSDOF 11
