REMARK  7 active torsions:
REMARK  status: ('A' for Active; 'I' for Inactive)
REMARK    1  A    between atoms: C28_1  and  O2_2 
REMARK    2  A    between atoms: O2_2  and  C27_3 
REMARK    3  A    between atoms: C27_3  and  C15_5 
REMARK    4  A    between atoms: C12_10  and  N2_11 
REMARK    5  A    between atoms: C6_14  and  C18_15 
REMARK    6  A    between atoms: C18_15  and  N3_16 
REMARK       I    between atoms: N4_27  and  C20_28 
REMARK    7  A    between atoms: C20_28  and  C21_30 
ROOT
ATOM      1  N2  0UU d   1      22.101   9.630   6.920  0.00  0.00    -0.174 N 
ATOM      2  C3  0UU d   1      22.968   8.650   6.648  0.00  0.00     0.082 A 
ATOM      3  C5  0UU d   1      22.895   7.498   5.848  0.00  0.00    -0.046 A 
ATOM      4  C6  0UU d   1      24.005   6.656   5.752  0.00  0.00    -0.030 A 
ATOM      5  C4  0UU d   1      25.162   6.960   6.459  0.00  0.00    -0.073 A 
ATOM      6  C2  0UU d   1      25.224   8.098   7.273  0.00  0.00    -0.052 A 
ATOM      7  C1  0UU d   1      24.124   8.948   7.353  0.00  0.00     0.103 A 
ATOM      8  N1  0UU d   1      23.920  10.090   8.033  0.00  0.00    -0.062 NA
ATOM      9  C19 0UU d   1      22.682  10.494   7.757  0.00  0.00     0.711 A 
ATOM     10  N4  0UU d   1      22.106  11.580   8.292  0.00  0.00    -0.153 N 
ATOM     11  C20 0UU d   1      22.752  12.376   9.155  0.00  0.00     0.269 C 
ATOM     12  O1  0UU d   1      23.922  12.256   9.522  0.00  0.00    -0.267 OA
ATOM     13  H14 0UU d   1      21.984   7.264   5.309  0.00  0.00     0.088 H 
ATOM     14  H28 0UU d   1      26.026   6.310   6.380  0.00  0.00     0.084 H 
ATOM     15  H29 0UU d   1      26.123   8.316   7.838  0.00  0.00     0.087 H 
ATOM     16  H30 0UU d   1      21.165  11.803   8.039  0.00  0.00     0.187 HD
ENDROOT
BRANCH   1  17
ATOM     17  C12 0UU d   1      20.731   9.647   6.383  0.00  0.00     0.034 C 
ATOM     18  C17 0UU d   1      19.798   9.208   7.517  0.00  0.00    -0.044 C 
ATOM     19  C16 0UU d   1      18.363   9.065   7.015  0.00  0.00    -0.051 C 
ATOM     20  H7  0UU d   1      20.140   8.240   7.911  0.00  0.00     0.036 H 
ATOM     21  H8  0UU d   1      19.826   9.961   8.319  0.00  0.00     0.036 H 
ATOM     22  C15 0UU d   1      17.831  10.352   6.369  0.00  0.00     0.030 C 
ATOM     23  H5  0UU d   1      18.330   8.257   6.269  0.00  0.00     0.034 H 
ATOM     24  H6  0UU d   1      17.717   8.805   7.866  0.00  0.00     0.034 H 
ATOM     25  C14 0UU d   1      18.831  10.869   5.321  0.00  0.00    -0.051 C 
ATOM     26  H4  0UU d   1      16.873  10.140   5.872  0.00  0.00     0.055 H 
ATOM     27  C13 0UU d   1      20.249  11.001   5.870  0.00  0.00    -0.044 C 
ATOM     28  H9  0UU d   1      18.496  11.857   4.973  0.00  0.00     0.034 H 
ATOM     29  H10 0UU d   1      18.846  10.168   4.474  0.00  0.00     0.034 H 
ATOM     30  H11 0UU d   1      20.255  11.728   6.696  0.00  0.00     0.036 H 
ATOM     31  H12 0UU d   1      20.920  11.349   5.070  0.00  0.00     0.036 H 
ATOM     32  H13 0UU d   1      20.675   8.926   5.554  0.00  0.00     0.074 H 
BRANCH  22  33
ATOM     33  C27 0UU d   1      17.606  11.397   7.470  0.00  0.00     0.262 C 
ATOM     34  O3  0UU d   1      17.760  12.593   7.224  0.00  0.00    -0.265 OA
BRANCH  33  35
ATOM     35  O2  0UU d   1      17.251  10.969   8.726  0.00  0.00    -0.326 OA
BRANCH  35  36
ATOM     36  C28 0UU d   1      16.819  12.018   9.634  0.00  0.00     0.013 C 
ATOM     37  H1  0UU d   1      16.558  11.576  10.607  0.00  0.00     0.067 H 
ATOM     38  H2  0UU d   1      15.938  12.527   9.214  0.00  0.00     0.067 H 
ATOM     39  H3  0UU d   1      17.633  12.745   9.768  0.00  0.00     0.067 H 
ENDBRANCH  35  36
ENDBRANCH  33  35
ENDBRANCH  22  33
ENDBRANCH   1  17
BRANCH   4  40
ATOM     40  C18 0UU d   1      23.940   5.382   4.878  0.00  0.00     0.107 C 
ATOM     41  H15 0UU d   1      22.885   5.145   4.678  0.00  0.00     0.083 H 
ATOM     42  H16 0UU d   1      24.404   4.551   5.430  0.00  0.00     0.083 H 
BRANCH  40  43
ATOM     43  N3  0UU d   1      24.640   5.545   3.593  0.00  0.00    -0.067 N 
ATOM     44  C7  0UU d   1      24.038   6.596   2.766  0.00  0.00     0.084 C 
ATOM     45  C8  0UU d   1      24.946   6.833   1.548  0.00  0.00    -0.042 C 
ATOM     46  H18 0UU d   1      23.950   7.524   3.350  0.00  0.00     0.076 H 
ATOM     47  H19 0UU d   1      23.040   6.278   2.429  0.00  0.00     0.076 H 
ATOM     48  C9  0UU d   1      25.146   5.544   0.733  0.00  0.00    -0.062 C 
ATOM     49  H20 0UU d   1      25.926   7.190   1.897  0.00  0.00     0.035 H 
ATOM     50  H21 0UU d   1      24.486   7.596   0.903  0.00  0.00     0.035 H 
ATOM     51  C10 0UU d   1      25.442   4.324   1.614  0.00  0.00    -0.042 C 
ATOM     52  H22 0UU d   1      25.989   5.692   0.043  0.00  0.00     0.033 H 
ATOM     53  H23 0UU d   1      24.230   5.347   0.156  0.00  0.00     0.033 H 
ATOM     54  C11 0UU d   1      24.525   4.277   2.844  0.00  0.00     0.084 C 
ATOM     55  H24 0UU d   1      26.488   4.373   1.951  0.00  0.00     0.035 H 
ATOM     56  H25 0UU d   1      25.290   3.410   1.021  0.00  0.00     0.035 H 
ATOM     57  H26 0UU d   1      23.483   4.136   2.519  0.00  0.00     0.076 H 
ATOM     58  H27 0UU d   1      24.824   3.440   3.492  0.00  0.00     0.076 H 
ATOM     59  H17 0UU d   1      25.609   5.764   3.765  0.00  0.00     0.280 HD
ENDBRANCH  40  43
ENDBRANCH   4  40
BRANCH  11  60
ATOM     60  C21 0UU d   1      21.879  13.467   9.791  0.00  0.00     0.032 A 
ATOM     61  C22 0UU d   1      20.545  13.639   9.417  0.00  0.00    -0.068 A 
ATOM     62  C23 0UU d   1      19.751  14.638  10.005  0.00  0.00    -0.082 A 
ATOM     63  H31 0UU d   1      20.115  12.992   8.661  0.00  0.00     0.085 H 
ATOM     64  C24 0UU d   1      20.318  15.434  11.000  0.00  0.00    -0.083 A 
ATOM     65  H32 0UU d   1      18.724  14.786   9.693  0.00  0.00     0.083 H 
ATOM     66  C25 0UU d   1      21.646  15.238  11.384  0.00  0.00    -0.082 A 
ATOM     67  H33 0UU d   1      19.726  16.207  11.476  0.00  0.00     0.083 H 
ATOM     68  C26 0UU d   1      22.429  14.266  10.792  0.00  0.00    -0.068 A 
ATOM     69  H34 0UU d   1      22.071  15.861  12.162  0.00  0.00     0.083 H 
ATOM     70  H35 0UU d   1      23.458  14.126  11.102  0.00  0.00     0.085 H 
ENDBRANCH  11  60
TORSDOF 7
