REMARK  12 active torsions:
REMARK  status: ('A' for Active; 'I' for Inactive)
REMARK    1  A    between atoms: C24_1  and  C23_2 
REMARK    2  A    between atoms: C23_2  and  C25_3 
REMARK    3  A    between atoms: C23_2  and  N5_4 
REMARK       I    between atoms: N5_4  and  C22_5 
REMARK    4  A    between atoms: C22_5  and  C19_7 
REMARK    5  A    between atoms: C16_12  and  N1_13 
REMARK    6  A    between atoms: C2_16  and  C15_17 
REMARK    7  A    between atoms: C15_17  and  N4_18 
REMARK    8  A    between atoms: C28_23  and  C31_24 
REMARK    9  A    between atoms: C31_24  and  C32_25 
REMARK   10  A    between atoms: C31_24  and  C33_26 
REMARK   11  A    between atoms: C31_24  and  O3_27 
REMARK       I    between atoms: N3_33  and  C8_34 
REMARK   12  A    between atoms: C8_34  and  C9_36 
ROOT
ATOM      1  N1  0UV d   1      22.283   9.460   7.176  0.00  0.00    -0.174 N 
ATOM      2  C4  0UV d   1      23.247   8.555   6.969  0.00  0.00     0.082 A 
ATOM      3  C3  0UV d   1      23.300   7.346   6.264  0.00  0.00    -0.046 A 
ATOM      4  C2  0UV d   1      24.480   6.602   6.228  0.00  0.00    -0.030 A 
ATOM      5  C1  0UV d   1      25.608   7.074   6.895  0.00  0.00    -0.073 A 
ATOM      6  C6  0UV d   1      25.550   8.280   7.592  0.00  0.00    -0.052 A 
ATOM      7  C5  0UV d   1      24.372   9.022   7.637  0.00  0.00     0.103 A 
ATOM      8  N2  0UV d   1      24.054  10.189   8.226  0.00  0.00    -0.062 NA
ATOM      9  C7  0UV d   1      22.781  10.446   7.925  0.00  0.00     0.711 A 
ATOM     10  N3  0UV d   1      22.100  11.501   8.362  0.00  0.00    -0.153 N 
ATOM     11  C8  0UV d   1      22.693  12.348   9.213  0.00  0.00     0.270 C 
ATOM     12  O1  0UV d   1      23.869  12.267   9.572  0.00  0.00    -0.267 OA
ATOM     13  H19 0UV d   1      22.420   6.986   5.744  0.00  0.00     0.088 H 
ATOM     14  H39 0UV d   1      26.530   6.504   6.872  0.00  0.00     0.084 H 
ATOM     15  H40 0UV d   1      26.432   8.645   8.105  0.00  0.00     0.087 H 
ATOM     16  H41 0UV d   1      21.160  11.659   8.060  0.00  0.00     0.187 HD
ENDROOT
BRANCH   1  17
ATOM     17  C16 0UV d   1      20.891   9.365   6.660  0.00  0.00     0.034 C 
ATOM     18  C21 0UV d   1      20.439  10.648   5.978  0.00  0.00    -0.044 C 
ATOM     19  C20 0UV d   1      19.006  10.516   5.433  0.00  0.00    -0.052 C 
ATOM     20  H12 0UV d   1      20.471  11.472   6.707  0.00  0.00     0.036 H 
ATOM     21  H13 0UV d   1      21.121  10.870   5.144  0.00  0.00     0.036 H 
ATOM     22  C19 0UV d   1      17.977  10.020   6.476  0.00  0.00     0.024 C 
ATOM     23  H10 0UV d   1      18.682  11.503   5.070  0.00  0.00     0.034 H 
ATOM     24  H11 0UV d   1      19.019   9.803   4.595  0.00  0.00     0.034 H 
ATOM     25  C18 0UV d   1      18.512   8.858   7.320  0.00  0.00    -0.052 C 
ATOM     26  H9  0UV d   1      17.095   9.659   5.926  0.00  0.00     0.054 H 
ATOM     27  C17 0UV d   1      19.936   9.112   7.831  0.00  0.00    -0.044 C 
ATOM     28  H14 0UV d   1      18.515   7.947   6.704  0.00  0.00     0.034 H 
ATOM     29  H15 0UV d   1      17.847   8.714   8.184  0.00  0.00     0.034 H 
ATOM     30  H16 0UV d   1      20.280   8.232   8.395  0.00  0.00     0.036 H 
ATOM     31  H17 0UV d   1      19.932   9.992   8.491  0.00  0.00     0.036 H 
ATOM     32  H18 0UV d   1      20.833   8.533   5.943  0.00  0.00     0.074 H 
BRANCH  22  33
ATOM     33  C22 0UV d   1      17.528  11.166   7.400  0.00  0.00     0.222 C 
ATOM     34  N5  0UV d   1      16.665  10.825   8.362  0.00  0.00    -0.357 N 
ATOM     35  H8  0UV d   1      16.372   9.871   8.433  0.00  0.00     0.162 HD
ATOM     36  O2  0UV d   1      17.935  12.310   7.221  0.00  0.00    -0.273 OA
BRANCH  34  37
ATOM     37  C23 0UV d   1      16.127  11.815   9.328  0.00  0.00     0.005 C 
ATOM     38  H4  0UV d   1      16.621  12.784   9.165  0.00  0.00     0.071 H 
BRANCH  37  39
ATOM     39  C24 0UV d   1      14.619  11.976   9.093  0.00  0.00    -0.058 C 
ATOM     40  H1  0UV d   1      14.213  12.709   9.806  0.00  0.00     0.030 H 
ATOM     41  H2  0UV d   1      14.120  11.007   9.239  0.00  0.00     0.030 H 
ATOM     42  H3  0UV d   1      14.444  12.328   8.066  0.00  0.00     0.030 H 
ENDBRANCH  37  39
BRANCH  37  43
ATOM     43  C25 0UV d   1      16.406  11.354  10.751  0.00  0.00    -0.058 C 
ATOM     44  H5  0UV d   1      17.491  11.246  10.895  0.00  0.00     0.030 H 
ATOM     45  H6  0UV d   1      15.915  10.386  10.926  0.00  0.00     0.030 H 
ATOM     46  H7  0UV d   1      16.014  12.097  11.461  0.00  0.00     0.030 H 
ENDBRANCH  37  43
ENDBRANCH  34  37
ENDBRANCH  22  33
ENDBRANCH   1  17
BRANCH   4  47
ATOM     47  C15 0UV d   1      24.548   5.273   5.450  0.00  0.00     0.107 C 
ATOM     48  H20 0UV d   1      25.510   5.218   4.919  0.00  0.00     0.083 H 
ATOM     49  H21 0UV d   1      23.724   5.242   4.722  0.00  0.00     0.083 H 
BRANCH  47  50
ATOM     50  N4  0UV d   1      24.433   4.114   6.352  0.00  0.00    -0.067 N 
ATOM     51  C30 0UV d   1      25.484   4.144   7.387  0.00  0.00     0.084 C 
ATOM     52  C29 0UV d   1      25.325   2.949   8.333  0.00  0.00    -0.036 C 
ATOM     53  H23 0UV d   1      25.401   5.077   7.963  0.00  0.00     0.076 H 
ATOM     54  H24 0UV d   1      26.471   4.097   6.904  0.00  0.00     0.076 H 
ATOM     55  C28 0UV d   1      25.448   1.641   7.554  0.00  0.00    -0.022 C 
ATOM     56  H25 0UV d   1      24.336   2.994   8.813  0.00  0.00     0.036 H 
ATOM     57  H26 0UV d   1      26.109   2.988   9.103  0.00  0.00     0.036 H 
ATOM     58  C27 0UV d   1      24.413   1.629   6.433  0.00  0.00    -0.036 C 
ATOM     59  H31 0UV d   1      26.449   1.607   7.100  0.00  0.00     0.044 H 
ATOM     60  C26 0UV d   1      24.546   2.876   5.551  0.00  0.00     0.084 C 
ATOM     61  H29 0UV d   1      24.563   0.732   5.814  0.00  0.00     0.036 H 
ATOM     62  H30 0UV d   1      23.405   1.605   6.874  0.00  0.00     0.036 H 
ATOM     63  H27 0UV d   1      25.526   2.860   5.053  0.00  0.00     0.076 H 
ATOM     64  H28 0UV d   1      23.749   2.865   4.793  0.00  0.00     0.076 H 
ATOM     65  H22 0UV d   1      23.532   4.136   6.803  0.00  0.00     0.280 HD
BRANCH  55  66
ATOM     66  C31 0UV d   1      25.306   0.414   8.456  0.00  0.00     0.054 C 
BRANCH  66  67
ATOM     67  C32 0UV d   1      23.901   0.363   9.059  0.00  0.00    -0.048 C 
ATOM     68  H32 0UV d   1      23.811  -0.523   9.705  0.00  0.00     0.031 H 
ATOM     69  H33 0UV d   1      23.157   0.304   8.251  0.00  0.00     0.031 H 
ATOM     70  H34 0UV d   1      23.724   1.271   9.655  0.00  0.00     0.031 H 
ENDBRANCH  66  67
BRANCH  66  71
ATOM     71  C33 0UV d   1      26.340   0.467   9.570  0.00  0.00    -0.048 C 
ATOM     72  H35 0UV d   1      27.349   0.504   9.133  0.00  0.00     0.031 H 
ATOM     73  H36 0UV d   1      26.246  -0.429  10.200  0.00  0.00     0.031 H 
ATOM     74  H37 0UV d   1      26.173   1.365  10.183  0.00  0.00     0.031 H 
ENDBRANCH  66  71
BRANCH  66  75
ATOM     75  O3  0UV d   1      25.544  -0.750   7.637  0.00  0.00    -0.390 OA
ATOM     76  H38 0UV d   1      24.906  -0.777   6.934  0.00  0.00     0.210 HD
ENDBRANCH  66  75
ENDBRANCH  55  66
ENDBRANCH  47  50
ENDBRANCH   4  47
BRANCH  11  77
ATOM     77  C9  0UV d   1      21.792  13.445   9.761  0.00  0.00     0.033 A 
ATOM     78  C10 0UV d   1      20.487  13.588   9.299  0.00  0.00    -0.065 A 
ATOM     79  C11 0UV d   1      19.677  14.583   9.833  0.00  0.00    -0.045 A 
ATOM     80  H42 0UV d   1      20.105  12.928   8.528  0.00  0.00     0.085 H 
ATOM     81  C12 0UV d   1      20.167  15.415  10.830  0.00  0.00     0.116 A 
ATOM     82  H43 0UV d   1      18.663  14.709   9.471  0.00  0.00     0.088 H 
ATOM     83  F1  0UV d   1      19.387  16.374  11.357  0.00  0.00    -0.206 F 
ATOM     84  C13 0UV d   1      21.463  15.263  11.298  0.00  0.00    -0.045 A 
ATOM     85  C14 0UV d   1      22.273  14.270  10.771  0.00  0.00    -0.065 A 
ATOM     86  H44 0UV d   1      21.841  15.919  12.074  0.00  0.00     0.088 H 
ATOM     87  H45 0UV d   1      23.281  14.137  11.146  0.00  0.00     0.085 H 
ENDBRANCH  11  77
TORSDOF 12
