REMARK  6 active torsions:
REMARK  status: ('A' for Active; 'I' for Inactive)
REMARK    1  A    between atoms: CAA_1  and  CAM_2 
REMARK    2  A    between atoms: CAN_7  and  CAK_8 
REMARK    3  A    between atoms: CAK_8  and  NAL_9 
REMARK    4  A    between atoms: NAL_9  and  CAI_10 
REMARK    5  A    between atoms: CAI_10  and  CAJ_11 
REMARK    6  A    between atoms: CAJ_11  and  SAO_12 
ROOT
ATOM      1  CAK IJ1 d   1      -6.274  -6.283 -36.498  0.00  0.00     0.105 C 
ATOM      2  H8  IJ1 d   1      -6.809  -7.024 -35.885  0.00  0.00     0.083 H 
ATOM      3  H9  IJ1 d   1      -6.729  -5.292 -36.355  0.00  0.00     0.083 H 
ENDROOT
BRANCH   1   4
ATOM      4  CAN IJ1 d   1      -6.437  -6.667 -37.940  0.00  0.00    -0.032 A 
ATOM      5  CAH IJ1 d   1      -5.609  -6.012 -38.950  0.00  0.00    -0.070 A 
ATOM      6  CAM IJ1 d   1      -5.739  -6.362 -40.265  0.00  0.00    -0.061 A 
ATOM      7  H4  IJ1 d   1      -4.894  -5.251 -38.658  0.00  0.00     0.085 H 
ATOM      8  CAF IJ1 d   1      -6.690  -7.375 -40.655  0.00  0.00    -0.077 A 
ATOM      9  CAE IJ1 d   1      -7.472  -8.006 -39.693  0.00  0.00    -0.082 A 
ATOM     10  H5  IJ1 d   1      -6.795  -7.645 -41.700  0.00  0.00     0.084 H 
ATOM     11  CAG IJ1 d   1      -7.339  -7.644 -38.309  0.00  0.00    -0.075 A 
ATOM     12  H6  IJ1 d   1      -8.182  -8.771 -39.987  0.00  0.00     0.083 H 
ATOM     13  H7  IJ1 d   1      -7.945  -8.137 -37.557  0.00  0.00     0.084 H 
BRANCH   6  14
ATOM     14  CAA IJ1 d   1      -4.877  -5.686 -41.326  0.00  0.00    -0.051 C 
ATOM     15  H1  IJ1 d   1      -4.217  -4.948 -40.847  0.00  0.00     0.033 H 
ATOM     16  H2  IJ1 d   1      -5.525  -5.179 -42.056  0.00  0.00     0.033 H 
ATOM     17  H3  IJ1 d   1      -4.267  -6.443 -41.840  0.00  0.00     0.033 H 
ENDBRANCH   6  14
ENDBRANCH   1   4
BRANCH   1  18
ATOM     18  NAL IJ1 d   1      -4.934  -6.221 -36.043  0.00  0.00    -0.070 N 
ATOM     19  H10 IJ1 d   1      -4.519  -5.357 -36.355  0.00  0.00     0.277 HD
ATOM     20  H11 IJ1 d   1      -4.419  -6.998 -36.426  0.00  0.00     0.277 HD
BRANCH  18  21
ATOM     21  CAI IJ1 d   1      -4.874  -6.282 -34.562  0.00  0.00     0.096 C 
ATOM     22  H12 IJ1 d   1      -5.580  -7.057 -34.229  0.00  0.00     0.077 H 
ATOM     23  H13 IJ1 d   1      -5.193  -5.304 -34.173  0.00  0.00     0.077 H 
BRANCH  21  24
ATOM     24  CAJ IJ1 d   1      -3.522  -6.600 -33.960  0.00  0.00     0.068 C 
ATOM     25  H14 IJ1 d   1      -2.801  -6.675 -34.787  0.00  0.00     0.062 H 
ATOM     26  H15 IJ1 d   1      -3.605  -7.574 -33.456  0.00  0.00     0.062 H 
BRANCH  24  27
ATOM     27  SAO IJ1 d   1      -2.857  -5.433 -32.770  0.00  0.00     0.103 S 
ATOM     28  OAD IJ1 d   1      -1.600  -6.004 -32.156  0.00  0.00    -0.595 OA
ATOM     29  OAC IJ1 d   1      -3.868  -5.152 -31.667  0.00  0.00    -0.595 OA
ATOM     30  OAB IJ1 d   1      -2.559  -4.200 -33.505  0.00  0.00    -0.595 OA
ENDBRANCH  24  27
ENDBRANCH  21  24
ENDBRANCH  18  21
ENDBRANCH   1  18
TORSDOF 6
