REMARK  15 active torsions:
REMARK  status: ('A' for Active; 'I' for Inactive)
REMARK    1  A    between atoms: N2_1  and  C7_2 
REMARK    2  A    between atoms: C7_2  and  N1_3 
REMARK    3  A    between atoms: C7_2  and  C3_4 
REMARK    4  A    between atoms: C6_9  and  O1_10 
REMARK    5  A    between atoms: O1_10  and  C8_11 
REMARK    6  A    between atoms: C8_11  and  C9_12 
REMARK    7  A    between atoms: C9_12  and  C10_13 
REMARK    8  A    between atoms: C10_13  and  C11_14 
REMARK    9  A    between atoms: C11_14  and  C12_15 
REMARK   10  A    between atoms: C12_15  and  C13_16 
REMARK   11  A    between atoms: C13_16  and  C14_17 
REMARK   12  A    between atoms: C14_17  and  O2_18 
REMARK   13  A    between atoms: O2_18  and  C15_19 
REMARK   14  A    between atoms: C18_24  and  C21_25 
REMARK   15  A    between atoms: C21_25  and  N3_26 
ROOT
ATOM      1  C11 AZ3 d   1       5.698   4.216  23.853  0.00  0.00    -0.065 C 
ATOM      2  H   AZ3 d   1       6.617   3.655  24.022  0.00  0.00     0.033 H 
ATOM      3  H   AZ3 d   1       5.514   4.380  22.791  0.00  0.00     0.033 H 
ENDROOT
BRANCH   1   4
ATOM      4  C10 AZ3 d   1       5.834   5.577  24.533  0.00  0.00    -0.063 C 
ATOM      5  H   AZ3 d   1       5.048   6.241  24.173  0.00  0.00     0.033 H 
ATOM      6  H   AZ3 d   1       5.744   5.452  25.612  0.00  0.00     0.033 H 
BRANCH   4   7
ATOM      7  C9  AZ3 d   1       7.192   6.180  24.207  0.00  0.00    -0.045 C 
ATOM      8  H   AZ3 d   1       7.908   5.360  24.152  0.00  0.00     0.036 H 
ATOM      9  H   AZ3 d   1       7.087   6.733  23.274  0.00  0.00     0.036 H 
BRANCH   7  10
ATOM     10  C8  AZ3 d   1       7.698   7.158  25.263  0.00  0.00     0.026 C 
ATOM     11  H   AZ3 d   1       8.198   7.990  24.767  0.00  0.00     0.075 H 
ATOM     12  H   AZ3 d   1       6.852   7.519  25.848  0.00  0.00     0.075 H 
BRANCH  10  13
ATOM     13  O1  AZ3 d   1       8.626   6.510  26.136  0.00  0.00    -0.351 OA
BRANCH  13  14
ATOM     14  C6  AZ3 d   1       9.904   6.130  25.793  0.00  0.00     0.068 A 
ATOM     15  C1  AZ3 d   1      10.423   6.329  24.512  0.00  0.00    -0.050 A 
ATOM     16  C2  AZ3 d   1      11.723   5.925  24.222  0.00  0.00    -0.067 A 
ATOM     17  H   AZ3 d   1       9.812   6.799  23.742  0.00  0.00     0.087 H 
ATOM     18  C3  AZ3 d   1      12.517   5.330  25.207  0.00  0.00     0.007 A 
ATOM     19  H   AZ3 d   1      12.125   6.074  23.220  0.00  0.00     0.085 H 
ATOM     20  C4  AZ3 d   1      12.000   5.130  26.489  0.00  0.00    -0.067 A 
ATOM     21  C5  AZ3 d   1      10.694   5.529  26.776  0.00  0.00    -0.050 A 
ATOM     22  H   AZ3 d   1      12.613   4.665  27.261  0.00  0.00     0.085 H 
ATOM     23  H   AZ3 d   1      10.287   5.370  27.775  0.00  0.00     0.087 H 
BRANCH  18  24
ATOM     24  C7  AZ3 d   1      13.923   4.899  24.867  0.00  0.00     0.102 C 
BRANCH  24  25
ATOM     25  N2  AZ3 d   1      14.802   4.801  25.768  0.00  0.00    -0.385 N 
ATOM     26  H   AZ3 d   1      14.565   5.014  26.737  0.00  0.00     0.157 HD
ATOM     27  H   AZ3 d   1      15.749   4.509  25.527  0.00  0.00     0.157 HD
ENDBRANCH  24  25
BRANCH  24  28
ATOM     28  N1  AZ3 d   1      14.234   4.625  23.592  0.00  0.00    -0.385 N 
ATOM     29  H   AZ3 d   1      13.524   4.709  22.864  0.00  0.00     0.157 HD
ATOM     30  H   AZ3 d   1      15.181   4.333  23.349  0.00  0.00     0.157 HD
ENDBRANCH  24  28
ENDBRANCH  18  24
ENDBRANCH  13  14
ENDBRANCH  10  13
ENDBRANCH   7  10
ENDBRANCH   4   7
ENDBRANCH   1   4
BRANCH   1  31
ATOM     31  C12 AZ3 d   1       4.534   3.413  24.423  0.00  0.00    -0.063 C 
ATOM     32  H   AZ3 d   1       3.921   4.075  25.034  0.00  0.00     0.033 H 
ATOM     33  H   AZ3 d   1       4.935   2.590  25.015  0.00  0.00     0.033 H 
BRANCH  31  34
ATOM     34  C13 AZ3 d   1       3.662   2.832  23.305  0.00  0.00    -0.045 C 
ATOM     35  H   AZ3 d   1       4.219   2.974  22.379  0.00  0.00     0.036 H 
ATOM     36  H   AZ3 d   1       2.701   3.343  23.371  0.00  0.00     0.036 H 
BRANCH  34  37
ATOM     37  C14 AZ3 d   1       3.356   1.326  23.396  0.00  0.00     0.026 C 
ATOM     38  H   AZ3 d   1       3.914   0.792  22.627  0.00  0.00     0.075 H 
ATOM     39  H   AZ3 d   1       2.289   1.159  23.246  0.00  0.00     0.075 H 
BRANCH  37  40
ATOM     40  O2  AZ3 d   1       3.737   0.849  24.679  0.00  0.00    -0.351 OA
BRANCH  40  41
ATOM     41  C15 AZ3 d   1       3.362  -0.355  25.234  0.00  0.00     0.068 A 
ATOM     42  C16 AZ3 d   1       2.076  -0.933  25.124  0.00  0.00    -0.050 A 
ATOM     43  C17 AZ3 d   1       1.794  -2.151  25.755  0.00  0.00    -0.067 A 
ATOM     44  H   AZ3 d   1       1.302  -0.429  24.546  0.00  0.00     0.087 H 
ATOM     45  C18 AZ3 d   1       2.827  -2.752  26.489  0.00  0.00     0.007 A 
ATOM     46  H   AZ3 d   1       0.810  -2.614  25.679  0.00  0.00     0.085 H 
ATOM     47  C19 AZ3 d   1       4.089  -2.172  26.568  0.00  0.00    -0.067 A 
ATOM     48  C20 AZ3 d   1       4.365  -0.970  25.954  0.00  0.00    -0.050 A 
ATOM     49  H   AZ3 d   1       4.875  -2.679  27.127  0.00  0.00     0.085 H 
ATOM     50  H   AZ3 d   1       5.353  -0.516  26.035  0.00  0.00     0.087 H 
BRANCH  45  51
ATOM     51  C21 AZ3 d   1       2.697  -4.061  27.195  0.00  0.00     0.102 C 
ATOM     52  N4  AZ3 d   1       1.625  -4.381  27.766  0.00  0.00    -0.385 N 
ATOM     53  H   AZ3 d   1       0.829  -3.743  27.751  0.00  0.00     0.157 HD
ATOM     54  H   AZ3 d   1       1.550  -5.279  28.245  0.00  0.00     0.157 HD
BRANCH  51  55
ATOM     55  N3  AZ3 d   1       3.748  -4.893  27.212  0.00  0.00    -0.385 N 
ATOM     56  H   AZ3 d   1       4.617  -4.627  26.748  0.00  0.00     0.157 HD
ATOM     57  H   AZ3 d   1       3.679  -5.792  27.689  0.00  0.00     0.157 HD
ENDBRANCH  51  55
ENDBRANCH  45  51
ENDBRANCH  40  41
ENDBRANCH  37  40
ENDBRANCH  34  37
ENDBRANCH  31  34
ENDBRANCH   1  31
TORSDOF 15
