REMARK WARNING: 32 MAX_TORS EXCEEDED!!!
REMARK  36 active torsions:
REMARK  status: ('A' for Active; 'I' for Inactive)
REMARK    1  A    between atoms: N_1  and  CA_2 
REMARK    2  A    between atoms: CA_2  and  C_3 
REMARK    3  A    between atoms: CA_2  and  CB_5 
REMARK       I    between atoms: C_3  and  N_10 
REMARK    4  A    between atoms: CB_5  and  CG_6 
REMARK    5  A    between atoms: CG_6  and  CD_7 
REMARK    6  A    between atoms: CD_7  and  CE_8 
REMARK    7  A    between atoms: CE_8  and  NZ_9 
REMARK    8  A    between atoms: N_10  and  CA_11 
REMARK    9  A    between atoms: CA_11  and  C_12 
REMARK   10  A    between atoms: CA_11  and  CB_14 
REMARK       I    between atoms: C_12  and  N_21 
REMARK   11  A    between atoms: CB_14  and  CG_15 
REMARK   12  A    between atoms: CG_15  and  CD_16 
REMARK   13  A    between atoms: CD_16  and  NE_17 
REMARK       I    between atoms: NE_17  and  CZ_18 
REMARK       I    between atoms: CZ_18  and  NH1_19 
REMARK       I    between atoms: CZ_18  and  NH2_20 
REMARK   14  A    between atoms: N_21  and  CA_22 
REMARK   15  A    between atoms: CA_22  and  C_23 
REMARK   16  A    between atoms: CA_22  and  CB_25 
REMARK       I    between atoms: C_23  and  N_32 
REMARK   17  A    between atoms: CB_25  and  CG_26 
REMARK   18  A    between atoms: CG_26  and  CD_27 
REMARK   19  A    between atoms: CD_27  and  NE_28 
REMARK       I    between atoms: NE_28  and  CZ_29 
REMARK       I    between atoms: CZ_29  and  NH2_31 
REMARK   20  A    between atoms: N_32  and  CA_33 
REMARK   21  A    between atoms: CA_33  and  C_34 
REMARK   22  A    between atoms: CA_33  and  CB_36 
REMARK       I    between atoms: C_34  and  N_41 
REMARK   23  A    between atoms: CB_36  and  CG_37 
REMARK   24  A    between atoms: CG_37  and  CD_38 
REMARK   25  A    between atoms: CD_38  and  CE_39 
REMARK   26  A    between atoms: CE_39  and  NZ_40 
REMARK   27  A    between atoms: N_41  and  CA_42 
REMARK   28  A    between atoms: CA_42  and  CB_43 
REMARK   29  A    between atoms: CA_42  and  C_45 
REMARK   30  A    between atoms: CB_43  and  OG_44 
REMARK   31  A    between atoms: OG_44  and  P_47 
REMARK       I    between atoms: C_45  and  N_51 
REMARK   32  A    between atoms: N_51  and  CA_52 
REMARK   33  A    between atoms: CA_52  and  C_53 
REMARK   34  A    between atoms: CA_52  and  CB_55 
REMARK   35  A    between atoms: CB_55  and  CG1_56 
REMARK   36  A    between atoms: CB_55  and  CG2_57 
ROOT
ATOM      1  CA  ARG d   1     -11.890 -12.192  14.077  0.00  0.00     0.089 C 
ATOM      2  H30 ARG d   1     -10.835 -12.490  13.987  0.00  0.00     0.087 H 
ENDROOT
BRANCH   1   3
ATOM      3  N   ARG d   1     -11.950 -10.736  14.358  0.00  0.00    -0.346 N 
ATOM      4  C   ARG d   1     -11.437  -9.852  13.484  0.00  0.00     0.241 C 
ATOM      5  O   ARG d   1     -10.819 -10.196  12.447  0.00  0.00    -0.271 OA
ATOM      6  H29 ARG d   1     -12.375 -10.410  15.203  0.00  0.00     0.163 HD
BRANCH   4   7
ATOM      7  CA  ARG d   1     -11.596  -8.348  13.819  0.00  0.00     0.089 C 
ATOM      8  H17 ARG d   1     -11.797  -8.258  14.897  0.00  0.00     0.087 H 
BRANCH   7   9
ATOM      9  N   ARG d   1     -10.326  -7.704  13.520  0.00  0.00    -0.346 N 
ATOM     10  C   LYS d   1      -9.406  -7.554  14.479  0.00  0.00     0.248 C 
ATOM     11  O   LYS d   1      -9.636  -7.828  15.693  0.00  0.00    -0.271 OA
ATOM     12  H16 ARG d   1     -10.141  -7.373  12.595  0.00  0.00     0.163 HD
BRANCH  10  13
ATOM     13  CA  LYS d   1      -8.037  -6.948  14.041  0.00  0.00     0.176 C 
ATOM     14  H4  LYS d   1      -8.191  -5.864  13.930  0.00  0.00     0.099 H 
BRANCH  13  15
ATOM     15  N   LYS d   1      -6.986  -7.144  15.090  0.00  0.00    -0.067 N 
ATOM     16  H1  LYS d   1      -6.117  -6.742  14.775  0.00  0.00     0.275 HD
ATOM     17  H2  LYS d   1      -6.858  -8.130  15.258  0.00  0.00     0.275 HD
ATOM     18  H3  LYS d   1      -7.275  -6.693  15.944  0.00  0.00     0.275 HD
ENDBRANCH  13  15
BRANCH  13  19
ATOM     19  CB  LYS d   1      -7.541  -7.479  12.669  0.00  0.00    -0.030 C 
ATOM     20  H5  LYS d   1      -6.469  -7.243  12.591  0.00  0.00     0.036 H 
ATOM     21  H6  LYS d   1      -8.093  -6.939  11.886  0.00  0.00     0.036 H 
BRANCH  19  22
ATOM     22  CG  LYS d   1      -7.706  -8.999  12.392  0.00  0.00    -0.061 C 
ATOM     23  H7  LYS d   1      -7.556  -9.168  11.316  0.00  0.00     0.033 H 
ATOM     24  H8  LYS d   1      -8.731  -9.287  12.668  0.00  0.00     0.033 H 
BRANCH  22  25
ATOM     25  CD  LYS d   1      -6.713  -9.928  13.173  0.00  0.00    -0.043 C 
ATOM     26  H9  LYS d   1      -7.217 -10.886  13.371  0.00  0.00     0.035 H 
ATOM     27  H10 LYS d   1      -6.461  -9.442  14.127  0.00  0.00     0.035 H 
BRANCH  25  28
ATOM     28  CE  LYS d   1      -5.395 -10.218  12.410  0.00  0.00     0.080 C 
ATOM     29  H11 LYS d   1      -4.683 -10.688  13.104  0.00  0.00     0.075 H 
ATOM     30  H12 LYS d   1      -4.981  -9.265  12.050  0.00  0.00     0.075 H 
BRANCH  28  31
ATOM     31  NZ  LYS d   1      -5.592 -11.137  11.225  0.00  0.00    -0.079 N 
ATOM     32  H13 LYS d   1      -4.707 -11.291  10.768  0.00  0.00     0.274 HD
ATOM     33  H14 LYS d   1      -6.236 -10.714  10.575  0.00  0.00     0.274 HD
ATOM     34  H15 LYS d   1      -5.964 -12.019  11.542  0.00  0.00     0.274 HD
ENDBRANCH  28  31
ENDBRANCH  25  28
ENDBRANCH  22  25
ENDBRANCH  19  22
ENDBRANCH  13  19
ENDBRANCH  10  13
ENDBRANCH   7   9
BRANCH   7  35
ATOM     35  CB  ARG d   1     -12.747  -7.640  13.072  0.00  0.00    -0.036 C 
ATOM     36  H18 ARG d   1     -12.482  -7.593  12.005  0.00  0.00     0.036 H 
ATOM     37  H19 ARG d   1     -12.835  -6.619  13.473  0.00  0.00     0.036 H 
BRANCH  35  38
ATOM     38  CG  ARG d   1     -14.127  -8.318  13.190  0.00  0.00    -0.048 C 
ATOM     39  H20 ARG d   1     -14.217  -8.776  14.186  0.00  0.00     0.035 H 
ATOM     40  H21 ARG d   1     -14.209  -9.098  12.419  0.00  0.00     0.035 H 
BRANCH  38  41
ATOM     41  CD  ARG d   1     -15.264  -7.309  13.001  0.00  0.00     0.009 C 
ATOM     42  H22 ARG d   1     -15.079  -6.733  12.082  0.00  0.00     0.064 H 
ATOM     43  H23 ARG d   1     -15.281  -6.627  13.864  0.00  0.00     0.064 H 
BRANCH  41  44
ATOM     44  NE  ARG d   1     -16.568  -7.968  12.892  0.00  0.00    -0.227 N 
ATOM     45  CZ  ARG d   1     -17.375  -8.224  13.946  0.00  0.00     0.665 C 
ATOM     46  NH1 ARG d   1     -17.024  -7.872  15.193  0.00  0.00    -0.235 N 
ATOM     47  NH2 ARG d   1     -18.558  -8.813  13.766  0.00  0.00    -0.235 N 
ATOM     48  H25 ARG d   1     -17.654  -8.076  15.982  0.00  0.00     0.174 HD
ATOM     49  H26 ARG d   1     -16.125  -7.398  15.361  0.00  0.00     0.174 HD
ATOM     50  H27 ARG d   1     -18.855  -9.094  12.821  0.00  0.00     0.174 HD
ATOM     51  H28 ARG d   1     -19.175  -8.986  14.572  0.00  0.00     0.174 HD
ATOM     52  H24 ARG d   1     -16.889  -8.254  11.956  0.00  0.00     0.177 HD
ENDBRANCH  41  44
ENDBRANCH  38  41
ENDBRANCH  35  38
ENDBRANCH   7  35
ENDBRANCH   4   7
ENDBRANCH   1   3
BRANCH   1  53
ATOM     53  C   ARG d   1     -12.600 -12.510  12.744  0.00  0.00     0.241 C 
ATOM     54  O   ARG d   1     -13.484 -11.766  12.340  0.00  0.00    -0.271 OA
ATOM     55  N   LYS d   1     -12.243 -13.596  12.094  0.00  0.00    -0.346 N 
ATOM     56  H42 LYS d   1     -11.603 -14.232  12.524  0.00  0.00     0.163 HD
BRANCH  55  57
ATOM     57  CA  LYS d   1     -12.755 -13.896  10.765  0.00  0.00     0.089 C 
ATOM     58  H43 LYS d   1     -13.027 -12.961  10.253  0.00  0.00     0.087 H 
BRANCH  57  59
ATOM     59  C   LYS d   1     -13.981 -14.815  10.860  0.00  0.00     0.241 C 
ATOM     60  O   LYS d   1     -14.019 -15.790  11.680  0.00  0.00    -0.271 OA
ATOM     61  N   SEP d   1     -14.940 -14.558  10.002  0.00  0.00    -0.344 N 
ATOM     62  H55 SEP d   1     -14.954 -13.686   9.513  0.00  0.00     0.163 HD
BRANCH  61  63
ATOM     63  CA  SEP d   1     -15.980 -15.542   9.765  0.00  0.00     0.110 C 
ATOM     64  H56 SEP d   1     -15.663 -16.514  10.171  0.00  0.00     0.090 H 
BRANCH  63  65
ATOM     65  CB  SEP d   1     -17.328 -15.132  10.427  0.00  0.00     0.059 C 
ATOM     66  H57 SEP d   1     -17.194 -15.038  11.515  0.00  0.00     0.079 H 
ATOM     67  H58 SEP d   1     -18.092 -15.894  10.216  0.00  0.00     0.079 H 
BRANCH  65  68
ATOM     68  OG  SEP d   1     -17.732 -13.887   9.886  0.00  0.00    -0.280 OA
BRANCH  68  69
ATOM     69  P   SEP d   1     -19.205 -13.377  10.342  0.00  0.00     0.422 P 
ATOM     70  O1P SEP d   1     -19.320 -12.059   9.519  0.00  0.00    -0.617 OA
ATOM     71  O2P SEP d   1     -20.225 -14.520   9.867  0.00  0.00    -0.617 OA
ATOM     72  O3P SEP d   1     -19.276 -13.059  11.879  0.00  0.00    -0.617 OA
ENDBRANCH  68  69
ENDBRANCH  65  68
ENDBRANCH  63  65
BRANCH  63  73
ATOM     73  C   SEP d   1     -16.173 -15.647   8.241  0.00  0.00     0.243 C 
ATOM     74  O   SEP d   1     -15.594 -14.853   7.479  0.00  0.00    -0.271 OA
ATOM     75  N   VAL d   1     -16.938 -16.587   7.762  0.00  0.00    -0.344 N 
ATOM     76  H59 VAL d   1     -17.425 -17.209   8.374  0.00  0.00     0.163 HD
BRANCH  75  77
ATOM     77  CA  VAL d   1     -17.073 -16.717   6.268  0.00  0.00     0.099 C 
ATOM     78  H60 VAL d   1     -16.877 -15.728   5.827  0.00  0.00     0.090 H 
BRANCH  77  79
ATOM     79  C   VAL d   1     -18.413 -17.164   5.813  0.00  0.00     0.197 C 
ATOM     80  O   VAL d   1     -19.089 -17.742   6.580  0.00  0.00    -0.646 OA
ATOM     81  OXT VAL d   1     -18.835 -17.023   4.680  0.00  0.00    -0.646 OA
ENDBRANCH  77  79
BRANCH  77  82
ATOM     82  CB  VAL d   1     -16.018 -17.725   5.733  0.00  0.00    -0.032 C 
ATOM     83  H61 VAL d   1     -15.034 -17.455   6.143  0.00  0.00     0.042 H 
BRANCH  82  84
ATOM     84  CG1 VAL d   1     -16.389 -19.182   6.206  0.00  0.00    -0.071 C 
ATOM     85  H62 VAL d   1     -15.640 -19.893   5.826  0.00  0.00     0.028 H 
ATOM     86  H63 VAL d   1     -17.382 -19.452   5.817  0.00  0.00     0.028 H 
ATOM     87  H64 VAL d   1     -16.404 -19.218   7.305  0.00  0.00     0.028 H 
ENDBRANCH  82  84
BRANCH  82  88
ATOM     88  CG2 VAL d   1     -15.937 -17.690   4.170  0.00  0.00    -0.071 C 
ATOM     89  H65 VAL d   1     -15.678 -16.673   3.839  0.00  0.00     0.028 H 
ATOM     90  H66 VAL d   1     -16.910 -17.977   3.746  0.00  0.00     0.028 H 
ATOM     91  H67 VAL d   1     -15.165 -18.395   3.827  0.00  0.00     0.028 H 
ENDBRANCH  82  88
ENDBRANCH  77  82
ENDBRANCH  75  77
ENDBRANCH  63  73
ENDBRANCH  61  63
ENDBRANCH  57  59
BRANCH  57  92
ATOM     92  CB  LYS d   1     -11.674 -14.634   9.976  0.00  0.00    -0.038 C 
ATOM     93  H44 LYS d   1     -12.006 -14.746   8.933  0.00  0.00     0.036 H 
ATOM     94  H45 LYS d   1     -11.523 -15.628  10.421  0.00  0.00     0.036 H 
BRANCH  92  95
ATOM     95  CG  LYS d   1     -10.311 -13.853   9.996  0.00  0.00    -0.061 C 
ATOM     96  H46 LYS d   1      -9.534 -14.442   9.487  0.00  0.00     0.033 H 
ATOM     97  H47 LYS d   1     -10.004 -13.662  11.035  0.00  0.00     0.033 H 
BRANCH  95  98
ATOM     98  CD  LYS d   1     -10.531 -12.474   9.234  0.00  0.00    -0.043 C 
ATOM     99  H48 LYS d   1     -11.452 -12.008   9.614  0.00  0.00     0.035 H 
ATOM    100  H49 LYS d   1     -10.641 -12.682   8.159  0.00  0.00     0.035 H 
BRANCH  98 101
ATOM    101  CE  LYS d   1      -9.369 -11.483   9.423  0.00  0.00     0.080 C 
ATOM    102  H50 LYS d   1      -9.106 -11.408  10.488  0.00  0.00     0.075 H 
ATOM    103  H51 LYS d   1      -9.654 -10.490   9.045  0.00  0.00     0.075 H 
BRANCH 101 104
ATOM    104  NZ  LYS d   1      -8.264 -11.991   8.680  0.00  0.00    -0.079 N 
ATOM    105  H52 LYS d   1      -7.478 -11.367   8.778  0.00  0.00     0.274 HD
ATOM    106  H53 LYS d   1      -8.517 -12.062   7.707  0.00  0.00     0.274 HD
ATOM    107  H54 LYS d   1      -8.015 -12.903   9.030  0.00  0.00     0.274 HD
ENDBRANCH 101 104
ENDBRANCH  98 101
ENDBRANCH  95  98
ENDBRANCH  92  95
ENDBRANCH  57  92
ENDBRANCH  55  57
ENDBRANCH   1  53
BRANCH   1 108
ATOM    108  CB  ARG d   1     -12.519 -12.974  15.247  0.00  0.00    -0.036 C 
ATOM    109  H31 ARG d   1     -12.228 -12.471  16.181  0.00  0.00     0.036 H 
ATOM    110  H32 ARG d   1     -12.101 -13.991  15.233  0.00  0.00     0.036 H 
BRANCH 108 111
ATOM    111  CG  ARG d   1     -14.119 -13.103  15.240  0.00  0.00    -0.048 C 
ATOM    112  H33 ARG d   1     -14.424 -13.712  16.104  0.00  0.00     0.035 H 
ATOM    113  H34 ARG d   1     -14.424 -13.606  14.310  0.00  0.00     0.035 H 
BRANCH 111 114
ATOM    114  CD  ARG d   1     -14.869 -11.694  15.324  0.00  0.00     0.009 C 
ATOM    115  H35 ARG d   1     -14.543 -11.073  14.477  0.00  0.00     0.064 H 
ATOM    116  H36 ARG d   1     -14.588 -11.203  16.268  0.00  0.00     0.064 H 
BRANCH 114 117
ATOM    117  NE  ARG d   1     -16.341 -11.819  15.278  0.00  0.00    -0.227 N 
ATOM    118  CZ  ARG d   1     -17.065 -12.058  14.161  0.00  0.00     0.665 C 
ATOM    119  NH1 ARG d   1     -16.454 -12.106  12.966  0.00  0.00    -0.235 N 
ATOM    120  NH2 ARG d   1     -18.421 -12.216  14.234  0.00  0.00    -0.235 N 
ATOM    121  H38 ARG d   1     -17.003 -12.288  12.114  0.00  0.00     0.174 HD
ATOM    122  H39 ARG d   1     -15.436 -11.961  12.902  0.00  0.00     0.174 HD
ATOM    123  H40 ARG d   1     -18.895 -12.180  15.148  0.00  0.00     0.174 HD
ATOM    124  H41 ARG d   1     -18.968 -12.371  13.375  0.00  0.00     0.174 HD
ATOM    125  H37 ARG d   1     -16.855 -11.716  16.165  0.00  0.00     0.177 HD
ENDBRANCH 114 117
ENDBRANCH 111 114
ENDBRANCH 108 111
ENDBRANCH   1 108
TORSDOF 36
