REMARK  5 active torsions:
REMARK  status: ('A' for Active; 'I' for Inactive)
REMARK    1  A    between atoms: C15_1  and  O14_2 
REMARK    2  A    between atoms: O14_2  and  C2_3 
REMARK    3  A    between atoms: C5_8  and  C7_9 
REMARK    4  A    between atoms: C7_9  and  C8_15 
REMARK    5  A    between atoms: C12_20  and  C21_21 
ROOT
ATOM      1  C7  DWA d   1      68.806  49.558   8.355  0.00  0.00     0.110 C 
ATOM      2  C19 DWA d   1      68.425  48.181   8.884  0.00  0.00     0.060 C 
ATOM      3  O18 DWA d   1      67.346  47.723   8.039  0.00  0.00    -0.319 OA
ATOM      4  C17 DWA d   1      67.246  48.600   6.997  0.00  0.00     0.213 C 
ATOM      5  N16 DWA d   1      68.040  49.650   7.098  0.00  0.00    -0.337 N 
ATOM      6  N20 DWA d   1      66.395  48.434   6.001  0.00  0.00    -0.365 N 
ATOM      7  H8  DWA d   1      68.090  48.251   9.930  0.00  0.00     0.080 H 
ATOM      8  H9  DWA d   1      69.282  47.494   8.818  0.00  0.00     0.080 H 
ATOM      9  H10 DWA d   1      68.113  50.412   6.409  0.00  0.00     0.164 HD
ATOM     10  H11 DWA d   1      66.356  49.123   5.237  0.00  0.00     0.159 HD
ATOM     11  H12 DWA d   1      65.770  47.615   5.989  0.00  0.00     0.159 HD
ENDROOT
BRANCH   1  12
ATOM     12  C5  DWA d   1      68.355  50.713   9.310  0.00  0.00    -0.023 A 
ATOM     13  C4  DWA d   1      68.355  50.576  10.703  0.00  0.00    -0.071 A 
ATOM     14  C3  DWA d   1      67.944  51.614  11.553  0.00  0.00    -0.050 A 
ATOM     15  H5  DWA d   1      68.683  49.639  11.139  0.00  0.00     0.084 H 
ATOM     16  C2  DWA d   1      67.509  52.828  11.023  0.00  0.00     0.068 A 
ATOM     17  H4  DWA d   1      67.965  51.471  12.627  0.00  0.00     0.087 H 
ATOM     18  C1  DWA d   1      67.519  52.982   9.634  0.00  0.00    -0.050 A 
ATOM     19  C6  DWA d   1      67.934  51.932   8.794  0.00  0.00    -0.071 A 
ATOM     20  H6  DWA d   1      67.203  53.923   9.198  0.00  0.00     0.087 H 
ATOM     21  H7  DWA d   1      67.925  52.078   7.720  0.00  0.00     0.084 H 
BRANCH  16  22
ATOM     22  O14 DWA d   1      67.112  53.839  11.875  0.00  0.00    -0.356 OA
BRANCH  22  23
ATOM     23  C15 DWA d   1      66.429  54.981  11.280  0.00  0.00     0.010 C 
ATOM     24  H1  DWA d   1      66.171  55.705  12.067  0.00  0.00     0.066 H 
ATOM     25  H2  DWA d   1      65.510  54.639  10.781  0.00  0.00     0.066 H 
ATOM     26  H3  DWA d   1      67.090  55.460  10.543  0.00  0.00     0.066 H 
ENDBRANCH  22  23
ENDBRANCH  16  22
ENDBRANCH   1  12
BRANCH   1  27
ATOM     27  C8  DWA d   1      70.293  49.521   8.055  0.00  0.00    -0.022 A 
ATOM     28  C13 DWA d   1      70.766  48.729   7.016  0.00  0.00    -0.063 A 
ATOM     29  C12 DWA d   1      72.124  48.663   6.717  0.00  0.00    -0.021 A 
ATOM     30  H13 DWA d   1      70.064  48.151   6.426  0.00  0.00     0.085 H 
ATOM     31  C11 DWA d   1      73.012  49.389   7.497  0.00  0.00    -0.072 A 
ATOM     32  C10 DWA d   1      72.548  50.187   8.526  0.00  0.00    -0.082 A 
ATOM     33  H16 DWA d   1      74.076  49.330   7.298  0.00  0.00     0.084 H 
ATOM     34  C9  DWA d   1      71.187  50.257   8.819  0.00  0.00    -0.074 A 
ATOM     35  H15 DWA d   1      73.252  50.766   9.113  0.00  0.00     0.083 H 
ATOM     36  H14 DWA d   1      70.832  50.878   9.633  0.00  0.00     0.084 H 
BRANCH  29  37
ATOM     37  C21 DWA d   1      72.580  47.826   5.678  0.00  0.00     0.032 A 
ATOM     38  C26 DWA d   1      73.587  46.897   5.934  0.00  0.00    -0.066 A 
ATOM     39  C25 DWA d   1      74.007  46.030   4.929  0.00  0.00    -0.065 A 
ATOM     40  H17 DWA d   1      74.043  46.849   6.916  0.00  0.00     0.085 H 
ATOM     41  C24 DWA d   1      73.425  46.098   3.672  0.00  0.00     0.005 A 
ATOM     42  H18 DWA d   1      74.787  45.304   5.128  0.00  0.00     0.085 H 
ATOM     43  N23 DWA d   1      72.471  46.984   3.459  0.00  0.00    -0.232 NA
ATOM     44  H19 DWA d   1      73.748  45.434   2.878  0.00  0.00     0.114 H 
ATOM     45  C22 DWA d   1      72.030  47.834   4.397  0.00  0.00     0.220 A 
ATOM     46  F27 DWA d   1      71.044  48.705   4.078  0.00  0.00    -0.183 F 
ENDBRANCH  29  37
ENDBRANCH   1  27
TORSDOF 5
