REMARK  4 active torsions:
REMARK  status: ('A' for Active; 'I' for Inactive)
REMARK    1  A    between atoms: C14_8  and  C12_9 
REMARK    2  A    between atoms: C1_19  and  O28_20 
REMARK    3  A    between atoms: O28_20  and  C29_21 
REMARK    4  A    between atoms: C16_27  and  N19_28 
ROOT
ATOM      1  C12 DWB d   1      28.704  48.645  77.843  0.00  0.00    -0.022 A 
ATOM      2  C13 DWB d   1      30.061  48.612  77.534  0.00  0.00    -0.060 A 
ATOM      3  C8  DWB d   1      30.606  49.459  76.579  0.00  0.00     0.012 A 
ATOM      4  C11 DWB d   1      27.884  49.541  77.168  0.00  0.00    -0.070 A 
ATOM      5  C10 DWB d   1      28.413  50.397  76.221  0.00  0.00    -0.049 A 
ATOM      6  C9  DWB d   1      29.762  50.367  75.921  0.00  0.00     0.085 A 
ATOM      7  O25 DWB d   1      30.180  51.218  74.972  0.00  0.00    -0.310 OA
ATOM      8  C4  DWB d   1      31.496  51.266  74.649  0.00  0.00     0.085 A 
ATOM      9  C3  DWB d   1      31.891  52.200  73.690  0.00  0.00    -0.047 A 
ATOM     10  C2  DWB d   1      33.230  52.320  73.300  0.00  0.00    -0.048 A 
ATOM     11  C1  DWB d   1      34.202  51.496  73.882  0.00  0.00     0.069 A 
ATOM     12  C6  DWB d   1      33.795  50.566  74.831  0.00  0.00    -0.039 A 
ATOM     13  C5  DWB d   1      32.462  50.427  75.220  0.00  0.00     0.013 A 
ATOM     14  C7  DWB d   1      32.110  49.387  76.273  0.00  0.00     0.115 A 
ATOM     15  C18 DWB d   1      32.524  47.972  75.820  0.00  0.00     0.060 A 
ATOM     16  O17 DWB d   1      33.569  47.523  76.777  0.00  0.00    -0.318 OA
ATOM     17  C16 DWB d   1      33.789  48.564  77.653  0.00  0.00     0.235 A 
ATOM     18  N15 DWB d   1      32.985  49.616  77.453  0.00  0.00    -0.335 N 
ATOM     19  H4  DWB d   1      30.706  47.910  78.050  0.00  0.00     0.086 H 
ATOM     20  H5  DWB d   1      26.822  49.569  77.386  0.00  0.00     0.085 H 
ATOM     21  H6  DWB d   1      27.764  51.098  75.709  0.00  0.00     0.087 H 
ATOM     22  H7  DWB d   1      31.146  52.845  73.238  0.00  0.00     0.087 H 
ATOM     23  H8  DWB d   1      33.514  53.049  72.549  0.00  0.00     0.087 H 
ATOM     24  H12 DWB d   1      34.541  49.925  75.286  0.00  0.00     0.088 H 
ATOM     25  H13 DWB d   1      32.929  48.002  74.798  0.00  0.00     0.080 H 
ATOM     26  H14 DWB d   1      31.660  47.292  75.852  0.00  0.00     0.080 H 
ATOM     27  H16 DWB d   1      32.974  50.465  78.035  0.00  0.00     0.164 HD
ENDROOT
BRANCH   1  28
ATOM     28  C14 DWB d   1      28.203  47.760  78.808  0.00  0.00     0.014 A 
ATOM     29  C20 DWB d   1      27.021  47.036  78.591  0.00  0.00     0.127 A 
ATOM     30  F26 DWB d   1      26.310  47.173  77.456  0.00  0.00    -0.205 F 
ATOM     31  C21 DWB d   1      26.549  46.147  79.549  0.00  0.00    -0.043 A 
ATOM     32  C22 DWB d   1      27.264  45.962  80.730  0.00  0.00    -0.059 A 
ATOM     33  H1  DWB d   1      25.629  45.600  79.378  0.00  0.00     0.088 H 
ATOM     34  C23 DWB d   1      28.434  46.668  80.956  0.00  0.00     0.035 A 
ATOM     35  H2  DWB d   1      26.903  45.263  81.475  0.00  0.00     0.086 H 
ATOM     36 CL2  DWB d   1      29.317  46.415  82.435  0.00  0.00    -0.084 Cl
ATOM     37  C24 DWB d   1      28.902  47.566  80.003  0.00  0.00    -0.048 A 
ATOM     38  H3  DWB d   1      29.815  48.120  80.188  0.00  0.00     0.087 H 
ENDBRANCH   1  28
BRANCH  17  39
ATOM     39  N19 DWB d   1      34.705  48.496  78.622  0.00  0.00    -0.262 NA
ATOM     40  H15 DWB d   1      34.839  49.277  79.245  0.00  0.00     0.190 HD
ENDBRANCH  17  39
BRANCH  11  41
ATOM     41  O28 DWB d   1      35.546  51.537  73.553  0.00  0.00    -0.356 OA
BRANCH  41  42
ATOM     42  C29 DWB d   1      35.941  52.435  72.511  0.00  0.00     0.010 C 
ATOM     43  H9  DWB d   1      37.028  52.363  72.357  0.00  0.00     0.066 H 
ATOM     44  H10 DWB d   1      35.678  53.465  72.795  0.00  0.00     0.066 H 
ATOM     45  H11 DWB d   1      35.420  52.168  71.580  0.00  0.00     0.066 H 
ENDBRANCH  41  42
ENDBRANCH  11  41
TORSDOF 4
