REMARK  7 active torsions:
REMARK  status: ('A' for Active; 'I' for Inactive)
REMARK    1  A    between atoms: C15_6  and  C1_7 
REMARK    2  A    between atoms: C13_17  and  O16_18 
REMARK    3  A    between atoms: O16_18  and  C22_19 
REMARK    4  A    between atoms: C22_19  and  C23_20 
REMARK    5  A    between atoms: C23_20  and  C25_21 
REMARK    6  A    between atoms: C23_20  and  C24_22 
REMARK    7  A    between atoms: C19_28  and  N21_29 
ROOT
ATOM      1  C1  DWD d   1      72.355  48.616   6.845  0.00  0.00    -0.022 A 
ATOM      2  C6  DWD d   1      70.993  48.571   7.168  0.00  0.00    -0.060 A 
ATOM      3  C5  DWD d   1      70.461  49.397   8.166  0.00  0.00     0.012 A 
ATOM      4  C2  DWD d   1      73.197  49.489   7.539  0.00  0.00    -0.070 A 
ATOM      5  C3  DWD d   1      72.667  50.327   8.538  0.00  0.00    -0.049 A 
ATOM      6  C4  DWD d   1      71.309  50.279   8.858  0.00  0.00     0.085 A 
ATOM      7  O7  DWD d   1      70.865  51.109   9.856  0.00  0.00    -0.310 OA
ATOM      8  C8  DWD d   1      69.550  51.198  10.158  0.00  0.00     0.085 A 
ATOM      9  C11 DWD d   1      69.209  52.136  11.118  0.00  0.00    -0.047 A 
ATOM     10  C12 DWD d   1      67.880  52.297  11.500  0.00  0.00    -0.048 A 
ATOM     11  C13 DWD d   1      66.886  51.499  10.920  0.00  0.00     0.069 A 
ATOM     12  C14 DWD d   1      67.225  50.550   9.943  0.00  0.00    -0.039 A 
ATOM     13  C9  DWD d   1      68.566  50.388   9.562  0.00  0.00     0.013 A 
ATOM     14  C10 DWD d   1      68.948  49.338   8.496  0.00  0.00     0.115 A 
ATOM     15  C17 DWD d   1      68.563  47.902   8.894  0.00  0.00     0.060 C 
ATOM     16  O18 DWD d   1      67.658  47.456   7.824  0.00  0.00    -0.319 OA
ATOM     17  C19 DWD d   1      67.353  48.529   7.032  0.00  0.00     0.213 C 
ATOM     18  N20 DWD d   1      68.058  49.620   7.317  0.00  0.00    -0.337 N 
ATOM     19  H4  DWD d   1      70.341  47.887   6.638  0.00  0.00     0.086 H 
ATOM     20  H5  DWD d   1      74.256  49.521   7.309  0.00  0.00     0.085 H 
ATOM     21  H6  DWD d   1      73.319  51.016   9.063  0.00  0.00     0.087 H 
ATOM     22  H7  DWD d   1      69.980  52.747  11.574  0.00  0.00     0.087 H 
ATOM     23  H8  DWD d   1      67.615  53.039  12.245  0.00  0.00     0.087 H 
ATOM     24  H18 DWD d   1      66.453  49.944   9.484  0.00  0.00     0.088 H 
ATOM     25  H19 DWD d   1      68.050  47.892   9.867  0.00  0.00     0.080 H 
ATOM     26  H20 DWD d   1      69.454  47.259   8.943  0.00  0.00     0.080 H 
ATOM     27  H23 DWD d   1      68.003  50.515   6.811  0.00  0.00     0.164 HD
ENDROOT
BRANCH  11  28
ATOM     28  O16 DWD d   1      65.605  51.741  11.328  0.00  0.00    -0.351 OA
BRANCH  28  29
ATOM     29  C22 DWD d   1      64.694  50.694  11.320  0.00  0.00     0.029 C 
ATOM     30  H9  DWD d   1      65.091  49.811  11.841  0.00  0.00     0.075 H 
ATOM     31  H10 DWD d   1      64.408  50.417  10.295  0.00  0.00     0.075 H 
BRANCH  29  32
ATOM     32  C23 DWD d   1      63.512  51.317  12.086  0.00  0.00    -0.040 C 
ATOM     33  H11 DWD d   1      63.915  51.997  12.851  0.00  0.00     0.042 H 
BRANCH  32  34
ATOM     34  C25 DWD d   1      62.732  50.213  12.780  0.00  0.00    -0.071 C 
ATOM     35  H12 DWD d   1      61.886  50.651  13.329  0.00  0.00     0.028 H 
ATOM     36  H13 DWD d   1      63.392  49.685  13.484  0.00  0.00     0.028 H 
ATOM     37  H14 DWD d   1      62.354  49.504  12.029  0.00  0.00     0.028 H 
ENDBRANCH  32  34
BRANCH  32  38
ATOM     38  C24 DWD d   1      62.596  52.126  11.170  0.00  0.00    -0.071 C 
ATOM     39  H15 DWD d   1      63.178  52.919  10.677  0.00  0.00     0.028 H 
ATOM     40  H16 DWD d   1      61.789  52.579  11.765  0.00  0.00     0.028 H 
ATOM     41  H17 DWD d   1      62.161  51.463  10.408  0.00  0.00     0.028 H 
ENDBRANCH  32  38
ENDBRANCH  29  32
ENDBRANCH  28  29
ENDBRANCH  11  28
BRANCH  17  42
ATOM     42  N21 DWD d   1      66.426  48.481   6.065  0.00  0.00    -0.365 N 
ATOM     43  H21 DWD d   1      66.233  49.317   5.495  0.00  0.00     0.159 HD
ATOM     44  H22 DWD d   1      65.907  47.608   5.892  0.00  0.00     0.159 HD
ENDBRANCH  17  42
BRANCH   1  45
ATOM     45  C15 DWD d   1      72.860  47.760   5.849  0.00  0.00     0.009 A 
ATOM     46  C26 DWD d   1      74.035  47.035   6.054  0.00  0.00     0.015 A 
ATOM     47  N27 DWD d   1      74.487  46.219   5.109  0.00  0.00    -0.253 NA
ATOM     48  H1  DWD d   1      74.579  47.138   6.986  0.00  0.00     0.116 H 
ATOM     49  C28 DWD d   1      73.820  46.066   3.968  0.00  0.00     0.086 A 
ATOM     50  N29 DWD d   1      72.692  46.719   3.742  0.00  0.00    -0.253 NA
ATOM     51  H2  DWD d   1      74.208  45.395   3.210  0.00  0.00     0.146 H 
ATOM     52  C30 DWD d   1      72.199  47.567   4.634  0.00  0.00     0.015 A 
ATOM     53  H3  DWD d   1      71.285  48.109   4.421  0.00  0.00     0.116 H 
ENDBRANCH   1  45
TORSDOF 7
