REMARK  6 active torsions:
REMARK  status: ('A' for Active; 'I' for Inactive)
REMARK    1  A    between atoms: C11_11  and  C2_1 
REMARK    2  A    between atoms: C5_5  and  C14_14 
REMARK    3  A    between atoms: N8_8  and  C22_22 
REMARK    4  A    between atoms: C11_11  and  C12_12 
REMARK    5  A    between atoms: C16_16  and  C23_23 
REMARK    6  A    between atoms: C24_24  and  C25_25 
ROOT
ATOM      1  C2  0V6 d   1      22.625  10.743  20.657  0.00  0.00     0.034 A 
ATOM      2  S1  0V6 d   1      24.151  10.051  21.113  0.00  0.00    -0.090 SA
ATOM      3  C3  0V6 d   1      22.814  11.622  19.623  0.00  0.00     0.051 A 
ATOM      4  C4  0V6 d   1      24.182  11.719  19.204  0.00  0.00    -0.043 A 
ATOM      5  C5  0V6 d   1      25.048  10.881  19.941  0.00  0.00     0.018 A 
ATOM      6 CL   0V6 d   1      21.508  12.506  18.879  0.00  0.00    -0.083 Cl
ATOM      7  H   0V6 d   1      24.519  12.372  18.399  0.00  0.00     0.088 H 
ENDROOT
BRANCH   1   8
ATOM      8  C11 0V6 d   1      21.364  10.354  21.433  0.00  0.00     0.087 C 
ATOM      9  C6  0V6 d   1      20.668  11.608  22.040  0.00  0.00     0.038 C 
ATOM     10  C7  0V6 d   1      21.576  12.207  23.131  0.00  0.00     0.240 C 
ATOM     11  H   0V6 d   1      20.496  12.348  21.258  0.00  0.00     0.051 H 
ATOM     12  H   0V6 d   1      19.710  11.322  22.475  0.00  0.00     0.051 H 
ATOM     13  N8  0V6 d   1      22.388  11.333  23.923  0.00  0.00    -0.156 N 
ATOM     14  O21 0V6 d   1      21.585  13.408  23.288  0.00  0.00    -0.272 OA
ATOM     15  C9  0V6 d   1      22.319   9.939  23.758  0.00  0.00     0.677 C 
ATOM     16  N10 0V6 d   1      21.694   9.469  22.609  0.00  0.00    -0.212 N 
ATOM     17  N20 0V6 d   1      22.753   9.098  24.645  0.00  0.00    -0.234 N 
ATOM     18  H   0V6 d   1      21.447   8.481  22.559  0.00  0.00     0.179 HD
ATOM     19  H   0V6 d   1      23.168   9.440  25.512  0.00  0.00     0.174 HD
ATOM     20  H   0V6 d   1      22.679   8.095  24.476  0.00  0.00     0.174 HD
BRANCH  13  21
ATOM     21  C22 0V6 d   1      23.292  11.961  24.954  0.00  0.00     0.005 C 
ATOM     22  H   0V6 d   1      23.992  12.634  24.460  0.00  0.00     0.058 H 
ATOM     23  H   0V6 d   1      22.691  12.522  25.670  0.00  0.00     0.058 H 
ATOM     24  H   0V6 d   1      23.844  11.179  25.475  0.00  0.00     0.058 H 
ENDBRANCH  13  21
BRANCH   8  25
ATOM     25  C12 0V6 d   1      20.340   9.560  20.588  0.00  0.00    -0.047 C 
ATOM     26  H   0V6 d   1      20.788   8.620  20.265  0.00  0.00     0.031 H 
ATOM     27  H   0V6 d   1      19.456   9.354  21.191  0.00  0.00     0.031 H 
ATOM     28  H   0V6 d   1      20.057  10.148  19.715  0.00  0.00     0.031 H 
ENDBRANCH   8  25
ENDBRANCH   1   8
BRANCH   5  29
ATOM     29  C14 0V6 d   1      26.504  10.785  19.862  0.00  0.00    -0.000 A 
ATOM     30  C15 0V6 d   1      27.259  10.148  20.893  0.00  0.00    -0.051 A 
ATOM     31  C16 0V6 d   1      28.625  10.144  20.920  0.00  0.00     0.036 A 
ATOM     32  H   0V6 d   1      26.721   9.642  21.695  0.00  0.00     0.087 H 
ATOM     33  C17 0V6 d   1      29.294  10.770  19.860  0.00  0.00     0.020 A 
ATOM     34  N18 0V6 d   1      28.623  11.408  18.809  0.00  0.00    -0.271 NA
ATOM     35  H   0V6 d   1      30.384  10.760  19.853  0.00  0.00     0.117 H 
ATOM     36  C19 0V6 d   1      27.245  11.422  18.838  0.00  0.00     0.013 A 
ATOM     37  H   0V6 d   1      26.707  11.942  18.045  0.00  0.00     0.116 H 
BRANCH  31  38
ATOM     38  C23 0V6 d   1      29.326   9.474  21.978  0.00  0.00    -0.066 C 
ATOM     39  C24 0V6 d   1      29.915   8.913  22.865  0.00  0.00    -0.105 C 
BRANCH  39  40
ATOM     40  C25 0V6 d   1      30.655   8.264  23.925  0.00  0.00    -0.021 C 
ATOM     41  H   0V6 d   1      31.576   7.845  23.520  0.00  0.00     0.044 H 
ATOM     42  H   0V6 d   1      30.895   8.994  24.698  0.00  0.00     0.044 H 
ATOM     43  H   0V6 d   1      30.049   7.465  24.353  0.00  0.00     0.044 H 
ENDBRANCH  39  40
ENDBRANCH  31  38
ENDBRANCH   5  29
TORSDOF 6
