REMARK  7 active torsions:
REMARK  status: ('A' for Active; 'I' for Inactive)
REMARK    1  A    between atoms: C1_2  and  C17_3 
REMARK       I    between atoms: C1_2  and  N3_16 
REMARK    2  A    between atoms: C17_3  and  C18_4 
REMARK    3  A    between atoms: C18_4  and  C19_5 
REMARK    4  A    between atoms: N3_16  and  C4_17 
REMARK    5  A    between atoms: N3_16  and  C5_18 
REMARK    6  A    between atoms: C5_18  and  C6_19 
REMARK    7  A    between atoms: C7_23  and  C38_24 
ROOT
ATOM      1  O2  0WE d   1     112.238  64.815  35.465  0.00  0.00    -0.273 OA
ATOM      2  C1  0WE d   1     111.265  65.568  35.496  0.00  0.00     0.220 C 
ATOM      3  N3  0WE d   1     110.652  65.986  34.390  0.00  0.00    -0.350 N 
ENDROOT
BRANCH   2   4
ATOM      4  C17 0WE d   1     110.731  66.054  36.844  0.00  0.00     0.013 C 
ATOM      5  H1  0WE d   1     109.745  65.602  37.027  0.00  0.00     0.047 H 
ATOM      6  H2  0WE d   1     110.633  67.149  36.821  0.00  0.00     0.047 H 
BRANCH   4   7
ATOM      7  C18 0WE d   1     111.669  65.664  37.954  0.00  0.00    -0.032 C 
ATOM      8  H3  0WE d   1     112.683  65.994  37.686  0.00  0.00     0.040 H 
ATOM      9  H4  0WE d   1     111.654  64.569  38.054  0.00  0.00     0.040 H 
BRANCH   7  10
ATOM     10  C19 0WE d   1     111.304  66.273  39.290  0.00  0.00    -0.040 A 
ATOM     11  C24 0WE d   1     110.177  67.085  39.463  0.00  0.00    -0.066 A 
ATOM     12  C23 0WE d   1     109.896  67.595  40.729  0.00  0.00    -0.011 A 
ATOM     13  H5  0WE d   1     109.531  67.314  38.623  0.00  0.00     0.085 H 
ATOM     14  C26 0WE d   1     108.690  68.493  41.007  0.00  0.00    -0.029 C 
ATOM     15  C22 0WE d   1     110.821  67.263  41.839  0.00  0.00     0.136 A 
ATOM     16  C25 0WE d   1     108.246  68.266  42.456  0.00  0.00     0.013 C 
ATOM     17  H6  0WE d   1     107.869  68.236  40.322  0.00  0.00     0.041 H 
ATOM     18  H7  0WE d   1     108.970  69.547  40.864  0.00  0.00     0.041 H 
ATOM     19  C37 0WE d   1     109.406  68.256  43.457  0.00  0.00     0.223 C 
ATOM     20  H8  0WE d   1     107.728  67.297  42.514  0.00  0.00     0.047 H 
ATOM     21  H9  0WE d   1     107.551  69.071  42.737  0.00  0.00     0.047 H 
ATOM     22  N36 0WE d   1     110.591  67.748  43.092  0.00  0.00    -0.311 N 
ATOM     23  O28 0WE d   1     109.249  68.682  44.599  0.00  0.00    -0.273 OA
ATOM     24  H11 0WE d   1     111.333  67.724  43.762  0.00  0.00     0.170 HD
ATOM     25  N21 0WE d   1     111.901  66.471  41.594  0.00  0.00    -0.242 NA
ATOM     26  C20 0WE d   1     112.137  65.986  40.364  0.00  0.00     0.011 A 
ATOM     27  H10 0WE d   1     113.002  65.353  40.205  0.00  0.00     0.115 H 
ENDBRANCH   7  10
ENDBRANCH   4   7
ENDBRANCH   2   4
BRANCH   3  28
ATOM     28  C4  0WE d   1     111.240  65.672  33.085  0.00  0.00    -0.016 C 
ATOM     29  H12 0WE d   1     110.608  66.090  32.288  0.00  0.00     0.056 H 
ATOM     30  H13 0WE d   1     111.306  64.581  32.966  0.00  0.00     0.056 H 
ATOM     31  H14 0WE d   1     112.247  66.109  33.022  0.00  0.00     0.056 H 
ENDBRANCH   3  28
BRANCH   3  32
ATOM     32  C5  0WE d   1     109.412  66.814  34.338  0.00  0.00     0.042 C 
ATOM     33  H15 0WE d   1     108.768  66.628  35.210  0.00  0.00     0.074 H 
ATOM     34  H16 0WE d   1     108.843  66.627  33.415  0.00  0.00     0.074 H 
BRANCH  32  35
ATOM     35  C6  0WE d   1     109.978  68.202  34.361  0.00  0.00     0.078 A 
ATOM     36  O10 0WE d   1     110.424  68.859  35.485  0.00  0.00    -0.312 OA
ATOM     37  C9  0WE d   1     110.952  70.122  35.132  0.00  0.00     0.086 A 
ATOM     38  C8  0WE d   1     110.885  70.338  33.685  0.00  0.00     0.006 A 
ATOM     39  C14 0WE d   1     111.494  71.070  36.000  0.00  0.00    -0.049 A 
ATOM     40  C7  0WE d   1     110.245  69.090  33.203  0.00  0.00    -0.018 A 
ATOM     41  C11 0WE d   1     111.343  71.526  33.111  0.00  0.00    -0.070 A 
ATOM     42  C12 0WE d   1     111.884  72.456  34.006  0.00  0.00    -0.082 A 
ATOM     43  H23 0WE d   1     111.284  71.715  32.045  0.00  0.00     0.085 H 
ATOM     44  C13 0WE d   1     111.951  72.248  35.397  0.00  0.00    -0.080 A 
ATOM     45  H22 0WE d   1     112.272  73.386  33.607  0.00  0.00     0.083 H 
ATOM     46  H21 0WE d   1     112.371  73.027  36.023  0.00  0.00     0.083 H 
ATOM     47  H20 0WE d   1     111.557  70.906  37.070  0.00  0.00     0.087 H 
BRANCH  40  48
ATOM     48  C38 0WE d   1     109.983  68.926  31.733  0.00  0.00    -0.048 C 
ATOM     49  H17 0WE d   1     109.508  67.951  31.552  0.00  0.00     0.033 H 
ATOM     50  H18 0WE d   1     110.934  68.978  31.183  0.00  0.00     0.033 H 
ATOM     51  H19 0WE d   1     109.315  69.729  31.388  0.00  0.00     0.033 H 
ENDBRANCH  40  48
ENDBRANCH  32  35
ENDBRANCH   3  32
TORSDOF 7
