REMARK  8 active torsions:
REMARK  status: ('A' for Active; 'I' for Inactive)
REMARK    1  A    between atoms: C14_14  and  C07_7 
REMARK    2  A    between atoms: C16_16  and  C08_8 
REMARK    3  A    between atoms: C20_20  and  C09_9 
REMARK    4  A    between atoms: C10_10  and  N23_23 
REMARK    5  A    between atoms: C11_11  and  O27_27 
REMARK    6  A    between atoms: C15_15  and  C18_18 
REMARK       I    between atoms: N22_22  and  C16_16 
REMARK       I    between atoms: C17_17  and  N22_22 
REMARK       I    between atoms: C17_17  and  N24_24 
REMARK       I    between atoms: N25_25  and  C17_17 
REMARK    7  A    between atoms: O27_27  and  C19_19 
REMARK    8  A    between atoms: C20_20  and  N25_25 
ROOT
ATOM      1  C08 0VA d   1      -6.055  18.220  32.080  0.00  0.00     0.058 A 
ATOM      2  C14 0VA d   1      -5.451  18.522  30.720  0.00  0.00     0.063 A 
ATOM      3  C15 0VA d   1      -6.883  19.318  32.693  0.00  0.00     0.014 A 
ATOM      4  N21 0VA d   1      -6.019  19.832  30.329  0.00  0.00    -0.214 NA
ATOM      5  S28 0VA d   1      -6.947  20.568  31.450  0.00  0.00     0.007 SA
ENDROOT
BRANCH   1   6
ATOM      6  C16 0VA d   1      -5.797  17.044  33.012  0.00  0.00     0.206 C 
ATOM      7  N22 0VA d   1      -4.999  16.844  34.258  0.00  0.00    -0.167 N 
ATOM      8  C17 0VA d   1      -4.982  15.499  34.832  0.00  0.00     0.674 C 
ATOM      9  H   0VA d   1      -4.487  17.613  34.691  0.00  0.00     0.186 HD
ATOM     10  N24 0VA d   1      -4.315  15.035  36.064  0.00  0.00    -0.235 N 
ATOM     11  N25 0VA d   1      -5.753  14.563  34.014  0.00  0.00    -0.222 N 
ATOM     12  H   0VA d   1      -3.780  15.692  36.633  0.00  0.00     0.174 HD
ATOM     13  H   0VA d   1      -4.389  14.058  36.347  0.00  0.00     0.174 HD
ATOM     14  H   0VA d   1      -6.247  14.886  33.182  0.00  0.00     0.178 HD
ATOM     15  O26 0VA d   1      -6.361  15.832  32.516  0.00  0.00    -0.171 OA
BRANCH  11  16
ATOM     16  C20 0VA d   1      -5.804  13.157  34.409  0.00  0.00     0.033 C 
ATOM     17  H   0VA d   1      -5.528  13.165  35.463  0.00  0.00     0.072 H 
ATOM     18  H   0VA d   1      -6.795  12.827  34.098  0.00  0.00     0.072 H 
BRANCH  16  19
ATOM     19  C09 0VA d   1      -4.872  12.156  33.791  0.00  0.00    -0.037 A 
ATOM     20  C05 0VA d   1      -5.378  11.615  32.465  0.00  0.00    -0.052 A 
ATOM     21  C12 0VA d   1      -4.593  10.612  31.641  0.00  0.00     0.062 A 
ATOM     22  H   0VA d   1      -6.342  11.961  32.091  0.00  0.00     0.087 H 
ATOM     23  C10 0VA d   1      -3.230  10.075  32.080  0.00  0.00     0.069 A 
ATOM     24 CL1  0VA d   1      -5.366  10.062  30.137  0.00  0.00    -0.082 Cl
ATOM     25  C13 0VA d   1      -2.756  10.676  33.396  0.00  0.00     0.062 A 
ATOM     26  C06 0VA d   1      -3.514  11.678  34.247  0.00  0.00    -0.052 A 
ATOM     27 CL2  0VA d   1      -1.206  10.149  34.023  0.00  0.00    -0.082 Cl
ATOM     28  H   0VA d   1      -3.083  12.049  35.177  0.00  0.00     0.087 H 
BRANCH  23  29
ATOM     29  N23 0VA d   1      -2.434   9.084  31.308  0.00  0.00    -0.396 N 
ATOM     30  H   0VA d   1      -2.792   8.719  30.425  0.00  0.00     0.156 HD
ATOM     31  H   0VA d   1      -1.530   8.769  31.661  0.00  0.00     0.156 HD
ENDBRANCH  23  29
ENDBRANCH  16  19
ENDBRANCH  11  16
ENDBRANCH   1   6
BRANCH   2  32
ATOM     32  C07 0VA d   1      -4.631  17.885  29.604  0.00  0.00    -0.010 A 
ATOM     33  C01 0VA d   1      -4.697  17.614  28.089  0.00  0.00    -0.054 A 
ATOM     34  C03 0VA d   1      -3.604  16.868  27.307  0.00  0.00    -0.040 A 
ATOM     35  H   0VA d   1      -5.556  16.949  27.999  0.00  0.00     0.034 H 
ATOM     36  H   0VA d   1      -4.660  18.616  27.662  0.00  0.00     0.034 H 
ATOM     37  C11 0VA d   1      -2.343  16.303  27.988  0.00  0.00     0.038 A 
ATOM     38  H   0VA d   1      -3.209  17.630  26.634  0.00  0.00     0.036 H 
ATOM     39  H   0VA d   1      -4.116  15.977  26.943  0.00  0.00     0.036 H 
ATOM     40  C04 0VA d   1      -2.246  16.534  29.497  0.00  0.00    -0.040 A 
ATOM     41  H   0VA d   1      -1.379  15.896  28.293  0.00  0.00     0.083 H 
ATOM     42  C02 0VA d   1      -3.355  17.284  30.232  0.00  0.00    -0.054 A 
ATOM     43  H   0VA d   1      -2.266  15.532  29.926  0.00  0.00     0.036 H 
ATOM     44  H   0VA d   1      -1.366  17.165  29.619  0.00  0.00     0.036 H 
ATOM     45  H   0VA d   1      -2.831  18.179  30.567  0.00  0.00     0.034 H 
ATOM     46  H   0VA d   1      -3.769  16.500  30.865  0.00  0.00     0.034 H 
ATOM     47  H   0VA d   1      -5.453  18.378  29.084  0.00  0.00     0.049 H 
BRANCH  37  48
ATOM     48  O27 0VA d   1      -1.391  15.616  27.167  0.00  0.00    -0.391 OA
BRANCH  48  49
ATOM     49  C19 0VA d   1      -0.537  14.558  27.645  0.00  0.00     0.004 C 
ATOM     50  H   0VA d   1       0.091  14.936  28.451  0.00  0.00     0.066 H 
ATOM     51  H   0VA d   1      -1.151  13.737  28.015  0.00  0.00     0.066 H 
ATOM     52  H   0VA d   1       0.092  14.204  26.828  0.00  0.00     0.066 H 
ENDBRANCH  48  49
ENDBRANCH  37  48
ENDBRANCH   2  32
BRANCH   3  53
ATOM     53  C18 0VA d   1      -7.598  19.396  34.030  0.00  0.00    -0.043 C 
ATOM     54  H   0VA d   1      -8.336  18.597  34.093  0.00  0.00     0.034 H 
ATOM     55  H   0VA d   1      -6.872  19.286  34.836  0.00  0.00     0.034 H 
ATOM     56  H   0VA d   1      -8.097  20.361  34.118  0.00  0.00     0.034 H 
ENDBRANCH   3  53
TORSDOF 8
