REMARK WARNING: 32 MAX_TORS EXCEEDED!!!
REMARK  37 active torsions:
REMARK  status: ('A' for Active; 'I' for Inactive)
REMARK    1  A    between atoms: N_1  and  CA_2 
REMARK    2  A    between atoms: CA_2  and  C_3 
REMARK    3  A    between atoms: CA_2  and  CB_5 
REMARK       I    between atoms: C_3  and  N_10 
REMARK    4  A    between atoms: CB_5  and  CG_6 
REMARK    5  A    between atoms: CG_6  and  CD_7 
REMARK       I    between atoms: CD_7  and  NE2_9 
REMARK    6  A    between atoms: N_10  and  CA_11 
REMARK    7  A    between atoms: CA_11  and  C_12 
REMARK    8  A    between atoms: CA_11  and  CB_14 
REMARK       I    between atoms: C_12  and  N_17 
REMARK    9  A    between atoms: CB_14  and  OG1_15 
REMARK   10  A    between atoms: CB_14  and  CG2_16 
REMARK   11  A    between atoms: N_17  and  CA_18 
REMARK   12  A    between atoms: CA_18  and  C_19 
REMARK   13  A    between atoms: CA_18  and  CB_21 
REMARK       I    between atoms: C_19  and  N_22 
REMARK   14  A    between atoms: N_22  and  CA_23 
REMARK   15  A    between atoms: CA_23  and  C_24 
REMARK   16  A    between atoms: CA_23  and  CB_26 
REMARK       I    between atoms: C_24  and  N_33 
REMARK   17  A    between atoms: CB_26  and  CG_27 
REMARK   18  A    between atoms: CG_27  and  CD_28 
REMARK   19  A    between atoms: CD_28  and  NE_29 
REMARK       I    between atoms: NE_29  and  CZ_30 
REMARK       I    between atoms: CZ_30  and  NH1_31 
REMARK   20  A    between atoms: N_33  and  CA_34 
REMARK   21  A    between atoms: CA_34  and  CB_35 
REMARK   22  A    between atoms: CA_34  and  C_42 
REMARK   23  A    between atoms: CB_35  and  CG_36 
REMARK   24  A    between atoms: CG_36  and  CD_37 
REMARK   25  A    between atoms: CD_37  and  CE_38 
REMARK   26  A    between atoms: CE_38  and  NZ_39 
REMARK   27  A    between atoms: NZ_39  and  CH1_40 
REMARK   28  A    between atoms: NZ_39  and  CH2_41 
REMARK       I    between atoms: C_42  and  N_44 
REMARK   29  A    between atoms: N_44  and  CA_45 
REMARK   30  A    between atoms: CA_45  and  C_46 
REMARK   31  A    between atoms: CA_45  and  CB_48 
REMARK       I    between atoms: C_46  and  N_50 
REMARK   32  A    between atoms: CB_48  and  OG_49 
REMARK   33  A    between atoms: N_50  and  CA_51 
REMARK   34  A    between atoms: CA_51  and  C_52 
REMARK   35  A    between atoms: CA_51  and  CB_54 
REMARK   36  A    between atoms: CB_54  and  OG1_55 
REMARK   37  A    between atoms: CB_54  and  CG2_56 
ROOT
ATOM      1  CA  ARG d   1     -34.035  36.367 -21.595  0.00  0.00     0.089 C 
ATOM      2  H   ARG d   1     -33.057  35.897 -21.700  0.00  0.00     0.087 H 
ENDROOT
BRANCH   1   3
ATOM      3  N   ARG d   1     -34.345  36.304 -20.173  0.00  0.00    -0.346 N 
ATOM      4  C   ALA d   1     -33.693  35.465 -19.378  0.00  0.00     0.240 C 
ATOM      5  O   ALA d   1     -32.780  34.744 -19.773  0.00  0.00    -0.271 OA
ATOM      6  H   ARG d   1     -35.069  36.909 -19.785  0.00  0.00     0.163 HD
BRANCH   4   7
ATOM      7  CA  ALA d   1     -34.120  35.438 -17.923  0.00  0.00     0.086 C 
ATOM      8  H   ALA d   1     -35.165  35.135 -17.859  0.00  0.00     0.086 H 
BRANCH   7   9
ATOM      9  N   ALA d   1     -33.303  34.477 -17.200  0.00  0.00    -0.346 N 
ATOM     10  C   THR d   1     -33.713  33.918 -16.070  0.00  0.00     0.243 C 
ATOM     11  O   THR d   1     -34.764  34.232 -15.503  0.00  0.00    -0.271 OA
ATOM     12  H   ALA d   1     -32.388  34.225 -17.573  0.00  0.00     0.163 HD
BRANCH  10  13
ATOM     13  CA  THR d   1     -32.786  32.832 -15.513  0.00  0.00     0.113 C 
ATOM     14  H   THR d   1     -31.766  33.198 -15.633  0.00  0.00     0.091 H 
BRANCH  13  15
ATOM     15  N   THR d   1     -32.956  32.588 -14.100  0.00  0.00    -0.344 N 
ATOM     16  C   GLN d   1     -31.982  32.064 -13.365  0.00  0.00     0.249 C 
ATOM     17  O   GLN d   1     -30.832  31.848 -13.775  0.00  0.00    -0.271 OA
ATOM     18  H   THR d   1     -33.844  32.823 -13.657  0.00  0.00     0.163 HD
BRANCH  16  19
ATOM     19  CA  GLN d   1     -32.386  31.757 -11.959  0.00  0.00     0.176 C 
ATOM     20  H   GLN d   1     -31.538  31.518 -11.317  0.00  0.00     0.099 H 
BRANCH  19  21
ATOM     21  N   GLN d   1     -33.102  32.944 -11.557  0.00  0.00    -0.066 N 
ATOM     22  H   GLN d   1     -32.473  33.746 -11.590  0.00  0.00     0.275 HD
ATOM     23  H   GLN d   1     -33.885  33.098 -12.192  0.00  0.00     0.275 HD
ATOM     24  H   GLN d   1     -33.452  32.823 -10.607  0.00  0.00     0.275 HD
ENDBRANCH  19  21
BRANCH  19  25
ATOM     25  CB  GLN d   1     -33.322  30.541 -11.914  0.00  0.00    -0.022 C 
ATOM     26  H   GLN d   1     -34.296  30.886 -12.260  0.00  0.00     0.037 H 
ATOM     27  H   GLN d   1     -33.293  30.165 -10.891  0.00  0.00     0.037 H 
BRANCH  25  28
ATOM     28  CG  GLN d   1     -32.927  29.372 -12.820  0.00  0.00     0.011 C 
ATOM     29  H   GLN d   1     -32.074  29.692 -13.418  0.00  0.00     0.047 H 
ATOM     30  H   GLN d   1     -33.799  29.110 -13.420  0.00  0.00     0.047 H 
BRANCH  28  31
ATOM     31  CD  GLN d   1     -32.508  28.128 -12.047  0.00  0.00     0.215 C 
ATOM     32  OE1 GLN d   1     -32.872  27.948 -10.881  0.00  0.00    -0.274 OA
ATOM     33  NE2 GLN d   1     -31.735  27.264 -12.696  0.00  0.00    -0.370 N 
ATOM     34  H   GLN d   1     -31.419  26.413 -12.231  0.00  0.00     0.159 HD
ATOM     35  H   GLN d   1     -31.457  27.452 -13.659  0.00  0.00     0.159 HD
ENDBRANCH  28  31
ENDBRANCH  25  28
ENDBRANCH  19  25
ENDBRANCH  16  19
ENDBRANCH  13  15
BRANCH  13  36
ATOM     36  CB  THR d   1     -32.995  31.519 -16.310  0.00  0.00     0.060 C 
ATOM     37  H   THR d   1     -33.328  31.784 -17.313  0.00  0.00     0.086 H 
BRANCH  36  38
ATOM     38  OG1 THR d   1     -33.977  30.707 -15.650  0.00  0.00    -0.393 OA
ATOM     39  H   THR d   1     -34.104  29.895 -16.146  0.00  0.00     0.210 HD
ENDBRANCH  36  38
BRANCH  36  40
ATOM     40  CG2 THR d   1     -31.706  30.729 -16.410  0.00  0.00    -0.050 C 
ATOM     41  H   THR d   1     -30.952  31.329 -16.919  0.00  0.00     0.031 H 
ATOM     42  H   THR d   1     -31.357  30.477 -15.409  0.00  0.00     0.031 H 
ATOM     43  H   THR d   1     -31.885  29.814 -16.974  0.00  0.00     0.031 H 
ENDBRANCH  36  40
ENDBRANCH  13  36
ENDBRANCH  10  13
ENDBRANCH   7   9
BRANCH   7  44
ATOM     44  CB  ALA d   1     -33.998  36.822 -17.307  0.00  0.00    -0.049 C 
ATOM     45  H   ALA d   1     -34.331  36.787 -16.270  0.00  0.00     0.030 H 
ATOM     46  H   ALA d   1     -32.958  37.145 -17.346  0.00  0.00     0.030 H 
ATOM     47  H   ALA d   1     -34.618  37.523 -17.866  0.00  0.00     0.030 H 
ENDBRANCH   7  44
ENDBRANCH   4   7
ENDBRANCH   1   3
BRANCH   1  48
ATOM     48  C   ARG d   1     -33.889  37.783 -22.140  0.00  0.00     0.241 C 
ATOM     49  O   ARG d   1     -34.631  38.694 -21.776  0.00  0.00    -0.271 OA
ATOM     50  N   MLY d   1     -32.906  37.938 -23.018  0.00  0.00    -0.346 N 
ATOM     51  H   MLY d   1     -32.276  37.151 -23.172  0.00  0.00     0.163 HD
BRANCH  50  52
ATOM     52  CA  MLY d   1     -32.666  39.167 -23.782  0.00  0.00     0.089 C 
ATOM     53  H   MLY d   1     -32.611  40.009 -23.092  0.00  0.00     0.087 H 
BRANCH  52  54
ATOM     54  CB  MLY d   1     -31.395  38.879 -24.557  0.00  0.00    -0.038 C 
ATOM     55  H   MLY d   1     -31.188  39.703 -25.240  0.00  0.00     0.036 H 
ATOM     56  H   MLY d   1     -31.516  37.960 -25.131  0.00  0.00     0.036 H 
BRANCH  54  57
ATOM     57  CG  MLY d   1     -30.241  38.723 -23.581  0.00  0.00    -0.061 C 
ATOM     58  H   MLY d   1     -30.489  37.961 -22.843  0.00  0.00     0.033 H 
ATOM     59  H   MLY d   1     -30.061  39.672 -23.075  0.00  0.00     0.033 H 
BRANCH  57  60
ATOM     60  CD  MLY d   1     -28.997  38.309 -24.336  0.00  0.00    -0.040 C 
ATOM     61  H   MLY d   1     -28.822  39.035 -25.130  0.00  0.00     0.035 H 
ATOM     62  H   MLY d   1     -29.155  37.305 -24.730  0.00  0.00     0.035 H 
BRANCH  60  63
ATOM     63  CE  MLY d   1     -27.772  38.281 -23.437  0.00  0.00     0.113 C 
ATOM     64  H   MLY d   1     -27.945  37.694 -22.535  0.00  0.00     0.079 H 
ATOM     65  H   MLY d   1     -27.510  39.276 -23.078  0.00  0.00     0.079 H 
BRANCH  63  66
ATOM     66  NZ  MLY d   1     -26.716  37.708 -24.260  0.00  0.00     0.080 N 
BRANCH  66  67
ATOM     67  CH1 MLY d   1     -27.091  36.294 -24.322  0.00  0.00     0.095 C 
ATOM     68  H   MLY d   1     -27.112  35.881 -23.314  0.00  0.00     0.071 H 
ATOM     69  H   MLY d   1     -28.078  36.201 -24.775  0.00  0.00     0.071 H 
ATOM     70  H   MLY d   1     -26.361  35.752 -24.923  0.00  0.00     0.071 H 
ENDBRANCH  66  67
BRANCH  66  71
ATOM     71  CH2 MLY d   1     -25.350  37.904 -23.779  0.00  0.00     0.095 C 
ATOM     72  H   MLY d   1     -25.139  38.971 -23.715  0.00  0.00     0.071 H 
ATOM     73  H   MLY d   1     -25.245  37.451 -22.793  0.00  0.00     0.071 H 
ATOM     74  H   MLY d   1     -24.651  37.435 -24.472  0.00  0.00     0.071 H 
ENDBRANCH  66  71
ENDBRANCH  63  66
ENDBRANCH  60  63
ENDBRANCH  57  60
ENDBRANCH  54  57
ENDBRANCH  52  54
BRANCH  52  75
ATOM     75  C   MLY d   1     -33.770  39.564 -24.754  0.00  0.00     0.241 C 
ATOM     76  O   MLY d   1     -34.577  38.710 -25.186  0.00  0.00    -0.271 OA
ATOM     77  N   SER d   1     -33.782  40.847 -25.095  0.00  0.00    -0.344 N 
ATOM     78  H   SER d   1     -33.077  41.462 -24.689  0.00  0.00     0.163 HD
BRANCH  77  79
ATOM     79  CA  SER d   1     -34.747  41.418 -26.015  0.00  0.00     0.109 C 
ATOM     80  H   SER d   1     -35.312  40.620 -26.496  0.00  0.00     0.090 H 
BRANCH  79  81
ATOM     81  C   SER d   1     -34.008  42.228 -27.076  0.00  0.00     0.243 C 
ATOM     82  O   SER d   1     -32.878  42.668 -26.849  0.00  0.00    -0.271 OA
ATOM     83  N   THR d   1     -34.653  42.418 -28.225  0.00  0.00    -0.342 N 
ATOM     84  H   THR d   1     -35.592  42.033 -28.326  0.00  0.00     0.163 HD
BRANCH  83  85
ATOM     85  CA  THR d   1     -34.074  43.155 -29.351  0.00  0.00     0.120 C 
ATOM     86  H   THR d   1     -33.195  42.604 -29.684  0.00  0.00     0.093 H 
BRANCH  85  87
ATOM     87  C   THR d   1     -33.647  44.556 -28.913  0.00  0.00     0.199 C 
ATOM     88  O   THR d   1     -34.207  45.586 -29.375  0.00  0.00    -0.646 OA
ATOM     89  O   THR d   1     -32.716  44.684 -28.073  0.00  0.00    -0.646 OA
ENDBRANCH  85  87
BRANCH  85  90
ATOM     90  CB  THR d   1     -35.064  43.244 -30.554  0.00  0.00     0.061 C 
ATOM     91  H   THR d   1     -35.866  43.928 -30.277  0.00  0.00     0.086 H 
BRANCH  90  92
ATOM     92  OG1 THR d   1     -35.599  41.945 -30.841  0.00  0.00    -0.393 OA
ATOM     93  H   THR d   1     -36.207  42.007 -31.581  0.00  0.00     0.210 HD
ENDBRANCH  90  92
BRANCH  90  94
ATOM     94  CG2 THR d   1     -34.368  43.782 -31.806  0.00  0.00    -0.050 C 
ATOM     95  H   THR d   1     -33.977  44.779 -31.603  0.00  0.00     0.031 H 
ATOM     96  H   THR d   1     -33.548  43.117 -32.078  0.00  0.00     0.031 H 
ATOM     97  H   THR d   1     -35.085  43.832 -32.626  0.00  0.00     0.031 H 
ENDBRANCH  90  94
ENDBRANCH  85  90
ENDBRANCH  83  85
ENDBRANCH  79  81
BRANCH  79  98
ATOM     98  CB  SER d   1     -35.716  42.319 -25.252  0.00  0.00     0.044 C 
ATOM     99  H   SER d   1     -36.313  41.703 -24.580  0.00  0.00     0.077 H 
ATOM    100  H   SER d   1     -36.351  42.839 -25.970  0.00  0.00     0.077 H 
BRANCH  98 101
ATOM    101  OG  SER d   1     -35.012  43.282 -24.484  0.00  0.00    -0.398 OA
ATOM    102  H   SER d   1     -34.444  42.834 -23.853  0.00  0.00     0.209 HD
ENDBRANCH  98 101
ENDBRANCH  79  98
ENDBRANCH  77  79
ENDBRANCH  52  75
ENDBRANCH  50  52
ENDBRANCH   1  48
BRANCH   1 103
ATOM    103  CB  ARG d   1     -35.077  35.598 -22.411  0.00  0.00    -0.036 C 
ATOM    104  H   ARG d   1     -34.953  34.541 -22.175  0.00  0.00     0.036 H 
ATOM    105  H   ARG d   1     -34.910  35.847 -23.459  0.00  0.00     0.036 H 
BRANCH 103 106
ATOM    106  CG  ARG d   1     -36.515  35.960 -22.090  0.00  0.00    -0.048 C 
ATOM    107  H   ARG d   1     -36.543  36.983 -21.715  0.00  0.00     0.035 H 
ATOM    108  H   ARG d   1     -36.894  35.261 -21.344  0.00  0.00     0.035 H 
BRANCH 106 109
ATOM    109  CD  ARG d   1     -37.387  35.870 -23.330  0.00  0.00     0.009 C 
ATOM    110  H   ARG d   1     -37.352  36.831 -23.843  0.00  0.00     0.064 H 
ATOM    111  H   ARG d   1     -38.399  35.612 -23.018  0.00  0.00     0.064 H 
BRANCH 109 112
ATOM    112  NE  ARG d   1     -36.916  34.841 -24.253  0.00  0.00    -0.227 N 
ATOM    113  CZ  ARG d   1     -37.124  33.538 -24.092  0.00  0.00     0.665 C 
ATOM    114  NH1 ARG d   1     -36.659  32.675 -24.984  0.00  0.00    -0.235 N 
ATOM    115  NH2 ARG d   1     -37.793  33.098 -23.036  0.00  0.00    -0.235 N 
ATOM    116  H   ARG d   1     -36.141  33.010 -25.796  0.00  0.00     0.174 HD
ATOM    117  H   ARG d   1     -36.820  31.676 -24.859  0.00  0.00     0.174 HD
ATOM    118  H   ARG d   1     -38.149  33.759 -22.346  0.00  0.00     0.174 HD
ATOM    119  H   ARG d   1     -37.952  32.098 -22.913  0.00  0.00     0.174 HD
ATOM    120  H   ARG d   1     -36.393  35.142 -25.075  0.00  0.00     0.177 HD
ENDBRANCH 109 112
ENDBRANCH 106 109
ENDBRANCH 103 106
ENDBRANCH   1 103
TORSDOF 37
