REMARK  10 active torsions:
REMARK  status: ('A' for Active; 'I' for Inactive)
REMARK    1  A    between atoms: O3B_8  and  PG_1 
REMARK    2  A    between atoms: PB_5  and  O3B_8 
REMARK    3  A    between atoms: O3A_12  and  PB_5 
REMARK    4  A    between atoms: PA_9  and  O3A_12 
REMARK    5  A    between atoms: PA_9  and  O5'_13 
REMARK    6  A    between atoms: O5'_13  and  C5'_14 
REMARK    7  A    between atoms: C5'_14  and  C4'_15 
REMARK    8  A    between atoms: C3'_17  and  O3'_18 
REMARK    9  A    between atoms: C2'_19  and  O2'_20 
REMARK   10  A    between atoms: C1'_21  and  N9_22 
ROOT
ATOM      1  C4' ATP d   1      34.720 -51.607  -6.048  0.00  0.00     0.089 C 
ATOM      2  O4' ATP d   1      33.798 -52.153  -5.116  0.00  0.00    -0.353 OA
ATOM      3  C3' ATP d   1      34.181 -52.005  -7.409  0.00  0.00     0.091 C 
ATOM      4  C2' ATP d   1      33.567 -53.355  -7.124  0.00  0.00     0.105 C 
ATOM      5  C1' ATP d   1      33.056 -53.214  -5.704  0.00  0.00     0.139 C 
ATOM      6  H3  ATP d   1      35.718 -52.048  -5.905  0.00  0.00     0.090 H 
ATOM      7  H4  ATP d   1      33.406 -51.304  -7.753  0.00  0.00     0.091 H 
ATOM      8  H6  ATP d   1      32.768 -53.597  -7.841  0.00  0.00     0.093 H 
ATOM      9  H8  ATP d   1      33.210 -54.150  -5.147  0.00  0.00     0.122 H 
ENDROOT
BRANCH   1  10
ATOM     10  C5' ATP d   1      34.819 -50.102  -5.841  0.00  0.00     0.058 C 
ATOM     11  H1  ATP d   1      35.445 -49.643  -6.620  0.00  0.00     0.079 H 
ATOM     12  H2  ATP d   1      33.820 -49.641  -5.854  0.00  0.00     0.079 H 
BRANCH  10  13
ATOM     13  O5' ATP d   1      35.425 -49.957  -4.556  0.00  0.00    -0.287 OA
BRANCH  13  14
ATOM     14  PA  ATP d   1      36.262 -48.662  -4.162  0.00  0.00     0.417 P 
ATOM     15  O1A ATP d   1      36.322 -47.710  -5.333  0.00  0.00    -0.624 OA
ATOM     16  O2A ATP d   1      35.644 -48.192  -2.866  0.00  0.00    -0.624 OA
BRANCH  14  17
ATOM     17  O3A ATP d   1      37.777 -49.158  -3.886  0.00  0.00    -0.180 OA
BRANCH  17  18
ATOM     18  PB  ATP d   1      38.321 -50.693  -3.976  0.00  0.00     0.428 P 
ATOM     19  O1B ATP d   1      38.262 -51.142  -5.421  0.00  0.00    -0.624 OA
ATOM     20  O2B ATP d   1      37.564 -51.486  -2.962  0.00  0.00    -0.624 OA
BRANCH  18  21
ATOM     21  O3B ATP d   1      39.863 -50.448  -3.560  0.00  0.00    -0.173 OA
BRANCH  21  22
ATOM     22  PG  ATP d   1      41.138 -50.403  -4.561  0.00  0.00     0.431 P 
ATOM     23  O1G ATP d   1      41.512 -51.862  -4.727  0.00  0.00    -0.616 OA
ATOM     24  O2G ATP d   1      42.169 -49.553  -3.866  0.00  0.00    -0.616 OA
ATOM     25  O3G ATP d   1      40.727 -49.756  -5.854  0.00  0.00    -0.616 OA
ENDBRANCH  21  22
ENDBRANCH  18  21
ENDBRANCH  17  18
ENDBRANCH  14  17
ENDBRANCH  13  14
ENDBRANCH  10  13
ENDBRANCH   1  10
BRANCH   3  26
ATOM     26  O3' ATP d   1      35.249 -52.004  -8.354  0.00  0.00    -0.390 OA
ATOM     27  H5  ATP d   1      35.914 -52.625  -8.079  0.00  0.00     0.210 HD
ENDBRANCH   3  26
BRANCH   5  28
ATOM     28  N9  ATP d   1      31.616 -52.860  -5.703  0.00  0.00    -0.294 N 
ATOM     29  C8  ATP d   1      31.099 -51.623  -5.543  0.00  0.00     0.071 A 
ATOM     30  N7  ATP d   1      29.749 -51.650  -5.591  0.00  0.00    -0.236 NA
ATOM     31  H9  ATP d   1      31.692 -50.722  -5.395  0.00  0.00     0.144 H 
ATOM     32  C5  ATP d   1      29.379 -52.929  -5.793  0.00  0.00     0.149 A 
ATOM     33  C6  ATP d   1      28.106 -53.658  -5.955  0.00  0.00     0.155 A 
ATOM     34  C4  ATP d   1      30.619 -53.717  -5.867  0.00  0.00     0.167 A 
ATOM     35  N6  ATP d   1      26.905 -53.026  -5.893  0.00  0.00    -0.382 N 
ATOM     36  N1  ATP d   1      28.174 -54.993  -6.154  0.00  0.00    -0.222 NA
ATOM     37  H10 ATP d   1      26.034 -53.563  -6.010  0.00  0.00     0.157 HD
ATOM     38  H11 ATP d   1      26.866 -52.010  -5.729  0.00  0.00     0.157 HD
ATOM     39  C2  ATP d   1      29.355 -55.641  -6.208  0.00  0.00     0.091 A 
ATOM     40  N3  ATP d   1      30.544 -55.044  -6.083  0.00  0.00    -0.222 NA
ATOM     41  H12 ATP d   1      29.339 -56.714  -6.362  0.00  0.00     0.146 H 
ENDBRANCH   5  28
BRANCH   4  42
ATOM     42  O2' ATP d   1      34.563 -54.387  -7.094  0.00  0.00    -0.388 OA
ATOM     43  H7  ATP d   1      35.002 -54.426  -7.936  0.00  0.00     0.210 HD
ENDBRANCH   4  42
TORSDOF 10
