REMARK  10 active torsions:
REMARK  status: ('A' for Active; 'I' for Inactive)
REMARK    1  A    between atoms: O3B_8  and  PG_1 
REMARK    2  A    between atoms: PB_5  and  O3B_8 
REMARK    3  A    between atoms: O3A_12  and  PB_5 
REMARK    4  A    between atoms: PA_9  and  O3A_12 
REMARK    5  A    between atoms: PA_9  and  O5'_13 
REMARK    6  A    between atoms: O5'_13  and  C5'_14 
REMARK    7  A    between atoms: C5'_14  and  C4'_15 
REMARK    8  A    between atoms: C3'_17  and  O3'_18 
REMARK    9  A    between atoms: C2'_19  and  O2'_20 
REMARK   10  A    between atoms: C1'_21  and  N9_22 
ROOT
ATOM      1  C4' ATP d   1      -8.574  10.636  23.180  0.00  0.00     0.089 C 
ATOM      2  O4' ATP d   1      -8.523  12.059  23.008  0.00  0.00    -0.353 OA
ATOM      3  C3' ATP d   1      -8.942  10.086  21.795  0.00  0.00     0.091 C 
ATOM      4  C2' ATP d   1      -9.588  11.204  21.028  0.00  0.00     0.105 C 
ATOM      5  C1' ATP d   1      -9.286  12.447  21.851  0.00  0.00     0.139 C 
ATOM      6  H   ATP d   1      -9.296  10.324  23.934  0.00  0.00     0.090 H 
ATOM      7  H   ATP d   1      -8.005   9.717  21.377  0.00  0.00     0.091 H 
ATOM      8  H   ATP d   1      -9.202  11.289  20.012  0.00  0.00     0.093 H 
ATOM      9  H   ATP d   1     -10.200  12.950  22.168  0.00  0.00     0.122 H 
ENDROOT
BRANCH   1  10
ATOM     10  C5' ATP d   1      -7.219  10.122  23.645  0.00  0.00     0.058 C 
ATOM     11  H   ATP d   1      -6.824  10.749  24.445  0.00  0.00     0.079 H 
ATOM     12  H   ATP d   1      -7.307   9.111  24.043  0.00  0.00     0.079 H 
BRANCH  10  13
ATOM     13  O5' ATP d   1      -6.355  10.143  22.520  0.00  0.00    -0.287 OA
BRANCH  13  14
ATOM     14  PA  ATP d   1      -5.092   9.202  22.345  0.00  0.00     0.417 P 
ATOM     15  O1A ATP d   1      -5.394   7.862  23.000  0.00  0.00    -0.624 OA
ATOM     16  O2A ATP d   1      -4.571   9.289  20.929  0.00  0.00    -0.624 OA
BRANCH  14  17
ATOM     17  O3A ATP d   1      -4.047   9.941  23.299  0.00  0.00    -0.180 OA
BRANCH  17  18
ATOM     18  PB  ATP d   1      -2.466  10.092  23.001  0.00  0.00     0.428 P 
ATOM     19  O1B ATP d   1      -2.284  10.720  21.641  0.00  0.00    -0.624 OA
ATOM     20  O2B ATP d   1      -1.959  10.963  24.125  0.00  0.00    -0.624 OA
BRANCH  18  21
ATOM     21  O3B ATP d   1      -1.861   8.609  23.177  0.00  0.00    -0.173 OA
BRANCH  21  22
ATOM     22  PG  ATP d   1      -1.226   7.688  22.003  0.00  0.00     0.431 P 
ATOM     23  O1G ATP d   1      -1.388   6.342  22.632  0.00  0.00    -0.616 OA
ATOM     24  O2G ATP d   1       0.173   8.165  21.786  0.00  0.00    -0.616 OA
ATOM     25  O3G ATP d   1      -2.137   7.939  20.813  0.00  0.00    -0.616 OA
ENDBRANCH  21  22
ENDBRANCH  18  21
ENDBRANCH  17  18
ENDBRANCH  14  17
ENDBRANCH  13  14
ENDBRANCH  10  13
ENDBRANCH   1  10
BRANCH   3  26
ATOM     26  O3' ATP d   1      -9.831   8.967  21.753  0.00  0.00    -0.390 OA
ATOM     27  H   ATP d   1      -9.985   8.716  20.839  0.00  0.00     0.210 HD
ENDBRANCH   3  26
BRANCH   5  28
ATOM     28  N9  ATP d   1      -8.456  13.321  21.008  0.00  0.00    -0.294 N 
ATOM     29  C8  ATP d   1      -7.142  13.158  20.821  0.00  0.00     0.071 A 
ATOM     30  N7  ATP d   1      -6.676  14.110  19.989  0.00  0.00    -0.236 NA
ATOM     31  H   ATP d   1      -6.538  12.372  21.274  0.00  0.00     0.144 H 
ATOM     32  C5  ATP d   1      -7.729  14.875  19.652  0.00  0.00     0.149 A 
ATOM     33  C6  ATP d   1      -7.910  16.074  18.822  0.00  0.00     0.155 A 
ATOM     34  C4  ATP d   1      -8.911  14.352  20.310  0.00  0.00     0.167 A 
ATOM     35  N6  ATP d   1      -6.834  16.602  18.216  0.00  0.00    -0.382 N 
ATOM     36  N1  ATP d   1      -9.146  16.584  18.727  0.00  0.00    -0.222 NA
ATOM     37  H   ATP d   1      -5.918  16.171  18.337  0.00  0.00     0.157 HD
ATOM     38  H   ATP d   1      -6.933  17.434  17.634  0.00  0.00     0.157 HD
ATOM     39  C2  ATP d   1     -10.220  16.038  19.348  0.00  0.00     0.091 A 
ATOM     40  N3  ATP d   1     -10.125  14.950  20.138  0.00  0.00    -0.222 NA
ATOM     41  H   ATP d   1     -11.198  16.496  19.203  0.00  0.00     0.146 H 
ENDBRANCH   5  28
BRANCH   4  42
ATOM     42  O2' ATP d   1     -10.978  10.991  20.848  0.00  0.00    -0.388 OA
ATOM     43  H   ATP d   1     -11.115  10.175  20.362  0.00  0.00     0.210 HD
ENDBRANCH   4  42
TORSDOF 10
