REMARK  10 active torsions:
REMARK  status: ('A' for Active; 'I' for Inactive)
REMARK    1  A    between atoms: O3B_8  and  PG_1 
REMARK    2  A    between atoms: PB_5  and  O3B_8 
REMARK    3  A    between atoms: O3A_12  and  PB_5 
REMARK    4  A    between atoms: PA_9  and  O3A_12 
REMARK    5  A    between atoms: PA_9  and  O5'_13 
REMARK    6  A    between atoms: O5'_13  and  C5'_14 
REMARK    7  A    between atoms: C5'_14  and  C4'_15 
REMARK    8  A    between atoms: C3'_17  and  O3'_18 
REMARK    9  A    between atoms: C2'_19  and  O2'_20 
REMARK   10  A    between atoms: C1'_21  and  N9_22 
ROOT
ATOM      1  C4' ATP d   1       9.869 -10.952  23.183  0.00  0.00     0.089 C 
ATOM      2  O4' ATP d   1       9.692 -12.274  22.678  0.00  0.00    -0.353 OA
ATOM      3  C3' ATP d   1      10.700 -10.207  22.139  0.00  0.00     0.091 C 
ATOM      4  C2' ATP d   1      10.500 -10.987  20.868  0.00  0.00     0.105 C 
ATOM      5  C1' ATP d   1      10.355 -12.395  21.414  0.00  0.00     0.139 C 
ATOM      6  H   ATP d   1      10.394 -10.927  24.138  0.00  0.00     0.090 H 
ATOM      7  H   ATP d   1      10.420  -9.158  22.044  0.00  0.00     0.091 H 
ATOM      8  H   ATP d   1       9.669 -10.630  20.260  0.00  0.00     0.093 H 
ATOM      9  H   ATP d   1      11.350 -12.838  21.468  0.00  0.00     0.122 H 
ENDROOT
BRANCH   1  10
ATOM     10  C5' ATP d   1       8.510 -10.316  23.458  0.00  0.00     0.058 C 
ATOM     11  H   ATP d   1       8.005 -10.903  24.225  0.00  0.00     0.079 H 
ATOM     12  H   ATP d   1       8.671  -9.287  23.780  0.00  0.00     0.079 H 
BRANCH  10  13
ATOM     13  O5' ATP d   1       7.693 -10.300  22.294  0.00  0.00    -0.287 OA
BRANCH  13  14
ATOM     14  PA  ATP d   1       6.351  -9.404  22.253  0.00  0.00     0.417 P 
ATOM     15  O1A ATP d   1       6.715  -8.135  22.973  0.00  0.00    -0.624 OA
ATOM     16  O2A ATP d   1       5.823  -9.332  20.842  0.00  0.00    -0.624 OA
BRANCH  14  17
ATOM     17  O3A ATP d   1       5.312 -10.214  23.158  0.00  0.00    -0.180 OA
BRANCH  17  18
ATOM     18  PB  ATP d   1       3.759 -10.284  22.746  0.00  0.00     0.428 P 
ATOM     19  O1B ATP d   1       3.598 -10.773  21.331  0.00  0.00    -0.624 OA
ATOM     20  O2B ATP d   1       3.060 -11.128  23.798  0.00  0.00    -0.624 OA
BRANCH  18  21
ATOM     21  O3B ATP d   1       3.259  -8.762  22.851  0.00  0.00    -0.173 OA
BRANCH  21  22
ATOM     22  PG  ATP d   1       2.483  -7.872  21.746  0.00  0.00     0.431 P 
ATOM     23  O1G ATP d   1       2.634  -6.493  22.362  0.00  0.00    -0.616 OA
ATOM     24  O2G ATP d   1       1.062  -8.343  21.647  0.00  0.00    -0.616 OA
ATOM     25  O3G ATP d   1       3.325  -8.071  20.495  0.00  0.00    -0.616 OA
ENDBRANCH  21  22
ENDBRANCH  18  21
ENDBRANCH  17  18
ENDBRANCH  14  17
ENDBRANCH  13  14
ENDBRANCH  10  13
ENDBRANCH   1  10
BRANCH   3  26
ATOM     26  O3' ATP d   1      12.094 -10.305  22.513  0.00  0.00    -0.390 OA
ATOM     27  H   ATP d   1      12.631  -9.841  21.866  0.00  0.00     0.210 HD
ENDBRANCH   3  26
BRANCH   5  28
ATOM     28  N9  ATP d   1       9.533 -13.281  20.570  0.00  0.00    -0.294 N 
ATOM     29  C8  ATP d   1       8.200 -13.165  20.410  0.00  0.00     0.071 A 
ATOM     30  N7  ATP d   1       7.754 -14.164  19.623  0.00  0.00    -0.236 NA
ATOM     31  H   ATP d   1       7.579 -12.384  20.849  0.00  0.00     0.144 H 
ATOM     32  C5  ATP d   1       8.831 -14.917  19.276  0.00  0.00     0.149 A 
ATOM     33  C6  ATP d   1       9.042 -16.131  18.460  0.00  0.00     0.155 A 
ATOM     34  C4  ATP d   1      10.009 -14.346  19.914  0.00  0.00     0.167 A 
ATOM     35  N6  ATP d   1       7.948 -16.698  17.893  0.00  0.00    -0.382 N 
ATOM     36  N1  ATP d   1      10.308 -16.616  18.346  0.00  0.00    -0.222 NA
ATOM     37  H   ATP d   1       7.027 -16.285  18.038  0.00  0.00     0.157 HD
ATOM     38  H   ATP d   1       8.047 -17.537  17.322  0.00  0.00     0.157 HD
ATOM     39  C2  ATP d   1      11.367 -16.020  18.958  0.00  0.00     0.091 A 
ATOM     40  N3  ATP d   1      11.244 -14.905  19.704  0.00  0.00    -0.222 NA
ATOM     41  H   ATP d   1      12.356 -16.463  18.840  0.00  0.00     0.146 H 
ENDBRANCH   5  28
BRANCH   4  42
ATOM     42  O2' ATP d   1      11.656 -10.921  20.031  0.00  0.00    -0.388 OA
ATOM     43  H   ATP d   1      12.410 -11.287  20.499  0.00  0.00     0.210 HD
ENDBRANCH   4  42
TORSDOF 10
