REMARK  4 active torsions:
REMARK  status: ('A' for Active; 'I' for Inactive)
REMARK    1  A    between atoms: N_1  and  CA_2 
REMARK    2  A    between atoms: CA_2  and  C_3 
REMARK    3  A    between atoms: CA_2  and  CB_5 
REMARK    4  A    between atoms: CB_5  and  CG_6 
ROOT
ATOM      1  CB  PHE d   1      27.383 -16.974  34.285  0.00  0.00    -0.005 C 
ATOM      2  H5  PHE d   1      27.251 -16.384  35.204  0.00  0.00     0.044 H 
ATOM      3  H6  PHE d   1      27.410 -18.044  34.536  0.00  0.00     0.044 H 
ENDROOT
BRANCH   1   4
ATOM      4  CA  PHE d   1      28.732 -16.593  33.658  0.00  0.00     0.186 C 
ATOM      5  H4  PHE d   1      29.525 -16.903  34.354  0.00  0.00     0.101 H 
BRANCH   4   6
ATOM      6  N   PHE d   1      28.838 -15.115  33.483  0.00  0.00    -0.065 N 
ATOM      7  H1  PHE d   1      28.686 -14.660  34.370  0.00  0.00     0.275 HD
ATOM      8  H2  PHE d   1      28.143 -14.804  32.822  0.00  0.00     0.275 HD
ATOM      9  H3  PHE d   1      29.757 -14.882  33.139  0.00  0.00     0.275 HD
ENDBRANCH   4   6
BRANCH   4  10
ATOM     10  C   PHE d   1      28.954 -17.341  32.345  0.00  0.00     0.204 C 
ATOM     11  O   PHE d   1      29.385 -18.493  32.338  0.00  0.00    -0.646 OA
ATOM     12  OXT PHE d   1      28.708 -16.813  31.260  0.00  0.00    -0.646 OA
ENDBRANCH   4  10
ENDBRANCH   1   4
BRANCH   1  13
ATOM     13  CG  PHE d   1      26.192 -16.728  33.391  0.00  0.00    -0.056 A 
ATOM     14  CD1 PHE d   1      25.636 -17.769  32.651  0.00  0.00    -0.077 A 
ATOM     15  CE1 PHE d   1      24.531 -17.552  31.832  0.00  0.00    -0.082 A 
ATOM     16  H7  PHE d   1      26.069 -18.761  32.714  0.00  0.00     0.084 H 
ATOM     17  CZ  PHE d   1      23.970 -16.284  31.746  0.00  0.00    -0.083 A 
ATOM     18  H9  PHE d   1      24.109 -18.372  31.262  0.00  0.00     0.083 H 
ATOM     19  CE2 PHE d   1      24.513 -15.237  32.483  0.00  0.00    -0.082 A 
ATOM     20  H11 PHE d   1      23.112 -16.111  31.107  0.00  0.00     0.083 H 
ATOM     21  CD2 PHE d   1      25.616 -15.464  33.303  0.00  0.00    -0.077 A 
ATOM     22  H10 PHE d   1      24.079 -14.246  32.419  0.00  0.00     0.083 H 
ATOM     23  H8  PHE d   1      26.031 -14.646  33.880  0.00  0.00     0.084 H 
ENDBRANCH   1  13
TORSDOF 4
