REMARK  6 active torsions:
REMARK  status: ('A' for Active; 'I' for Inactive)
REMARK    1  A    between atoms: C5_1  and  N3_5 
REMARK    2  A    between atoms: C4_6  and  C5_1 
REMARK    3  A    between atoms: C5_1  and  C66_16 
REMARK       I    between atoms: N3_5  and  C6_2 
REMARK       I    between atoms: C6_2  and  N4_14 
REMARK    4  A    between atoms: N1_3  and  C11_7 
REMARK       I    between atoms: C4_6  and  N2_18 
REMARK    5  A    between atoms: N4_14  and  C31_13 
REMARK    6  A    between atoms: C1_20  and  C21_21 
ROOT
ATOM      1  C5  0W2 d   1      48.581   4.514  45.694  0.00  0.00     0.089 C 
ATOM      2  H   0W2 d   1      48.755   5.067  44.759  0.00  0.00     0.087 H 
ENDROOT
BRANCH   1   3
ATOM      3  N3  0W2 d   1      47.534   5.183  46.449  0.00  0.00    -0.330 N 
ATOM      4  C6  0W2 d   1      46.399   5.612  45.889  0.00  0.00     0.317 C 
ATOM      5  N4  0W2 d   1      45.441   6.220  46.659  0.00  0.00    -0.338 N 
ATOM      6  O1  0W2 d   1      46.184   5.473  44.688  0.00  0.00    -0.247 OA
ATOM      7  H   0W2 d   1      45.642   6.343  47.631  0.00  0.00     0.164 HD
ATOM      8  H   0W2 d   1      47.669   5.328  47.429  0.00  0.00     0.165 HD
BRANCH   5   9
ATOM      9  C31 0W2 d   1      44.144   6.705  46.171  0.00  0.00     0.021 C 
ATOM     10  C36 0W2 d   1      43.776   8.094  46.760  0.00  0.00    -0.033 C 
ATOM     11  C37 0W2 d   1      43.675   8.012  48.313  0.00  0.00    -0.056 C 
ATOM     12  C35 0W2 d   1      42.401   8.536  46.186  0.00  0.00    -0.056 C 
ATOM     13  H   0W2 d   1      44.548   8.827  46.481  0.00  0.00     0.043 H 
ATOM     14  C38 0W2 d   1      42.577   6.984  48.736  0.00  0.00    -0.053 C 
ATOM     15  H   0W2 d   1      43.415   9.004  48.712  0.00  0.00     0.034 H 
ATOM     16  H   0W2 d   1      44.645   7.694  48.723  0.00  0.00     0.034 H 
ATOM     17  C40 0W2 d   1      42.930   5.592  48.148  0.00  0.00    -0.056 C 
ATOM     18  C39 0W2 d   1      41.196   7.442  48.152  0.00  0.00    -0.058 C 
ATOM     19  H   0W2 d   1      42.521   6.926  49.833  0.00  0.00     0.040 H 
ATOM     20  C32 0W2 d   1      43.019   5.656  46.573  0.00  0.00    -0.033 C 
ATOM     21  H   0W2 d   1      42.151   4.870  48.436  0.00  0.00     0.034 H 
ATOM     22  H   0W2 d   1      43.900   5.265  48.551  0.00  0.00     0.034 H 
ATOM     23  C33 0W2 d   1      41.635   6.132  46.027  0.00  0.00    -0.056 C 
ATOM     24  H   0W2 d   1      43.266   4.665  46.164  0.00  0.00     0.043 H 
ATOM     25  C34 0W2 d   1      41.286   7.528  46.583  0.00  0.00    -0.053 C 
ATOM     26  H   0W2 d   1      40.859   5.416  46.334  0.00  0.00     0.034 H 
ATOM     27  H   0W2 d   1      41.676   6.180  44.929  0.00  0.00     0.034 H 
ATOM     28  H   0W2 d   1      40.322   7.862  46.172  0.00  0.00     0.040 H 
ATOM     29  H   0W2 d   1      40.937   8.431  48.558  0.00  0.00     0.034 H 
ATOM     30  H   0W2 d   1      40.420   6.715  48.434  0.00  0.00     0.034 H 
ATOM     31  H   0W2 d   1      42.468   8.586  45.089  0.00  0.00     0.034 H 
ATOM     32  H   0W2 d   1      42.147   9.530  46.584  0.00  0.00     0.034 H 
ATOM     33  H   0W2 d   1      44.189   6.788  45.075  0.00  0.00     0.073 H 
ENDBRANCH   5   9
ENDBRANCH   1   3
BRANCH   1  34
ATOM     34  C4  0W2 d   1      48.107   3.096  45.351  0.00  0.00     0.257 C 
ATOM     35  O2  0W2 d   1      47.759   2.342  46.253  0.00  0.00    -0.270 OA
ATOM     36  N2  0W2 d   1      47.948   2.747  44.040  0.00  0.00    -0.273 N 
ATOM     37  N1  0W2 d   1      47.503   1.495  43.535  0.00  0.00    -0.180 NA
ATOM     38  C3  0W2 d   1      48.100   3.744  42.959  0.00  0.00     0.016 C 
ATOM     39  C1  0W2 d   1      46.675   1.862  42.360  0.00  0.00     0.047 C 
ATOM     40  C2  0W2 d   1      47.397   3.120  41.786  0.00  0.00    -0.028 C 
ATOM     41  H   0W2 d   1      46.704   1.056  41.612  0.00  0.00     0.075 H 
ATOM     42  H   0W2 d   1      46.666   3.821  41.357  0.00  0.00     0.038 H 
ATOM     43  H   0W2 d   1      48.123   2.828  41.013  0.00  0.00     0.038 H 
ATOM     44  H   0W2 d   1      47.626   4.697  43.237  0.00  0.00     0.066 H 
ATOM     45  H   0W2 d   1      49.163   3.915  42.732  0.00  0.00     0.066 H 
BRANCH  37  46
ATOM     46  C11 0W2 d   1      48.393   0.466  43.485  0.00  0.00     0.070 A 
ATOM     47  C12 0W2 d   1      47.898  -0.842  43.712  0.00  0.00     0.139 A 
ATOM     48  C13 0W2 d   1      48.737  -1.960  43.678  0.00  0.00    -0.044 A 
ATOM     49  F1  0W2 d   1      46.609  -1.049  43.968  0.00  0.00    -0.204 F 
ATOM     50  C14 0W2 d   1      50.111  -1.793  43.410  0.00  0.00    -0.080 A 
ATOM     51  H   0W2 d   1      48.333  -2.950  43.857  0.00  0.00     0.088 H 
ATOM     52  C15 0W2 d   1      50.634  -0.499  43.181  0.00  0.00    -0.081 A 
ATOM     53  H   0W2 d   1      50.766  -2.656  43.380  0.00  0.00     0.083 H 
ATOM     54  C16 0W2 d   1      49.791   0.616  43.218  0.00  0.00    -0.058 A 
ATOM     55  H   0W2 d   1      51.691  -0.371  42.976  0.00  0.00     0.083 H 
ATOM     56  H   0W2 d   1      50.201   1.604  43.043  0.00  0.00     0.086 H 
ENDBRANCH  37  46
BRANCH  39  57
ATOM     57  C21 0W2 d   1      45.206   2.073  42.763  0.00  0.00    -0.016 A 
ATOM     58  C26 0W2 d   1      44.819   2.212  44.128  0.00  0.00    -0.074 A 
ATOM     59  C25 0W2 d   1      43.505   2.399  44.504  0.00  0.00    -0.082 A 
ATOM     60  H   0W2 d   1      45.583   2.169  44.896  0.00  0.00     0.084 H 
ATOM     61  C24 0W2 d   1      42.475   2.461  43.552  0.00  0.00    -0.081 A 
ATOM     62  H   0W2 d   1      43.263   2.500  45.556  0.00  0.00     0.083 H 
ATOM     63  C23 0W2 d   1      42.803   2.329  42.181  0.00  0.00    -0.061 A 
ATOM     64  H   0W2 d   1      41.446   2.607  43.861  0.00  0.00     0.083 H 
ATOM     65  C22 0W2 d   1      44.157   2.137  41.806  0.00  0.00     0.042 A 
ATOM     66  H   0W2 d   1      42.027   2.374  41.426  0.00  0.00     0.086 H 
ATOM     67 CL1  0W2 d   1      44.446   1.984  40.096  0.00  0.00    -0.084 Cl
ENDBRANCH  39  57
ENDBRANCH   1  34
BRANCH   1  68
ATOM     68  C66 0W2 d   1      49.904   4.478  46.494  0.00  0.00    -0.049 C 
ATOM     69  H   0W2 d   1      50.677   3.968  45.901  0.00  0.00     0.030 H 
ATOM     70  H   0W2 d   1      49.747   3.935  47.438  0.00  0.00     0.030 H 
ATOM     71  H   0W2 d   1      50.228   5.506  46.712  0.00  0.00     0.030 H 
ENDBRANCH   1  68
TORSDOF 6
