REMARK  8 active torsions:
REMARK  status: ('A' for Active; 'I' for Inactive)
REMARK    1  A    between atoms: PB_2  and  O5'_5 
REMARK    2  A    between atoms: O5'_5  and  C5'_6 
REMARK    3  A    between atoms: C5'_6  and  C4'_7 
REMARK    4  A    between atoms: C3'_9  and  O3'_10 
REMARK    5  A    between atoms: C2'_11  and  O2'_12 
REMARK    6  A    between atoms: C1'_13  and  N9_14 
REMARK    7  A    between atoms: N61_23  and  C62_24 
REMARK    8  A    between atoms: C72_26  and  N73_27 
ROOT
ATOM      1  N9  TR5 d   1      20.531  41.209   3.199  0.00  0.00    -0.310 N 
ATOM      2  C8  TR5 d   1      20.304  40.294   4.157  0.00  0.00    -0.001 A 
ATOM      3  C7  TR5 d   1      21.211  39.319   4.041  0.00  0.00     0.045 A 
ATOM      4  C5  TR5 d   1      21.975  39.652   3.014  0.00  0.00     0.071 A 
ATOM      5  C4  TR5 d   1      21.585  40.806   2.481  0.00  0.00     0.148 A 
ATOM      6  N3  TR5 d   1      22.236  41.323   1.418  0.00  0.00    -0.225 NA
ATOM      7  C2  TR5 d   1      23.399  40.612   0.821  0.00  0.00     0.067 A 
ATOM      8  N1  TR5 d   1      23.713  39.330   1.532  0.00  0.00    -0.335 N 
ATOM      9  C6  TR5 d   1      22.994  38.906   2.591  0.00  0.00     0.139 A 
ATOM     10  N61 TR5 d   1      23.263  37.753   3.252  0.00  0.00    -0.255 N 
ATOM     11  N71 TR5 d   1      22.521  37.398   4.275  0.00  0.00    -0.153 NA
ATOM     12  C72 TR5 d   1      21.486  38.169   4.683  0.00  0.00     0.154 A 
ATOM     13  H9  TR5 d   1      19.513  40.339   4.904  0.00  0.00     0.113 H 
ATOM     14  H10 TR5 d   1      23.959  40.982  -0.036  0.00  0.00     0.143 H 
ATOM     15  H11 TR5 d   1      24.502  38.756   1.202  0.00  0.00     0.168 HD
ENDROOT
BRANCH   1  16
ATOM     16  C1' TR5 d   1      19.733  42.458   2.929  0.00  0.00     0.138 C 
ATOM     17  O4' TR5 d   1      18.658  42.544   3.907  0.00  0.00    -0.353 OA
ATOM     18  C4' TR5 d   1      17.403  42.141   3.359  0.00  0.00     0.089 C 
ATOM     19  C3' TR5 d   1      17.546  42.088   1.844  0.00  0.00     0.091 C 
ATOM     20  H3  TR5 d   1      16.606  42.843   3.645  0.00  0.00     0.090 H 
ATOM     21  C2' TR5 d   1      19.030  42.367   1.540  0.00  0.00     0.105 C 
ATOM     22  H4  TR5 d   1      17.280  41.086   1.477  0.00  0.00     0.091 H 
ATOM     23  H6  TR5 d   1      19.455  41.528   0.969  0.00  0.00     0.093 H 
ATOM     24  H8  TR5 d   1      20.385  43.342   2.978  0.00  0.00     0.122 H 
BRANCH  18  25
ATOM     25  C5' TR5 d   1      17.106  40.744   3.894  0.00  0.00     0.059 C 
ATOM     26  H1  TR5 d   1      16.051  40.494   3.709  0.00  0.00     0.079 H 
ATOM     27  H2  TR5 d   1      17.751  40.010   3.389  0.00  0.00     0.079 H 
BRANCH  25  28
ATOM     28  O5' TR5 d   1      17.365  40.723   5.300  0.00  0.00    -0.280 OA
BRANCH  28  29
ATOM     29  PB  TR5 d   1      17.107  39.384   6.162  0.00  0.00     0.422 P 
ATOM     30  O2  TR5 d   1      15.720  38.859   5.575  0.00  0.00    -0.617 OA
ATOM     31  O3  TR5 d   1      16.936  39.762   7.578  0.00  0.00    -0.617 OA
ATOM     32  O1  TR5 d   1      18.156  38.407   5.795  0.00  0.00    -0.617 OA
ENDBRANCH  28  29
ENDBRANCH  25  28
ENDBRANCH  18  25
BRANCH  19  33
ATOM     33  O3' TR5 d   1      16.664  43.052   1.235  0.00  0.00    -0.390 OA
ATOM     34  H5  TR5 d   1      16.888  43.923   1.542  0.00  0.00     0.210 HD
ENDBRANCH  19  33
BRANCH  21  35
ATOM     35  O2' TR5 d   1      19.190  43.569   0.763  0.00  0.00    -0.388 OA
ATOM     36  H7  TR5 d   1      18.837  44.307   1.246  0.00  0.00     0.210 HD
ENDBRANCH  21  35
ENDBRANCH   1  16
BRANCH  12  37
ATOM     37  N73 TR5 d   1      20.713  37.842   5.724  0.00  0.00    -0.382 N 
ATOM     38  H15 TR5 d   1      20.890  36.970   6.243  0.00  0.00     0.157 HD
ATOM     39  H16 TR5 d   1      19.941  38.462   6.007  0.00  0.00     0.157 HD
ENDBRANCH  12  37
BRANCH  10  40
ATOM     40  C62 TR5 d   1      24.389  36.878   2.834  0.00  0.00     0.004 C 
ATOM     41  H12 TR5 d   1      24.436  36.000   3.495  0.00  0.00     0.059 H 
ATOM     42  H13 TR5 d   1      25.333  37.438   2.901  0.00  0.00     0.059 H 
ATOM     43  H14 TR5 d   1      24.231  36.548   1.797  0.00  0.00     0.059 H 
ENDBRANCH  10  40
TORSDOF 8
