REMARK  10 active torsions:
REMARK  status: ('A' for Active; 'I' for Inactive)
REMARK    1  A    between atoms: N7_7  and  C1_1 
REMARK    2  A    between atoms: C4_4  and  N11_11 
REMARK       I    between atoms: C10_10  and  N13_13 
REMARK    3  A    between atoms: C18_18  and  C10_10 
REMARK    4  A    between atoms: N11_11  and  C19_19 
REMARK    5  A    between atoms: N13_13  and  C22_22 
REMARK    6  A    between atoms: C20_20  and  C14_14 
REMARK    7  A    between atoms: C16_16  and  O34_34 
REMARK    8  A    between atoms: C23_23  and  O35_35 
REMARK    9  A    between atoms: O34_34  and  C36_36 
REMARK   10  A    between atoms: O35_35  and  C37_37 
ROOT
ATOM      1  C1  0VF d   1       2.514   1.278  13.269  0.00  0.00     0.727 A 
ATOM      2  N2  0VF d   1       1.752   0.332  13.820  0.00  0.00    -0.042 NA
ATOM      3  N3  0VF d   1       3.780   1.447  13.616  0.00  0.00    -0.053 NA
ATOM      4  C4  0VF d   1       2.207  -0.483  14.761  0.00  0.00     0.179 A 
ATOM      5  C5  0VF d   1       4.308   0.684  14.533  0.00  0.00     0.150 A 
ATOM      6  C6  0VF d   1       3.568  -0.341  15.180  0.00  0.00     0.140 A 
ATOM      7  N8  0VF d   1       4.265  -1.031  16.105  0.00  0.00    -0.247 NA
ATOM      8  S9  0VF d   1       5.911   0.603  15.268  0.00  0.00    -0.060 SA
ATOM      9  C12 0VF d   1       5.518  -0.757  16.365  0.00  0.00     0.043 A 
ATOM     10  H2  0VF d   1       6.173  -1.245  17.085  0.00  0.00     0.126 H 
ENDROOT
BRANCH   1  11
ATOM     11  N7  0VF d   1       2.005   2.097  12.286  0.00  0.00    -0.212 N 
ATOM     12  C17 0VF d   1       0.559   2.254  12.173  0.00  0.00     0.030 C 
ATOM     13  C22 0VF d   1       0.404   3.290  11.039  0.00  0.00     0.030 C 
ATOM     14  H5  0VF d   1       0.129   2.631  13.113  0.00  0.00     0.068 H 
ATOM     15  H6  0VF d   1       0.079   1.301  11.905  0.00  0.00     0.068 H 
ATOM     16  C26 0VF d   1       1.825   3.881  10.785  0.00  0.00    -0.029 C 
ATOM     17  H9  0VF d   1       0.025   2.801  10.129  0.00  0.00     0.075 H 
ATOM     18  C21 0VF d   1       2.675   3.370  11.974  0.00  0.00     0.014 C 
ATOM     19  H10 0VF d   1       2.233   3.517   9.831  0.00  0.00     0.038 H 
ATOM     20  H11 0VF d   1       1.793   4.981  10.774  0.00  0.00     0.038 H 
ATOM     21  H7  0VF d   1       3.723   3.211  11.680  0.00  0.00     0.065 H 
ATOM     22  H8  0VF d   1       2.634   4.065  12.825  0.00  0.00     0.065 H 
BRANCH  13  23
ATOM     23  N13 0VF d   1      -0.512   4.360  11.434  0.00  0.00    -0.351 N 
ATOM     24  C10 0VF d   1      -1.851   4.211  11.375  0.00  0.00     0.252 C 
ATOM     25  O24 0VF d   1      -2.354   3.172  10.988  0.00  0.00    -0.268 OA
ATOM     26  H3  0VF d   1      -0.134   5.228  11.757  0.00  0.00     0.163 HD
BRANCH  24  27
ATOM     27  C18 0VF d   1      -2.711   5.345  11.772  0.00  0.00     0.032 A 
ATOM     28  C27 0VF d   1      -3.732   5.177  12.715  0.00  0.00    -0.067 A 
ATOM     29  C30 0VF d   1      -4.525   6.255  13.060  0.00  0.00    -0.066 A 
ATOM     30  H12 0VF d   1      -3.899   4.208  13.171  0.00  0.00     0.085 H 
ATOM     31  C20 0VF d   1      -4.311   7.508  12.469  0.00  0.00     0.040 A 
ATOM     32  H15 0VF d   1      -5.316   6.131  13.791  0.00  0.00     0.085 H 
ATOM     33  C29 0VF d   1      -3.289   7.672  11.526  0.00  0.00    -0.066 A 
ATOM     34  C28 0VF d   1      -2.496   6.598  11.179  0.00  0.00    -0.067 A 
ATOM     35  H14 0VF d   1      -3.121   8.641  11.070  0.00  0.00     0.085 H 
ATOM     36  H13 0VF d   1      -1.706   6.722  10.447  0.00  0.00     0.085 H 
BRANCH  31  37
ATOM     37  C14 0VF d   1      -5.164   8.661  12.840  0.00  0.00     0.209 C 
ATOM     38  O25 0VF d   1      -4.978   9.751  12.336  0.00  0.00    -0.644 OA
ATOM     39  O32 0VF d   1      -6.155   8.501  13.734  0.00  0.00    -0.644 OA
ENDBRANCH  31  37
ENDBRANCH  24  27
ENDBRANCH  13  23
ENDBRANCH   1  11
BRANCH   4  40
ATOM     40  N11 0VF d   1       1.415  -1.471  15.343  0.00  0.00    -0.338 N 
ATOM     41  H1  0VF d   1       1.915  -2.141  15.944  0.00  0.00     0.167 HD
BRANCH  40  42
ATOM     42  C19 0VF d   1       0.025  -1.683  15.225  0.00  0.00     0.036 A 
ATOM     43  C15 0VF d   1      -0.842  -0.876  14.479  0.00  0.00    -0.022 A 
ATOM     44  C16 0VF d   1      -2.211  -1.171  14.424  0.00  0.00     0.103 A 
ATOM     45  H4  0VF d   1      -0.453  -0.019  13.941  0.00  0.00     0.091 H 
ATOM     46  C23 0VF d   1      -2.716  -2.270  15.127  0.00  0.00     0.101 A 
ATOM     47  C31 0VF d   1      -1.850  -3.077  15.858  0.00  0.00    -0.046 A 
ATOM     48  C33 0VF d   1      -0.497  -2.781  15.906  0.00  0.00    -0.054 A 
ATOM     49  H16 0VF d   1      -2.234  -3.939  16.391  0.00  0.00     0.087 H 
ATOM     50  H17 0VF d   1       0.167  -3.414  16.483  0.00  0.00     0.087 H 
BRANCH  44  51
ATOM     51  O34 0VF d   1      -3.107  -0.414  13.719  0.00  0.00    -0.353 OA
BRANCH  51  52
ATOM     52  C36 0VF d   1      -2.474   0.292  12.650  0.00  0.00     0.010 C 
ATOM     53  H18 0VF d   1      -3.224   0.887  12.109  0.00  0.00     0.066 H 
ATOM     54  H19 0VF d   1      -2.009  -0.427  11.960  0.00  0.00     0.066 H 
ATOM     55  H20 0VF d   1      -1.701   0.960  13.059  0.00  0.00     0.066 H 
ENDBRANCH  51  52
ENDBRANCH  44  51
BRANCH  46  56
ATOM     56  O35 0VF d   1      -4.057  -2.545  15.052  0.00  0.00    -0.353 OA
BRANCH  56  57
ATOM     57  C37 0VF d   1      -4.598  -2.821  16.349  0.00  0.00     0.010 C 
ATOM     58  H21 0VF d   1      -5.673  -3.038  16.259  0.00  0.00     0.066 H 
ATOM     59  H22 0VF d   1      -4.453  -1.946  17.000  0.00  0.00     0.066 H 
ATOM     60  H23 0VF d   1      -4.083  -3.691  16.783  0.00  0.00     0.066 H 
ENDBRANCH  56  57
ENDBRANCH  46  56
ENDBRANCH  40  42
ENDBRANCH   4  40
TORSDOF 10
