REMARK  5 active torsions:
REMARK  status: ('A' for Active; 'I' for Inactive)
REMARK    1  A    between atoms: N11_11  and  C3_3 
REMARK    2  A    between atoms: C6_6  and  C15_15 
REMARK    3  A    between atoms: C8_8  and  N9_9 
REMARK    4  A    between atoms: N11_11  and  C12_12 
REMARK    5  A    between atoms: C16_16  and  C25_25 
ROOT
ATOM      1  N7  0VG d   1      -0.469  -1.208  14.336  0.00  0.00    -0.214 NA
ATOM      2  C8  0VG d   1      -1.750  -1.458  14.072  0.00  0.00     0.128 A 
ATOM      3  C12 0VG d   1       0.233  -1.903  15.224  0.00  0.00     0.130 A 
ATOM      4  C18 0VG d   1      -2.413  -2.489  14.747  0.00  0.00    -0.039 A 
ATOM      5  C19 0VG d   1      -0.377  -2.945  15.928  0.00  0.00    -0.038 A 
ATOM      6  C20 0VG d   1      -1.716  -3.243  15.687  0.00  0.00    -0.076 A 
ATOM      7  H8  0VG d   1      -3.456  -2.698  14.540  0.00  0.00     0.089 H 
ATOM      8  H9  0VG d   1       0.188  -3.517  16.656  0.00  0.00     0.089 H 
ATOM      9  H10 0VG d   1      -2.207  -4.048  16.222  0.00  0.00     0.083 H 
ENDROOT
BRANCH   3  10
ATOM     10  N11 0VG d   1       1.573  -1.627  15.491  0.00  0.00    -0.338 N 
ATOM     11  H2  0VG d   1       1.994  -2.167  16.261  0.00  0.00     0.167 HD
BRANCH  10  12
ATOM     12  C3  0VG d   1       2.430  -0.711  14.852  0.00  0.00     0.084 A 
ATOM     13  C1  0VG d   1       3.754  -0.648  15.338  0.00  0.00     0.177 A 
ATOM     14  N2  0VG d   1       4.662   0.219  14.774  0.00  0.00    -0.223 N 
ATOM     15  N10 0VG d   1       4.366  -1.302  16.308  0.00  0.00    -0.238 NA
ATOM     16  N4  0VG d   1       4.277   1.056  13.737  0.00  0.00    -0.166 NA
ATOM     17  C13 0VG d   1       5.838   0.078  15.439  0.00  0.00     0.023 A 
ATOM     18  C6  0VG d   1       3.043   1.031  13.276  0.00  0.00     0.090 A 
ATOM     19  C5  0VG d   1       2.083   0.135  13.821  0.00  0.00    -0.023 A 
ATOM     20  H1  0VG d   1       1.070   0.117  13.422  0.00  0.00     0.090 H 
ATOM     21  C14 0VG d   1       5.626  -0.868  16.384  0.00  0.00     0.021 A 
ATOM     22  H3  0VG d   1       6.765   0.617  15.250  0.00  0.00     0.117 H 
ATOM     23  H4  0VG d   1       6.370  -1.221  17.097  0.00  0.00     0.117 H 
BRANCH  18  24
ATOM     24  C15 0VG d   1       2.729   1.997  12.184  0.00  0.00    -0.006 A 
ATOM     25  C23 0VG d   1       3.714   2.352  11.244  0.00  0.00    -0.071 A 
ATOM     26  C26 0VG d   1       3.431   3.276  10.249  0.00  0.00    -0.082 A 
ATOM     27  H15 0VG d   1       4.698   1.901  11.298  0.00  0.00     0.084 H 
ATOM     28  C28 0VG d   1       2.171   3.859  10.196  0.00  0.00    -0.083 A 
ATOM     29  H20 0VG d   1       4.187   3.541   9.519  0.00  0.00     0.083 H 
ATOM     30  C27 0VG d   1       1.196   3.528  11.129  0.00  0.00    -0.082 A 
ATOM     31  H22 0VG d   1       1.946   4.580   9.418  0.00  0.00     0.083 H 
ATOM     32  C24 0VG d   1       1.472   2.609  12.132  0.00  0.00    -0.071 A 
ATOM     33  H21 0VG d   1       0.216   3.989  11.073  0.00  0.00     0.083 H 
ATOM     34  H16 0VG d   1       0.717   2.367  12.871  0.00  0.00     0.084 H 
ENDBRANCH  18  24
ENDBRANCH  10  12
ENDBRANCH   3  10
BRANCH   2  35
ATOM     35  N9  0VG d   1      -2.427  -0.688  13.116  0.00  0.00    -0.361 N 
ATOM     36  C16 0VG d   1      -1.779   0.483  12.464  0.00  0.00     0.010 C 
ATOM     37  C22 0VG d   1      -2.936   1.404  12.008  0.00  0.00    -0.045 C 
ATOM     38  H5  0VG d   1      -1.130   1.010  13.179  0.00  0.00     0.072 H 
ATOM     39  C21 0VG d   1      -4.178   0.490  11.968  0.00  0.00    -0.048 C 
ATOM     40  H13 0VG d   1      -2.729   1.820  11.011  0.00  0.00     0.036 H 
ATOM     41  H14 0VG d   1      -3.083   2.225  12.725  0.00  0.00     0.036 H 
ATOM     42  C17 0VG d   1      -3.911  -0.549  13.074  0.00  0.00    -0.003 C 
ATOM     43  H11 0VG d   1      -5.092   1.063  12.182  0.00  0.00     0.035 H 
ATOM     44  H12 0VG d   1      -4.273   0.002  10.987  0.00  0.00     0.035 H 
ATOM     45  H6  0VG d   1      -4.294  -0.192  14.041  0.00  0.00     0.064 H 
ATOM     46  H7  0VG d   1      -4.383  -1.511  12.824  0.00  0.00     0.064 H 
BRANCH  36  47
ATOM     47  C25 0VG d   1      -0.945   0.022  11.261  0.00  0.00    -0.057 C 
ATOM     48  H17 0VG d   1      -0.471   0.894  10.787  0.00  0.00     0.030 H 
ATOM     49  H18 0VG d   1      -1.599  -0.481  10.533  0.00  0.00     0.030 H 
ATOM     50  H19 0VG d   1      -0.168  -0.678  11.601  0.00  0.00     0.030 H 
ENDBRANCH  36  47
ENDBRANCH   2  35
TORSDOF 5
