REMARK  18 active torsions:
REMARK  status: ('A' for Active; 'I' for Inactive)
REMARK    1  A    between atoms: C2_2  and  C27_3 
REMARK       I    between atoms: C2_2  and  N_15 
REMARK    2  A    between atoms: C28_4  and  C29_5 
REMARK    3  A    between atoms: C30_6  and  C31_7 
REMARK    4  A    between atoms: C31_7  and  C32_8 
REMARK    5  A    between atoms: C32_8  and  C33_9 
REMARK    6  A    between atoms: C33_9  and  C34_10 
REMARK    7  A    between atoms: C34_10  and  C35_11 
REMARK    8  A    between atoms: C35_11  and  C36_12 
REMARK    9  A    between atoms: C36_12  and  C37_13 
REMARK   10  A    between atoms: C36_12  and  C38_14 
REMARK   11  A    between atoms: N_15  and  CA_16 
REMARK   12  A    between atoms: CA_16  and  C_17 
REMARK   13  A    between atoms: CA_16  and  CB_19 
REMARK       I    between atoms: C_17  and  N_22 
REMARK   14  A    between atoms: CB_19  and  OG1_20 
REMARK   15  A    between atoms: CB_19  and  CG2_21 
REMARK   16  A    between atoms: N_22  and  CA_23 
REMARK   17  A    between atoms: CG_27  and  OG_28 
REMARK   18  A    between atoms: C15_33  and  C16_34 
ROOT
ATOM      1  CA  THR d   1      61.704-134.928  35.613  0.00  0.00     0.114 C 
ATOM      2  H   THR d   1      61.982-135.926  35.275  0.00  0.00     0.091 H 
ENDROOT
BRANCH   1   3
ATOM      3  N   THR d   1      60.416-134.649  34.859  0.00  0.00    -0.342 N 
ATOM      4  C2  0W5 d   1      59.159-134.373  35.416  0.00  0.00     0.241 C 
ATOM      5  O1  0W5 d   1      58.945-134.318  36.626  0.00  0.00    -0.269 OA
ATOM      6  H   THR d   1      60.471-134.664  33.841  0.00  0.00     0.163 HD
BRANCH   4   7
ATOM      7  C27 0W5 d   1      57.988-134.137  34.532  0.00  0.00    -0.018 C 
ATOM      8  C28 0W5 d   1      56.743-133.845  34.989  0.00  0.00    -0.078 C 
ATOM      9  H   0W5 d   1      56.590-133.721  36.061  0.00  0.00     0.083 H 
ATOM     10  H   0W5 d   1      58.137-134.202  33.454  0.00  0.00     0.091 H 
BRANCH   8  11
ATOM     11  C29 0W5 d   1      55.594-133.691  34.082  0.00  0.00    -0.086 C 
ATOM     12  C30 0W5 d   1      54.327-133.379  34.418  0.00  0.00    -0.103 C 
ATOM     13  H   0W5 d   1      54.051-133.137  35.444  0.00  0.00     0.076 H 
ATOM     14  H   0W5 d   1      55.790-133.847  33.021  0.00  0.00     0.083 H 
BRANCH  12  15
ATOM     15  C31 0W5 d   1      53.312-133.381  33.308  0.00  0.00    -0.050 C 
ATOM     16  H   0W5 d   1      53.013-134.425  33.212  0.00  0.00     0.038 H 
ATOM     17  H   0W5 d   1      53.812-132.882  32.478  0.00  0.00     0.038 H 
BRANCH  15  18
ATOM     18  C32 0W5 d   1      51.991-132.615  33.480  0.00  0.00    -0.062 C 
ATOM     19  H   0W5 d   1      52.137-131.544  33.624  0.00  0.00     0.033 H 
ATOM     20  H   0W5 d   1      51.445-132.907  34.377  0.00  0.00     0.033 H 
BRANCH  18  21
ATOM     21  C33 0W5 d   1      51.224-132.950  32.169  0.00  0.00    -0.065 C 
ATOM     22  H   0W5 d   1      51.089-134.031  32.185  0.00  0.00     0.033 H 
ATOM     23  H   0W5 d   1      51.822-132.514  31.369  0.00  0.00     0.033 H 
BRANCH  21  24
ATOM     24  C34 0W5 d   1      49.801-132.366  31.977  0.00  0.00    -0.065 C 
ATOM     25  H   0W5 d   1      49.809-131.276  31.983  0.00  0.00     0.033 H 
ATOM     26  H   0W5 d   1      49.136-132.650  32.792  0.00  0.00     0.033 H 
BRANCH  24  27
ATOM     27  C35 0W5 d   1      49.308-132.935  30.601  0.00  0.00    -0.062 C 
ATOM     28  H   0W5 d   1      49.276-134.017  30.731  0.00  0.00     0.033 H 
ATOM     29  H   0W5 d   1      49.993-132.528  29.858  0.00  0.00     0.033 H 
BRANCH  27  30
ATOM     30  C36 0W5 d   1      47.880-132.535  30.110  0.00  0.00    -0.061 C 
ATOM     31  H   0W5 d   1      47.168-132.858  30.869  0.00  0.00     0.038 H 
BRANCH  30  32
ATOM     32  C37 0W5 d   1      47.713-130.991  29.941  0.00  0.00    -0.073 C 
ATOM     33  H   0W5 d   1      47.888-130.501  30.899  0.00  0.00     0.028 H 
ATOM     34  H   0W5 d   1      48.434-130.627  29.209  0.00  0.00     0.028 H 
ATOM     35  H   0W5 d   1      46.702-130.772  29.598  0.00  0.00     0.028 H 
ENDBRANCH  30  32
BRANCH  30  36
ATOM     36  C38 0W5 d   1      47.600-133.235  28.738  0.00  0.00    -0.073 C 
ATOM     37  H   0W5 d   1      48.344-132.914  28.009  0.00  0.00     0.028 H 
ATOM     38  H   0W5 d   1      47.657-134.316  28.865  0.00  0.00     0.028 H 
ATOM     39  H   0W5 d   1      46.605-132.961  28.388  0.00  0.00     0.028 H 
ENDBRANCH  30  36
ENDBRANCH  27  30
ENDBRANCH  24  27
ENDBRANCH  21  24
ENDBRANCH  18  21
ENDBRANCH  15  18
ENDBRANCH  12  15
ENDBRANCH   8  11
ENDBRANCH   4   7
ENDBRANCH   1   3
BRANCH   1  40
ATOM     40  C   THR d   1      61.502-134.937  37.148  0.00  0.00     0.243 C 
ATOM     41  O   THR d   1      61.366-133.876  37.755  0.00  0.00    -0.271 OA
ATOM     42  N   LYO d   1      61.459-136.150  37.753  0.00  0.00    -0.346 N 
ATOM     43  H   LYO d   1      61.579-136.987  37.183  0.00  0.00     0.163 HD
BRANCH  42  44
ATOM     44  CA  LYO d   1      61.247-136.303  39.192  0.00  0.00     0.091 C 
ATOM     45  C   LYO d   1      62.532-136.130  39.988  0.00  0.00     0.240 C 
ATOM     46  O   LYO d   1      63.617-136.248  39.413  0.00  0.00    -0.271 OA
ATOM     47  N14 0W6 d   1      62.386-135.874  41.321  0.00  0.00    -0.355 N 
ATOM     48  C15 0W6 d   1      63.521-135.715  42.226  0.00  0.00     0.009 C 
ATOM     49  H   0W6 d   1      61.443-135.790  41.701  0.00  0.00     0.162 HD
ATOM     50  C17 0W6 d   1      63.338-136.660  43.455  0.00  0.00    -0.039 C 
ATOM     51  H   0W6 d   1      64.451-135.982  41.725  0.00  0.00     0.071 H 
ATOM     52  C18 0W6 d   1      63.004-138.140  43.082  0.00  0.00     0.011 C 
ATOM     53  H   0W6 d   1      62.497-136.277  44.033  0.00  0.00     0.036 H 
ATOM     54  H   0W6 d   1      64.284-136.671  43.996  0.00  0.00     0.036 H 
ATOM     55  C19 0W6 d   1      61.538-138.513  43.119  0.00  0.00     0.217 C 
ATOM     56  H   0W6 d   1      63.500-138.764  43.825  0.00  0.00     0.047 H 
ATOM     57  H   0W6 d   1      63.331-138.279  42.052  0.00  0.00     0.047 H 
ATOM     58  NZ  LYO d   1      61.104-139.376  42.129  0.00  0.00    -0.361 N 
ATOM     59  O20 0W6 d   1      60.808-138.027  44.004  0.00  0.00    -0.274 OA
ATOM     60  CE  LYO d   1      59.715-139.828  41.988  0.00  0.00    -0.003 C 
ATOM     61  H   LYO d   1      61.790-139.719  41.457  0.00  0.00     0.162 HD
ATOM     62  CD  LYO d   1      58.971-139.177  40.764  0.00  0.00    -0.026 C 
ATOM     63  H   LYO d   1      59.734-140.906  41.827  0.00  0.00     0.064 H 
ATOM     64  H   LYO d   1      59.180-139.537  42.892  0.00  0.00     0.064 H 
ATOM     65  CG  LYO d   1      59.449-137.732  40.447  0.00  0.00     0.039 C 
ATOM     66  H   LYO d   1      59.180-139.791  39.888  0.00  0.00     0.039 H 
ATOM     67  H   LYO d   1      57.911-139.125  41.014  0.00  0.00     0.039 H 
ATOM     68  CB  LYO d   1      60.684-137.729  39.503  0.00  0.00    -0.014 C 
ATOM     69  H   LYO d   1      59.709-137.277  41.403  0.00  0.00     0.083 H 
ATOM     70  H   LYO d   1      61.475-138.286  40.005  0.00  0.00     0.040 H 
ATOM     71  H   LYO d   1      60.367-138.164  38.555  0.00  0.00     0.040 H 
ATOM     72  H   LYO d   1      60.541-135.526  39.486  0.00  0.00     0.087 H 
BRANCH  48  73
ATOM     73  C16 0W6 d   1      63.600-134.232  42.671  0.00  0.00    -0.057 C 
ATOM     74  H   0W6 d   1      63.733-133.598  41.795  0.00  0.00     0.030 H 
ATOM     75  H   0W6 d   1      62.677-133.958  43.182  0.00  0.00     0.030 H 
ATOM     76  H   0W6 d   1      64.445-134.101  43.348  0.00  0.00     0.030 H 
ENDBRANCH  48  73
BRANCH  65  77
ATOM     77  OG  LYO d   1      58.413-136.992  39.786  0.00  0.00    -0.395 OA
ATOM     78  H   LYO d   1      57.631-136.972  40.342  0.00  0.00     0.210 HD
ENDBRANCH  65  77
ENDBRANCH  42  44
ENDBRANCH   1  40
BRANCH   1  79
ATOM     79  CB  THR d   1      62.894-133.972  35.256  0.00  0.00     0.060 C 
ATOM     80  H   THR d   1      63.791-134.367  35.734  0.00  0.00     0.086 H 
BRANCH  79  81
ATOM     81  OG1 THR d   1      62.585-132.668  35.722  0.00  0.00    -0.393 OA
ATOM     82  H   THR d   1      62.459-132.691  36.673  0.00  0.00     0.210 HD
ENDBRANCH  79  81
BRANCH  79  83
ATOM     83  CG2 THR d   1      63.163-133.904  33.737  0.00  0.00    -0.050 C 
ATOM     84  H   THR d   1      63.409-134.900  33.368  0.00  0.00     0.031 H 
ATOM     85  H   THR d   1      62.272-133.536  33.228  0.00  0.00     0.031 H 
ATOM     86  H   THR d   1      63.997-133.228  33.547  0.00  0.00     0.031 H 
ENDBRANCH  79  83
ENDBRANCH   1  79
TORSDOF 18
