REMARK  17 active torsions:
REMARK  status: ('A' for Active; 'I' for Inactive)
REMARK    1  A    between atoms: C_1  and  C1_3 
REMARK       I    between atoms: C_1  and  N_14 
REMARK    2  A    between atoms: C2_4  and  C3_5 
REMARK    3  A    between atoms: C4_6  and  C5_7 
REMARK    4  A    between atoms: C5_7  and  C6_8 
REMARK    5  A    between atoms: C6_8  and  C7_9 
REMARK    6  A    between atoms: C7_9  and  C8_10 
REMARK    7  A    between atoms: C8_10  and  C9_11 
REMARK    8  A    between atoms: C9_11  and  C10_12 
REMARK    9  A    between atoms: C10_12  and  C11_13 
REMARK   10  A    between atoms: N_14  and  CA_15 
REMARK   11  A    between atoms: CA_15  and  C_16 
REMARK   12  A    between atoms: CA_15  and  CB_18 
REMARK       I    between atoms: C_16  and  N_21 
REMARK   13  A    between atoms: CB_18  and  OG1_19 
REMARK   14  A    between atoms: CB_18  and  CG2_20 
REMARK   15  A    between atoms: N_21  and  CA_22 
REMARK   16  A    between atoms: CG_26  and  OG_27 
REMARK   17  A    between atoms: C15_32  and  C16_33 
ROOT
ATOM      1  CA  THR d   1      61.247-134.928  35.718  0.00  0.00     0.114 C 
ATOM      2  H   THR d   1      61.317-135.941  35.323  0.00  0.00     0.091 H 
ENDROOT
BRANCH   1   3
ATOM      3  N   THR d   1      60.059-134.329  35.035  0.00  0.00    -0.342 N 
ATOM      4  C   MH9 d   1      58.726-134.579  35.374  0.00  0.00     0.241 C 
ATOM      5  O   MH9 d   1      58.384-135.334  36.291  0.00  0.00    -0.269 OA
ATOM      6  H   THR d   1      60.235-133.688  34.261  0.00  0.00     0.163 HD
BRANCH   4   7
ATOM      7  C1  MH9 d   1      57.646-133.907  34.603  0.00  0.00    -0.018 C 
ATOM      8  C2  MH9 d   1      56.322-134.045  34.834  0.00  0.00    -0.078 C 
ATOM      9  H   MH9 d   1      55.989-134.674  35.660  0.00  0.00     0.083 H 
ATOM     10  H   MH9 d   1      57.947-133.251  33.786  0.00  0.00     0.091 H 
BRANCH   8  11
ATOM     11  C3  MH9 d   1      55.317-133.365  33.995  0.00  0.00    -0.086 C 
ATOM     12  C4  MH9 d   1      53.980-133.427  34.148  0.00  0.00    -0.103 C 
ATOM     13  H   MH9 d   1      53.542-133.995  34.968  0.00  0.00     0.076 H 
ATOM     14  H   MH9 d   1      55.692-132.755  33.173  0.00  0.00     0.083 H 
BRANCH  12  15
ATOM     15  C5  MH9 d   1      53.096-132.693  33.160  0.00  0.00    -0.050 C 
ATOM     16  H   MH9 d   1      53.475-132.914  32.162  0.00  0.00     0.038 H 
ATOM     17  H   MH9 d   1      53.127-131.636  33.424  0.00  0.00     0.038 H 
BRANCH  15  18
ATOM     18  C6  MH9 d   1      51.612-133.130  33.193  0.00  0.00    -0.062 C 
ATOM     19  H   MH9 d   1      51.187-132.906  34.171  0.00  0.00     0.033 H 
ATOM     20  H   MH9 d   1      51.542-134.202  33.008  0.00  0.00     0.033 H 
BRANCH  18  21
ATOM     21  C7  MH9 d   1      50.825-132.358  32.092  0.00  0.00    -0.065 C 
ATOM     22  H   MH9 d   1      51.267-132.619  31.130  0.00  0.00     0.033 H 
ATOM     23  H   MH9 d   1      50.890-131.296  32.328  0.00  0.00     0.033 H 
BRANCH  21  24
ATOM     24  C8  MH9 d   1      49.315-132.731  32.029  0.00  0.00    -0.065 C 
ATOM     25  H   MH9 d   1      48.836-132.462  32.970  0.00  0.00     0.033 H 
ATOM     26  H   MH9 d   1      49.213-133.803  31.860  0.00  0.00     0.033 H 
BRANCH  24  27
ATOM     27  C9  MH9 d   1      48.632-131.954  30.858  0.00  0.00    -0.065 C 
ATOM     28  H   MH9 d   1      49.134-132.258  29.939  0.00  0.00     0.033 H 
ATOM     29  H   MH9 d   1      48.714-130.892  31.091  0.00  0.00     0.033 H 
BRANCH  27  30
ATOM     30  C10 MH9 d   1      47.111-132.263  30.670  0.00  0.00    -0.069 C 
ATOM     31  H   MH9 d   1      46.573-131.972  31.572  0.00  0.00     0.032 H 
ATOM     32  H   MH9 d   1      46.983-133.329  30.485  0.00  0.00     0.032 H 
BRANCH  30  33
ATOM     33  C11 MH9 d   1      46.546-131.459  29.454  0.00  0.00    -0.077 C 
ATOM     34  H   MH9 d   1      46.675-130.392  29.634  0.00  0.00     0.027 H 
ATOM     35  H   MH9 d   1      47.084-131.744  28.550  0.00  0.00     0.027 H 
ATOM     36  H   MH9 d   1      45.486-131.683  29.333  0.00  0.00     0.027 H 
ENDBRANCH  30  33
ENDBRANCH  27  30
ENDBRANCH  24  27
ENDBRANCH  21  24
ENDBRANCH  18  21
ENDBRANCH  15  18
ENDBRANCH  12  15
ENDBRANCH   8  11
ENDBRANCH   4   7
ENDBRANCH   1   3
BRANCH   1  37
ATOM     37  C   THR d   1      61.056-134.968  37.251  0.00  0.00     0.243 C 
ATOM     38  O   THR d   1      60.698-133.948  37.851  0.00  0.00    -0.271 OA
ATOM     39  N   LYO d   1      61.271-136.160  37.855  0.00  0.00    -0.346 N 
ATOM     40  H   LYO d   1      61.565-136.952  37.284  0.00  0.00     0.163 HD
BRANCH  39  41
ATOM     41  CA  LYO d   1      61.099-136.357  39.288  0.00  0.00     0.091 C 
ATOM     42  C   LYO d   1      62.389-136.201  40.060  0.00  0.00     0.240 C 
ATOM     43  O   LYO d   1      63.470-136.318  39.469  0.00  0.00    -0.271 OA
ATOM     44  N14 0W6 d   1      62.250-135.963  41.396  0.00  0.00    -0.355 N 
ATOM     45  C15 0W6 d   1      63.381-135.822  42.296  0.00  0.00     0.009 C 
ATOM     46  H   0W6 d   1      61.309-135.880  41.780  0.00  0.00     0.162 HD
ATOM     47  C17 0W6 d   1      63.148-136.707  43.572  0.00  0.00    -0.039 C 
ATOM     48  H   0W6 d   1      64.300-136.164  41.819  0.00  0.00     0.071 H 
ATOM     49  C18 0W6 d   1      62.822-138.198  43.247  0.00  0.00     0.011 C 
ATOM     50  H   0W6 d   1      62.291-136.294  44.105  0.00  0.00     0.036 H 
ATOM     51  H   0W6 d   1      64.071-136.693  44.152  0.00  0.00     0.036 H 
ATOM     52  C19 0W6 d   1      61.358-138.589  43.248  0.00  0.00     0.217 C 
ATOM     53  H   0W6 d   1      63.291-138.787  44.035  0.00  0.00     0.047 H 
ATOM     54  H   0W6 d   1      63.178-138.369  42.231  0.00  0.00     0.047 H 
ATOM     55  NZ  LYO d   1      60.964-139.457  42.249  0.00  0.00    -0.361 N 
ATOM     56  O20 0W6 d   1      60.599-138.121  44.108  0.00  0.00    -0.274 OA
ATOM     57  CE  LYO d   1      59.591-139.934  42.066  0.00  0.00    -0.003 C 
ATOM     58  H   LYO d   1      61.675-139.787  41.596  0.00  0.00     0.162 HD
ATOM     59  CD  LYO d   1      58.888-139.306  40.809  0.00  0.00    -0.026 C 
ATOM     60  H   LYO d   1      59.630-141.014  41.921  0.00  0.00     0.064 H 
ATOM     61  H   LYO d   1      59.018-139.645  42.947  0.00  0.00     0.064 H 
ATOM     62  CG  LYO d   1      59.327-137.844  40.505  0.00  0.00     0.039 C 
ATOM     63  H   LYO d   1      59.164-139.913  39.947  0.00  0.00     0.039 H 
ATOM     64  H   LYO d   1      57.817-139.287  41.012  0.00  0.00     0.039 H 
ATOM     65  CB  LYO d   1      60.571-137.796  39.583  0.00  0.00    -0.014 C 
ATOM     66  H   LYO d   1      59.553-137.393  41.471  0.00  0.00     0.083 H 
ATOM     67  H   LYO d   1      61.370-138.331  40.096  0.00  0.00     0.040 H 
ATOM     68  H   LYO d   1      60.278-138.232  38.628  0.00  0.00     0.040 H 
ATOM     69  H   LYO d   1      60.390-135.592  39.606  0.00  0.00     0.087 H 
BRANCH  45  70
ATOM     70  C16 0W6 d   1      63.542-134.333  42.656  0.00  0.00    -0.057 C 
ATOM     71  H   0W6 d   1      63.717-133.758  41.747  0.00  0.00     0.030 H 
ATOM     72  H   0W6 d   1      62.634-133.978  43.143  0.00  0.00     0.030 H 
ATOM     73  H   0W6 d   1      64.389-134.213  43.332  0.00  0.00     0.030 H 
ENDBRANCH  45  70
BRANCH  62  74
ATOM     74  OG  LYO d   1      58.286-137.123  39.827  0.00  0.00    -0.395 OA
ATOM     75  H   LYO d   1      57.492-137.128  40.366  0.00  0.00     0.210 HD
ENDBRANCH  62  74
ENDBRANCH  39  41
ENDBRANCH   1  37
BRANCH   1  76
ATOM     76  CB  THR d   1      62.591-134.198  35.394  0.00  0.00     0.060 C 
ATOM     77  H   THR d   1      63.412-134.775  35.819  0.00  0.00     0.086 H 
BRANCH  76  78
ATOM     78  OG1 THR d   1      62.531-132.893  35.955  0.00  0.00    -0.393 OA
ATOM     79  H   THR d   1      62.411-132.960  36.905  0.00  0.00     0.210 HD
ENDBRANCH  76  78
BRANCH  76  80
ATOM     80  CG2 THR d   1      62.842-134.092  33.874  0.00  0.00    -0.050 C 
ATOM     81  H   THR d   1      62.886-135.093  33.444  0.00  0.00     0.031 H 
ATOM     82  H   THR d   1      62.030-133.531  33.411  0.00  0.00     0.031 H 
ATOM     83  H   THR d   1      63.787-133.578  33.698  0.00  0.00     0.031 H 
ENDBRANCH  76  80
ENDBRANCH   1  76
TORSDOF 17
