REMARK  16 active torsions:
REMARK  status: ('A' for Active; 'I' for Inactive)
REMARK    1  A    between atoms: P_1  and  O5'_4 
REMARK    2  A    between atoms: O5'_4  and  C5'_5 
REMARK    3  A    between atoms: C5'_5  and  C4'_6 
REMARK    4  A    between atoms: C3'_8  and  O3'_9 
REMARK    5  A    between atoms: O3'_9  and  P_24 
REMARK    6  A    between atoms: C2'_10  and  O2'_11 
REMARK    7  A    between atoms: C1'_12  and  N9_13 
REMARK    8  A    between atoms: C2_20  and  N2_21 
REMARK    9  A    between atoms: P_24  and  O5'_27 
REMARK   10  A    between atoms: O5'_27  and  C5'_28 
REMARK   11  A    between atoms: C5'_28  and  C4'_29 
REMARK   12  A    between atoms: C3'_31  and  O3'_32 
REMARK   13  A    between atoms: O3'_32  and  P_47 
REMARK   14  A    between atoms: C2'_33  and  O2'_34 
REMARK   15  A    between atoms: C1'_35  and  N9_36 
REMARK   16  A    between atoms: C2_43  and  N2_44 
ROOT
ATOM      1  P     G d   1     -19.230  17.819   4.511  0.00  0.00     0.408 P 
ATOM      2  OP1   G d   1     -19.524  17.589   5.947  0.00  0.00    -0.624 OA
ATOM      3  OP2   G d   1     -18.367  16.847   3.796  0.00  0.00    -0.624 OA
ENDROOT
BRANCH   1   4
ATOM      4  O3'   G d   1     -18.521  19.256   4.397  0.00  0.00    -0.279 OA
BRANCH   4   5
ATOM      5  C3'   G d   1     -17.400  19.438   3.549  0.00  0.00     0.106 C 
ATOM      6  C4'   G d   1     -16.299  20.262   4.201  0.00  0.00     0.090 C 
ATOM      7  O4'   G d   1     -15.557  20.818   3.088  0.00  0.00    -0.353 OA
ATOM      8  H4    G d   1     -16.760  21.069   4.789  0.00  0.00     0.090 H 
ATOM      9  C1'   G d   1     -16.341  20.787   1.916  0.00  0.00     0.139 C 
ATOM     10  C2'   G d   1     -17.717  20.228   2.284  0.00  0.00     0.106 C 
ATOM     11  H8    G d   1     -16.460  21.805   1.518  0.00  0.00     0.122 H 
ATOM     12  H6    G d   1     -18.141  19.592   1.493  0.00  0.00     0.093 H 
ATOM     13  H5    G d   1     -17.015  18.444   3.280  0.00  0.00     0.092 H 
BRANCH   6  14
ATOM     14  C5'   G d   1     -15.362  19.505   5.109  0.00  0.00     0.056 C 
ATOM     15  H2    G d   1     -14.576  20.189   5.461  0.00  0.00     0.079 H 
ATOM     16  H3    G d   1     -15.930  19.124   5.971  0.00  0.00     0.079 H 
BRANCH  14  17
ATOM     17  O5'   G d   1     -14.755  18.411   4.435  0.00  0.00    -0.311 OA
BRANCH  17  18
ATOM     18  P     G d   1     -13.608  17.552   5.135  0.00  0.00     0.240 P 
ATOM     19  OP1   G d   1     -14.130  16.868   6.345  0.00  0.00    -0.648 OA
ATOM     20  OP2   G d   1     -12.843  16.775   4.125  0.00  0.00    -0.648 OA
ATOM     21  H1    G d   1     -12.941  18.218   5.494  0.00  0.00     0.164 HD
ENDBRANCH  17  18
ENDBRANCH  14  17
ENDBRANCH   6  14
BRANCH   9  22
ATOM     22  N9    G d   1     -15.650  19.955   0.912  0.00  0.00    -0.295 N 
ATOM     23  C8    G d   1     -15.057  18.731   1.105  0.00  0.00     0.071 A 
ATOM     24  N7    G d   1     -14.520  18.245   0.020  0.00  0.00    -0.234 NA
ATOM     25  H9    G d   1     -15.037  18.219   2.066  0.00  0.00     0.144 H 
ATOM     26  C5    G d   1     -14.770  19.206  -0.950  0.00  0.00     0.171 A 
ATOM     27  C6    G d   1     -14.429  19.236  -2.327  0.00  0.00     0.292 A 
ATOM     28  C4    G d   1     -15.464  20.269  -0.414  0.00  0.00     0.161 A 
ATOM     29  O6    G d   1     -13.813  18.388  -2.985  0.00  0.00    -0.265 OA
ATOM     30  N1    G d   1     -14.879  20.403  -2.938  0.00  0.00    -0.154 N 
ATOM     31  C2    G d   1     -15.569  21.412  -2.308  0.00  0.00     0.680 A 
ATOM     32  H10   G d   1     -14.685  20.517  -3.912  0.00  0.00     0.187 HD
ATOM     33  N3    G d   1     -15.892  21.393  -1.027  0.00  0.00    -0.174 N 
ATOM     34  H13   G d   1     -16.409  22.147  -0.552  0.00  0.00     0.186 HD
BRANCH  31  35
ATOM     35  N2    G d   1     -15.921  22.464  -3.063  0.00  0.00    -0.234 N 
ATOM     36  H11   G d   1     -16.439  23.249  -2.643  0.00  0.00     0.174 HD
ATOM     37  H12   G d   1     -15.673  22.487  -4.062  0.00  0.00     0.174 HD
ENDBRANCH  31  35
ENDBRANCH   9  22
BRANCH  10  38
ATOM     38  O2'   G d   1     -18.582  21.316   2.575  0.00  0.00    -0.388 OA
ATOM     39  H7    G d   1     -19.393  20.985   2.942  0.00  0.00     0.210 HD
ENDBRANCH  10  38
ENDBRANCH   4   5
ENDBRANCH   1   4
BRANCH   1  40
ATOM     40  O5'   G d   1     -20.589  18.030   3.709  0.00  0.00    -0.287 OA
BRANCH  40  41
ATOM     41  C5'   G d   1     -20.602  18.078   2.289  0.00  0.00     0.058 C 
ATOM     42  H14   G d   1     -20.174  17.144   1.895  0.00  0.00     0.079 H 
ATOM     43  H15   G d   1     -19.993  18.930   1.954  0.00  0.00     0.079 H 
BRANCH  41  44
ATOM     44  C4'   G d   1     -22.004  18.238   1.758  0.00  0.00     0.090 C 
ATOM     45  O4'   G d   1     -22.848  17.186   2.292  0.00  0.00    -0.353 OA
ATOM     46  C1'   G d   1     -24.136  17.689   2.572  0.00  0.00     0.139 C 
ATOM     47  C2'   G d   1     -24.186  19.135   2.082  0.00  0.00     0.106 C 
ATOM     48  H20   G d   1     -24.897  17.098   2.041  0.00  0.00     0.122 H 
ATOM     49  C3'   G d   1     -22.716  19.526   2.145  0.00  0.00     0.104 C 
ATOM     50  H18   G d   1     -24.816  19.777   2.715  0.00  0.00     0.093 H 
ATOM     51  H17   G d   1     -22.451  19.805   3.175  0.00  0.00     0.092 H 
ATOM     52  H16   G d   1     -21.960  18.170   0.661  0.00  0.00     0.090 H 
BRANCH  46  53
ATOM     53  N9    G d   1     -24.368  17.587   4.026  0.00  0.00    -0.295 N 
ATOM     54  C8    G d   1     -23.747  18.303   5.021  0.00  0.00     0.071 A 
ATOM     55  N7    G d   1     -24.161  17.984   6.217  0.00  0.00    -0.234 NA
ATOM     56  H21   G d   1     -22.987  19.059   4.831  0.00  0.00     0.144 H 
ATOM     57  C5    G d   1     -25.112  16.996   5.999  0.00  0.00     0.171 A 
ATOM     58  C6    G d   1     -25.907  16.265   6.920  0.00  0.00     0.292 A 
ATOM     59  C4    G d   1     -25.250  16.738   4.652  0.00  0.00     0.161 A 
ATOM     60  O6    G d   1     -25.931  16.348   8.154  0.00  0.00    -0.265 OA
ATOM     61  N1    G d   1     -26.738  15.360   6.269  0.00  0.00    -0.154 N 
ATOM     62  C2    G d   1     -26.800  15.178   4.910  0.00  0.00     0.680 A 
ATOM     63  H22   G d   1     -27.339  14.797   6.836  0.00  0.00     0.187 HD
ATOM     64  N3    G d   1     -26.065  15.853   4.041  0.00  0.00    -0.174 N 
ATOM     65  H25   G d   1     -26.110  15.719   3.021  0.00  0.00     0.186 HD
BRANCH  62  66
ATOM     66  N2    G d   1     -27.669  14.254   4.476  0.00  0.00    -0.234 N 
ATOM     67  H23   G d   1     -27.764  14.069   3.467  0.00  0.00     0.174 HD
ATOM     68  H24   G d   1     -28.242  13.729   5.152  0.00  0.00     0.174 HD
ENDBRANCH  62  66
ENDBRANCH  46  53
BRANCH  47  69
ATOM     69  O2'   G d   1     -24.649  19.138   0.739  0.00  0.00    -0.388 OA
ATOM     70  H19   G d   1     -24.546  20.008   0.372  0.00  0.00     0.210 HD
ENDBRANCH  47  69
BRANCH  49  71
ATOM     71  O3'   G d   1     -22.380  20.615   1.302  0.00  0.00    -0.303 OA
BRANCH  71  72
ATOM     72  P     U d   1     -22.863  22.103   1.669  0.00  0.00     0.240 P 
ATOM     73  OP1   U d   1     -24.216  22.296   1.102  0.00  0.00    -0.648 OA
ATOM     74  OP2   U d   1     -21.773  23.038   1.310  0.00  0.00    -0.648 OA
ATOM     75  H26   U d   1     -22.968  22.167   2.670  0.00  0.00     0.164 HD
ENDBRANCH  71  72
ENDBRANCH  49  71
ENDBRANCH  41  44
ENDBRANCH  40  41
ENDBRANCH   1  40
TORSDOF 16
