REMARK  4 active torsions:
REMARK  status: ('A' for Active; 'I' for Inactive)
REMARK    1  A    between atoms: C1_1  and  S1_12 
REMARK    2  A    between atoms: N4_8  and  C2_2 
REMARK    3  A    between atoms: C3_3  and  C4_4 
REMARK       I    between atoms: C3_3  and  N4_8 
REMARK    4  A    between atoms: S1_12  and  N1_5 
ROOT
ATOM      1  C1  AZM d   1      -5.111   2.147  16.055  0.00  0.00     0.237 A 
ATOM      2  C2  AZM d   1      -4.524   4.065  14.752  0.00  0.00     0.197 A 
ATOM      3  N2  AZM d   1      -3.512   3.346  15.298  0.00  0.00    -0.122 NA
ATOM      4  N3  AZM d   1      -3.795   2.397  15.943  0.00  0.00    -0.126 NA
ATOM      5  S2  AZM d   1      -5.982   3.297  15.211  0.00  0.00    -0.015 SA
ENDROOT
BRANCH   2   6
ATOM      6  N4  AZM d   1      -4.357   5.124  13.949  0.00  0.00    -0.305 N 
ATOM      7  C3  AZM d   1      -5.285   5.883  13.352  0.00  0.00     0.219 C 
ATOM      8  O3  AZM d   1      -6.474   5.620  13.487  0.00  0.00    -0.274 OA
ATOM      9  H   AZM d   1      -3.389   5.389  13.767  0.00  0.00     0.171 HD
BRANCH   7  10
ATOM     10  C4  AZM d   1      -4.875   7.114  12.392  0.00  0.00    -0.002 C 
ATOM     11  H   AZM d   1      -5.235   6.921  11.382  0.00  0.00     0.040 H 
ATOM     12  H   AZM d   1      -5.324   8.033  12.770  0.00  0.00     0.040 H 
ATOM     13  H   AZM d   1      -3.790   7.217  12.379  0.00  0.00     0.040 H 
ENDBRANCH   7  10
ENDBRANCH   2   6
BRANCH   1  14
ATOM     14  S1  AZM d   1      -5.820   0.834  16.910  0.00  0.00     0.282 S 
ATOM     15  O1  AZM d   1      -5.566   0.936  18.410  0.00  0.00    -0.199 OA
ATOM     16  O2  AZM d   1      -7.314   0.849  16.627  0.00  0.00    -0.199 OA
BRANCH  14  17
ATOM     17  N1  AZM d   1      -5.008  -0.508  16.348  0.00  0.00    -0.323 N 
ATOM     18  H   AZM d   1      -4.467  -1.084  16.993  0.00  0.00     0.169 HD
ATOM     19  H   AZM d   1      -5.052  -0.753  15.359  0.00  0.00     0.169 HD
ENDBRANCH  14  17
ENDBRANCH   1  14
TORSDOF 4
