REMARK  15 active torsions:
REMARK  status: ('A' for Active; 'I' for Inactive)
REMARK    1  A    between atoms: C12_17  and  C13_1 
REMARK    2  A    between atoms: C13_1  and  C14_18 
REMARK    3  A    between atoms: C14_18  and  C15_2 
REMARK    4  A    between atoms: C09_14  and  C20_3 
REMARK    5  A    between atoms: C20_3  and  N21_23 
REMARK    6  A    between atoms: C20_3  and  O26_27 
REMARK    7  A    between atoms: N21_23  and  C22_4 
REMARK    8  A    between atoms: C22_4  and  C23_24 
REMARK    9  A    between atoms: C27_28  and  C28_5 
REMARK   10  A    between atoms: S07_12  and  C06_11 
REMARK   11  A    between atoms: C08_13  and  S07_12 
REMARK   12  A    between atoms: C09_14  and  C08_13 
REMARK   13  A    between atoms: N10_15  and  C09_14 
REMARK       I    between atoms: C11_16  and  N10_15 
REMARK   14  A    between atoms: C11_16  and  C12_17 
REMARK   15  A    between atoms: C14_18  and  N18_21 
ROOT
ATOM      1  C09 0VS d   1     -58.514  32.838  29.834  0.00  0.00     0.070 C 
ATOM      2  H11 0VS d   1     -58.763  33.837  29.447  0.00  0.00     0.080 H 
ENDROOT
BRANCH   1   3
ATOM      3  C20 0VS d   1     -58.443  31.892  28.637  0.00  0.00     0.210 C 
ATOM      4  H3  0VS d   1     -59.480  31.890  28.270  0.00  0.00     0.132 H 
BRANCH   3   5
ATOM      5  N21 0VS d   1     -57.738  32.248  27.547  0.00  0.00    -0.037 N 
ATOM      6  H19 0VS d   1     -58.014  31.597  26.829  0.00  0.00     0.280 HD
ATOM      7  H20 0VS d   1     -56.773  32.089  27.792  0.00  0.00     0.280 HD
BRANCH   5   8
ATOM      8  C22 0VS d   1     -57.758  33.563  26.901  0.00  0.00     0.163 C 
ATOM      9  H4  0VS d   1     -56.962  34.199  27.317  0.00  0.00     0.092 H 
ATOM     10  H5  0VS d   1     -58.734  34.045  27.060  0.00  0.00     0.092 H 
BRANCH   8  11
ATOM     11  C23 0VS d   1     -57.512  33.331  25.344  0.00  0.00     0.199 C 
ATOM     12  O24 0VS d   1     -58.074  34.133  24.560  0.00  0.00    -0.647 OA
ATOM     13  O25 0VS d   1     -56.746  32.357  25.039  0.00  0.00    -0.647 OA
ENDBRANCH   8  11
ENDBRANCH   5   8
ENDBRANCH   3   5
BRANCH   3  14
ATOM     14  O26 0VS d   1     -58.228  30.701  28.957  0.00  0.00    -0.368 OA
ATOM     15  H21 0VS d   1     -58.740  30.484  29.727  0.00  0.00     0.212 HD
ENDBRANCH   3  14
ENDBRANCH   1   3
BRANCH   1  16
ATOM     16  C08 0VS d   1     -57.040  32.871  30.385  0.00  0.00     0.004 C 
ATOM     17  H9  0VS d   1     -56.929  32.069  31.129  0.00  0.00     0.052 H 
ATOM     18  H10 0VS d   1     -56.351  32.691  29.546  0.00  0.00     0.052 H 
BRANCH  16  19
ATOM     19  S07 0VS d   1     -56.582  34.477  31.184  0.00  0.00    -0.123 SA
BRANCH  19  20
ATOM     20  C06 0VS d   1     -56.759  36.107  30.316  0.00  0.00     0.061 A 
ATOM     21  C05 0VS d   1     -55.623  36.596  29.439  0.00  0.00     0.200 A 
ATOM     22  C04 0VS d   1     -55.671  37.988  28.840  0.00  0.00     0.029 A 
ATOM     23  O29 0VS d   1     -54.635  35.887  29.185  0.00  0.00    -0.286 OA
ATOM     24  C03 0VS d   1     -56.755  38.882  29.072  0.00  0.00     0.029 A 
ATOM     25  C30 0VS d   1     -54.615  38.436  28.025  0.00  0.00    -0.068 A 
ATOM     26  C02 0VS d   1     -57.887  38.414  29.943  0.00  0.00     0.190 A 
ATOM     27  C33 0VS d   1     -56.770  40.187  28.492  0.00  0.00    -0.068 A 
ATOM     28  O01 0VS d   1     -58.847  39.163  30.171  0.00  0.00    -0.287 OA
ATOM     29  C27 0VS d   1     -57.824  37.031  30.527  0.00  0.00     0.010 A 
ATOM     30  C32 0VS d   1     -55.713  40.622  27.679  0.00  0.00    -0.082 A 
ATOM     31  H25 0VS d   1     -57.607  40.849  28.682  0.00  0.00     0.085 H 
ATOM     32  C31 0VS d   1     -54.649  39.731  27.453  0.00  0.00    -0.082 A 
ATOM     33  H24 0VS d   1     -55.716  41.613  27.239  0.00  0.00     0.083 H 
ATOM     34  H23 0VS d   1     -53.827  40.046  26.820  0.00  0.00     0.083 H 
ATOM     35  H22 0VS d   1     -53.770  37.785  27.834  0.00  0.00     0.085 H 
BRANCH  29  36
ATOM     36  C28 0VS d   1     -59.115  36.825  31.286  0.00  0.00    -0.046 C 
ATOM     37  H6  0VS d   1     -59.712  37.748  31.251  0.00  0.00     0.033 H 
ATOM     38  H7  0VS d   1     -58.889  36.574  32.333  0.00  0.00     0.033 H 
ATOM     39  H8  0VS d   1     -59.683  36.003  30.827  0.00  0.00     0.033 H 
ENDBRANCH  29  36
ENDBRANCH  19  20
ENDBRANCH  16  19
ENDBRANCH   1  16
BRANCH   1  40
ATOM     40  N10 0VS d   1     -59.510  32.559  30.884  0.00  0.00    -0.351 N 
ATOM     41  C11 0VS d   1     -60.773  33.235  30.894  0.00  0.00     0.218 C 
ATOM     42  O19 0VS d   1     -60.859  34.410  30.517  0.00  0.00    -0.274 OA
ATOM     43  H12 0VS d   1     -59.302  31.890  31.598  0.00  0.00     0.163 HD
BRANCH  41  44
ATOM     44  C12 0VS d   1     -62.028  32.484  31.363  0.00  0.00     0.012 C 
ATOM     45  H13 0VS d   1     -61.716  31.465  31.635  0.00  0.00     0.047 H 
ATOM     46  H14 0VS d   1     -62.404  33.003  32.257  0.00  0.00     0.047 H 
BRANCH  44  47
ATOM     47  C13 0VS d   1     -63.229  32.351  30.363  0.00  0.00    -0.021 C 
ATOM     48  H1  0VS d   1     -63.297  31.313  30.006  0.00  0.00     0.037 H 
ATOM     49  H2  0VS d   1     -63.071  33.024  29.507  0.00  0.00     0.037 H 
BRANCH  47  50
ATOM     50  C14 0VS d   1     -64.544  32.736  31.088  0.00  0.00     0.183 C 
ATOM     51  H15 0VS d   1     -65.349  32.086  30.715  0.00  0.00     0.101 H 
BRANCH  50  52
ATOM     52  C15 0VS d   1     -64.453  32.543  32.682  0.00  0.00     0.204 C 
ATOM     53  O16 0VS d   1     -65.280  33.101  33.468  0.00  0.00    -0.646 OA
ATOM     54  O17 0VS d   1     -63.946  31.431  32.936  0.00  0.00    -0.646 OA
ENDBRANCH  50  52
BRANCH  50  55
ATOM     55  N18 0VS d   1     -64.867  34.129  30.749  0.00  0.00    -0.065 N 
ATOM     56  H16 0VS d   1     -65.721  34.398  31.212  0.00  0.00     0.275 HD
ATOM     57  H17 0VS d   1     -64.985  34.213  29.752  0.00  0.00     0.275 HD
ATOM     58  H18 0VS d   1     -64.117  34.731  31.051  0.00  0.00     0.275 HD
ENDBRANCH  50  55
ENDBRANCH  47  50
ENDBRANCH  44  47
ENDBRANCH  41  44
ENDBRANCH   1  40
TORSDOF 15
