REMARK  4 active torsions:
REMARK  status: ('A' for Active; 'I' for Inactive)
REMARK       I    between atoms: C14_2  and  N15_3 
REMARK    1  A    between atoms: C14_2  and  C13_10 
REMARK    2  A    between atoms: N15_3  and  C16_4 
REMARK    3  A    between atoms: C13_10  and  C2_11 
REMARK    4  A    between atoms: C6_17  and  N7_18 
ROOT
ATOM      1  C2  0W7 d   1     -42.758  15.511 -31.705  0.00  0.00     0.117 A 
ATOM      2  N3  0W7 d   1     -41.502  14.997 -31.672  0.00  0.00    -0.311 N 
ATOM      3  C4  0W7 d   1     -41.282  13.763 -31.153  0.00  0.00     0.249 A 
ATOM      4  O18 0W7 d   1     -40.131  13.281 -31.118  0.00  0.00    -0.268 OA
ATOM      5  C5  0W7 d   1     -42.345  13.018 -30.660  0.00  0.00     0.021 A 
ATOM      6  N1  0W7 d   1     -43.805  14.794 -31.231  0.00  0.00    -0.223 NA
ATOM      7  C6  0W7 d   1     -43.629  13.559 -30.701  0.00  0.00     0.112 A 
ATOM      8  H   0W7 d   1     -40.721  15.541 -32.039  0.00  0.00     0.170 HD
ATOM      9  H   0W7 d   1     -42.178  12.024 -30.247  0.00  0.00     0.097 H 
ENDROOT
BRANCH   1  10
ATOM     10  C13 0W7 d   1     -43.017  16.881 -32.289  0.00  0.00     0.064 C 
ATOM     11  H   0W7 d   1     -43.697  17.456 -31.660  0.00  0.00     0.059 H 
ATOM     12  H   0W7 d   1     -42.098  17.464 -32.350  0.00  0.00     0.059 H 
BRANCH  10  13
ATOM     13  C14 0W7 d   1     -43.606  16.646 -33.658  0.00  0.00     0.229 C 
ATOM     14  O17 0W7 d   1     -42.851  16.403 -34.588  0.00  0.00    -0.273 OA
ATOM     15  N15 0W7 d   1     -44.942  16.701 -33.745  0.00  0.00    -0.327 N 
ATOM     16  H   0W7 d   1     -45.469  16.903 -32.895  0.00  0.00     0.169 HD
BRANCH  15  17
ATOM     17  C16 0W7 d   1     -45.664  16.497 -34.937  0.00  0.00     0.034 A 
ATOM     18  C19 0W7 d   1     -47.056  16.583 -34.922  0.00  0.00    -0.057 A 
ATOM     19  C20 0W7 d   1     -47.779  16.386 -36.100  0.00  0.00    -0.081 A 
ATOM     20  H   0W7 d   1     -47.579  16.804 -33.992  0.00  0.00     0.086 H 
ATOM     21  C21 0W7 d   1     -47.129  16.096 -37.297  0.00  0.00    -0.083 A 
ATOM     22  H   0W7 d   1     -48.866  16.460 -36.083  0.00  0.00     0.083 H 
ATOM     23  C22 0W7 d   1     -45.742  16.011 -37.316  0.00  0.00    -0.081 A 
ATOM     24  H   0W7 d   1     -47.703  15.937 -38.210  0.00  0.00     0.083 H 
ATOM     25  C23 0W7 d   1     -45.019  16.210 -36.142  0.00  0.00    -0.057 A 
ATOM     26  H   0W7 d   1     -45.221  15.789 -38.247  0.00  0.00     0.083 H 
ATOM     27  H   0W7 d   1     -43.931  16.140 -36.164  0.00  0.00     0.086 H 
ENDBRANCH  15  17
ENDBRANCH  10  13
ENDBRANCH   1  10
BRANCH   7  28
ATOM     28  N7  0W7 d   1     -44.729  12.819 -30.210  0.00  0.00    -0.264 NA
ATOM     29  C8  0W7 d   1     -45.962  13.627 -30.254  0.00  0.00     0.005 C 
ATOM     30  C9  0W7 d   1     -47.138  12.816 -29.716  0.00  0.00     0.031 C 
ATOM     31  H   0W7 d   1     -46.166  13.913 -31.286  0.00  0.00     0.059 H 
ATOM     32  H   0W7 d   1     -45.829  14.517 -29.639  0.00  0.00     0.059 H 
ATOM     33  O10 0W7 d   1     -46.846  12.346 -28.397  0.00  0.00    -0.389 OA
ATOM     34  H   0W7 d   1     -47.314  11.962 -30.370  0.00  0.00     0.076 H 
ATOM     35  H   0W7 d   1     -48.025  13.449 -29.683  0.00  0.00     0.076 H 
ATOM     36  C11 0W7 d   1     -45.666  11.541 -28.323  0.00  0.00     0.031 C 
ATOM     37  C12 0W7 d   1     -44.467  12.331 -28.841  0.00  0.00     0.005 C 
ATOM     38  H   0W7 d   1     -45.489  11.256 -27.286  0.00  0.00     0.076 H 
ATOM     39  H   0W7 d   1     -45.800  10.648 -28.934  0.00  0.00     0.076 H 
ATOM     40  H   0W7 d   1     -44.293  13.184 -28.186  0.00  0.00     0.059 H 
ATOM     41  H   0W7 d   1     -43.592  11.681 -28.856  0.00  0.00     0.059 H 
ENDBRANCH   7  28
TORSDOF 4
