REMARK  5 active torsions:
REMARK  status: ('A' for Active; 'I' for Inactive)
REMARK    1  A    between atoms: N1_16  and  C12_8 
REMARK    2  A    between atoms: O1_25  and  C15_10 
REMARK    3  A    between atoms: C18_13  and  N1_16 
REMARK    4  A    between atoms: C3_21  and  C5_26 
REMARK    5  A    between atoms: C4_22  and  O1_25 
ROOT
ATOM      1  C8  0VM d   1      38.313 -12.115  26.658  0.00  0.00     0.046 A 
ATOM      2  C9  0VM d   1      37.604 -13.366  26.365  0.00  0.00    -0.034 A 
ATOM      3  C10 0VM d   1      36.970 -14.069  27.480  0.00  0.00     0.080 A 
ATOM      4  C11 0VM d   1      37.064 -13.496  28.835  0.00  0.00     0.103 A 
ATOM      5  C13 0VM d   1      37.774 -12.248  29.105  0.00  0.00    -0.051 A 
ATOM      6  C14 0VM d   1      38.424 -11.527  27.996  0.00  0.00    -0.060 A 
ATOM      7  N3  0VM d   1      36.274 -15.190  27.575  0.00  0.00    -0.188 N 
ATOM      8  C12 0VM d   1      35.950 -15.323  28.875  0.00  0.00     0.706 A 
ATOM      9  N4  0VM d   1      36.390 -14.360  29.630  0.00  0.00    -0.062 NA
ATOM     10  C7  0VM d   1      38.930 -11.448  25.602  0.00  0.00     0.099 C 
ATOM     11  N2  0VM d   1      39.433 -10.923  24.711  0.00  0.00    -0.191 NA
ATOM     12  H1  0VM d   1      37.552 -13.756  25.355  0.00  0.00     0.089 H 
ATOM     13  H2  0VM d   1      37.822 -11.855  30.114  0.00  0.00     0.087 H 
ATOM     14  H3  0VM d   1      38.962 -10.601  28.163  0.00  0.00     0.086 H 
ATOM     15  H4  0VM d   1      36.029 -15.832  26.808  0.00  0.00     0.184 HD
ENDROOT
BRANCH   8  16
ATOM     16  N1  0VM d   1      35.178 -16.448  29.396  0.00  0.00    -0.190 N 
ATOM     17  H9  0VM d   1      34.442 -16.238  30.085  0.00  0.00     0.184 HD
BRANCH  16  18
ATOM     18  C18 0VM d   1      35.352 -17.746  29.046  0.00  0.00     0.049 A 
ATOM     19  C17 0VM d   1      36.490 -18.213  28.259  0.00  0.00    -0.054 A 
ATOM     20  C16 0VM d   1      36.590 -19.612  27.930  0.00  0.00    -0.048 A 
ATOM     21  H6  0VM d   1      37.250 -17.515  27.926  0.00  0.00     0.087 H 
ATOM     22  C15 0VM d   1      35.536 -20.479  28.414  0.00  0.00     0.078 A 
ATOM     23  H5  0VM d   1      37.417 -19.998  27.346  0.00  0.00     0.087 H 
ATOM     24  C20 0VM d   1      34.393 -20.036  29.209  0.00  0.00    -0.048 A 
ATOM     25  C19 0VM d   1      34.310 -18.616  29.528  0.00  0.00    -0.054 A 
ATOM     26  H8  0VM d   1      33.637 -20.735  29.548  0.00  0.00     0.087 H 
ATOM     27  H7  0VM d   1      33.485 -18.225  30.113  0.00  0.00     0.087 H 
BRANCH  22  28
ATOM     28  O1  0VM d   1      35.644 -21.875  28.096  0.00  0.00    -0.291 OA
BRANCH  28  29
ATOM     29  C4  0VM d   1      34.761 -22.459  27.193  0.00  0.00     0.184 A 
ATOM     30  C3  0VM d   1      34.662 -23.883  27.090  0.00  0.00     0.101 A 
ATOM     31  C2  0VM d   1      33.687 -24.444  26.156  0.00  0.00    -0.063 A 
ATOM     32  C1  0VM d   1      32.860 -23.599  25.362  0.00  0.00    -0.065 A 
ATOM     33  H11 0VM d   1      33.592 -25.520  26.066  0.00  0.00     0.085 H 
ATOM     34  C6  0VM d   1      33.022 -22.166  25.511  0.00  0.00     0.005 A 
ATOM     35  H10 0VM d   1      32.135 -24.013  24.671  0.00  0.00     0.085 H 
ATOM     36  N5  0VM d   1      33.952 -21.651  26.407  0.00  0.00    -0.236 NA
ATOM     37  H12 0VM d   1      32.414 -21.491  24.920  0.00  0.00     0.114 H 
BRANCH  30  38
ATOM     38  C5  0VM d   1      35.542 -24.858  27.863  0.00  0.00     0.421 C 
ATOM     39  F1  0VM d   1      36.768 -24.365  28.155  0.00  0.00    -0.166 F 
ATOM     40  F3  0VM d   1      35.704 -25.974  27.094  0.00  0.00    -0.166 F 
ATOM     41  F2  0VM d   1      34.919 -25.189  29.016  0.00  0.00    -0.166 F 
ENDBRANCH  30  38
ENDBRANCH  28  29
ENDBRANCH  22  28
ENDBRANCH  16  18
ENDBRANCH   8  16
TORSDOF 5
