REMARK  5 active torsions:
REMARK  status: ('A' for Active; 'I' for Inactive)
REMARK    1  A    between atoms: N1_10  and  C11_8 
REMARK    2  A    between atoms: C12_13  and  C18_19 
REMARK    3  A    between atoms: C18_19  and  C1_20 
REMARK    4  A    between atoms: C18_19  and  C2_21 
REMARK    5  A    between atoms: C18_19  and  C3_22 
ROOT
ATOM      1  C4  0VN d   1      38.209 -11.999  26.859  0.00  0.00     0.046 A 
ATOM      2  C5  0VN d   1      37.772 -13.388  26.557  0.00  0.00    -0.034 A 
ATOM      3  C6  0VN d   1      37.181 -14.117  27.687  0.00  0.00     0.080 A 
ATOM      4  C8  0VN d   1      37.059 -13.439  29.034  0.00  0.00     0.103 A 
ATOM      5  C9  0VN d   1      37.508 -12.047  29.279  0.00  0.00    -0.051 A 
ATOM      6  C10 0VN d   1      38.099 -11.301  28.168  0.00  0.00    -0.060 A 
ATOM      7  N3  0VN d   1      36.661 -15.377  27.834  0.00  0.00    -0.188 N 
ATOM      8  C11 0VN d   1      36.269 -15.449  29.119  0.00  0.00     0.706 A 
ATOM      9  N4  0VN d   1      36.470 -14.371  29.870  0.00  0.00    -0.062 NA
ATOM     10  C7  0VN d   1      38.811 -11.291  25.810  0.00  0.00     0.099 C 
ATOM     11  N2  0VN d   1      39.256 -10.725  24.918  0.00  0.00    -0.191 NA
ATOM     12  H1  0VN d   1      37.882 -13.831  25.574  0.00  0.00     0.089 H 
ATOM     13  H2  0VN d   1      37.401 -11.593  30.258  0.00  0.00     0.087 H 
ATOM     14  H3  0VN d   1      38.443 -10.281  28.294  0.00  0.00     0.086 H 
ATOM     15  H4  0VN d   1      36.587 -16.111  27.115  0.00  0.00     0.184 HD
ENDROOT
BRANCH   8  16
ATOM     16  N1  0VN d   1      35.625 -16.623  29.677  0.00  0.00    -0.190 N 
ATOM     17  C15 0VN d   1      35.346 -17.797  29.091  0.00  0.00     0.049 A 
ATOM     18  C14 0VN d   1      36.353 -18.350  28.187  0.00  0.00    -0.056 A 
ATOM     19  C16 0VN d   1      34.041 -18.351  29.464  0.00  0.00    -0.056 A 
ATOM     20  C13 0VN d   1      36.023 -19.589  27.582  0.00  0.00    -0.074 A 
ATOM     21  H7  0VN d   1      37.292 -17.845  27.992  0.00  0.00     0.086 H 
ATOM     22  C12 0VN d   1      34.708 -20.206  27.914  0.00  0.00    -0.051 A 
ATOM     23  H6  0VN d   1      36.709 -20.074  26.897  0.00  0.00     0.084 H 
ATOM     24  C17 0VN d   1      33.701 -19.612  28.854  0.00  0.00    -0.074 A 
ATOM     25  H9  0VN d   1      32.761 -20.108  29.065  0.00  0.00     0.084 H 
ATOM     26  H8  0VN d   1      33.375 -17.845  30.154  0.00  0.00     0.086 H 
ATOM     27  H5  0VN d   1      35.342 -16.544  30.664  0.00  0.00     0.184 HD
BRANCH  22  28
ATOM     28  C18 0VN d   1      34.359 -21.564  27.211  0.00  0.00    -0.024 C 
BRANCH  28  29
ATOM     29  C1  0VN d   1      32.831 -21.643  26.781  0.00  0.00    -0.066 C 
ATOM     30  H10 0VN d   1      32.637 -22.610  26.294  0.00  0.00     0.028 H 
ATOM     31  H11 0VN d   1      32.605 -20.827  26.079  0.00  0.00     0.028 H 
ATOM     32  H12 0VN d   1      32.194 -21.547  27.672  0.00  0.00     0.028 H 
ENDBRANCH  28  29
BRANCH  28  33
ATOM     33  C2  0VN d   1      34.691 -22.710  28.181  0.00  0.00    -0.066 C 
ATOM     34  H13 0VN d   1      35.750 -22.648  28.473  0.00  0.00     0.028 H 
ATOM     35  H14 0VN d   1      34.503 -23.675  27.687  0.00  0.00     0.028 H 
ATOM     36  H15 0VN d   1      34.058 -22.627  29.077  0.00  0.00     0.028 H 
ENDBRANCH  28  33
BRANCH  28  37
ATOM     37  C3  0VN d   1      35.126 -21.845  25.866  0.00  0.00    -0.066 C 
ATOM     38  H16 0VN d   1      34.910 -21.042  25.146  0.00  0.00     0.028 H 
ATOM     39  H17 0VN d   1      34.796 -22.808  25.450  0.00  0.00     0.028 H 
ATOM     40  H18 0VN d   1      36.208 -21.881  26.061  0.00  0.00     0.028 H 
ENDBRANCH  28  37
ENDBRANCH  22  28
ENDBRANCH   8  16
TORSDOF 5
