REMARK  11 active torsions:
REMARK  status: ('A' for Active; 'I' for Inactive)
REMARK    1  A    between atoms: N1_1  and  CA1_2 
REMARK    2  A    between atoms: CA1_2  and  C1_3 
REMARK    3  A    between atoms: CA1_2  and  CB1_6 
REMARK    4  A    between atoms: CB1_6  and  CG1_7 
REMARK    5  A    between atoms: CG1_7  and  CD1_8 
REMARK    6  A    between atoms: N2_10  and  CA2_11 
REMARK    7  A    between atoms: CA2_11  and  C2_12 
REMARK    8  A    between atoms: CA2_11  and  CB2_14 
REMARK    9  A    between atoms: CB2_14  and  SG2_15 
REMARK   10  A    between atoms: N3_16  and  CA3_17 
REMARK   11  A    between atoms: CA3_17  and  C3_18 
ROOT
ATOM      1  CD1 GSH d   1     -21.592  58.954 128.179  0.00  0.00     0.152 C 
ATOM      2  OE1 GSH d   1     -20.956  59.731 127.189  0.00  0.00    -0.177 OA
ATOM      3  N2  GSH d   1     -22.217  59.513 129.213  0.00  0.00    -0.359 N 
ATOM      4  H9  GSH d   1     -22.808  58.968 129.808  0.00  0.00     0.162 HD
ENDROOT
BRANCH   3   5
ATOM      5  CA2 GSH d   1     -22.022  60.932 129.458  0.00  0.00     0.083 C 
ATOM      6  H10 GSH d   1     -21.906  61.456 128.498  0.00  0.00     0.086 H 
BRANCH   5   7
ATOM      7  C2  GSH d   1     -20.808  61.183 130.302  0.00  0.00     0.175 C 
ATOM      8  O2  GSH d   1     -20.679  60.480 131.506  0.00  0.00    -0.175 OA
ATOM      9  N3  GSH d   1     -19.885  62.069 129.915  0.00  0.00    -0.360 N 
ATOM     10  H14 GSH d   1     -19.845  62.414 128.977  0.00  0.00     0.162 HD
BRANCH   9  11
ATOM     11  CA3 GSH d   1     -18.945  62.501 130.930  0.00  0.00     0.074 C 
ATOM     12  H15 GSH d   1     -18.214  61.695 131.090  0.00  0.00     0.080 H 
ATOM     13  H16 GSH d   1     -19.501  62.681 131.862  0.00  0.00     0.080 H 
BRANCH  11  14
ATOM     14  C3  GSH d   1     -18.194  63.757 130.577  0.00  0.00     0.191 C 
ATOM     15  O31 GSH d   1     -17.168  64.078 131.213  0.00  0.00    -0.647 OA
ATOM     16  O32 GSH d   1     -18.580  64.483 129.652  0.00  0.00    -0.647 OA
ENDBRANCH  11  14
ENDBRANCH   9  11
ENDBRANCH   5   7
BRANCH   5  17
ATOM     17  CB2 GSH d   1     -23.253  61.449 130.180  0.00  0.00     0.000 C 
ATOM     18  H11 GSH d   1     -22.997  62.388 130.692  0.00  0.00     0.052 H 
ATOM     19  H12 GSH d   1     -23.572  60.702 130.922  0.00  0.00     0.052 H 
BRANCH  17  20
ATOM     20  SG2 GSH d   1     -24.620  61.759 129.036  0.00  0.00    -0.180 SA
ATOM     21  H13 GSH d   1     -25.417  62.100 129.551  0.00  0.00     0.101 HD
ENDBRANCH  17  20
ENDBRANCH   5  17
ENDBRANCH   3   5
BRANCH   1  22
ATOM     22  CG1 GSH d   1     -21.591  57.440 128.082  0.00  0.00    -0.001 C 
ATOM     23  H7  GSH d   1     -21.251  57.008 129.035  0.00  0.00     0.045 H 
ATOM     24  H8  GSH d   1     -22.607  57.083 127.859  0.00  0.00     0.045 H 
BRANCH  22  25
ATOM     25  CB1 GSH d   1     -20.644  57.024 126.964  0.00  0.00    -0.022 C 
ATOM     26  H5  GSH d   1     -21.129  57.203 125.993  0.00  0.00     0.037 H 
ATOM     27  H6  GSH d   1     -19.723  57.621 127.029  0.00  0.00     0.037 H 
BRANCH  25  28
ATOM     28  CA1 GSH d   1     -20.294  55.548 127.085  0.00  0.00     0.183 C 
ATOM     29  H4  GSH d   1     -19.610  55.389 127.932  0.00  0.00     0.101 H 
BRANCH  28  30
ATOM     30  N1  GSH d   1     -19.649  55.138 125.850  0.00  0.00    -0.065 N 
ATOM     31  H1  GSH d   1     -18.804  55.672 125.719  0.00  0.00     0.275 HD
ATOM     32  H2  GSH d   1     -20.273  55.301 125.075  0.00  0.00     0.275 HD
ATOM     33  H3  GSH d   1     -19.423  54.157 125.899  0.00  0.00     0.275 HD
ENDBRANCH  28  30
BRANCH  28  34
ATOM     34  C1  GSH d   1     -21.558  54.767 127.305  0.00  0.00     0.204 C 
ATOM     35  O11 GSH d   1     -22.280  54.454 126.322  0.00  0.00    -0.646 OA
ATOM     36  O12 GSH d   1     -21.894  54.420 128.466  0.00  0.00    -0.646 OA
ENDBRANCH  28  34
ENDBRANCH  25  28
ENDBRANCH  22  25
ENDBRANCH   1  22
TORSDOF 11
