REMARK  6 active torsions:
REMARK  status: ('A' for Active; 'I' for Inactive)
REMARK    1  A    between atoms: C1_1  and  N2_2 
REMARK    2  A    between atoms: C5_5  and  N6_6 
REMARK    3  A    between atoms: C7_7  and  C8_8 
REMARK    4  A    between atoms: C8_8  and  N9_9 
REMARK    5  A    between atoms: C10_10  and  C11_11 
REMARK    6  A    between atoms: N21_21  and  C22_22 
ROOT
ATOM      1  N2  0WG d   1      44.876  -0.380  13.132  0.00  0.00    -0.287 N 
ATOM      2  C3  0WG d   1      44.249   0.651  13.821  0.00  0.00     0.152 A 
ATOM      3  N4  0WG d   1      44.904   1.340  14.743  0.00  0.00    -0.212 NA
ATOM      4  C5  0WG d   1      44.333   2.315  15.436  0.00  0.00     0.132 A 
ATOM      5  C7  0WG d   1      42.999   2.666  15.238  0.00  0.00     0.025 A 
ATOM      6  C10 0WG d   1      42.244   1.979  14.271  0.00  0.00     0.007 A 
ATOM      7  C18 0WG d   1      42.890   0.941  13.544  0.00  0.00     0.090 A 
ATOM      8  C19 0WG d   1      42.215   0.133  12.513  0.00  0.00     0.266 A 
ATOM      9  O20 0WG d   1      41.062   0.358  12.210  0.00  0.00    -0.267 OA
ATOM     10  N21 0WG d   1      42.909  -0.867  11.902  0.00  0.00    -0.270 N 
ATOM     11  C23 0WG d   1      44.200  -1.112  12.220  0.00  0.00     0.332 A 
ATOM     12  O24 0WG d   1      44.791  -2.013  11.648  0.00  0.00    -0.246 OA
ENDROOT
BRANCH   6  13
ATOM     13  C11 0WG d   1      40.811   2.330  14.067  0.00  0.00    -0.007 A 
ATOM     14  C12 0WG d   1      40.414   3.402  13.260  0.00  0.00    -0.071 A 
ATOM     15  C13 0WG d   1      39.067   3.689  13.119  0.00  0.00    -0.082 A 
ATOM     16  H11 0WG d   1      41.156   4.004  12.748  0.00  0.00     0.084 H 
ATOM     17  C14 0WG d   1      38.109   2.925  13.770  0.00  0.00    -0.082 A 
ATOM     18  H12 0WG d   1      38.758   4.519  12.494  0.00  0.00     0.083 H 
ATOM     19  C15 0WG d   1      38.494   1.865  14.571  0.00  0.00    -0.065 A 
ATOM     20  H13 0WG d   1      37.057   3.159  13.651  0.00  0.00     0.083 H 
ATOM     21  C16 0WG d   1      39.837   1.565  14.727  0.00  0.00     0.022 A 
ATOM     22  H14 0WG d   1      37.744   1.268  15.077  0.00  0.00     0.085 H 
ATOM     23 BR1  0WG d   1      40.352   0.108  15.824  0.00  0.00    -0.050 Br
ENDBRANCH   6  13
BRANCH   5  24
ATOM     24  C8  0WG d   1      42.402   3.777  16.067  0.00  0.00     0.108 C 
ATOM     25  H6  0WG d   1      41.586   4.258  15.507  0.00  0.00     0.083 H 
ATOM     26  H7  0WG d   1      43.177   4.522  16.299  0.00  0.00     0.083 H 
BRANCH  24  27
ATOM     27  N9  0WG d   1      41.876   3.209  17.314  0.00  0.00    -0.075 N 
ATOM     28  H8  0WG d   1      41.475   3.944  17.875  0.00  0.00     0.274 HD
ATOM     29  H9  0WG d   1      42.625   2.768  17.824  0.00  0.00     0.274 HD
ATOM     30  H10 0WG d   1      41.167   2.525  17.099  0.00  0.00     0.274 HD
ENDBRANCH  24  27
ENDBRANCH   5  24
BRANCH   4  31
ATOM     31  N6  0WG d   1      45.089   2.991  16.381  0.00  0.00    -0.383 N 
ATOM     32  H4  0WG d   1      44.666   3.752  16.931  0.00  0.00     0.157 HD
ATOM     33  H5  0WG d   1      46.074   2.732  16.533  0.00  0.00     0.157 HD
ENDBRANCH   4  31
BRANCH   1  34
ATOM     34  C1  0WG d   1      46.279  -0.695  13.433  0.00  0.00    -0.008 C 
ATOM     35  H1  0WG d   1      46.657   0.004  14.194  0.00  0.00     0.057 H 
ATOM     36  H2  0WG d   1      46.881  -0.600  12.517  0.00  0.00     0.057 H 
ATOM     37  H3  0WG d   1      46.350  -1.725  13.813  0.00  0.00     0.057 H 
ENDBRANCH   1  34
BRANCH  10  38
ATOM     38  C22 0WG d   1      42.245  -1.692  10.879  0.00  0.00    -0.007 C 
ATOM     39  H15 0WG d   1      41.206  -1.353  10.752  0.00  0.00     0.057 H 
ATOM     40  H16 0WG d   1      42.250  -2.745  11.197  0.00  0.00     0.057 H 
ATOM     41  H17 0WG d   1      42.782  -1.595   9.924  0.00  0.00     0.057 H 
ENDBRANCH  10  38
TORSDOF 6
