REMARK  5 active torsions:
REMARK  status: ('A' for Active; 'I' for Inactive)
REMARK    1  A    between atoms: O1_1  and  C7_2 
REMARK    2  A    between atoms: C15_14  and  N1_15 
REMARK    3  A    between atoms: N_16  and  C2_17 
REMARK    4  A    between atoms: C4_19  and  O_20 
REMARK    5  A    between atoms: C1_23  and  C_24 
ROOT
ATOM      1  C7  C07 d   1      -9.229   7.792  52.864  0.00  0.00     0.151 A 
ATOM      2  C8  C07 d   1      -8.937   6.333  52.921  0.00  0.00    -0.020 A 
ATOM      3  C13 C07 d   1      -9.044   5.603  54.241  0.00  0.00    -0.040 C 
ATOM      4  C12 C07 d   1      -8.808   4.101  54.082  0.00  0.00    -0.061 C 
ATOM      5  C11 C07 d   1      -7.722   3.787  53.057  0.00  0.00    -0.064 C 
ATOM      6  C10 C07 d   1      -8.231   4.153  51.670  0.00  0.00    -0.054 C 
ATOM      7  C9  C07 d   1      -8.548   5.630  51.678  0.00  0.00     0.005 A 
ATOM      8  C14 C07 d   1      -8.473   6.438  50.440  0.00  0.00     0.042 A 
ATOM      9  C17 C07 d   1      -8.778   7.883  50.499  0.00  0.00     0.148 A 
ATOM     10  N3  C07 d   1      -8.694   8.589  49.350  0.00  0.00    -0.223 NA
ATOM     11  C16 C07 d   1      -8.341   8.005  48.190  0.00  0.00     0.091 A 
ATOM     12  N2  C07 d   1      -8.051   6.698  48.072  0.00  0.00    -0.224 NA
ATOM     13  C15 C07 d   1      -8.088   5.864  49.132  0.00  0.00     0.133 A 
ATOM     14  N   C07 d   1      -9.149   8.486  51.725  0.00  0.00    -0.275 N 
ATOM     15  H2  C07 d   1     -10.050   5.763  54.655  0.00  0.00     0.039 H 
ATOM     16  H3  C07 d   1      -8.293   6.010  54.934  0.00  0.00     0.039 H 
ATOM     17  H4  C07 d   1      -9.747   3.628  53.758  0.00  0.00     0.033 H 
ATOM     18  H5  C07 d   1      -8.506   3.686  55.055  0.00  0.00     0.033 H 
ATOM     19  H6  C07 d   1      -7.482   2.714  53.091  0.00  0.00     0.033 H 
ATOM     20  H7  C07 d   1      -6.819   4.372  53.285  0.00  0.00     0.033 H 
ATOM     21  H8  C07 d   1      -9.138   3.575  51.438  0.00  0.00     0.034 H 
ATOM     22  H9  C07 d   1      -7.458   3.939  50.917  0.00  0.00     0.034 H 
ATOM     23  H10 C07 d   1      -9.603   5.396  51.472  0.00  0.00     0.055 H 
ATOM     24  H11 C07 d   1      -8.288   8.623  47.301  0.00  0.00     0.146 H 
ENDROOT
BRANCH  14  25
ATOM     25  C2  C07 d   1      -9.443   9.857  51.790  0.00  0.00     0.051 A 
ATOM     26  C3  C07 d   1      -8.570  10.719  52.424  0.00  0.00    -0.024 A 
ATOM     27  C4  C07 d   1      -8.868  12.068  52.490  0.00  0.00     0.067 A 
ATOM     28  H14 C07 d   1      -7.656  10.340  52.867  0.00  0.00     0.091 H 
ATOM     29  C5  C07 d   1     -10.046  12.567  51.932  0.00  0.00    -0.050 A 
ATOM     30  C6  C07 d   1     -10.962  11.742  51.289  0.00  0.00    -0.072 A 
ATOM     31  H16 C07 d   1     -10.253  13.629  52.002  0.00  0.00     0.087 H 
ATOM     32  C1  C07 d   1     -10.694  10.385  51.198  0.00  0.00    -0.035 A 
ATOM     33  H17 C07 d   1     -11.871  12.153  50.866  0.00  0.00     0.084 H 
BRANCH  27  34
ATOM     34  O   C07 d   1      -8.007  12.910  53.120  0.00  0.00    -0.361 OA
ATOM     35  H15 C07 d   1      -8.348  13.796  53.082  0.00  0.00     0.217 HD
ENDBRANCH  27  34
BRANCH  32  36
ATOM     36  C   C07 d   1     -11.646   9.452  50.509  0.00  0.00    -0.049 C 
ATOM     37  H18 C07 d   1     -11.248   8.427  50.548  0.00  0.00     0.033 H 
ATOM     38  H19 C07 d   1     -11.765   9.759  49.459  0.00  0.00     0.033 H 
ATOM     39  H20 C07 d   1     -12.623   9.486  51.014  0.00  0.00     0.033 H 
ENDBRANCH  32  36
ENDBRANCH  14  25
BRANCH   1  40
ATOM     40  O1  C07 d   1      -9.581   8.427  53.971  0.00  0.00    -0.345 OA
ATOM     41  H1  C07 d   1      -9.596   7.813  54.696  0.00  0.00     0.219 HD
ENDBRANCH   1  40
BRANCH  13  42
ATOM     42  N1  C07 d   1      -7.799   4.548  49.017  0.00  0.00    -0.383 N 
ATOM     43  H12 C07 d   1      -7.532   4.157  48.102  0.00  0.00     0.157 HD
ATOM     44  H13 C07 d   1      -7.846   3.936  49.844  0.00  0.00     0.157 HD
ENDBRANCH  13  42
TORSDOF 5
