REMARK  6 active torsions:
REMARK  status: ('A' for Active; 'I' for Inactive)
REMARK    1  A    between atoms: C1_1  and  C2_2 
REMARK    2  A    between atoms: C2_2  and  C3_3 
REMARK    3  A    between atoms: C2_2  and  N5_18 
REMARK    4  A    between atoms: N3_10  and  C8_13 
REMARK    5  A    between atoms: C14_20  and  O2_22 
REMARK    6  A    between atoms: O2_22  and  C16_23 
ROOT
ATOM      1  C2  0WF d   1      74.155  54.189  41.533  0.00  0.00     0.157 C 
ATOM      2  H4  0WF d   1      73.123  54.025  41.877  0.00  0.00     0.096 H 
ENDROOT
BRANCH   1   3
ATOM      3  C1  0WF d   1      74.626  55.607  41.878  0.00  0.00    -0.043 C 
ATOM      4  H1  0WF d   1      74.586  55.752  42.968  0.00  0.00     0.030 H 
ATOM      5  H2  0WF d   1      73.971  56.341  41.386  0.00  0.00     0.030 H 
ATOM      6  H3  0WF d   1      75.659  55.746  41.528  0.00  0.00     0.030 H 
ENDBRANCH   1   3
BRANCH   1   7
ATOM      7  C3  0WF d   1      75.100  53.206  42.223  0.00  0.00     0.140 A 
ATOM      8  N1  0WF d   1      74.961  53.118  43.609  0.00  0.00    -0.309 N 
ATOM      9  C4  0WF d   1      75.819  52.307  44.423  0.00  0.00     0.262 A 
ATOM     10  H5  0WF d   1      74.234  53.642  44.052  0.00  0.00     0.170 HD
ATOM     11  O1  0WF d   1      75.632  52.308  45.632  0.00  0.00    -0.267 OA
ATOM     12  C5  0WF d   1      76.803  51.599  43.668  0.00  0.00     0.099 A 
ATOM     13  C6  0WF d   1      77.869  50.719  44.004  0.00  0.00     0.041 A 
ATOM     14  C7  0WF d   1      76.846  51.744  42.265  0.00  0.00     0.165 A 
ATOM     15  N2  0WF d   1      78.538  50.356  42.881  0.00  0.00    -0.182 NA
ATOM     16  H6  0WF d   1      78.112  50.386  45.012  0.00  0.00     0.119 H 
ATOM     17  N3  0WF d   1      77.913  50.981  41.822  0.00  0.00    -0.247 N 
ATOM     18  N4  0WF d   1      75.987  52.536  41.496  0.00  0.00    -0.213 NA
BRANCH  17  19
ATOM     19  C8  0WF d   1      78.418  50.910  40.438  0.00  0.00     0.036 C 
ATOM     20  C9  0WF d   1      79.913  51.261  40.349  0.00  0.00    -0.044 C 
ATOM     21  C10 0WF d   1      80.353  50.581  39.056  0.00  0.00    -0.063 C 
ATOM     22  H8  0WF d   1      80.464  50.861  41.213  0.00  0.00     0.036 H 
ATOM     23  H9  0WF d   1      80.060  52.350  40.292  0.00  0.00     0.036 H 
ATOM     24  C11 0WF d   1      79.546  49.283  38.991  0.00  0.00    -0.063 C 
ATOM     25  H10 0WF d   1      81.431  50.364  39.082  0.00  0.00     0.033 H 
ATOM     26  H11 0WF d   1      80.128  51.219  38.189  0.00  0.00     0.033 H 
ATOM     27  C12 0WF d   1      78.289  49.496  39.840  0.00  0.00    -0.044 C 
ATOM     28  H12 0WF d   1      80.138  48.449  39.395  0.00  0.00     0.033 H 
ATOM     29  H13 0WF d   1      79.266  49.063  37.950  0.00  0.00     0.033 H 
ATOM     30  H14 0WF d   1      77.388  49.426  39.213  0.00  0.00     0.036 H 
ATOM     31  H15 0WF d   1      78.237  48.745  40.642  0.00  0.00     0.036 H 
ATOM     32  H7  0WF d   1      77.839  51.618  39.827  0.00  0.00     0.076 H 
ENDBRANCH  17  19
ENDBRANCH   1   7
BRANCH   1  33
ATOM     33  N5  0WF d   1      74.230  54.051  40.055  0.00  0.00    -0.055 N 
ATOM     34  C13 0WF d   1      73.849  52.686  39.530  0.00  0.00     0.110 A 
ATOM     35  C14 0WF d   1      72.727  53.334  38.667  0.00  0.00     0.091 A 
ATOM     36  H17 0WF d   1      73.480  51.995  40.302  0.00  0.00     0.080 H 
ATOM     37  H18 0WF d   1      74.639  52.193  38.944  0.00  0.00     0.080 H 
ATOM     38  C15 0WF d   1      73.068  54.699  39.331  0.00  0.00     0.110 A 
ATOM     39  H19 0WF d   1      72.853  53.256  37.577  0.00  0.00     0.089 H 
ATOM     40  H20 0WF d   1      73.363  55.484  38.619  0.00  0.00     0.080 H 
ATOM     41  H21 0WF d   1      72.282  55.084  39.997  0.00  0.00     0.080 H 
ATOM     42  H16 0WF d   1      75.133  54.366  39.737  0.00  0.00     0.281 HD
BRANCH  35  43
ATOM     43  O2  0WF d   1      71.437  52.981  39.079  0.00  0.00    -0.343 OA
BRANCH  43  44
ATOM     44  C16 0WF d   1      70.950  51.782  38.638  0.00  0.00     0.069 A 
ATOM     45  C17 0WF d   1      69.583  51.612  38.895  0.00  0.00    -0.051 A 
ATOM     46  C18 0WF d   1      68.979  50.422  38.524  0.00  0.00    -0.080 A 
ATOM     47  H22 0WF d   1      69.009  52.397  39.375  0.00  0.00     0.087 H 
ATOM     48  C19 0WF d   1      69.719  49.419  37.903  0.00  0.00    -0.083 A 
ATOM     49  H23 0WF d   1      67.923  50.270  38.718  0.00  0.00     0.083 H 
ATOM     50  C20 0WF d   1      71.070  49.605  37.654  0.00  0.00    -0.080 A 
ATOM     51  H24 0WF d   1      69.238  48.492  37.614  0.00  0.00     0.083 H 
ATOM     52  C21 0WF d   1      71.705  50.789  38.022  0.00  0.00    -0.051 A 
ATOM     53  H25 0WF d   1      71.638  48.821  37.168  0.00  0.00     0.083 H 
ATOM     54  H26 0WF d   1      72.763  50.933  37.833  0.00  0.00     0.087 H 
ENDBRANCH  43  44
ENDBRANCH  35  43
ENDBRANCH   1  33
TORSDOF 6
