REMARK  5 active torsions:
REMARK  status: ('A' for Active; 'I' for Inactive)
REMARK    1  A    between atoms: C16_16  and  C7_7 
REMARK    2  A    between atoms: C19_19  and  C9_9 
REMARK    3  A    between atoms: N24_24  and  C17_17 
REMARK    4  A    between atoms: C19_19  and  C18_18 
REMARK    5  A    between atoms: C19_19  and  N26_26 
ROOT
ATOM      1  C4  0WL d   1      78.371  51.204  44.062  0.00  0.00     0.041 A 
ATOM      2  C5  0WL d   1      77.308  52.088  43.788  0.00  0.00     0.099 A 
ATOM      3  C6  0WL d   1      77.340  52.183  42.440  0.00  0.00     0.165 A 
ATOM      4  C8  0WL d   1      76.316  52.810  44.521  0.00  0.00     0.262 A 
ATOM      5  C9  0WL d   1      75.693  53.565  42.316  0.00  0.00     0.140 A 
ATOM      6  N22 0WL d   1      79.030  50.779  42.974  0.00  0.00    -0.182 NA
ATOM      7  N23 0WL d   1      76.570  52.895  41.641  0.00  0.00    -0.213 NA
ATOM      8  N24 0WL d   1      78.365  51.404  41.996  0.00  0.00    -0.247 N 
ATOM      9  N25 0WL d   1      75.535  53.542  43.683  0.00  0.00    -0.309 N 
ATOM     10  O27 0WL d   1      76.159  52.802  45.728  0.00  0.00    -0.267 OA
ATOM     11  H4  0WL d   1      78.635  50.892  45.072  0.00  0.00     0.119 H 
ATOM     12  H23 0WL d   1      74.804  54.095  44.083  0.00  0.00     0.170 HD
ENDROOT
BRANCH   5  13
ATOM     13  C19 0WL d   1      74.742  54.439  41.550  0.00  0.00     0.157 C 
ATOM     14  H22 0WL d   1      73.698  54.263  41.849  0.00  0.00     0.096 H 
BRANCH  13  15
ATOM     15  C18 0WL d   1      75.119  55.890  41.705  0.00  0.00    -0.043 C 
ATOM     16  H19 0WL d   1      74.954  56.203  42.747  0.00  0.00     0.030 H 
ATOM     17  H20 0WL d   1      74.499  56.504  41.035  0.00  0.00     0.030 H 
ATOM     18  H21 0WL d   1      76.180  56.023  41.447  0.00  0.00     0.030 H 
ENDBRANCH  13  15
BRANCH  13  19
ATOM     19  N26 0WL d   1      74.992  54.100  40.132  0.00  0.00    -0.059 N 
ATOM     20  C14 0WL d   1      74.041  54.787  39.304  0.00  0.00     0.096 C 
ATOM     21  C16 0WL d   1      74.009  53.507  38.497  0.00  0.00     0.052 C 
ATOM     22  H13 0WL d   1      73.095  55.051  39.799  0.00  0.00     0.077 H 
ATOM     23  H14 0WL d   1      74.434  55.666  38.771  0.00  0.00     0.077 H 
ATOM     24  C15 0WL d   1      74.298  52.852  39.811  0.00  0.00     0.096 C 
ATOM     25  H17 0WL d   1      74.810  53.392  37.752  0.00  0.00     0.057 H 
ATOM     26  H15 0WL d   1      74.939  51.959  39.759  0.00  0.00     0.077 H 
ATOM     27  H16 0WL d   1      73.415  52.634  40.430  0.00  0.00     0.077 H 
ATOM     28  H24 0WL d   1      75.964  54.169  39.874  0.00  0.00     0.280 HD
BRANCH  21  29
ATOM     29  C7  0WL d   1      72.685  53.268  37.828  0.00  0.00     0.132 A 
ATOM     30  N20 0WL d   1      71.589  53.649  38.559  0.00  0.00    -0.245 NA
ATOM     31  C2  0WL d   1      70.422  53.446  37.922  0.00  0.00     0.005 A 
ATOM     32  C1  0WL d   1      70.397  52.895  36.639  0.00  0.00    -0.049 A 
ATOM     33  H2  0WL d   1      69.491  53.713  38.410  0.00  0.00     0.114 H 
ATOM     34  C3  0WL d   1      71.596  52.546  36.012  0.00  0.00     0.005 A 
ATOM     35  H1  0WL d   1      69.452  52.739  36.132  0.00  0.00     0.087 H 
ATOM     36  N21 0WL d   1      72.792  52.723  36.582  0.00  0.00    -0.245 NA
ATOM     37  H3  0WL d   1      71.554  52.112  35.019  0.00  0.00     0.114 H 
ENDBRANCH  21  29
ENDBRANCH  13  19
ENDBRANCH   5  13
BRANCH   8  38
ATOM     38  C17 0WL d   1      78.717  51.279  40.578  0.00  0.00     0.036 C 
ATOM     39  C12 0WL d   1      78.772  49.865  40.090  0.00  0.00    -0.044 C 
ATOM     40  C10 0WL d   1      79.818  49.852  39.026  0.00  0.00    -0.063 C 
ATOM     41  H9  0WL d   1      79.049  49.186  40.910  0.00  0.00     0.036 H 
ATOM     42  H10 0WL d   1      77.799  49.563  39.676  0.00  0.00     0.036 H 
ATOM     43  C11 0WL d   1      80.807  50.886  39.451  0.00  0.00    -0.063 C 
ATOM     44  H5  0WL d   1      80.294  48.863  38.963  0.00  0.00     0.033 H 
ATOM     45  H6  0WL d   1      79.381  50.111  38.050  0.00  0.00     0.033 H 
ATOM     46  C13 0WL d   1      80.068  51.876  40.279  0.00  0.00    -0.044 C 
ATOM     47  H7  0WL d   1      81.241  51.380  38.569  0.00  0.00     0.033 H 
ATOM     48  H8  0WL d   1      81.609  50.421  40.043  0.00  0.00     0.033 H 
ATOM     49  H11 0WL d   1      79.950  52.819  39.725  0.00  0.00     0.036 H 
ATOM     50  H12 0WL d   1      80.612  52.067  41.216  0.00  0.00     0.036 H 
ATOM     51  H18 0WL d   1      77.952  51.819  40.000  0.00  0.00     0.076 H 
ENDBRANCH   8  38
TORSDOF 5
