REMARK  7 active torsions:
REMARK  status: ('A' for Active; 'I' for Inactive)
REMARK    1  A    between atoms: C1_2  and  C2_4 
REMARK    2  A    between atoms: C2_4  and  C2A_5 
REMARK    3  A    between atoms: C2_4  and  O2_6 
REMARK    4  A    between atoms: O2_6  and  C3_7 
REMARK    5  A    between atoms: C8_12  and  O8_13 
REMARK    6  A    between atoms: O8_13  and  C9_14 
REMARK    7  A    between atoms: C11_17  and  C12_18 
ROOT
ATOM      1  C3  H1L d   1     -33.701 -25.482  60.672  0.00  0.00     0.070 A 
ATOM      2  C4  H1L d   1     -34.247 -24.828  59.574  0.00  0.00    -0.048 A 
ATOM      3  C5  H1L d   1     -33.757 -25.088  58.311  0.00  0.00    -0.048 A 
ATOM      4  C6  H1L d   1     -32.663 -26.391  60.516  0.00  0.00    -0.048 A 
ATOM      5  C7  H1L d   1     -32.176 -26.654  59.245  0.00  0.00    -0.048 A 
ATOM      6  C8  H1L d   1     -32.731 -26.017  58.146  0.00  0.00     0.078 A 
ATOM      7  H   H1L d   1     -35.054 -24.117  59.709  0.00  0.00     0.087 H 
ATOM      8  H   H1L d   1     -34.168 -24.572  57.451  0.00  0.00     0.087 H 
ATOM      9  H   H1L d   1     -32.238 -26.890  61.379  0.00  0.00     0.087 H 
ATOM     10  H   H1L d   1     -31.362 -27.357  59.111  0.00  0.00     0.087 H 
ENDROOT
BRANCH   6  11
ATOM     11  O8  H1L d   1     -32.206 -26.265  56.890  0.00  0.00    -0.291 OA
BRANCH  11  12
ATOM     12  C9  H1L d   1     -33.007 -26.941  55.984  0.00  0.00     0.191 A 
ATOM     13  N9  H1L d   1     -34.327 -27.137  56.165  0.00  0.00    -0.234 NA
ATOM     14  C10 H1L d   1     -35.055 -27.807  55.272  0.00  0.00     0.020 A 
ATOM     15  C11 H1L d   1     -34.479 -28.289  54.102  0.00  0.00     0.067 A 
ATOM     16  H   H1L d   1     -36.109 -27.978  55.460  0.00  0.00     0.116 H 
ATOM     17  C13 H1L d   1     -33.107 -28.091  53.881  0.00  0.00    -0.042 A 
ATOM     18  C14 H1L d   1     -32.360 -27.407  54.850  0.00  0.00     0.088 A 
ATOM     19  H   H1L d   1     -32.634 -28.460  52.978  0.00  0.00     0.087 H 
ATOM     20 CL1  H1L d   1     -30.648 -27.094  54.714  0.00  0.00    -0.080 Cl
BRANCH  15  21
ATOM     21  C12 H1L d   1     -35.327 -29.037  53.127  0.00  0.00     0.418 C 
ATOM     22  F1  H1L d   1     -34.621 -29.209  52.012  0.00  0.00    -0.166 F 
ATOM     23  F2  H1L d   1     -36.441 -28.338  52.902  0.00  0.00    -0.166 F 
ATOM     24  F3  H1L d   1     -35.635 -30.236  53.631  0.00  0.00    -0.166 F 
ENDBRANCH  15  21
ENDBRANCH  11  12
ENDBRANCH   6  11
BRANCH   1  25
ATOM     25  O2  H1L d   1     -34.212 -25.188  61.917  0.00  0.00    -0.336 OA
BRANCH  25  26
ATOM     26  C2  H1L d   1     -34.030 -25.971  63.038  0.00  0.00     0.125 C 
ATOM     27  H   H1L d   1     -33.999 -27.029  62.740  0.00  0.00     0.100 H 
BRANCH  26  28
ATOM     28  C1  H1L d   1     -32.777 -25.630  63.791  0.00  0.00     0.203 C 
ATOM     29  O1A H1L d   1     -32.304 -24.451  63.782  0.00  0.00    -0.646 OA
ATOM     30  O1B H1L d   1     -32.203 -26.537  64.461  0.00  0.00    -0.646 OA
ENDBRANCH  26  28
BRANCH  26  31
ATOM     31  C2A H1L d   1     -35.181 -25.724  63.956  0.00  0.00    -0.042 C 
ATOM     32  H   H1L d   1     -36.121 -25.964  63.438  0.00  0.00     0.031 H 
ATOM     33  H   H1L d   1     -35.188 -24.666  64.259  0.00  0.00     0.031 H 
ATOM     34  H   H1L d   1     -35.082 -26.360  64.848  0.00  0.00     0.031 H 
ENDBRANCH  26  31
ENDBRANCH  25  26
ENDBRANCH   1  25
TORSDOF 7
