REMARK  13 active torsions:
REMARK  status: ('A' for Active; 'I' for Inactive)
REMARK    1  A    between atoms: NBC_3  and  CAD_4 
REMARK    2  A    between atoms: NBD_7  and  SBE_8 
REMARK    3  A    between atoms: SBE_8  and  CAV_11 
REMARK    4  A    between atoms: CAX_15  and  OAU_16 
REMARK    5  A    between atoms: OAU_16  and  CAN_17 
REMARK    6  A    between atoms: CAN_17  and  CAK_18 
REMARK    7  A    between atoms: CAK_18  and  CAA_19 
REMARK    8  A    between atoms: CAY_20  and  CAZ_21 
REMARK    9  A    between atoms: CBB_24  and  OAE_25 
REMARK   10  A    between atoms: CBA_26  and  CAM_27 
REMARK   11  A    between atoms: CAM_27  and  CAC_28 
REMARK   12  A    between atoms: CAW_29  and  CAL_30 
REMARK   13  A    between atoms: CAL_30  and  CAB_31 
ROOT
ATOM      1  CAV NI0 d   1      28.058 -19.029  22.134  0.00  0.00     0.080 A 
ATOM      2  CAJ NI0 d   1      28.369 -18.875  20.770  0.00  0.00    -0.044 A 
ATOM      3  CAH NI0 d   1      27.843 -17.922  22.958  0.00  0.00    -0.058 A 
ATOM      4  CAI NI0 d   1      27.949 -16.622  22.410  0.00  0.00    -0.048 A 
ATOM      5  CAX NI0 d   1      28.258 -16.458  21.043  0.00  0.00     0.083 A 
ATOM      6  CAY NI0 d   1      28.462 -17.593  20.233  0.00  0.00     0.047 A 
ATOM      7  H13 NI0 d   1      28.534 -19.744  20.144  0.00  0.00     0.087 H 
ATOM      8  H14 NI0 d   1      27.598 -18.057  24.005  0.00  0.00     0.086 H 
ATOM      9  H15 NI0 d   1      27.793 -15.753  23.039  0.00  0.00     0.087 H 
ENDROOT
BRANCH   1  10
ATOM     10  SBE NI0 d   1      27.919 -20.676  22.791  0.00  0.00     0.261 S 
ATOM     11  OAF NI0 d   1      28.071 -20.579  24.257  0.00  0.00    -0.200 OA
ATOM     12  OAG NI0 d   1      28.918 -21.598  22.202  0.00  0.00    -0.200 OA
BRANCH  10  13
ATOM     13  NBD NI0 d   1      26.437 -21.225  22.379  0.00  0.00    -0.304 N 
ATOM     14  CAQ NI0 d   1      25.274 -20.447  22.710  0.00  0.00     0.028 C 
ATOM     15  CAO NI0 d   1      23.973 -21.160  22.498  0.00  0.00     0.098 C 
ATOM     16  H1  NI0 d   1      25.341 -20.161  23.770  0.00  0.00     0.067 H 
ATOM     17  H2  NI0 d   1      25.276 -19.542  22.085  0.00  0.00     0.067 H 
ATOM     18  NBC NI0 d   1      23.909 -21.846  21.237  0.00  0.00    -0.072 N 
ATOM     19  H3  NI0 d   1      23.158 -20.422  22.538  0.00  0.00     0.078 H 
ATOM     20  H4  NI0 d   1      23.841 -21.896  23.305  0.00  0.00     0.078 H 
ATOM     21  CAP NI0 d   1      25.044 -21.552  20.415  0.00  0.00     0.098 C 
ATOM     22  H5  NI0 d   1      23.161 -21.368  20.759  0.00  0.00     0.279 HD
ATOM     23  CAR NI0 d   1      26.335 -21.874  21.104  0.00  0.00     0.028 C 
ATOM     24  H9  NI0 d   1      25.033 -20.481  20.164  0.00  0.00     0.078 H 
ATOM     25  H10 NI0 d   1      24.977 -22.146  19.491  0.00  0.00     0.078 H 
ATOM     26  H11 NI0 d   1      27.169 -21.543  20.469  0.00  0.00     0.067 H 
ATOM     27  H12 NI0 d   1      26.397 -22.962  21.253  0.00  0.00     0.067 H 
BRANCH  18  28
ATOM     28  CAD NI0 d   1      23.416 -23.215  21.258  0.00  0.00     0.066 C 
ATOM     29  H6  NI0 d   1      23.418 -23.621  20.236  0.00  0.00     0.068 H 
ATOM     30  H7  NI0 d   1      22.391 -23.230  21.656  0.00  0.00     0.068 H 
ATOM     31  H8  NI0 d   1      24.067 -23.829  21.898  0.00  0.00     0.068 H 
ENDBRANCH  18  28
ENDBRANCH  10  13
ENDBRANCH   1  10
BRANCH   6  32
ATOM     32  CAZ NI0 d   1      28.833 -17.490  18.756  0.00  0.00     0.165 A 
ATOM     33  NAS NI0 d   1      28.190 -18.276  17.870  0.00  0.00    -0.232 NA
ATOM     34  CAW NI0 d   1      28.490 -18.253  16.554  0.00  0.00     0.047 A 
ATOM     35  CBA NI0 d   1      29.513 -17.370  16.087  0.00  0.00     0.019 A 
ATOM     36  CBB NI0 d   1      30.179 -16.570  17.049  0.00  0.00     0.172 A 
ATOM     37  NAT NI0 d   1      29.825 -16.658  18.371  0.00  0.00    -0.204 NA
BRANCH  34  38
ATOM     38  CAL NI0 d   1      27.683 -19.159  15.643  0.00  0.00    -0.027 C 
ATOM     39  H29 NI0 d   1      27.488 -20.111  16.159  0.00  0.00     0.041 H 
ATOM     40  H30 NI0 d   1      28.255 -19.351  14.723  0.00  0.00     0.041 H 
BRANCH  38  41
ATOM     41  CAB NI0 d   1      26.356 -18.503  15.281  0.00  0.00    -0.071 C 
ATOM     42  H31 NI0 d   1      25.784 -19.172  14.621  0.00  0.00     0.028 H 
ATOM     43  H32 NI0 d   1      26.547 -17.552  14.762  0.00  0.00     0.028 H 
ATOM     44  H33 NI0 d   1      25.779 -18.312  16.198  0.00  0.00     0.028 H 
ENDBRANCH  38  41
ENDBRANCH  34  38
BRANCH  35  45
ATOM     45  CAM NI0 d   1      29.906 -17.293  14.596  0.00  0.00    -0.038 C 
ATOM     46  H24 NI0 d   1      30.126 -16.241  14.360  0.00  0.00     0.039 H 
ATOM     47  H25 NI0 d   1      29.043 -17.630  14.002  0.00  0.00     0.039 H 
BRANCH  45  48
ATOM     48  CAC NI0 d   1      31.095 -18.115  14.186  0.00  0.00    -0.072 C 
ATOM     49  H26 NI0 d   1      31.279 -17.982  13.110  0.00  0.00     0.028 H 
ATOM     50  H27 NI0 d   1      30.897 -19.177  14.395  0.00  0.00     0.028 H 
ATOM     51  H28 NI0 d   1      31.980 -17.788  14.752  0.00  0.00     0.028 H 
ENDBRANCH  45  48
ENDBRANCH  35  45
BRANCH  36  52
ATOM     52  OAE NI0 d   1      31.187 -15.695  16.687  0.00  0.00    -0.344 OA
ATOM     53  H23 NI0 d   1      31.323 -15.741  15.748  0.00  0.00     0.219 HD
ENDBRANCH  36  52
ENDBRANCH   6  32
BRANCH   5  54
ATOM     54  OAU NI0 d   1      28.380 -15.176  20.482  0.00  0.00    -0.350 OA
BRANCH  54  55
ATOM     55  CAN NI0 d   1      27.536 -14.110  20.861  0.00  0.00     0.026 C 
ATOM     56  H16 NI0 d   1      27.571 -14.031  21.958  0.00  0.00     0.075 H 
ATOM     57  H17 NI0 d   1      26.514 -14.365  20.544  0.00  0.00     0.075 H 
BRANCH  55  58
ATOM     58  CAK NI0 d   1      27.867 -12.742  20.290  0.00  0.00    -0.048 C 
ATOM     59  H18 NI0 d   1      28.076 -12.073  21.138  0.00  0.00     0.035 H 
ATOM     60  H19 NI0 d   1      26.976 -12.385  19.752  0.00  0.00     0.035 H 
BRANCH  58  61
ATOM     61  CAA NI0 d   1      29.063 -12.644  19.319  0.00  0.00    -0.075 C 
ATOM     62  H20 NI0 d   1      29.183 -11.601  18.989  0.00  0.00     0.027 H 
ATOM     63  H21 NI0 d   1      28.880 -13.286  18.445  0.00  0.00     0.027 H 
ATOM     64  H22 NI0 d   1      29.979 -12.974  19.831  0.00  0.00     0.027 H 
ENDBRANCH  58  61
ENDBRANCH  55  58
ENDBRANCH  54  55
ENDBRANCH   5  54
TORSDOF 13
