REMARK  8 active torsions:
REMARK  status: ('A' for Active; 'I' for Inactive)
REMARK    1  A    between atoms: NBB_3  and  CAB_4 
REMARK    2  A    between atoms: NBC_7  and  SBD_8 
REMARK    3  A    between atoms: SBD_8  and  CAU_11 
REMARK    4  A    between atoms: CAW_15  and  OAT_16 
REMARK    5  A    between atoms: OAT_16  and  CAK_17 
REMARK    6  A    between atoms: CAK_17  and  CAI_18 
REMARK    7  A    between atoms: CAI_18  and  CAA_19 
REMARK    8  A    between atoms: CAX_20  and  CAY_21 
ROOT
ATOM      1  CAU NI5 d   1      35.013 -30.323 -43.783  0.00  0.00     0.080 A 
ATOM      2  CAH NI5 d   1      35.497 -30.095 -42.498  0.00  0.00    -0.044 A 
ATOM      3  CAF NI5 d   1      35.712 -31.157 -44.637  0.00  0.00    -0.058 A 
ATOM      4  CAG NI5 d   1      36.894 -31.757 -44.210  0.00  0.00    -0.048 A 
ATOM      5  CAW NI5 d   1      37.378 -31.526 -42.920  0.00  0.00     0.082 A 
ATOM      6  CAX NI5 d   1      36.664 -30.713 -42.058  0.00  0.00     0.045 A 
ATOM      7  H13 NI5 d   1      34.959 -29.429 -41.833  0.00  0.00     0.087 H 
ATOM      8  H14 NI5 d   1      35.340 -31.343 -45.638  0.00  0.00     0.086 H 
ATOM      9  H15 NI5 d   1      37.442 -32.407 -44.883  0.00  0.00     0.087 H 
ENDROOT
BRANCH   1  10
ATOM     10  SBD NI5 d   1      33.477 -29.560 -44.336  0.00  0.00     0.261 S 
ATOM     11  OAD NI5 d   1      33.327 -28.173 -43.803  0.00  0.00    -0.200 OA
ATOM     12  OAE NI5 d   1      33.464 -29.537 -45.826  0.00  0.00    -0.200 OA
BRANCH  10  13
ATOM     13  NBC NI5 d   1      32.259 -30.505 -43.756  0.00  0.00    -0.304 N 
ATOM     14  CAP NI5 d   1      32.083 -31.834 -44.242  0.00  0.00     0.028 C 
ATOM     15  CAN NI5 d   1      30.678 -32.316 -44.086  0.00  0.00     0.098 C 
ATOM     16  H1  NI5 d   1      32.348 -31.858 -45.309  0.00  0.00     0.067 H 
ATOM     17  H2  NI5 d   1      32.751 -32.506 -43.683  0.00  0.00     0.067 H 
ATOM     18  NBB NI5 d   1      30.127 -32.073 -42.781  0.00  0.00    -0.072 N 
ATOM     19  H3  NI5 d   1      30.659 -33.400 -44.275  0.00  0.00     0.078 H 
ATOM     20  H4  NI5 d   1      30.050 -31.803 -44.829  0.00  0.00     0.078 H 
ATOM     21  CAO NI5 d   1      30.372 -30.749 -42.304  0.00  0.00     0.098 C 
ATOM     22  H5  NI5 d   1      30.710 -32.635 -42.181  0.00  0.00     0.279 HD
ATOM     23  CAQ NI5 d   1      31.806 -30.350 -42.411  0.00  0.00     0.028 C 
ATOM     24  H9  NI5 d   1      30.070 -30.695 -41.248  0.00  0.00     0.078 H 
ATOM     25  H10 NI5 d   1      29.767 -30.045 -42.895  0.00  0.00     0.078 H 
ATOM     26  H11 NI5 d   1      32.411 -30.986 -41.748  0.00  0.00     0.067 H 
ATOM     27  H12 NI5 d   1      31.914 -29.298 -42.110  0.00  0.00     0.067 H 
BRANCH  18  28
ATOM     28  CAB NI5 d   1      28.800 -32.638 -42.539  0.00  0.00     0.066 C 
ATOM     29  H6  NI5 d   1      28.478 -32.393 -41.516  0.00  0.00     0.068 H 
ATOM     30  H7  NI5 d   1      28.839 -33.731 -42.659  0.00  0.00     0.068 H 
ATOM     31  H8  NI5 d   1      28.084 -32.215 -43.260  0.00  0.00     0.068 H 
ENDBRANCH  18  28
ENDBRANCH  10  13
ENDBRANCH   1  10
BRANCH   6  32
ATOM     32  CAY NI5 d   1      37.117 -30.396 -40.714  0.00  0.00     0.143 A 
ATOM     33  NAR NI5 d   1      36.227 -30.261 -39.684  0.00  0.00    -0.234 NA
ATOM     34  CAV NI5 d   1      36.681 -29.907 -38.412  0.00  0.00     0.047 A 
ATOM     35  CAL NI5 d   1      36.016 -29.690 -37.091  0.00  0.00    -0.024 C 
ATOM     36  CAZ NI5 d   1      38.101 -29.682 -38.208  0.00  0.00     0.021 A 
ATOM     37  CAJ NI5 d   1      37.011 -28.937 -36.272  0.00  0.00    -0.056 C 
ATOM     38  H23 NI5 d   1      35.776 -30.653 -36.617  0.00  0.00     0.042 H 
ATOM     39  H24 NI5 d   1      35.094 -29.102 -37.215  0.00  0.00     0.042 H 
ATOM     40  CAM NI5 d   1      38.355 -29.324 -36.774  0.00  0.00    -0.035 C 
ATOM     41  H25 NI5 d   1      36.910 -29.207 -35.210  0.00  0.00     0.034 H 
ATOM     42  H26 NI5 d   1      36.859 -27.854 -36.391  0.00  0.00     0.034 H 
ATOM     43  H27 NI5 d   1      38.750 -30.186 -36.217  0.00  0.00     0.040 H 
ATOM     44  H28 NI5 d   1      39.061 -28.484 -36.697  0.00  0.00     0.040 H 
ATOM     45  CBA NI5 d   1      38.992 -29.837 -39.303  0.00  0.00     0.188 A 
ATOM     46  OAC NI5 d   1      40.336 -29.627 -39.113  0.00  0.00    -0.171 OA
ATOM     47  NAS NI5 d   1      38.482 -30.176 -40.527  0.00  0.00    -0.318 N 
ATOM     48  H29 NI5 d   1      39.102 -30.268 -41.306  0.00  0.00     0.169 HD
ENDBRANCH   6  32
BRANCH   5  49
ATOM     49  OAT NI5 d   1      38.543 -32.121 -42.520  0.00  0.00    -0.350 OA
BRANCH  49  50
ATOM     50  CAK NI5 d   1      39.241 -33.006 -43.345  0.00  0.00     0.026 C 
ATOM     51  H16 NI5 d   1      39.709 -32.444 -44.166  0.00  0.00     0.075 H 
ATOM     52  H17 NI5 d   1      38.540 -33.745 -43.760  0.00  0.00     0.075 H 
BRANCH  50  53
ATOM     53  CAI NI5 d   1      40.293 -33.709 -42.570  0.00  0.00    -0.048 C 
ATOM     54  H18 NI5 d   1      40.982 -34.211 -43.265  0.00  0.00     0.035 H 
ATOM     55  H19 NI5 d   1      39.823 -34.458 -41.916  0.00  0.00     0.035 H 
BRANCH  53  56
ATOM     56  CAA NI5 d   1      41.078 -32.710 -41.713  0.00  0.00    -0.075 C 
ATOM     57  H20 NI5 d   1      41.853 -33.245 -41.145  0.00  0.00     0.027 H 
ATOM     58  H21 NI5 d   1      40.392 -32.208 -41.015  0.00  0.00     0.027 H 
ATOM     59  H22 NI5 d   1      41.552 -31.961 -42.364  0.00  0.00     0.027 H 
ENDBRANCH  53  56
ENDBRANCH  50  53
ENDBRANCH  49  50
ENDBRANCH   5  49
TORSDOF 8
