REMARK  6 active torsions:
REMARK  status: ('A' for Active; 'I' for Inactive)
REMARK    1  A    between atoms: N01_7  and  C01_5 
REMARK       I    between atoms: C12_22  and  N02_10 
REMARK    2  A    between atoms: C04_13  and  C03_11 
REMARK    3  A    between atoms: C22_32  and  N03_12 
REMARK    4  A    between atoms: C13_23  and  C12_22 
REMARK    5  A    between atoms: C14_24  and  C13_23 
REMARK    6  A    between atoms: C18_28  and  C20_30 
ROOT
ATOM      1  O   0WH d   1     -45.976  12.365   0.782  0.00  0.00    -0.272 OA
ATOM      2  N02 0WH d   1     -48.172  12.332   1.460  0.00  0.00    -0.292 N 
ATOM      3  C04 0WH d   1     -48.038  12.532   5.689  0.00  0.00    -0.023 A 
ATOM      4  C05 0WH d   1     -46.734  12.289   5.001  0.00  0.00    -0.070 A 
ATOM      5  C06 0WH d   1     -46.689  12.184   3.670  0.00  0.00    -0.055 A 
ATOM      6  C07 0WH d   1     -47.918  12.311   2.898  0.00  0.00     0.052 A 
ATOM      7  C08 0WH d   1     -49.596  12.413   1.224  0.00  0.00    -0.011 C 
ATOM      8  C09 0WH d   1     -50.228  12.716   2.517  0.00  0.00    -0.055 C 
ATOM      9  C10 0WH d   1     -49.177  12.603   3.559  0.00  0.00    -0.007 A 
ATOM     10  C11 0WH d   1     -49.234  12.714   4.908  0.00  0.00    -0.060 A 
ATOM     11  C12 0WH d   1     -47.099  12.401   0.437  0.00  0.00     0.232 C 
ATOM     12  H   0WH d   1     -45.819  12.197   5.586  0.00  0.00     0.084 H 
ATOM     13  H   0WH d   1     -45.740  12.005   3.165  0.00  0.00     0.087 H 
ATOM     14  H   0WH d   1     -50.104  12.276   0.270  0.00  0.00     0.112 H 
ATOM     15  H   0WH d   1     -51.274  12.975   2.680  0.00  0.00     0.087 H 
ATOM     16  H   0WH d   1     -50.180  12.940   5.400  0.00  0.00     0.086 H 
ENDROOT
BRANCH  11  17
ATOM     17  C13 0WH d   1     -47.439  12.533  -0.961  0.00  0.00     0.034 C 
ATOM     18  H   0WH d   1     -46.574  12.979  -1.452  0.00  0.00     0.054 H 
ATOM     19  H   0WH d   1     -48.355  13.123  -1.005  0.00  0.00     0.054 H 
BRANCH  17  20
ATOM     20  C14 0WH d   1     -47.730  11.212  -1.694  0.00  0.00    -0.049 A 
ATOM     21  C15 0WH d   1     -46.692  10.189  -1.854  0.00  0.00    -0.076 A 
ATOM     22  C16 0WH d   1     -46.992   9.034  -2.522  0.00  0.00    -0.082 A 
ATOM     23  H   0WH d   1     -45.694  10.347  -1.446  0.00  0.00     0.084 H 
ATOM     24  C17 0WH d   1     -48.316   8.847  -3.090  0.00  0.00    -0.068 A 
ATOM     25  H   0WH d   1     -46.238   8.254  -2.628  0.00  0.00     0.083 H 
ATOM     26  C18 0WH d   1     -49.291   9.834  -2.935  0.00  0.00     0.048 A 
ATOM     27  H   0WH d   1     -48.549   7.934  -3.638  0.00  0.00     0.084 H 
ATOM     28  C19 0WH d   1     -48.979  11.044  -2.225  0.00  0.00    -0.062 A 
ATOM     29  H   0WH d   1     -49.733  11.823  -2.111  0.00  0.00     0.085 H 
BRANCH  26  30
ATOM     30  C20 0WH d   1     -50.694   9.684  -3.523  0.00  0.00     0.417 C 
ATOM     31  F   0WH d   1     -51.509   9.376  -2.589  0.00  0.00    -0.166 F 
ATOM     32  F01 0WH d   1     -51.070  10.891  -4.058  0.00  0.00    -0.166 F 
ATOM     33  F02 0WH d   1     -50.696   8.759  -4.521  0.00  0.00    -0.166 F 
ENDBRANCH  26  30
ENDBRANCH  17  20
ENDBRANCH  11  17
BRANCH   3  34
ATOM     34  C03 0WH d   1     -48.049  12.688   7.165  0.00  0.00     0.008 A 
ATOM     35  C02 0WH d   1     -48.419  13.854   7.754  0.00  0.00    -0.007 A 
ATOM     36  N01 0WH d   1     -48.293  13.729   9.110  0.00  0.00    -0.344 N 
ATOM     37  H   0WH d   1     -48.761  14.746   7.230  0.00  0.00     0.113 H 
ATOM     38  C   0WH d   1     -47.795  12.410   9.360  0.00  0.00     0.145 A 
ATOM     39  N   0WH d   1     -47.485  11.771  10.592  0.00  0.00    -0.223 NA
ATOM     40  C21 0WH d   1     -47.631  11.778   8.210  0.00  0.00     0.068 A 
ATOM     41  C23 0WH d   1     -47.011  10.490  10.580  0.00  0.00     0.091 A 
ATOM     42  N04 0WH d   1     -46.850   9.863   9.450  0.00  0.00    -0.224 NA
ATOM     43  H   0WH d   1     -46.767   9.992  11.518  0.00  0.00     0.146 H 
ATOM     44  C22 0WH d   1     -47.159  10.489   8.218  0.00  0.00     0.137 A 
BRANCH  36  45
ATOM     45  C01 0WH d   1     -48.586  14.697  10.084  0.00  0.00    -0.013 C 
ATOM     46  H   0WH d   1     -47.967  15.578   9.916  0.00  0.00     0.057 H 
ATOM     47  H   0WH d   1     -49.638  14.972  10.016  0.00  0.00     0.057 H 
ATOM     48  H   0WH d   1     -48.379  14.289  11.073  0.00  0.00     0.057 H 
ENDBRANCH  36  45
BRANCH  44  49
ATOM     49  N03 0WH d   1     -46.961   9.717   7.001  0.00  0.00    -0.383 N 
ATOM     50  H   0WH d   1     -47.175  10.131   6.094  0.00  0.00     0.157 HD
ATOM     51  H   0WH d   1     -46.608   8.762   7.055  0.00  0.00     0.157 HD
ENDBRANCH  44  49
ENDBRANCH   3  34
TORSDOF 6
