REMARK  4 active torsions:
REMARK  status: ('A' for Active; 'I' for Inactive)
REMARK    1  A    between atoms: N1_1  and  C2_2 
REMARK    2  A    between atoms: C9_9  and  C10_10 
REMARK       I    between atoms: N14_14  and  C19_19 
REMARK    3  A    between atoms: C19_19  and  C21_21 
REMARK    4  A    between atoms: C21_21  and  C22_22 
ROOT
ATOM      1  C10 924 d   1      48.147 -12.570   5.785  0.00  0.00    -0.024 A 
ATOM      2  C11 924 d   1      46.923 -12.434   5.151  0.00  0.00    -0.070 A 
ATOM      3  C12 924 d   1      46.835 -12.309   3.780  0.00  0.00    -0.055 A 
ATOM      4  C13 924 d   1      48.013 -12.323   3.067  0.00  0.00     0.052 A 
ATOM      5  N14 924 d   1      48.208 -12.213   1.683  0.00  0.00    -0.292 N 
ATOM      6  C15 924 d   1      49.625 -12.282   1.392  0.00  0.00    -0.011 A 
ATOM      7  C16 924 d   1      50.349 -12.439   2.718  0.00  0.00    -0.055 A 
ATOM      8  C17 924 d   1      49.224 -12.445   3.686  0.00  0.00    -0.007 A 
ATOM      9  C18 924 d   1      49.319 -12.580   5.051  0.00  0.00    -0.060 A 
ATOM     10  C19 924 d   1      47.203 -12.333   0.739  0.00  0.00     0.232 C 
ATOM     11  O20 924 d   1      46.008 -12.219   0.975  0.00  0.00    -0.272 OA
ATOM     12  H   924 d   1      46.011 -12.426   5.747  0.00  0.00     0.084 H 
ATOM     13  H   924 d   1      45.872 -12.203   3.281  0.00  0.00     0.087 H 
ATOM     14  H   924 d   1      50.086 -12.231   0.406  0.00  0.00     0.112 H 
ATOM     15  H   924 d   1      51.419 -12.525   2.909  0.00  0.00     0.087 H 
ATOM     16  H   924 d   1      50.287 -12.691   5.539  0.00  0.00     0.086 H 
ENDROOT
BRANCH  10  17
ATOM     17  C21 924 d   1      47.682 -12.585  -0.660  0.00  0.00     0.034 C 
ATOM     18  H   924 d   1      47.020 -13.298  -1.153  0.00  0.00     0.054 H 
ATOM     19  H   924 d   1      48.691 -12.997  -0.635  0.00  0.00     0.054 H 
BRANCH  17  20
ATOM     20  C22 924 d   1      47.683 -11.302  -1.408  0.00  0.00    -0.049 A 
ATOM     21  C23 924 d   1      48.878 -10.700  -1.739  0.00  0.00    -0.076 A 
ATOM     22  C24 924 d   1      48.887  -9.502  -2.427  0.00  0.00    -0.082 A 
ATOM     23  H   924 d   1      49.820 -11.171  -1.457  0.00  0.00     0.084 H 
ATOM     24  C25 924 d   1      47.698  -8.906  -2.789  0.00  0.00    -0.083 A 
ATOM     25  H   924 d   1      49.834  -9.028  -2.684  0.00  0.00     0.083 H 
ATOM     26  C26 924 d   1      46.500  -9.505  -2.463  0.00  0.00    -0.082 A 
ATOM     27  H   924 d   1      47.705  -7.961  -3.333  0.00  0.00     0.083 H 
ATOM     28  C27 924 d   1      46.495 -10.699  -1.772  0.00  0.00    -0.076 A 
ATOM     29  H   924 d   1      45.559  -9.036  -2.751  0.00  0.00     0.083 H 
ATOM     30  H   924 d   1      45.547 -11.170  -1.512  0.00  0.00     0.084 H 
ENDBRANCH  17  20
ENDBRANCH  10  17
BRANCH   1  31
ATOM     31  C9  924 d   1      48.184 -12.758   7.222  0.00  0.00    -0.004 A 
ATOM     32  C8  924 d   1      48.658 -13.965   7.694  0.00  0.00    -0.033 A 
ATOM     33  S7  924 d   1      48.595 -14.078   9.405  0.00  0.00    -0.100 SA
ATOM     34  H   924 d   1      49.032 -14.761   7.050  0.00  0.00     0.096 H 
ATOM     35  C6  924 d   1      47.912 -12.504   9.525  0.00  0.00     0.021 A 
ATOM     36  C5  924 d   1      47.562 -11.888  10.704  0.00  0.00    -0.049 A 
ATOM     37  C28 924 d   1      47.751 -11.899   8.278  0.00  0.00     0.038 A 
ATOM     38  C4  924 d   1      47.040 -10.630  10.546  0.00  0.00     0.006 A 
ATOM     39  H   924 d   1      47.689 -12.359  11.679  0.00  0.00     0.087 H 
ATOM     40  N3  924 d   1      46.867 -10.006   9.383  0.00  0.00    -0.243 NA
ATOM     41  H   924 d   1      46.742 -10.096  11.448  0.00  0.00     0.114 H 
ATOM     42  C2  924 d   1      47.214 -10.619   8.244  0.00  0.00     0.133 A 
BRANCH  42  43
ATOM     43  N1  924 d   1      47.018  -9.935   7.046  0.00  0.00    -0.383 N 
ATOM     44  H   924 d   1      47.271 -10.374   6.161  0.00  0.00     0.157 HD
ATOM     45  H   924 d   1      46.621  -8.995   7.054  0.00  0.00     0.157 HD
ENDBRANCH  42  43
ENDBRANCH   1  31
TORSDOF 4
