REMARK  7 active torsions:
REMARK  status: ('A' for Active; 'I' for Inactive)
REMARK    1  A    between atoms: C2_15  and  C4_1 
REMARK    2  A    between atoms: C5_2  and  C6_3 
REMARK    3  A    between atoms: N12_7  and  C15_9 
REMARK    4  A    between atoms: C17_10  and  N18_21 
REMARK    5  A    between atoms: C2_15  and  C1_14 
REMARK    6  A    between atoms: C2_15  and  O3_16 
REMARK    7  A    between atoms: C23_24  and  C2_15 
ROOT
ATOM      1  C6  0WC d   1      52.886  29.339  -1.788  0.00  0.00     0.020 A 
ATOM      2  C7  0WC d   1      53.908  28.935  -2.643  0.00  0.00    -0.064 A 
ATOM      3  C8  0WC d   1      55.101  28.484  -2.126  0.00  0.00    -0.069 A 
ATOM      4  C10 0WC d   1      56.500  27.956   0.023  0.00  0.00    -0.055 C 
ATOM      5  N12 0WC d   1      54.715  28.672   1.466  0.00  0.00    -0.304 N 
ATOM      6  C13 0WC d   1      54.290  28.810   0.130  0.00  0.00     0.052 A 
ATOM      7  C9  0WC d   1      55.292  28.417  -0.758  0.00  0.00    -0.007 A 
ATOM      8  C11 0WC d   1      56.143  28.310   1.472  0.00  0.00    -0.012 C 
ATOM      9  C14 0WC d   1      53.078  29.281  -0.403  0.00  0.00    -0.038 A 
ATOM     10  H1  0WC d   1      53.764  28.976  -3.717  0.00  0.00     0.085 H 
ATOM     11  H2  0WC d   1      55.897  28.179  -2.796  0.00  0.00     0.085 H 
ATOM     12  H3  0WC d   1      57.407  27.485  -0.353  0.00  0.00     0.087 H 
ATOM     13  H10 0WC d   1      56.811  28.297   2.332  0.00  0.00     0.112 H 
ATOM     14  H11 0WC d   1      52.286  29.602   0.264  0.00  0.00     0.089 H 
ENDROOT
BRANCH   1  15
ATOM     15  C5  0WC d   1      51.672  29.808  -2.383  0.00  0.00    -0.063 C 
ATOM     16  C4  0WC d   1      50.660  30.195  -2.855  0.00  0.00    -0.056 C 
BRANCH  16  17
ATOM     17  C2  0WC d   1      49.416  30.666  -3.500  0.00  0.00     0.168 C 
BRANCH  17  18
ATOM     18  C1  0WC d   1      49.354  32.178  -3.359  0.00  0.00    -0.031 C 
ATOM     19  H6  0WC d   1      48.435  32.553  -3.833  0.00  0.00     0.033 H 
ATOM     20  H7  0WC d   1      50.229  32.628  -3.850  0.00  0.00     0.033 H 
ATOM     21  H8  0WC d   1      49.353  32.447  -2.292  0.00  0.00     0.033 H 
ENDBRANCH  17  18
BRANCH  17  22
ATOM     22  O3  0WC d   1      49.378  30.372  -4.906  0.00  0.00    -0.371 OA
ATOM     23  H9  0WC d   1      50.122  30.780  -5.334  0.00  0.00     0.212 HD
ENDBRANCH  17  22
BRANCH  17  24
ATOM     24  C23 0WC d   1      48.231  29.995  -2.833  0.00  0.00     0.121 A 
ATOM     25  N24 0WC d   1      48.160  28.740  -2.551  0.00  0.00    -0.253 NA
ATOM     26  C25 0WC d   1      47.053  28.299  -1.977  0.00  0.00     0.009 A 
ATOM     27  C26 0WC d   1      46.121  29.226  -1.761  0.00  0.00    -0.026 A 
ATOM     28  H14 0WC d   1      46.914  27.255  -1.701  0.00  0.00     0.115 H 
ATOM     29  S27 0WC d   1      46.774  30.750  -2.353  0.00  0.00    -0.081 SA
ATOM     30  H5  0WC d   1      45.144  29.071  -1.306  0.00  0.00     0.097 H 
ENDBRANCH  17  24
ENDBRANCH  16  17
ENDBRANCH   1  15
BRANCH   5  31
ATOM     31  C15 0WC d   1      53.939  28.958   2.597  0.00  0.00     0.177 A 
ATOM     32  C21 0WC d   1      54.306  28.640   3.936  0.00  0.00     0.099 A 
ATOM     33  C20 0WC d   1      53.420  28.981   4.953  0.00  0.00     0.046 A 
ATOM     34 CL   0WC d   1      55.795  27.849   4.409  0.00  0.00    -0.079 Cl
ATOM     35  N19 0WC d   1      52.267  29.579   4.673  0.00  0.00    -0.074 NA
ATOM     36  H4  0WC d   1      53.673  28.757   5.983  0.00  0.00     0.118 H 
ATOM     37  C17 0WC d   1      51.958  29.861   3.420  0.00  0.00     0.722 A 
ATOM     38  N16 0WC d   1      52.765  29.563   2.409  0.00  0.00    -0.043 NA
BRANCH  37  39
ATOM     39  N18 0WC d   1      50.750  30.466   3.162  0.00  0.00    -0.231 N 
ATOM     40  H12 0WC d   1      50.486  30.696   2.193  0.00  0.00     0.174 HD
ATOM     41  H13 0WC d   1      50.110  30.689   3.937  0.00  0.00     0.174 HD
ENDBRANCH  37  39
ENDBRANCH   5  31
TORSDOF 7
