REMARK  4 active torsions:
REMARK  status: ('A' for Active; 'I' for Inactive)
REMARK    1  A    between atoms: C2_2  and  O1_5 
REMARK    2  A    between atoms: N9_10  and  C10_3 
REMARK    3  A    between atoms: C8_9  and  N9_10 
REMARK    4  A    between atoms: C12_12  and  C15_15 
ROOT
ATOM      1  C15 0WB d   1      12.439  12.758   2.697  0.00  0.00    -0.005 A 
ATOM      2  C16 0WB d   1      11.743  12.712   3.898  0.00  0.00    -0.051 A 
ATOM      3  C17 0WB d   1      10.364  12.919   3.903  0.00  0.00     0.045 A 
ATOM      4  C18 0WB d   1       9.697  13.173   2.704  0.00  0.00    -0.063 A 
ATOM      5  C19 0WB d   1      10.392  13.214   1.510  0.00  0.00    -0.081 A 
ATOM      6  C20 0WB d   1      11.764  13.017   1.501  0.00  0.00    -0.071 A 
ATOM      7  C21 0WB d   1       9.658  12.880   5.150  0.00  0.00     0.099 C 
ATOM      8  N22 0WB d   1       9.121  12.844   6.152  0.00  0.00    -0.191 NA
ATOM      9  H7  0WB d   1      12.268  12.516   4.826  0.00  0.00     0.087 H 
ATOM     10  H8  0WB d   1       8.626  13.339   2.709  0.00  0.00     0.085 H 
ATOM     11  H9  0WB d   1       9.865  13.400   0.581  0.00  0.00     0.083 H 
ATOM     12  H10 0WB d   1      12.313  13.064   0.567  0.00  0.00     0.084 H 
ENDROOT
BRANCH   1  13
ATOM     13  C12 0WB d   1      13.908  12.561   2.719  0.00  0.00     0.076 A 
ATOM     14  N11 0WB d   1      14.553  11.952   3.725  0.00  0.00    -0.223 NA
ATOM     15  C10 0WB d   1      15.843  11.882   3.586  0.00  0.00     0.171 A 
ATOM     16  S14 0WB d   1      16.356  12.648   2.082  0.00  0.00    -0.061 SA
ATOM     17  C13 0WB d   1      14.678  13.023   1.716  0.00  0.00    -0.013 A 
ATOM     18  H6  0WB d   1      14.321  13.542   0.827  0.00  0.00     0.098 H 
BRANCH  15  19
ATOM     19  N9  0WB d   1      16.769  11.324   4.427  0.00  0.00    -0.333 N 
ATOM     20  H5  0WB d   1      17.747  11.366   4.106  0.00  0.00     0.168 HD
BRANCH  19  21
ATOM     21  C8  0WB d   1      16.563  10.706   5.661  0.00  0.00     0.070 A 
ATOM     22  C7  0WB d   1      15.326  10.258   6.093  0.00  0.00    -0.017 A 
ATOM     23  C5  0WB d   1      15.234   9.647   7.337  0.00  0.00     0.118 A 
ATOM     24  H1  0WB d   1      14.446  10.382   5.472  0.00  0.00     0.091 H 
ATOM     25  C4  0WB d   1      16.355   9.470   8.129  0.00  0.00    -0.043 A 
ATOM     26  F6  0WB d   1      14.020   9.218   7.767  0.00  0.00    -0.206 F 
ATOM     27  C3  0WB d   1      17.604   9.905   7.694  0.00  0.00    -0.046 A 
ATOM     28  H2  0WB d   1      16.260   8.989   9.096  0.00  0.00     0.088 H 
ATOM     29  C2  0WB d   1      17.693  10.521   6.454  0.00  0.00     0.092 A 
ATOM     30  H4  0WB d   1      18.486   9.766   8.309  0.00  0.00     0.087 H 
BRANCH  29  31
ATOM     31  O1  0WB d   1      18.889  10.966   5.988  0.00  0.00    -0.358 OA
ATOM     32  H3  0WB d   1      19.493  10.236   5.921  0.00  0.00     0.217 HD
ENDBRANCH  29  31
ENDBRANCH  19  21
ENDBRANCH  15  19
ENDBRANCH   1  13
TORSDOF 4
