REMARK  4 active torsions:
REMARK  status: ('A' for Active; 'I' for Inactive)
REMARK    1  A    between atoms: N9_14  and  C8_4 
REMARK    2  A    between atoms: C10_5  and  N9_14 
REMARK    3  A    between atoms: C15_7  and  C12_16 
REMARK    4  A    between atoms: C2_11  and  O1_10 
ROOT
ATOM      1  C10 0WA d   1      15.847  11.689   3.790  0.00  0.00     0.171 A 
ATOM      2  C13 0WA d   1      14.527  12.863   2.004  0.00  0.00    -0.013 A 
ATOM      3  N11 0WA d   1      14.574  11.756   4.003  0.00  0.00    -0.223 NA
ATOM      4  C12 0WA d   1      13.854  12.387   3.071  0.00  0.00     0.076 A 
ATOM      5  S14 0WA d   1      16.212  12.474   2.255  0.00  0.00    -0.061 SA
ATOM      6  H3  0WA d   1      14.102  13.389   1.150  0.00  0.00     0.098 H 
ENDROOT
BRANCH   1   7
ATOM      7  N9  0WA d   1      16.815  11.100   4.594  0.00  0.00    -0.333 N 
ATOM      8  H8  0WA d   1      17.771  11.080   4.211  0.00  0.00     0.168 HD
BRANCH   7   9
ATOM      9  C8  0WA d   1      16.646  10.527   5.869  0.00  0.00     0.070 A 
ATOM     10  C7  0WA d   1      15.426  10.045   6.338  0.00  0.00    -0.017 A 
ATOM     11  C5  0WA d   1      15.341   9.486   7.606  0.00  0.00     0.118 A 
ATOM     12  H2  0WA d   1      14.543  10.106   5.713  0.00  0.00     0.091 H 
ATOM     13  C4  0WA d   1      16.467   9.392   8.417  0.00  0.00    -0.043 A 
ATOM     14  F6  0WA d   1      14.153   9.027   8.057  0.00  0.00    -0.206 F 
ATOM     15  C3  0WA d   1      17.687   9.853   7.955  0.00  0.00    -0.046 A 
ATOM     16  H1  0WA d   1      16.389   8.959   9.408  0.00  0.00     0.088 H 
ATOM     17  C2  0WA d   1      17.776  10.418   6.687  0.00  0.00     0.092 A 
ATOM     18  H7  0WA d   1      18.570   9.774   8.579  0.00  0.00     0.087 H 
BRANCH  17  19
ATOM     19  O1  0WA d   1      18.970  10.876   6.230  0.00  0.00    -0.358 OA
ATOM     20  H6  0WA d   1      19.637  10.734   6.892  0.00  0.00     0.217 HD
ENDBRANCH  17  19
ENDBRANCH   7   9
ENDBRANCH   1   7
BRANCH   4  21
ATOM     21  C15 0WA d   1      12.395  12.523   3.182  0.00  0.00    -0.004 A 
ATOM     22  C20 0WA d   1      11.740  12.299   4.404  0.00  0.00    -0.054 A 
ATOM     23  C19 0WA d   1      10.363  12.431   4.456  0.00  0.00     0.003 A 
ATOM     24  H5  0WA d   1      12.302  12.028   5.290  0.00  0.00     0.087 H 
ATOM     25  N18 0WA d   1       9.683  12.754   3.361  0.00  0.00    -0.273 NA
ATOM     26  H10 0WA d   1       9.839  12.271   5.391  0.00  0.00     0.114 H 
ATOM     27  C17 0WA d   1      10.266  12.967   2.191  0.00  0.00     0.003 A 
ATOM     28  C16 0WA d   1      11.639  12.863   2.053  0.00  0.00    -0.054 A 
ATOM     29  H4  0WA d   1       9.660  13.226   1.331  0.00  0.00     0.114 H 
ATOM     30  H9  0WA d   1      12.117  13.040   1.096  0.00  0.00     0.087 H 
ENDBRANCH   4  21
TORSDOF 4
