REMARK  5 active torsions:
REMARK  status: ('A' for Active; 'I' for Inactive)
REMARK    1  A    between atoms: CAW_10  and  SBB_11 
REMARK    2  A    between atoms: SBB_11  and  NAR_14 
REMARK    3  A    between atoms: NAR_14  and  CAV_15 
REMARK    4  A    between atoms: CAY_20  and  CAE_21 
REMARK    5  A    between atoms: CAE_21  and  CAU_22 
ROOT
ATOM      1  NAR VH2 d   1      49.129  -6.493  26.605  0.00  0.00    -0.134 NA
ENDROOT
BRANCH   1   2
ATOM      2  SBB VH2 d   1      47.623  -6.891  25.972  0.00  0.00     0.286 S 
ATOM      3  OAB VH2 d   1      46.625  -5.912  26.490  0.00  0.00    -0.198 OA
ATOM      4  OAC VH2 d   1      47.182  -8.338  26.327  0.00  0.00    -0.198 OA
BRANCH   2   5
ATOM      5  CAW VH2 d   1      47.695  -6.686  24.228  0.00  0.00     0.092 A 
ATOM      6  CBA VH2 d   1      47.806  -5.414  23.606  0.00  0.00    -0.003 A 
ATOM      7  CAP VH2 d   1      47.821  -4.176  24.306  0.00  0.00    -0.071 A 
ATOM      8  CAZ VH2 d   1      47.861  -5.401  22.186  0.00  0.00    -0.024 A 
ATOM      9  CAG VH2 d   1      47.876  -2.921  23.662  0.00  0.00    -0.082 A 
ATOM     10  H1  VH2 d   1      47.788  -4.197  25.389  0.00  0.00     0.084 H 
ATOM     11  CAF VH2 d   1      47.970  -2.943  22.261  0.00  0.00    -0.082 A 
ATOM     12  H2  VH2 d   1      47.847  -1.991  24.218  0.00  0.00     0.083 H 
ATOM     13  CAN VH2 d   1      47.988  -4.153  21.546  0.00  0.00    -0.072 A 
ATOM     14  H3  VH2 d   1      48.030  -2.006  21.719  0.00  0.00     0.083 H 
ATOM     15  H4  VH2 d   1      48.103  -4.125  20.468  0.00  0.00     0.084 H 
ATOM     16  CAO VH2 d   1      47.866  -6.599  21.459  0.00  0.00    -0.072 A 
ATOM     17  CAH VH2 d   1      47.805  -7.839  22.092  0.00  0.00    -0.081 A 
ATOM     18  H5  VH2 d   1      47.919  -6.560  20.377  0.00  0.00     0.084 H 
ATOM     19  CAK VH2 d   1      47.713  -7.871  23.480  0.00  0.00    -0.059 A 
ATOM     20  H6  VH2 d   1      47.829  -8.757  21.516  0.00  0.00     0.083 H 
ATOM     21  H7  VH2 d   1      47.654  -8.826  23.990  0.00  0.00     0.085 H 
ENDBRANCH   2   5
ENDBRANCH   1   2
BRANCH   1  22
ATOM     22  CAV VH2 d   1      50.128  -7.311  26.568  0.00  0.00     0.186 A 
ATOM     23  SAS VH2 d   1      50.048  -9.022  26.135  0.00  0.00    -0.046 SA
ATOM     24  CAY VH2 d   1      51.792  -9.154  26.377  0.00  0.00     0.077 A 
ATOM     25  CAX VH2 d   1      52.255  -7.934  26.758  0.00  0.00     0.264 A 
ATOM     26  NAQ VH2 d   1      51.378  -6.929  26.867  0.00  0.00    -0.300 N 
ATOM     27  OAA VH2 d   1      53.443  -7.707  26.992  0.00  0.00    -0.267 OA
ATOM     28  H8  VH2 d   1      51.627  -6.000  27.140  0.00  0.00     0.171 HD
BRANCH  24  29
ATOM     29  CAE VH2 d   1      52.600 -10.252  26.251  0.00  0.00    -0.051 C 
ATOM     30  H9  VH2 d   1      53.670 -10.116  26.401  0.00  0.00     0.087 H 
BRANCH  29  31
ATOM     31  CAU VH2 d   1      52.141 -11.542  25.942  0.00  0.00    -0.035 A 
ATOM     32  CAL VH2 d   1      50.895 -11.994  26.375  0.00  0.00    -0.072 A 
ATOM     33  CAI VH2 d   1      50.479 -13.268  26.078  0.00  0.00    -0.065 A 
ATOM     34  H10 VH2 d   1      50.252 -11.336  26.949  0.00  0.00     0.084 H 
ATOM     35  CAT VH2 d   1      51.279 -14.080  25.353  0.00  0.00     0.011 A 
ATOM     36  H11 VH2 d   1      49.514 -13.621  26.423  0.00  0.00     0.085 H 
ATOM     37 BR   VH2 d   1      50.694 -15.916  24.886  0.00  0.00    -0.051 Br
ATOM     38  CAJ VH2 d   1      52.554 -13.708  24.928  0.00  0.00    -0.065 A 
ATOM     39  CAM VH2 d   1      52.965 -12.405  25.228  0.00  0.00    -0.072 A 
ATOM     40  H12 VH2 d   1      53.196 -14.396  24.390  0.00  0.00     0.085 H 
ATOM     41  H13 VH2 d   1      53.940 -12.063  24.899  0.00  0.00     0.084 H 
ENDBRANCH  29  31
ENDBRANCH  24  29
ENDBRANCH   1  22
TORSDOF 5
