REMARK  11 active torsions:
REMARK  status: ('A' for Active; 'I' for Inactive)
REMARK    1  A    between atoms: C2_2  and  O2_7 
REMARK    2  A    between atoms: C3_3  and  O3_8 
REMARK    3  A    between atoms: C4_4  and  O4_9 
REMARK    4  A    between atoms: O4_9  and  C1B_11 
REMARK    5  A    between atoms: C2B_12  and  O2B_16 
REMARK    6  A    between atoms: C3B_13  and  O3B_17 
REMARK    7  A    between atoms: C4B_14  and  O4B_18 
REMARK    8  A    between atoms: O4B_18  and  C1B_20 
REMARK    9  A    between atoms: C2B_21  and  O2B_25 
REMARK   10  A    between atoms: C3B_22  and  O3B_26 
REMARK   11  A    between atoms: C4B_23  and  O4B_27 
ROOT
ATOM      1  C1B NON d   1      -0.433  21.334  24.136  0.00  0.00     0.158 C 
ATOM      2  C2B NON d   1      -0.758  20.040  24.888  0.00  0.00     0.110 C 
ATOM      3  C3B NON d   1      -0.013  20.136  26.239  0.00  0.00     0.092 C 
ATOM      4  C4B NON d   1       1.453  20.257  25.890  0.00  0.00     0.089 C 
ATOM      5  C5B NON d   1       1.692  21.496  25.005  0.00  0.00     0.049 C 
ATOM      6  O5B NON d   1       0.919  21.334  23.809  0.00  0.00    -0.356 OA
ATOM      7  H8  NON d   1      -0.760  22.235  24.676  0.00  0.00     0.133 H 
ATOM      8  H9  NON d   1      -0.458  19.147  24.320  0.00  0.00     0.094 H 
ATOM      9  H10 NON d   1      -0.360  20.970  26.866  0.00  0.00     0.091 H 
ATOM     10  H11 NON d   1       1.805  19.352  25.373  0.00  0.00     0.090 H 
ATOM     11  H12 NON d   1       2.760  21.576  24.753  0.00  0.00     0.078 H 
ATOM     12  H13 NON d   1       1.372  22.404  25.537  0.00  0.00     0.078 H 
ENDROOT
BRANCH   4  13
ATOM     13  O4B NON d   1       2.136  20.433  27.136  0.00  0.00    -0.348 OA
BRANCH  13  14
ATOM     14  C1B NON d   1       3.446  19.966  27.243  0.00  0.00     0.158 C 
ATOM     15  C2B NON d   1       4.151  20.775  28.327  0.00  0.00     0.110 C 
ATOM     16  C3B NON d   1       5.557  20.191  28.508  0.00  0.00     0.091 C 
ATOM     17  H17 NON d   1       3.604  20.671  29.276  0.00  0.00     0.094 H 
ATOM     18  C4B NON d   1       5.533  18.652  28.690  0.00  0.00     0.083 C 
ATOM     19  H18 NON d   1       6.160  20.420  27.617  0.00  0.00     0.091 H 
ATOM     20  C5B NON d   1       4.617  17.940  27.653  0.00  0.00     0.049 C 
ATOM     21  H19 NON d   1       5.125  18.452  29.692  0.00  0.00     0.090 H 
ATOM     22  O5B NON d   1       3.358  18.599  27.578  0.00  0.00    -0.356 OA
ATOM     23  H20 NON d   1       4.463  16.895  27.961  0.00  0.00     0.078 H 
ATOM     24  H21 NON d   1       5.099  17.964  26.665  0.00  0.00     0.078 H 
ATOM     25  H16 NON d   1       3.980  20.084  26.289  0.00  0.00     0.133 H 
BRANCH  15  26
ATOM     26  O2B NON d   1       4.150  22.140  27.962  0.00  0.00    -0.388 OA
ATOM     27  H22 NON d   1       3.254  22.440  27.866  0.00  0.00     0.210 HD
ENDBRANCH  15  26
BRANCH  16  28
ATOM     28  O3B NON d   1       6.132  20.857  29.654  0.00  0.00    -0.390 OA
ATOM     29  H23 NON d   1       7.025  20.557  29.779  0.00  0.00     0.210 HD
ENDBRANCH  16  28
BRANCH  18  30
ATOM     30  O4B NON d   1       6.840  18.074  28.627  0.00  0.00    -0.391 OA
ATOM     31  H24 NON d   1       7.406  18.504  29.258  0.00  0.00     0.210 HD
ENDBRANCH  18  30
ENDBRANCH  13  14
ENDBRANCH   4  13
BRANCH   3  32
ATOM     32  O3B NON d   1      -0.242  18.850  26.853  0.00  0.00    -0.390 OA
ATOM     33  H15 NON d   1      -1.162  18.766  27.076  0.00  0.00     0.210 HD
ENDBRANCH   3  32
BRANCH   2  34
ATOM     34  O2B NON d   1      -2.162  20.050  25.145  0.00  0.00    -0.388 OA
ATOM     35  H14 NON d   1      -2.388  19.308  25.694  0.00  0.00     0.210 HD
ENDBRANCH   2  34
BRANCH   1  36
ATOM     36  O4  NON d   1      -0.955  21.192  22.968  0.00  0.00    -0.348 OA
BRANCH  36  37
ATOM     37  C4  NON d   1      -1.859  22.122  22.416  0.00  0.00     0.089 C 
ATOM     38  C3  NON d   1      -1.239  23.475  22.025  0.00  0.00     0.092 C 
ATOM     39  C2  NON d   1      -2.330  24.464  21.590  0.00  0.00     0.125 C 
ATOM     40  H2  NON d   1      -0.548  23.304  21.186  0.00  0.00     0.091 H 
ATOM     41  C1  NON d   1      -3.427  23.857  20.684  0.00  0.00     0.288 C 
ATOM     42  H1  NON d   1      -2.864  24.736  22.513  0.00  0.00     0.096 H 
ATOM     43  O1  NON d   1      -3.747  24.593  19.546  0.00  0.00    -0.188 OA
ATOM     44  O5  NON d   1      -3.376  22.481  20.485  0.00  0.00    -0.344 OA
ATOM     45  C5  NON d   1      -2.729  21.597  21.275  0.00  0.00     0.050 C 
ATOM     46  H4  NON d   1      -3.494  20.947  21.725  0.00  0.00     0.078 H 
ATOM     47  H5  NON d   1      -2.077  20.998  20.622  0.00  0.00     0.078 H 
ATOM     48  H3  NON d   1      -2.557  22.345  23.236  0.00  0.00     0.090 H 
BRANCH  38  49
ATOM     49  O3  NON d   1      -0.544  24.071  23.059  0.00  0.00    -0.390 OA
ATOM     50  H7  NON d   1      -0.185  24.899  22.762  0.00  0.00     0.210 HD
ENDBRANCH  38  49
BRANCH  39  51
ATOM     51  O2  NON d   1      -1.752  25.633  21.154  0.00  0.00    -0.387 OA
ATOM     52  H6  NON d   1      -1.243  26.016  21.859  0.00  0.00     0.210 HD
ENDBRANCH  39  51
ENDBRANCH  36  37
ENDBRANCH   1  36
TORSDOF 11
