REMARK  30 active torsions:
REMARK  status: ('A' for Active; 'I' for Inactive)
REMARK    1  A    between atoms: N_1  and  CA_2 
REMARK    2  A    between atoms: CA_2  and  C_3 
REMARK    3  A    between atoms: CA_2  and  CB_5 
REMARK       I    between atoms: C_3  and  N_13 
REMARK    4  A    between atoms: CB_5  and  CG_6 
REMARK    5  A    between atoms: CZ_11  and  OH_12 
REMARK    6  A    between atoms: N_13  and  CA_14 
REMARK    7  A    between atoms: CA_14  and  C_15 
REMARK    8  A    between atoms: CA_14  and  CB_17 
REMARK       I    between atoms: C_15  and  N_21 
REMARK    9  A    between atoms: CB_17  and  CG_18 
REMARK   10  A    between atoms: CG_18  and  CD1_19 
REMARK   11  A    between atoms: CG_18  and  CD2_20 
REMARK   12  A    between atoms: N_21  and  CA_22 
REMARK   13  A    between atoms: CA_22  and  C_23 
REMARK   14  A    between atoms: CA_22  and  CB_25 
REMARK       I    between atoms: C_23  and  N_28 
REMARK   15  A    between atoms: CB_25  and  CG1_26 
REMARK   16  A    between atoms: CB_25  and  CG2_27 
REMARK   17  A    between atoms: N_28  and  CA_29 
REMARK   18  A    between atoms: CA_29  and  C_30 
REMARK   19  A    between atoms: CA_29  and  CB_32 
REMARK       I    between atoms: C_30  and  N_35 
REMARK   20  A    between atoms: CB_32  and  OG1_33 
REMARK   21  A    between atoms: CB_32  and  CG2_34 
REMARK   22  A    between atoms: N_35  and  CA_36 
REMARK   23  A    between atoms: CA_36  and  C_37 
REMARK   24  A    between atoms: CA_36  and  CB_39 
REMARK       I    between atoms: C_37  and  N_41 
REMARK   25  A    between atoms: CB_39  and  OG_40 
REMARK   26  A    between atoms: N_41  and  CA_42 
REMARK   27  A    between atoms: CA_42  and  C_43 
REMARK   28  A    between atoms: CA_42  and  CB_45 
REMARK   29  A    between atoms: CB_45  and  CG1_46 
REMARK   30  A    between atoms: CB_45  and  CG2_47 
ROOT
ATOM      1  CA  VAL d   1      -2.849 -14.115  20.947  0.00  0.00     0.092 C 
ATOM      2  H   VAL d   1      -2.752 -13.031  20.889  0.00  0.00     0.088 H 
ENDROOT
BRANCH   1   3
ATOM      3  N   VAL d   1      -2.961 -14.466  22.361  0.00  0.00    -0.346 N 
ATOM      4  C   LEU d   1      -2.752 -13.567  23.317  0.00  0.00     0.241 C 
ATOM      5  O   LEU d   1      -2.332 -12.427  23.092  0.00  0.00    -0.271 OA
ATOM      6  H   VAL d   1      -3.205 -15.422  22.620  0.00  0.00     0.163 HD
BRANCH   4   7
ATOM      7  CA  LEU d   1      -3.034 -14.019  24.738  0.00  0.00     0.089 C 
ATOM      8  H   LEU d   1      -3.229 -15.091  24.744  0.00  0.00     0.087 H 
BRANCH   7   9
ATOM      9  N   LEU d   1      -1.874 -13.782  25.601  0.00  0.00    -0.346 N 
ATOM     10  C   TYR d   1      -1.034 -14.764  25.941  0.00  0.00     0.249 C 
ATOM     11  O   TYR d   1      -1.200 -15.939  25.615  0.00  0.00    -0.271 OA
ATOM     12  H   LEU d   1      -1.703 -12.840  25.953  0.00  0.00     0.163 HD
BRANCH  10  13
ATOM     13  CA  TYR d   1       0.179 -14.386  26.780  0.00  0.00     0.179 C 
ATOM     14  H   TYR d   1       0.879 -15.219  26.714  0.00  0.00     0.099 H 
BRANCH  13  15
ATOM     15  N   TYR d   1       0.892 -13.224  26.265  0.00  0.00    -0.066 N 
ATOM     16  H   TYR d   1       1.140 -13.384  25.289  0.00  0.00     0.275 HD
ATOM     17  H   TYR d   1       0.293 -12.401  26.335  0.00  0.00     0.275 HD
ATOM     18  H   TYR d   1       1.740 -13.077  26.813  0.00  0.00     0.275 HD
ENDBRANCH  13  15
BRANCH  13  19
ATOM     19  CB  TYR d   1      -0.216 -14.196  28.244  0.00  0.00    -0.006 C 
ATOM     20  H   TYR d   1      -1.182 -14.677  28.394  0.00  0.00     0.043 H 
ATOM     21  H   TYR d   1      -0.241 -13.125  28.447  0.00  0.00     0.043 H 
BRANCH  19  22
ATOM     22  CG  TYR d   1       0.768 -14.825  29.202  0.00  0.00    -0.056 A 
ATOM     23  CD1 TYR d   1       0.761 -16.198  29.434  0.00  0.00    -0.074 A 
ATOM     24  CE1 TYR d   1       1.665 -16.783  30.310  0.00  0.00    -0.051 A 
ATOM     25  H   TYR d   1       0.033 -16.824  28.919  0.00  0.00     0.084 H 
ATOM     26  CZ  TYR d   1       2.594 -15.994  30.964  0.00  0.00     0.065 A 
ATOM     27  H   TYR d   1       1.643 -17.859  30.482  0.00  0.00     0.087 H 
ATOM     28  CE2 TYR d   1       2.623 -14.629  30.749  0.00  0.00    -0.051 A 
ATOM     29  CD2 TYR d   1       1.711 -14.051  29.869  0.00  0.00    -0.074 A 
ATOM     30  H   TYR d   1       3.355 -14.008  31.265  0.00  0.00     0.087 H 
ATOM     31  H   TYR d   1       1.737 -12.974  29.701  0.00  0.00     0.084 H 
BRANCH  26  32
ATOM     32  OH  TYR d   1       3.493 -16.571  31.836  0.00  0.00    -0.361 OA
ATOM     33  H   TYR d   1       3.340 -17.518  31.871  0.00  0.00     0.217 HD
ENDBRANCH  26  32
ENDBRANCH  19  22
ENDBRANCH  13  19
ENDBRANCH  10  13
ENDBRANCH   7   9
BRANCH   7  34
ATOM     34  CB  LEU d   1      -4.269 -13.278  25.263  0.00  0.00    -0.035 C 
ATOM     35  H   LEU d   1      -5.078 -13.481  24.562  0.00  0.00     0.037 H 
ATOM     36  H   LEU d   1      -3.990 -12.229  25.355  0.00  0.00     0.037 H 
BRANCH  34  37
ATOM     37  CG  LEU d   1      -4.756 -13.725  26.637  0.00  0.00    -0.059 C 
ATOM     38  H   LEU d   1      -3.978 -13.506  27.369  0.00  0.00     0.038 H 
BRANCH  37  39
ATOM     39  CD1 LEU d   1      -6.008 -12.945  27.072  0.00  0.00    -0.073 C 
ATOM     40  H   LEU d   1      -5.774 -11.881  27.117  0.00  0.00     0.028 H 
ATOM     41  H   LEU d   1      -6.808 -13.112  26.350  0.00  0.00     0.028 H 
ATOM     42  H   LEU d   1      -6.326 -13.290  28.056  0.00  0.00     0.028 H 
ENDBRANCH  37  39
BRANCH  37  43
ATOM     43  CD2 LEU d   1      -5.008 -15.232  26.633  0.00  0.00    -0.073 C 
ATOM     44  H   LEU d   1      -5.766 -15.470  25.887  0.00  0.00     0.028 H 
ATOM     45  H   LEU d   1      -4.082 -15.753  26.392  0.00  0.00     0.028 H 
ATOM     46  H   LEU d   1      -5.356 -15.544  27.618  0.00  0.00     0.028 H 
ENDBRANCH  37  43
ENDBRANCH  34  37
ENDBRANCH   7  34
ENDBRANCH   4   7
ENDBRANCH   1   3
BRANCH   1  47
ATOM     47  C   VAL d   1      -4.102 -14.560  20.189  0.00  0.00     0.241 C 
ATOM     48  O   VAL d   1      -4.611 -15.652  20.414  0.00  0.00    -0.271 OA
ATOM     49  N   THR d   1      -4.592 -13.724  19.281  0.00  0.00    -0.344 N 
ATOM     50  H   THR d   1      -4.082 -12.869  19.058  0.00  0.00     0.163 HD
BRANCH  49  51
ATOM     51  CA  THR d   1      -5.850 -14.010  18.597  0.00  0.00     0.113 C 
ATOM     52  H   THR d   1      -6.071 -15.057  18.804  0.00  0.00     0.091 H 
BRANCH  51  53
ATOM     53  C   THR d   1      -5.746 -13.820  17.090  0.00  0.00     0.243 C 
ATOM     54  O   THR d   1      -5.325 -12.758  16.624  0.00  0.00    -0.271 OA
ATOM     55  N   SER d   1      -6.122 -14.857  16.336  0.00  0.00    -0.344 N 
ATOM     56  H   SER d   1      -6.351 -15.743  16.786  0.00  0.00     0.163 HD
BRANCH  55  57
ATOM     57  CA  SER d   1      -6.213 -14.752  14.886  0.00  0.00     0.109 C 
ATOM     58  H   SER d   1      -5.492 -14.007  14.550  0.00  0.00     0.090 H 
BRANCH  57  59
ATOM     59  C   SER d   1      -7.611 -14.315  14.494  0.00  0.00     0.243 C 
ATOM     60  O   SER d   1      -8.593 -14.759  15.077  0.00  0.00    -0.271 OA
ATOM     61  N   VAL d   1      -7.685 -13.431  13.506  0.00  0.00    -0.344 N 
ATOM     62  H   VAL d   1      -6.824 -13.130  13.049  0.00  0.00     0.163 HD
BRANCH  61  63
ATOM     63  CA  VAL d   1      -8.950 -12.879  13.055  0.00  0.00     0.099 C 
ATOM     64  H   VAL d   1      -9.749 -13.521  13.427  0.00  0.00     0.090 H 
BRANCH  63  65
ATOM     65  C   VAL d   1      -9.014 -12.854  11.528  0.00  0.00     0.197 C 
ATOM     66  O   VAL d   1     -10.038 -12.500  10.943  0.00  0.00    -0.646 OA
ATOM     67  OXT VAL d   1      -8.034 -13.195  10.849  0.00  0.00    -0.646 OA
ENDBRANCH  63  65
BRANCH  63  68
ATOM     68  CB  VAL d   1      -9.161 -11.455  13.621  0.00  0.00    -0.032 C 
ATOM     69  H   VAL d   1     -10.099 -11.067  13.223  0.00  0.00     0.042 H 
BRANCH  68  70
ATOM     70  CG1 VAL d   1      -9.251 -11.501  15.135  0.00  0.00    -0.071 C 
ATOM     71  H   VAL d   1     -10.091 -12.130  15.429  0.00  0.00     0.028 H 
ATOM     72  H   VAL d   1      -8.327 -11.913  15.540  0.00  0.00     0.028 H 
ATOM     73  H   VAL d   1      -9.399 -10.492  15.520  0.00  0.00     0.028 H 
ENDBRANCH  68  70
BRANCH  68  74
ATOM     74  CG2 VAL d   1      -8.039 -10.514  13.181  0.00  0.00    -0.071 C 
ATOM     75  H   VAL d   1      -7.084 -10.895  13.543  0.00  0.00     0.028 H 
ATOM     76  H   VAL d   1      -8.020 -10.457  12.093  0.00  0.00     0.028 H 
ATOM     77  H   VAL d   1      -8.216  -9.521  13.595  0.00  0.00     0.028 H 
ENDBRANCH  68  74
ENDBRANCH  63  68
ENDBRANCH  61  63
ENDBRANCH  57  59
BRANCH  57  78
ATOM     78  CB  SER d   1      -5.859 -16.080  14.204  0.00  0.00     0.044 C 
ATOM     79  H   SER d   1      -4.877 -16.399  14.552  0.00  0.00     0.077 H 
ATOM     80  H   SER d   1      -5.864 -15.930  13.124  0.00  0.00     0.077 H 
BRANCH  78  81
ATOM     81  OG  SER d   1      -6.801 -17.086  14.525  0.00  0.00    -0.398 OA
ATOM     82  H   SER d   1      -7.673 -16.812  14.230  0.00  0.00     0.209 HD
ENDBRANCH  78  81
ENDBRANCH  57  78
ENDBRANCH  55  57
ENDBRANCH  51  53
BRANCH  51  83
ATOM     83  CB  THR d   1      -6.986 -13.122  19.124  0.00  0.00     0.060 C 
ATOM     84  H   THR d   1      -6.752 -12.083  18.893  0.00  0.00     0.086 H 
BRANCH  83  85
ATOM     85  OG1 THR d   1      -7.108 -13.308  20.539  0.00  0.00    -0.393 OA
ATOM     86  H   THR d   1      -6.283 -13.065  20.965  0.00  0.00     0.210 HD
ENDBRANCH  83  85
BRANCH  83  87
ATOM     87  CG2 THR d   1      -8.323 -13.490  18.456  0.00  0.00    -0.050 C 
ATOM     88  H   THR d   1      -8.239 -13.351  17.378  0.00  0.00     0.031 H 
ATOM     89  H   THR d   1      -8.561 -14.531  18.672  0.00  0.00     0.031 H 
ATOM     90  H   THR d   1      -9.112 -12.847  18.846  0.00  0.00     0.031 H 
ENDBRANCH  83  87
ENDBRANCH  51  83
ENDBRANCH  49  51
ENDBRANCH   1  47
BRANCH   1  91
ATOM     91  CB  VAL d   1      -1.595 -14.738  20.294  0.00  0.00    -0.033 C 
ATOM     92  H   VAL d   1      -1.649 -15.822  20.394  0.00  0.00     0.042 H 
BRANCH  91  93
ATOM     93  CG1 VAL d   1      -1.545 -14.388  18.815  0.00  0.00    -0.071 C 
ATOM     94  H   VAL d   1      -2.436 -14.776  18.321  0.00  0.00     0.028 H 
ATOM     95  H   VAL d   1      -1.507 -13.305  18.700  0.00  0.00     0.028 H 
ATOM     96  H   VAL d   1      -0.656 -14.833  18.367  0.00  0.00     0.028 H 
ENDBRANCH  91  93
BRANCH  91  97
ATOM     97  CG2 VAL d   1      -0.334 -14.245  20.998  0.00  0.00    -0.071 C 
ATOM     98  H   VAL d   1      -0.276 -13.159  20.919  0.00  0.00     0.028 H 
ATOM     99  H   VAL d   1      -0.370 -14.533  22.049  0.00  0.00     0.028 H 
ATOM    100  H   VAL d   1       0.542 -14.692  20.527  0.00  0.00     0.028 H 
ENDBRANCH  91  97
ENDBRANCH   1  91
TORSDOF 30
