REMARK  23 active torsions:
REMARK  status: ('A' for Active; 'I' for Inactive)
REMARK    1  A    between atoms: P_2  and  O5'_5 
REMARK    2  A    between atoms: O5'_5  and  C5'_6 
REMARK    3  A    between atoms: C5'_6  and  C4'_7 
REMARK    4  A    between atoms: C1'_9  and  N9_14 
REMARK    5  A    between atoms: C2'_10  and  O2'_11 
REMARK    6  A    between atoms: O2'_11  and  P1_24 
REMARK    7  A    between atoms: C3'_12  and  O3'_13 
REMARK    8  A    between atoms: C6_18  and  N6_19 
REMARK    9  A    between atoms: P1_24  and  OF'_27 
REMARK   10  A    between atoms: OF'_27  and  CF'_28 
REMARK   11  A    between atoms: CF'_28  and  CE'_29 
REMARK   12  A    between atoms: CB'_31  and  N19_32 
REMARK   13  A    between atoms: C16_40  and  N16_41 
REMARK   14  A    between atoms: CC'_42  and  OC'_43 
REMARK   15  A    between atoms: OC'_43  and  P2_46 
REMARK   16  A    between atoms: CD'_44  and  OD'_45 
REMARK   17  A    between atoms: P2_46  and  OP'_48 
REMARK   18  A    between atoms: OP'_48  and  CP'_49 
REMARK   19  A    between atoms: CP'_49  and  CO'_50 
REMARK   20  A    between atoms: CL'_52  and  N29_53 
REMARK   21  A    between atoms: C26_61  and  N26_62 
REMARK   22  A    between atoms: CM'_63  and  OM'_64 
REMARK   23  A    between atoms: CN'_65  and  ON'_66 
ROOT
ATOM      1  CE' 25A d   1      16.645 -26.350  26.776  0.00  0.00     0.089 C 
ATOM      2  OE' 25A d   1      16.335 -25.755  28.130  0.00  0.00    -0.353 OA
ATOM      3  CB' 25A d   1      17.542 -26.068  28.975  0.00  0.00     0.140 C 
ATOM      4  CC' 25A d   1      18.689 -26.289  27.970  0.00  0.00     0.117 C 
ATOM      5  CD' 25A d   1      18.052 -26.943  26.807  0.00  0.00     0.092 C 
ATOM      6  H   25A d   1      16.623 -25.515  26.076  0.00  0.00     0.090 H 
ATOM      7  H   25A d   1      18.159 -25.451  29.628  0.00  0.00     0.123 H 
ATOM      8  H   25A d   1      19.444 -26.908  28.456  0.00  0.00     0.095 H 
ATOM      9  H   25A d   1      17.969 -28.026  26.898  0.00  0.00     0.091 H 
ENDROOT
BRANCH   1  10
ATOM     10  CF' 25A d   1      15.582 -27.145  26.049  0.00  0.00     0.058 C 
ATOM     11  H   25A d   1      14.606 -26.744  26.324  0.00  0.00     0.079 H 
ATOM     12  H   25A d   1      15.766 -27.063  24.978  0.00  0.00     0.079 H 
BRANCH  10  13
ATOM     13  OF' 25A d   1      15.616 -28.509  26.401  0.00  0.00    -0.287 OA
BRANCH  13  14
ATOM     14  P1  25A d   1      14.455 -29.466  25.939  0.00  0.00     0.408 P 
ATOM     15  OBP 25A d   1      14.554 -30.704  26.928  0.00  0.00    -0.624 OA
ATOM     16  OCP 25A d   1      14.668 -29.791  24.478  0.00  0.00    -0.624 OA
BRANCH  14  17
ATOM     17  O2' 25A d   1      13.044 -28.769  26.107  0.00  0.00    -0.277 OA
BRANCH  17  18
ATOM     18  C2' 25A d   1      12.386 -29.034  27.322  0.00  0.00     0.120 C 
ATOM     19  C1' 25A d   1      12.557 -28.115  28.512  0.00  0.00     0.140 C 
ATOM     20  O4' 25A d   1      11.517 -27.072  28.194  0.00  0.00    -0.353 OA
ATOM     21  H   25A d   1      13.602 -28.424  28.523  0.00  0.00     0.123 H 
ATOM     22  C4' 25A d   1      10.475 -27.768  27.399  0.00  0.00     0.089 C 
ATOM     23  C3' 25A d   1      10.931 -29.214  27.293  0.00  0.00     0.092 C 
ATOM     24  H   25A d   1      10.420 -27.302  26.415  0.00  0.00     0.090 H 
ATOM     25  H   25A d   1      10.548 -29.847  28.094  0.00  0.00     0.091 H 
ATOM     26  H   25A d   1      12.950 -29.957  27.455  0.00  0.00     0.095 H 
BRANCH  19  27
ATOM     27  N9  25A d   1      12.584 -27.903  29.939  0.00  0.00    -0.296 N 
ATOM     28  C8  25A d   1      12.070 -28.770  30.900  0.00  0.00     0.047 A 
ATOM     29  N7  25A d   1      12.178 -28.103  32.252  0.00  0.00    -0.346 N 
ATOM     30  H   25A d   1      11.659 -29.762  30.709  0.00  0.00     0.140 H 
ATOM     31  C5  25A d   1      12.752 -26.812  32.052  0.00  0.00     0.126 A 
ATOM     32  H   25A d   1      11.892 -28.503  33.146  0.00  0.00     0.167 HD
ATOM     33  C6  25A d   1      13.075 -25.759  32.963  0.00  0.00     0.153 A 
ATOM     34  C4  25A d   1      13.015 -26.647  30.633  0.00  0.00     0.165 A 
ATOM     35  N1  25A d   1      13.669 -24.532  32.450  0.00  0.00    -0.222 NA
ATOM     36  C2  25A d   1      13.920 -24.366  31.077  0.00  0.00     0.091 A 
ATOM     37  N3  25A d   1      13.595 -25.437  30.140  0.00  0.00    -0.222 NA
ATOM     38  H   25A d   1      14.358 -23.437  30.712  0.00  0.00     0.146 H 
BRANCH  33  39
ATOM     39  N6  25A d   1      12.799 -25.868  34.375  0.00  0.00    -0.382 N 
ATOM     40  H   25A d   1      12.363 -26.712  34.746  0.00  0.00     0.157 HD
ATOM     41  H   25A d   1      13.040 -25.101  35.002  0.00  0.00     0.157 HD
ENDBRANCH  33  39
ENDBRANCH  19  27
BRANCH  22  42
ATOM     42  C5' 25A d   1       9.008 -27.517  27.710  0.00  0.00     0.059 C 
ATOM     43  H   25A d   1       8.829 -26.443  27.670  0.00  0.00     0.079 H 
ATOM     44  H   25A d   1       8.406 -28.056  26.978  0.00  0.00     0.079 H 
BRANCH  42  45
ATOM     45  O5' 25A d   1       8.668 -27.964  28.960  0.00  0.00    -0.280 OA
BRANCH  45  46
ATOM     46  P   25A d   1       7.210 -28.067  29.396  0.00  0.00     0.422 P 
ATOM     47  O1P 25A d   1       6.571 -29.066  28.481  0.00  0.00    -0.617 OA
ATOM     48  O2P 25A d   1       6.534 -26.649  29.280  0.00  0.00    -0.617 OA
ATOM     49  O3P 25A d   1       7.140 -28.595  30.861  0.00  0.00    -0.617 OA
ENDBRANCH  45  46
ENDBRANCH  42  45
ENDBRANCH  22  42
BRANCH  23  50
ATOM     50  O3' 25A d   1      10.379 -30.030  26.331  0.00  0.00    -0.390 OA
ATOM     51  H   25A d   1       9.425 -30.049  26.438  0.00  0.00     0.210 HD
ENDBRANCH  23  50
ENDBRANCH  17  18
ENDBRANCH  14  17
ENDBRANCH  13  14
ENDBRANCH  10  13
ENDBRANCH   1  10
BRANCH   5  52
ATOM     52  OD' 25A d   1      18.818 -26.987  25.649  0.00  0.00    -0.390 OA
ATOM     53  H   25A d   1      19.031 -26.093  25.373  0.00  0.00     0.210 HD
ENDBRANCH   5  52
BRANCH   3  54
ATOM     54  N19 25A d   1      16.854 -26.934  29.933  0.00  0.00    -0.296 N 
ATOM     55  C18 25A d   1      16.268 -28.181  29.618  0.00  0.00     0.047 A 
ATOM     56  N17 25A d   1      15.745 -28.741  30.853  0.00  0.00    -0.349 N 
ATOM     57  H   25A d   1      16.218 -28.639  28.630  0.00  0.00     0.140 H 
ATOM     58  C15 25A d   1      16.039 -27.776  31.971  0.00  0.00     0.107 A 
ATOM     59  H   25A d   1      15.262 -29.634  30.946  0.00  0.00     0.166 HD
ATOM     60  C14 25A d   1      16.698 -26.686  31.430  0.00  0.00     0.161 A 
ATOM     61  C16 25A d   1      15.774 -27.816  33.303  0.00  0.00     0.208 A 
ATOM     62  N13 25A d   1      17.127 -25.564  32.288  0.00  0.00    -0.224 NA
ATOM     63  C12 25A d   1      16.865 -25.602  33.626  0.00  0.00     0.064 A 
ATOM     64  N11 25A d   1      16.207 -26.684  34.169  0.00  0.00    -0.352 N 
ATOM     65  H   25A d   1      17.176 -24.776  34.266  0.00  0.00     0.143 H 
ATOM     66  H   25A d   1      16.015 -26.710  35.170  0.00  0.00     0.162 HD
ATOM     67  H   25A d   1      15.012 -27.854  34.082  0.00  0.00     0.128 H 
BRANCH  61  68
ATOM     68  N16 25A d   1      15.090 -28.950  33.862  0.00  0.00    -0.053 N 
ATOM     69  H   25A d   1      14.975 -28.815  34.866  0.00  0.00     0.277 HD
ATOM     70  H   25A d   1      14.174 -29.043  33.423  0.00  0.00     0.277 HD
ATOM     71  H   25A d   1      15.637 -29.794  33.692  0.00  0.00     0.277 HD
ENDBRANCH  61  68
ENDBRANCH   3  54
BRANCH   4  72
ATOM     72  OC' 25A d   1      19.576 -25.243  27.667  0.00  0.00    -0.303 OA
BRANCH  72  73
ATOM     73  P2  25A d   1      20.757 -25.057  28.666  0.00  0.00     0.365 P 
ATOM     74  OMP 25A d   1      20.322 -25.458  30.060  0.00  0.00    -0.145 OA
BRANCH  73  75
ATOM     75  OP' 25A d   1      21.927 -26.022  28.185  0.00  0.00    -0.313 OA
BRANCH  75  76
ATOM     76  CP' 25A d   1      21.947 -26.461  26.845  0.00  0.00     0.055 C 
ATOM     77  H   25A d   1      21.623 -25.628  26.221  0.00  0.00     0.079 H 
ATOM     78  H   25A d   1      21.296 -27.332  26.774  0.00  0.00     0.079 H 
BRANCH  76  79
ATOM     79  CO' 25A d   1      23.354 -26.888  26.362  0.00  0.00     0.089 C 
ATOM     80  OO' 25A d   1      24.449 -25.998  26.648  0.00  0.00    -0.353 OA
ATOM     81  CL' 25A d   1      25.383 -26.689  27.591  0.00  0.00     0.139 C 
ATOM     82  CM' 25A d   1      24.999 -28.201  27.612  0.00  0.00     0.105 C 
ATOM     83  H   25A d   1      26.404 -26.567  27.230  0.00  0.00     0.122 H 
ATOM     84  CN' 25A d   1      23.849 -28.321  26.634  0.00  0.00     0.091 C 
ATOM     85  H   25A d   1      24.675 -28.511  28.605  0.00  0.00     0.093 H 
ATOM     86  H   25A d   1      23.066 -28.911  27.110  0.00  0.00     0.091 H 
ATOM     87  H   25A d   1      23.089 -26.832  25.306  0.00  0.00     0.090 H 
BRANCH  81  88
ATOM     88  N29 25A d   1      26.058 -26.011  28.721  0.00  0.00    -0.294 N 
ATOM     89  C28 25A d   1      27.216 -25.270  28.666  0.00  0.00     0.071 A 
ATOM     90  N27 25A d   1      27.507 -24.825  29.981  0.00  0.00    -0.236 NA
ATOM     91  H   25A d   1      27.804 -25.062  27.772  0.00  0.00     0.144 H 
ATOM     92  C25 25A d   1      26.533 -25.303  30.817  0.00  0.00     0.149 A 
ATOM     93  C24 25A d   1      25.621 -26.043  30.036  0.00  0.00     0.167 A 
ATOM     94  C26 25A d   1      26.313 -25.178  32.219  0.00  0.00     0.155 A 
ATOM     95  N23 25A d   1      24.507 -26.657  30.616  0.00  0.00    -0.222 NA
ATOM     96  C22 25A d   1      24.290 -26.521  32.043  0.00  0.00     0.091 A 
ATOM     97  N21 25A d   1      25.176 -25.795  32.818  0.00  0.00    -0.222 NA
ATOM     98  H   25A d   1      23.424 -26.993  32.507  0.00  0.00     0.146 H 
BRANCH  94  99
ATOM     99  N26 25A d   1      27.228 -24.430  33.039  0.00  0.00    -0.382 N 
ATOM    100  H   25A d   1      28.043 -23.984  32.617  0.00  0.00     0.157 HD
ATOM    101  H   25A d   1      27.062 -24.346  34.042  0.00  0.00     0.157 HD
ENDBRANCH  94  99
ENDBRANCH  81  88
BRANCH  82 102
ATOM    102  OM' 25A d   1      26.024 -29.148  27.587  0.00  0.00    -0.388 OA
ATOM    103  H   25A d   1      25.644 -30.029  27.604  0.00  0.00     0.210 HD
ENDBRANCH  82 102
BRANCH  84 104
ATOM    104  ON' 25A d   1      23.905 -29.229  25.572  0.00  0.00    -0.390 OA
ATOM    105  H   25A d   1      23.096 -29.170  25.059  0.00  0.00     0.210 HD
ENDBRANCH  84 104
ENDBRANCH  76  79
ENDBRANCH  75  76
ENDBRANCH  73  75
ENDBRANCH  72  73
ENDBRANCH   4  72
TORSDOF 23
