REMARK  18 active torsions:
REMARK  status: ('A' for Active; 'I' for Inactive)
REMARK    1  A    between atoms: C24_2  and  C23_5 
REMARK    2  A    between atoms: C19_10  and  O12_11 
REMARK    3  A    between atoms: O12_11  and  C1_12 
REMARK       I    between atoms: C1_12  and  N_14 
REMARK    4  A    between atoms: N_14  and  C2_15 
REMARK    5  A    between atoms: C2_15  and  C3_16 
REMARK    6  A    between atoms: C3_16  and  O7_17 
REMARK    7  A    between atoms: C3_16  and  C4_29 
REMARK    8  A    between atoms: O7_17  and  C12_18 
REMARK    9  A    between atoms: C12_18  and  C13_19 
REMARK   10  A    between atoms: C17_21  and  O11_22 
REMARK   11  A    between atoms: C16_23  and  O10_24 
REMARK   12  A    between atoms: C15_25  and  O9_26 
REMARK   13  A    between atoms: C4_29  and  O2_30 
REMARK   14  A    between atoms: O2_30  and  C5_31 
REMARK   15  A    between atoms: C5_31  and  C6_33 
REMARK   16  A    between atoms: C10_35  and  O6_36 
REMARK   17  A    between atoms: C9_37  and  O5_38 
REMARK   18  A    between atoms: C8_39  and  O4_40 
ROOT
ATOM      1  C3  96P d   1      37.432 -26.818 -88.093  0.00  0.00     0.084 C 
ATOM      2  H8  96P d   1      38.280 -26.133 -88.240  0.00  0.00     0.090 H 
ENDROOT
BRANCH   1   3
ATOM      3  C2  96P d   1      36.205 -25.936 -87.993  0.00  0.00     0.024 C 
ATOM      4  H6  96P d   1      35.803 -25.999 -86.971  0.00  0.00     0.068 H 
ATOM      5  H7  96P d   1      36.494 -24.897 -88.210  0.00  0.00     0.068 H 
BRANCH   3   6
ATOM      6  N   96P d   1      35.171 -26.344 -88.932  0.00  0.00    -0.334 N 
ATOM      7  C1  96P d   1      33.984 -25.720 -89.010  0.00  0.00     0.365 C 
ATOM      8  O1  96P d   1      33.650 -24.769 -88.337  0.00  0.00    -0.238 OA
ATOM      9  H5  96P d   1      35.350 -27.117 -89.541  0.00  0.00     0.164 HD
BRANCH   7  10
ATOM     10  O12 96P d   1      33.180 -26.301 -89.960  0.00  0.00    -0.262 OA
BRANCH  10  11
ATOM     11  C19 96P d   1      31.885 -25.779 -90.150  0.00  0.00     0.081 A 
ATOM     12  C20 96P d   1      30.821 -26.288 -89.421  0.00  0.00    -0.050 A 
ATOM     13  C21 96P d   1      29.549 -25.767 -89.631  0.00  0.00    -0.080 A 
ATOM     14  H3  96P d   1      30.979 -27.080 -88.698  0.00  0.00     0.087 H 
ATOM     15  C22 96P d   1      29.349 -24.751 -90.558  0.00  0.00    -0.068 A 
ATOM     16  H2  96P d   1      28.708 -26.156 -89.068  0.00  0.00     0.083 H 
ATOM     17  C23 96P d   1      30.416 -24.239 -91.289  0.00  0.00     0.050 A 
ATOM     18  H1  96P d   1      28.352 -24.354 -90.713  0.00  0.00     0.084 H 
ATOM     19  C25 96P d   1      31.687 -24.763 -91.075  0.00  0.00    -0.035 A 
ATOM     20  H4  96P d   1      32.530 -24.375 -91.635  0.00  0.00     0.089 H 
BRANCH  17  21
ATOM     21  C24 96P d   1      30.206 -23.157 -92.303  0.00  0.00     0.417 C 
ATOM     22  F3  96P d   1      31.221 -22.302 -92.371  0.00  0.00    -0.166 F 
ATOM     23  F1  96P d   1      29.132 -22.414 -92.061  0.00  0.00    -0.166 F 
ATOM     24  F2  96P d   1      30.049 -23.631 -93.530  0.00  0.00    -0.166 F 
ENDBRANCH  17  21
ENDBRANCH  10  11
ENDBRANCH   7  10
ENDBRANCH   3   6
ENDBRANCH   1   3
BRANCH   1  25
ATOM     25  O7  96P d   1      37.470 -27.757 -89.218  0.00  0.00    -0.308 OA
BRANCH  25  26
ATOM     26  C12 96P d   1      38.476 -27.642 -90.109  0.00  0.00     0.294 C 
ATOM     27  O8  96P d   1      39.405 -26.883 -89.973  0.00  0.00    -0.259 OA
BRANCH  26  28
ATOM     28  C13 96P d   1      38.286 -28.538 -91.288  0.00  0.00     0.045 A 
ATOM     29  C18 96P d   1      37.127 -29.295 -91.434  0.00  0.00    -0.032 A 
ATOM     30  C17 96P d   1      36.936 -30.069 -92.573  0.00  0.00     0.102 A 
ATOM     31  H9  96P d   1      36.371 -29.281 -90.657  0.00  0.00     0.089 H 
ATOM     32  C16 96P d   1      37.927 -30.123 -93.555  0.00  0.00     0.132 A 
ATOM     33  C15 96P d   1      39.066 -29.328 -93.430  0.00  0.00     0.102 A 
ATOM     34  C14 96P d   1      39.243 -28.538 -92.302  0.00  0.00    -0.032 A 
ATOM     35  H13 96P d   1      40.128 -27.919 -92.209  0.00  0.00     0.089 H 
BRANCH  30  36
ATOM     36  O11 96P d   1      35.810 -30.813 -92.718  0.00  0.00    -0.358 OA
ATOM     37  H10 96P d   1      35.842 -31.276 -93.547  0.00  0.00     0.217 HD
ENDBRANCH  30  36
BRANCH  32  38
ATOM     38  O10 96P d   1      37.751 -30.899 -94.659  0.00  0.00    -0.356 OA
ATOM     39  H11 96P d   1      38.512 -30.823 -95.222  0.00  0.00     0.218 HD
ENDBRANCH  32  38
BRANCH  33  40
ATOM     40  O9  96P d   1      40.026 -29.378 -94.386  0.00  0.00    -0.358 OA
ATOM     41  H12 96P d   1      40.731 -28.783 -94.157  0.00  0.00     0.217 HD
ENDBRANCH  33  40
ENDBRANCH  26  28
ENDBRANCH  25  26
ENDBRANCH   1  25
BRANCH   1  42
ATOM     42  C4  96P d   1      37.684 -27.561 -86.806  0.00  0.00     0.055 C 
ATOM     43  H14 96P d   1      37.309 -28.590 -86.910  0.00  0.00     0.079 H 
ATOM     44  H15 96P d   1      37.145 -27.055 -85.992  0.00  0.00     0.079 H 
BRANCH  42  45
ATOM     45  O2  96P d   1      39.088 -27.608 -86.476  0.00  0.00    -0.315 OA
BRANCH  45  46
ATOM     46  C5  96P d   1      39.467 -28.523 -85.571  0.00  0.00     0.293 C 
ATOM     47  O3  96P d   1      38.784 -29.465 -85.249  0.00  0.00    -0.259 OA
BRANCH  46  48
ATOM     48  C6  96P d   1      40.821 -28.243 -84.997  0.00  0.00     0.045 A 
ATOM     49  C11 96P d   1      41.350 -29.114 -84.051  0.00  0.00    -0.032 A 
ATOM     50  C10 96P d   1      42.588 -28.859 -83.469  0.00  0.00     0.102 A 
ATOM     51  H16 96P d   1      40.793 -29.999 -83.764  0.00  0.00     0.089 H 
ATOM     52  C9  96P d   1      43.312 -27.733 -83.856  0.00  0.00     0.132 A 
ATOM     53  C8  96P d   1      42.839 -26.923 -84.883  0.00  0.00     0.102 A 
ATOM     54  C7  96P d   1      41.578 -27.154 -85.428  0.00  0.00    -0.032 A 
ATOM     55  H20 96P d   1      41.185 -26.487 -86.187  0.00  0.00     0.089 H 
BRANCH  50  56
ATOM     56  O6  96P d   1      43.058 -29.618 -82.454  0.00  0.00    -0.358 OA
ATOM     57  H17 96P d   1      43.911 -29.296 -82.188  0.00  0.00     0.217 HD
ENDBRANCH  50  56
BRANCH  52  58
ATOM     58  O5  96P d   1      44.523 -27.476 -83.289  0.00  0.00    -0.356 OA
ATOM     59  H18 96P d   1      44.882 -26.678 -83.660  0.00  0.00     0.218 HD
ENDBRANCH  52  58
BRANCH  53  60
ATOM     60  O4  96P d   1      43.591 -25.865 -85.267  0.00  0.00    -0.358 OA
ATOM     61  H19 96P d   1      44.438 -26.173 -85.569  0.00  0.00     0.217 HD
ENDBRANCH  53  60
ENDBRANCH  46  48
ENDBRANCH  45  46
ENDBRANCH  42  45
ENDBRANCH   1  42
TORSDOF 18
