REMARK  18 active torsions:
REMARK  status: ('A' for Active; 'I' for Inactive)
REMARK    1  A    between atoms: C24_2  and  C23_5 
REMARK    2  A    between atoms: C19_10  and  O12_11 
REMARK    3  A    between atoms: O12_11  and  C1_12 
REMARK       I    between atoms: C1_12  and  N_14 
REMARK    4  A    between atoms: N_14  and  C2_15 
REMARK    5  A    between atoms: C2_15  and  C3_16 
REMARK    6  A    between atoms: C3_16  and  O7_17 
REMARK    7  A    between atoms: C3_16  and  C4_29 
REMARK    8  A    between atoms: O7_17  and  C12_18 
REMARK    9  A    between atoms: C12_18  and  C13_19 
REMARK   10  A    between atoms: C17_21  and  O11_22 
REMARK   11  A    between atoms: C16_23  and  O10_24 
REMARK   12  A    between atoms: C15_25  and  O9_26 
REMARK   13  A    between atoms: C4_29  and  O2_30 
REMARK   14  A    between atoms: O2_30  and  C5_31 
REMARK   15  A    between atoms: C5_31  and  C6_33 
REMARK   16  A    between atoms: C10_35  and  O6_36 
REMARK   17  A    between atoms: C9_37  and  O5_38 
REMARK   18  A    between atoms: C8_39  and  O4_40 
ROOT
ATOM      1  C3  96P d   1     -26.431 -12.201  38.706  0.00  0.00     0.084 C 
ATOM      2  H8  96P d   1     -27.016 -13.081  38.401  0.00  0.00     0.090 H 
ENDROOT
BRANCH   1   3
ATOM      3  C2  96P d   1     -27.228 -11.494  39.788  0.00  0.00     0.024 C 
ATOM      4  H6  96P d   1     -26.682 -10.585  40.079  0.00  0.00     0.068 H 
ATOM      5  H7  96P d   1     -28.206 -11.216  39.369  0.00  0.00     0.068 H 
BRANCH   3   6
ATOM      6  N   96P d   1     -27.454 -12.294  40.985  0.00  0.00    -0.334 N 
ATOM      7  C1  96P d   1     -28.382 -13.263  41.035  0.00  0.00     0.365 C 
ATOM      8  O1  96P d   1     -29.242 -13.445  40.201  0.00  0.00    -0.238 OA
ATOM      9  H5  96P d   1     -26.899 -12.115  41.797  0.00  0.00     0.164 HD
BRANCH   7  10
ATOM     10  O12 96P d   1     -28.184 -14.090  42.112  0.00  0.00    -0.262 OA
BRANCH  10  11
ATOM     11  C19 96P d   1     -28.163 -15.482  41.885  0.00  0.00     0.081 A 
ATOM     12  C20 96P d   1     -27.015 -16.031  41.335  0.00  0.00    -0.050 A 
ATOM     13  C21 96P d   1     -26.936 -17.403  41.147  0.00  0.00    -0.080 A 
ATOM     14  H3  96P d   1     -26.185 -15.393  41.054  0.00  0.00     0.087 H 
ATOM     15  C22 96P d   1     -27.998 -18.219  41.504  0.00  0.00    -0.068 A 
ATOM     16  H2  96P d   1     -26.040 -17.839  40.719  0.00  0.00     0.083 H 
ATOM     17  C23 96P d   1     -29.155 -17.675  42.051  0.00  0.00     0.050 A 
ATOM     18  H1  96P d   1     -27.926 -19.290  41.355  0.00  0.00     0.084 H 
ATOM     19  C25 96P d   1     -29.230 -16.297  42.239  0.00  0.00    -0.035 A 
ATOM     20  H4  96P d   1     -30.126 -15.859  42.664  0.00  0.00     0.089 H 
BRANCH  17  21
ATOM     21  C24 96P d   1     -30.302 -18.554  42.437  0.00  0.00     0.417 C 
ATOM     22  F3  96P d   1     -31.481 -17.962  42.312  0.00  0.00    -0.166 F 
ATOM     23  F1  96P d   1     -30.226 -18.970  43.692  0.00  0.00    -0.166 F 
ATOM     24  F2  96P d   1     -30.377 -19.658  41.698  0.00  0.00    -0.166 F 
ENDBRANCH  17  21
ENDBRANCH  10  11
ENDBRANCH   7  10
ENDBRANCH   3   6
ENDBRANCH   1   3
BRANCH   1  25
ATOM     25  O7  96P d   1     -25.087 -12.656  39.063  0.00  0.00    -0.308 OA
BRANCH  25  26
ATOM     26  C12 96P d   1     -24.942 -13.916  39.501  0.00  0.00     0.294 C 
ATOM     27  O8  96P d   1     -25.695 -14.808  39.212  0.00  0.00    -0.259 OA
BRANCH  26  28
ATOM     28  C13 96P d   1     -23.713 -14.082  40.335  0.00  0.00     0.045 A 
ATOM     29  C18 96P d   1     -22.795 -13.041  40.469  0.00  0.00    -0.032 A 
ATOM     30  C17 96P d   1     -21.696 -13.187  41.302  0.00  0.00     0.102 A 
ATOM     31  H9  96P d   1     -22.941 -12.117  39.922  0.00  0.00     0.089 H 
ATOM     32  C16 96P d   1     -21.510 -14.367  42.025  0.00  0.00     0.132 A 
ATOM     33  C15 96P d   1     -22.439 -15.402  41.897  0.00  0.00     0.102 A 
ATOM     34  C14 96P d   1     -23.531 -15.263  41.054  0.00  0.00    -0.032 A 
ATOM     35  H13 96P d   1     -24.244 -16.073  40.954  0.00  0.00     0.089 H 
BRANCH  30  36
ATOM     36  O11 96P d   1     -20.755 -12.212  41.416  0.00  0.00    -0.358 OA
ATOM     37  H10 96P d   1     -20.084 -12.491  42.028  0.00  0.00     0.217 HD
ENDBRANCH  30  36
BRANCH  32  38
ATOM     38  O10 96P d   1     -20.426 -14.491  42.840  0.00  0.00    -0.356 OA
ATOM     39  H11 96P d   1     -20.442 -15.344  43.258  0.00  0.00     0.218 HD
ENDBRANCH  32  38
BRANCH  33  40
ATOM     40  O9  96P d   1     -22.244 -16.554  42.585  0.00  0.00    -0.358 OA
ATOM     41  H12 96P d   1     -22.953 -17.158  42.397  0.00  0.00     0.217 HD
ENDBRANCH  33  40
ENDBRANCH  26  28
ENDBRANCH  25  26
ENDBRANCH   1  25
BRANCH   1  42
ATOM     42  C4  96P d   1     -26.243 -11.297  37.523  0.00  0.00     0.055 C 
ATOM     43  H14 96P d   1     -25.656 -11.815  36.750  0.00  0.00     0.079 H 
ATOM     44  H15 96P d   1     -25.715 -10.384  37.835  0.00  0.00     0.079 H 
BRANCH  42  45
ATOM     45  O2  96P d   1     -27.543 -10.951  36.996  0.00  0.00    -0.315 OA
BRANCH  45  46
ATOM     46  C5  96P d   1     -27.674 -10.917  35.663  0.00  0.00     0.293 C 
ATOM     47  O3  96P d   1     -26.782 -11.184  34.895  0.00  0.00    -0.259 OA
BRANCH  46  48
ATOM     48  C6  96P d   1     -29.036 -10.494  35.247  0.00  0.00     0.045 A 
ATOM     49  C11 96P d   1     -29.315 -10.316  33.895  0.00  0.00    -0.032 A 
ATOM     50  C10 96P d   1     -30.550  -9.830  33.500  0.00  0.00     0.102 A 
ATOM     51  H16 96P d   1     -28.565 -10.558  33.151  0.00  0.00     0.089 H 
ATOM     52  C9  96P d   1     -31.533  -9.542  34.452  0.00  0.00     0.132 A 
ATOM     53  C8  96P d   1     -31.253  -9.739  35.805  0.00  0.00     0.102 A 
ATOM     54  C7  96P d   1     -30.010 -10.208  36.201  0.00  0.00    -0.032 A 
ATOM     55  H20 96P d   1     -29.796 -10.352  37.254  0.00  0.00     0.089 H 
BRANCH  50  56
ATOM     56  O6  96P d   1     -30.761  -9.580  32.182  0.00  0.00    -0.358 OA
ATOM     57  H17 96P d   1     -31.645  -9.254  32.060  0.00  0.00     0.217 HD
ENDBRANCH  50  56
BRANCH  52  58
ATOM     58  O5  96P d   1     -32.749  -9.059  34.080  0.00  0.00    -0.356 OA
ATOM     59  H18 96P d   1     -33.284  -8.923  34.853  0.00  0.00     0.218 HD
ENDBRANCH  52  58
BRANCH  53  60
ATOM     60  O4  96P d   1     -32.205  -9.474  36.742  0.00  0.00    -0.358 OA
ATOM     61  H19 96P d   1     -31.857  -9.659  37.606  0.00  0.00     0.217 HD
ENDBRANCH  53  60
ENDBRANCH  46  48
ENDBRANCH  45  46
ENDBRANCH  42  45
ENDBRANCH   1  42
TORSDOF 18
