REMARK  8 active torsions:
REMARK  status: ('A' for Active; 'I' for Inactive)
REMARK       I    between atoms: C1_1  and  N1_2 
REMARK    1  A    between atoms: C1_1  and  C16_20 
REMARK    2  A    between atoms: N1_2  and  C2_4 
REMARK    3  A    between atoms: C2_4  and  C3_7 
REMARK    4  A    between atoms: C2_4  and  C9_13 
REMARK       I    between atoms: C3_7  and  N2_5 
REMARK    5  A    between atoms: C9_13  and  C10_14 
REMARK    6  A    between atoms: C11_15  and  O03_30 
REMARK    7  A    between atoms: C19_23  and  N01_26 
REMARK    8  A    between atoms: O03_30  and  C02_28 
ROOT
ATOM      1  C2  0YP d   1     105.845 -28.014 267.841  0.00  0.00     0.106 C 
ATOM      2  H2  0YP d   1     105.477 -27.138 267.287  0.00  0.00     0.089 H 
ENDROOT
BRANCH   1   3
ATOM      3  N1  0YP d   1     106.045 -27.412 269.120  0.00  0.00    -0.342 N 
ATOM      4  C1  0YP d   1     105.432 -26.113 269.148  0.00  0.00     0.252 C 
ATOM      5  O1  0YP d   1     104.912 -25.721 268.114  0.00  0.00    -0.268 OA
ATOM      6  H1  0YP d   1     106.538 -27.832 269.882  0.00  0.00     0.163 HD
BRANCH   4   7
ATOM      7  C16 0YP d   1     105.375 -25.229 270.362  0.00  0.00     0.032 A 
ATOM      8  C17 0YP d   1     104.396 -24.275 270.429  0.00  0.00    -0.065 A 
ATOM      9  C18 0YP d   1     104.334 -23.342 271.593  0.00  0.00    -0.050 A 
ATOM     10  H18 0YP d   1     103.663 -24.197 269.634  0.00  0.00     0.085 H 
ATOM     11  C19 0YP d   1     105.252 -23.449 272.593  0.00  0.00     0.102 A 
ATOM     12  H19 0YP d   1     103.562 -22.583 271.642  0.00  0.00     0.087 H 
ATOM     13  C20 0YP d   1     106.342 -24.472 272.503  0.00  0.00    -0.050 A 
ATOM     14  C21 0YP d   1     106.408 -25.316 271.430  0.00  0.00    -0.065 A 
ATOM     15  H20 0YP d   1     107.082 -24.543 273.292  0.00  0.00     0.087 H 
ATOM     16  H21 0YP d   1     107.208 -26.044 271.357  0.00  0.00     0.085 H 
BRANCH  11  17
ATOM     17  N01 0YP d   1     105.183 -22.669 273.618  0.00  0.00    -0.116 N 
ATOM     18  O01 0YP d   1     104.263 -22.859 274.427  0.00  0.00    -0.532 OA
ATOM     19  O02 0YP d   1     106.040 -21.781 273.727  0.00  0.00    -0.532 OA
ENDBRANCH  11  17
ENDBRANCH   4   7
ENDBRANCH   1   3
BRANCH   1  20
ATOM     20  C3  0YP d   1     104.655 -28.899 267.692  0.00  0.00     0.244 C 
ATOM     21  N2  0YP d   1     104.265 -29.338 266.388  0.00  0.00    -0.350 N 
ATOM     22  C4  0YP d   1     103.154 -30.200 266.246  0.00  0.00    -0.002 C 
ATOM     23  C8  0YP d   1     104.958 -28.923 265.270  0.00  0.00    -0.002 C 
ATOM     24  C5  0YP d   1     102.441 -29.898 264.947  0.00  0.00    -0.050 C 
ATOM     25  H3  0YP d   1     102.462 -30.047 267.087  0.00  0.00     0.064 H 
ATOM     26  H4  0YP d   1     103.499 -31.244 266.240  0.00  0.00     0.064 H 
ATOM     27  C6  0YP d   1     103.388 -30.017 263.746  0.00  0.00    -0.062 C 
ATOM     28  H5  0YP d   1     102.042 -28.874 264.988  0.00  0.00     0.035 H 
ATOM     29  H6  0YP d   1     101.612 -30.610 264.820  0.00  0.00     0.035 H 
ATOM     30  C7  0YP d   1     104.812 -29.859 264.165  0.00  0.00    -0.050 C 
ATOM     31  H7  0YP d   1     103.140 -29.234 263.014  0.00  0.00     0.033 H 
ATOM     32  H8  0YP d   1     103.258 -31.006 263.283  0.00  0.00     0.033 H 
ATOM     33  H9  0YP d   1     105.395 -29.490 263.308  0.00  0.00     0.035 H 
ATOM     34  H10 0YP d   1     105.201 -30.840 264.477  0.00  0.00     0.035 H 
ATOM     35  H11 0YP d   1     106.025 -28.836 265.524  0.00  0.00     0.064 H 
ATOM     36  H12 0YP d   1     104.574 -27.941 264.957  0.00  0.00     0.064 H 
ATOM     37  O2  0YP d   1     103.905 -29.230 268.589  0.00  0.00    -0.271 OA
ENDBRANCH   1  20
BRANCH   1  38
ATOM     38  C9  0YP d   1     107.068 -28.302 267.034  0.00  0.00     0.056 C 
ATOM     39 BR1  0YP d   1     107.445 -27.088 265.568  0.00  0.00    -0.083 Br
ATOM     40  H13 0YP d   1     107.831 -27.961 267.749  0.00  0.00     0.069 H 
BRANCH  38  41
ATOM     41  C10 0YP d   1     107.518 -29.733 266.876  0.00  0.00    -0.008 A 
ATOM     42  C11 0YP d   1     108.038 -30.164 265.684  0.00  0.00     0.075 A 
ATOM     43  C12 0YP d   1     108.481 -31.587 265.523  0.00  0.00    -0.050 A 
ATOM     44  C13 0YP d   1     108.397 -32.441 266.583  0.00  0.00    -0.080 A 
ATOM     45  H14 0YP d   1     108.865 -31.935 264.571  0.00  0.00     0.087 H 
ATOM     46  C14 0YP d   1     107.840 -31.966 267.886  0.00  0.00    -0.082 A 
ATOM     47  H15 0YP d   1     108.735 -33.466 266.480  0.00  0.00     0.083 H 
ATOM     48  C15 0YP d   1     107.419 -30.669 268.028  0.00  0.00    -0.073 A 
ATOM     49  H16 0YP d   1     107.769 -32.651 268.723  0.00  0.00     0.083 H 
ATOM     50  H17 0YP d   1     107.016 -30.327 268.975  0.00  0.00     0.084 H 
BRANCH  42  51
ATOM     51  O03 0YP d   1     108.217 -29.340 264.503  0.00  0.00    -0.355 OA
BRANCH  51  52
ATOM     52  C02 0YP d   1     108.830 -29.896 263.311  0.00  0.00     0.010 C 
ATOM     53  H22 0YP d   1     108.878 -29.124 262.529  0.00  0.00     0.066 H 
ATOM     54  H23 0YP d   1     108.230 -30.745 262.952  0.00  0.00     0.066 H 
ATOM     55  H24 0YP d   1     109.847 -30.241 263.548  0.00  0.00     0.066 H 
ENDBRANCH  51  52
ENDBRANCH  42  51
ENDBRANCH  38  41
ENDBRANCH   1  38
TORSDOF 8
