REMARK  9 active torsions:
REMARK  status: ('A' for Active; 'I' for Inactive)
REMARK    1  A    between atoms: C1_1  and  C2_2 
REMARK       I    between atoms: C1_1  and  N12_12 
REMARK    2  A    between atoms: C5_5  and  N11_11 
REMARK       I    between atoms: N11_11  and  C13_13 
REMARK    3  A    between atoms: N12_12  and  C24_24 
REMARK    4  A    between atoms: C13_13  and  C14_14 
REMARK    5  A    between atoms: C19_19  and  C21_21 
REMARK    6  A    between atoms: C21_21  and  C22_22 
REMARK    7  A    between atoms: C21_21  and  C23_23 
REMARK    8  A    between atoms: C30_30  and  O35_35 
REMARK    9  A    between atoms: O35_35  and  C36_36 
ROOT
ATOM      1  C21 0WP d   1      41.426 -22.198 -11.654  0.00  0.00     0.069 C 
ATOM      2  C33 0WP d   1      42.008 -21.240 -12.603  0.00  0.00     0.073 C 
ATOM      3  N34 0WP d   1      42.464 -20.484 -13.348  0.00  0.00    -0.196 NA
ENDROOT
BRANCH   1   4
ATOM      4  C19 0WP d   1      42.364 -22.395 -10.462  0.00  0.00    -0.035 A 
ATOM      5  C18 0WP d   1      43.736 -22.115 -10.580  0.00  0.00    -0.075 A 
ATOM      6  C17 0WP d   1      44.586 -22.302  -9.467  0.00  0.00    -0.081 A 
ATOM      7  H   0WP d   1      44.142 -21.755 -11.525  0.00  0.00     0.084 H 
ATOM      8  C16 0WP d   1      44.050 -22.771  -8.243  0.00  0.00    -0.068 A 
ATOM      9  H   0WP d   1      45.651 -22.086  -9.550  0.00  0.00     0.083 H 
ATOM     10  C14 0WP d   1      42.680 -23.043  -8.150  0.00  0.00     0.032 A 
ATOM     11  H   0WP d   1      44.699 -22.919  -7.380  0.00  0.00     0.085 H 
ATOM     12  C20 0WP d   1      41.850 -22.855  -9.252  0.00  0.00    -0.060 A 
ATOM     13  H   0WP d   1      40.785 -23.070  -9.167  0.00  0.00     0.086 H 
BRANCH  10  14
ATOM     14  C13 0WP d   1      42.075 -23.464  -7.106  0.00  0.00     0.256 C 
ATOM     15  N11 0WP d   1      42.736 -23.305  -5.941  0.00  0.00    -0.320 N 
ATOM     16  H   0WP d   1      43.661 -22.879  -6.000  0.00  0.00     0.169 HD
ATOM     17  O15 0WP d   1      40.954 -23.960  -7.208  0.00  0.00    -0.267 OA
BRANCH  15  18
ATOM     18  C5  0WP d   1      42.290 -23.664  -4.640  0.00  0.00     0.075 A 
ATOM     19  C4  0WP d   1      41.622 -24.887  -4.432  0.00  0.00     0.161 A 
ATOM     20  C2  0WP d   1      41.171 -25.237  -3.168  0.00  0.00     0.111 A 
ATOM     21  F10 0WP d   1      41.415 -25.726  -5.466  0.00  0.00    -0.203 F 
ATOM     22  C8  0WP d   1      41.377 -24.380  -2.099  0.00  0.00     0.135 A 
ATOM     23  C7  0WP d   1      42.046 -23.152  -2.291  0.00  0.00    -0.042 A 
ATOM     24  F9  0WP d   1      40.931 -24.729  -0.867  0.00  0.00    -0.205 F 
ATOM     25  C6  0WP d   1      42.500 -22.797  -3.566  0.00  0.00    -0.051 A 
ATOM     26  H   0WP d   1      42.209 -22.481  -1.447  0.00  0.00     0.088 H 
ATOM     27  H   0WP d   1      43.015 -21.849  -3.720  0.00  0.00     0.087 H 
BRANCH  20  28
ATOM     28  C1  0WP d   1      40.468 -26.508  -2.931  0.00  0.00     0.262 C 
ATOM     29  O3  0WP d   1      41.049 -27.582  -3.094  0.00  0.00    -0.267 OA
ATOM     30  N12 0WP d   1      39.189 -26.377  -2.531  0.00  0.00    -0.321 N 
ATOM     31  H   0WP d   1      38.853 -25.418  -2.440  0.00  0.00     0.169 HD
BRANCH  30  32
ATOM     32  C24 0WP d   1      38.243 -27.388  -2.218  0.00  0.00     0.053 A 
ATOM     33  C25 0WP d   1      38.635 -28.726  -2.010  0.00  0.00    -0.038 A 
ATOM     34  C26 0WP d   1      37.630 -29.649  -1.703  0.00  0.00     0.068 A 
ATOM     35  H   0WP d   1      39.679 -29.029  -2.085  0.00  0.00     0.088 H 
ATOM     36  C27 0WP d   1      36.339 -29.222  -1.619  0.00  0.00     0.183 A 
ATOM     37  C30 0WP d   1      37.647 -31.010  -1.443  0.00  0.00     0.172 A 
ATOM     38  N28 0WP d   1      35.892 -27.957  -1.806  0.00  0.00    -0.237 NA
ATOM     39  N32 0WP d   1      35.630 -30.372  -1.306  0.00  0.00    -0.152 NA
ATOM     40  C29 0WP d   1      36.877 -27.068  -2.104  0.00  0.00     0.030 A 
ATOM     41  H   0WP d   1      36.587 -26.030  -2.267  0.00  0.00     0.118 H 
ATOM     42  N31 0WP d   1      36.433 -31.477  -1.197  0.00  0.00    -0.254 N 
ATOM     43  H   0WP d   1      36.159 -32.435  -0.978  0.00  0.00     0.191 HD
BRANCH  37  44
ATOM     44  O35 0WP d   1      38.755 -31.795  -1.437  0.00  0.00    -0.339 OA
BRANCH  44  45
ATOM     45  C36 0WP d   1      38.586 -33.182  -1.153  0.00  0.00     0.012 C 
ATOM     46  H   0WP d   1      38.148 -33.298  -0.162  0.00  0.00     0.067 H 
ATOM     47  H   0WP d   1      37.925 -33.626  -1.897  0.00  0.00     0.067 H 
ATOM     48  H   0WP d   1      39.556 -33.679  -1.184  0.00  0.00     0.067 H 
ENDBRANCH  44  45
ENDBRANCH  37  44
ENDBRANCH  30  32
ENDBRANCH  20  28
ENDBRANCH  15  18
ENDBRANCH  10  14
ENDBRANCH   1   4
BRANCH   1  49
ATOM     49  C22 0WP d   1      41.186 -23.528 -12.395  0.00  0.00    -0.053 C 
ATOM     50  H   0WP d   1      42.137 -23.916 -12.759  0.00  0.00     0.030 H 
ATOM     51  H   0WP d   1      40.736 -24.247 -11.711  0.00  0.00     0.030 H 
ATOM     52  H   0WP d   1      40.516 -23.357 -13.237  0.00  0.00     0.030 H 
ENDBRANCH   1  49
BRANCH   1  53
ATOM     53  C23 0WP d   1      40.079 -21.631 -11.186  0.00  0.00    -0.053 C 
ATOM     54  H   0WP d   1      39.619 -22.325 -10.482  0.00  0.00     0.030 H 
ATOM     55  H   0WP d   1      40.241 -20.670 -10.698  0.00  0.00     0.030 H 
ATOM     56  H   0WP d   1      39.424 -21.497 -12.047  0.00  0.00     0.030 H 
ENDBRANCH   1  53
TORSDOF 9
