REMARK WARNING: 32 MAX_TORS EXCEEDED!!!
REMARK  43 active torsions:
REMARK  status: ('A' for Active; 'I' for Inactive)
REMARK    1  A    between atoms: CT1_2  and  CT2_1 
REMARK       I    between atoms: N_10  and  CT1_2 
REMARK    2  A    between atoms: CB_4  and  CG_5 
REMARK    3  A    between atoms: CA_11  and  CB_4 
REMARK    4  A    between atoms: CG_5  and  SD_6 
REMARK    5  A    between atoms: SD_6  and  CE_7 
REMARK    6  A    between atoms: CA_11  and  C_8 
REMARK       I    between atoms: C_8  and  N_12 
REMARK    7  A    between atoms: N_10  and  CA_11 
REMARK    8  A    between atoms: N_12  and  CA_13 
REMARK    9  A    between atoms: CA_13  and  C_14 
REMARK   10  A    between atoms: CA_13  and  CB_16 
REMARK       I    between atoms: C_14  and  N_20 
REMARK   11  A    between atoms: CB_16  and  CG1_17 
REMARK   12  A    between atoms: CB_16  and  CG2_18 
REMARK   13  A    between atoms: CG1_17  and  CD1_19 
REMARK   14  A    between atoms: N_20  and  CA_21 
REMARK   15  A    between atoms: CA_21  and  C_22 
REMARK   16  A    between atoms: CA_21  and  CB_24 
REMARK       I    between atoms: C_22  and  N_25 
REMARK   17  A    between atoms: N_25  and  CA_26 
REMARK   18  A    between atoms: CA_26  and  C_27 
REMARK   19  A    between atoms: CA_26  and  CB_29 
REMARK       I    between atoms: C_27  and  N_33 
REMARK   20  A    between atoms: CB_29  and  CG_30 
REMARK   21  A    between atoms: CG_30  and  CD1_31 
REMARK   22  A    between atoms: CG_30  and  CD2_32 
REMARK   23  A    between atoms: N_33  and  CA_34 
REMARK   24  A    between atoms: CA_34  and  C_35 
REMARK   25  A    between atoms: CA_34  and  CB_37 
REMARK       I    between atoms: C_35  and  N_38 
REMARK   26  A    between atoms: N_38  and  CA_39 
REMARK   27  A    between atoms: CA_39  and  C_40 
REMARK   28  A    between atoms: CA_39  and  CB_42 
REMARK       I    between atoms: C_40  and  N_43 
REMARK   29  A    between atoms: N_43  and  CA_44 
REMARK   30  A    between atoms: CA_44  and  C_45 
REMARK   31  A    between atoms: CA_44  and  CB_47 
REMARK       I    between atoms: C_45  and  N_48 
REMARK   32  A    between atoms: N_48  and  CA_49 
REMARK   33  A    between atoms: CA_49  and  C_50 
REMARK   34  A    between atoms: CA_49  and  CB_52 
REMARK       I    between atoms: C_50  and  N_53 
REMARK   35  A    between atoms: N_53  and  CA_54 
REMARK   36  A    between atoms: CA_54  and  C_55 
REMARK   37  A    between atoms: CA_54  and  CB_57 
REMARK       I    between atoms: C_55  and  N_58 
REMARK   38  A    between atoms: N_58  and  CA_59 
REMARK   39  A    between atoms: CA_59  and  C_60 
REMARK   40  A    between atoms: CA_59  and  CB_62 
REMARK       I    between atoms: C_60  and  N_63 
REMARK   41  A    between atoms: N_63  and  CA_64 
REMARK   42  A    between atoms: CA_64  and  C_65 
REMARK   43  A    between atoms: CA_64  and  CB_67 
ROOT
ATOM      1  C   LEU d   1       2.450  38.681  14.261  0.00  0.00     0.241 C 
ATOM      2  O   LEU d   1       2.698  38.867  15.455  0.00  0.00    -0.271 OA
ATOM      3  N   PHE d   1       2.025  39.646  13.444  0.00  0.00    -0.346 N 
ATOM      4  H   PHE d   1       1.862  39.428  12.461  0.00  0.00     0.163 HD
ENDROOT
BRANCH   1   5
ATOM      5  CA  LEU d   1       2.637  37.295  13.654  0.00  0.00     0.089 C 
ATOM      6  H   LEU d   1       2.403  36.584  14.446  0.00  0.00     0.087 H 
BRANCH   5   7
ATOM      7  N   LEU d   1       1.692  36.965  12.575  0.00  0.00    -0.346 N 
ATOM      8  C   LYS d   1       0.381  36.863  12.803  0.00  0.00     0.240 C 
ATOM      9  O   LYS d   1      -0.126  37.147  13.892  0.00  0.00    -0.271 OA
ATOM     10  H   LEU d   1       2.047  36.811  11.631  0.00  0.00     0.163 HD
BRANCH   8  11
ATOM     11  CA  LYS d   1      -0.515  36.399  11.638  0.00  0.00     0.086 C 
ATOM     12  H   LYS d   1      -1.143  37.260  11.407  0.00  0.00     0.086 H 
BRANCH  11  13
ATOM     13  N   LYS d   1       0.191  36.103  10.388  0.00  0.00    -0.346 N 
ATOM     14  C   ILE d   1       0.622  37.076   9.583  0.00  0.00     0.241 C 
ATOM     15  O   ILE d   1       0.565  38.266   9.887  0.00  0.00    -0.271 OA
ATOM     16  H   LYS d   1       0.357  35.131  10.127  0.00  0.00     0.163 HD
BRANCH  14  17
ATOM     17  CA  ILE d   1       1.230  36.658   8.243  0.00  0.00     0.092 C 
ATOM     18  H   ILE d   1       1.784  37.509   7.848  0.00  0.00     0.088 H 
BRANCH  17  19
ATOM     19  N   ILE d   1       2.223  35.547   8.387  0.00  0.00    -0.346 N 
ATOM     20  C   AME d   1       3.154  35.508   9.343  0.00  0.00     0.241 C 
ATOM     21  O   AME d   1       3.170  36.258  10.306  0.00  0.00    -0.271 OA
ATOM     22  H   ILE d   1       2.186  34.778   7.718  0.00  0.00     0.163 HD
BRANCH  20  23
ATOM     23  CA  AME d   1       4.222  34.445   9.183  0.00  0.00     0.090 C 
ATOM     24  H   AME d   1       3.713  33.488   9.294  0.00  0.00     0.087 H 
BRANCH  23  25
ATOM     25  CB  AME d   1       5.331  34.647  10.216  0.00  0.00    -0.030 C 
ATOM     26  H   AME d   1       5.747  35.644  10.070  0.00  0.00     0.037 H 
ATOM     27  H   AME d   1       4.894  34.514  11.206  0.00  0.00     0.037 H 
BRANCH  25  28
ATOM     28  CG  AME d   1       6.466  33.639  10.066  0.00  0.00    -0.021 C 
ATOM     29  H   AME d   1       7.369  34.032  10.533  0.00  0.00     0.049 H 
ATOM     30  H   AME d   1       6.659  33.460   9.008  0.00  0.00     0.049 H 
BRANCH  28  31
ATOM     31  SD  AME d   1       6.004  32.127  10.849  0.00  0.00    -0.173 SA
BRANCH  31  32
ATOM     32  CE  AME d   1       7.285  30.954  10.468  0.00  0.00    -0.035 C 
ATOM     33  H   AME d   1       7.353  30.830   9.387  0.00  0.00     0.041 H 
ATOM     34  H   AME d   1       8.237  31.319  10.854  0.00  0.00     0.041 H 
ATOM     35  H   AME d   1       7.048  29.996  10.931  0.00  0.00     0.041 H 
ENDBRANCH  31  32
ENDBRANCH  28  31
ENDBRANCH  25  28
ENDBRANCH  23  25
BRANCH  23  36
ATOM     36  N   AME d   1       4.891  34.543   7.891  0.00  0.00    -0.348 N 
ATOM     37  CT1 AME d   1       4.532  33.825   6.826  0.00  0.00     0.214 C 
ATOM     38  OT  AME d   1       3.608  33.024   6.843  0.00  0.00    -0.274 OA
ATOM     39  H   AME d   1       5.672  35.193   7.797  0.00  0.00     0.163 HD
BRANCH  37  40
ATOM     40  CT2 AME d   1       5.346  34.070   5.588  0.00  0.00    -0.003 C 
ATOM     41  H   AME d   1       5.822  33.140   5.277  0.00  0.00     0.040 H 
ATOM     42  H   AME d   1       4.694  34.430   4.792  0.00  0.00     0.040 H 
ATOM     43  H   AME d   1       6.111  34.818   5.799  0.00  0.00     0.040 H 
ENDBRANCH  37  40
ENDBRANCH  23  36
ENDBRANCH  20  23
ENDBRANCH  17  19
BRANCH  17  44
ATOM     44  CB  ILE d   1       0.097  36.284   7.241  0.00  0.00    -0.030 C 
ATOM     45  H   ILE d   1      -0.297  35.313   7.542  0.00  0.00     0.043 H 
BRANCH  44  46
ATOM     46  CG1 ILE d   1       0.642  36.149   5.812  0.00  0.00    -0.063 C 
ATOM     47  H   ILE d   1      -0.153  35.708   5.210  0.00  0.00     0.033 H 
ATOM     48  H   ILE d   1       1.552  35.552   5.875  0.00  0.00     0.033 H 
BRANCH  46  49
ATOM     49  CD1 ILE d   1       1.021  37.461   5.149  0.00  0.00    -0.076 C 
ATOM     50  H   ILE d   1       0.143  38.105   5.092  0.00  0.00     0.027 H 
ATOM     51  H   ILE d   1       1.796  37.953   5.737  0.00  0.00     0.027 H 
ATOM     52  H   ILE d   1       1.395  37.264   4.144  0.00  0.00     0.027 H 
ENDBRANCH  46  49
ENDBRANCH  44  46
BRANCH  44  53
ATOM     53  CG2 ILE d   1      -1.059  37.287   7.299  0.00  0.00    -0.071 C 
ATOM     54  H   ILE d   1      -1.478  37.299   8.305  0.00  0.00     0.028 H 
ATOM     55  H   ILE d   1      -0.689  38.281   7.046  0.00  0.00     0.028 H 
ATOM     56  H   ILE d   1      -1.830  36.993   6.587  0.00  0.00     0.028 H 
ENDBRANCH  44  53
ENDBRANCH  17  44
ENDBRANCH  14  17
ENDBRANCH  11  13
BRANCH  11  57
ATOM     57  CB  LYS d   1      -1.396  35.211  12.065  0.00  0.00    -0.049 C 
ATOM     58  H   LYS d   1      -2.131  35.007  11.286  0.00  0.00     0.030 H 
ATOM     59  H   LYS d   1      -0.770  34.331  12.215  0.00  0.00     0.030 H 
ATOM     60  H   LYS d   1      -1.909  35.456  12.995  0.00  0.00     0.030 H 
ENDBRANCH  11  57
ENDBRANCH   8  11
ENDBRANCH   5   7
BRANCH   5  61
ATOM     61  CB  LEU d   1       4.094  37.104  13.211  0.00  0.00    -0.035 C 
ATOM     62  H   LEU d   1       4.333  37.960  12.580  0.00  0.00     0.037 H 
ATOM     63  H   LEU d   1       4.140  36.124  12.736  0.00  0.00     0.037 H 
BRANCH  61  64
ATOM     64  CG  LEU d   1       5.149  37.088  14.326  0.00  0.00    -0.059 C 
ATOM     65  H   LEU d   1       5.045  38.019  14.883  0.00  0.00     0.038 H 
BRANCH  64  66
ATOM     66  CD1 LEU d   1       4.912  35.930  15.280  0.00  0.00    -0.073 C 
ATOM     67  H   LEU d   1       3.925  36.029  15.732  0.00  0.00     0.028 H 
ATOM     68  H   LEU d   1       4.968  34.991  14.730  0.00  0.00     0.028 H 
ATOM     69  H   LEU d   1       5.673  35.942  16.060  0.00  0.00     0.028 H 
ENDBRANCH  64  66
BRANCH  64  70
ATOM     70  CD2 LEU d   1       6.565  37.049  13.768  0.00  0.00    -0.073 C 
ATOM     71  H   LEU d   1       6.692  36.150  13.165  0.00  0.00     0.028 H 
ATOM     72  H   LEU d   1       6.735  37.930  13.149  0.00  0.00     0.028 H 
ATOM     73  H   LEU d   1       7.279  37.039  14.592  0.00  0.00     0.028 H 
ENDBRANCH  64  70
ENDBRANCH  61  64
ENDBRANCH   5  61
ENDBRANCH   1   5
BRANCH   3  74
ATOM     74  CA  PHE d   1       1.786  41.012  13.921  0.00  0.00     0.086 C 
ATOM     75  H   PHE d   1       2.659  41.309  14.502  0.00  0.00     0.086 H 
BRANCH  74  76
ATOM     76  C   PHE d   1       0.567  41.085  14.849  0.00  0.00     0.240 C 
ATOM     77  O   PHE d   1       0.627  41.697  15.919  0.00  0.00    -0.271 OA
ATOM     78  N   SER d   1      -0.529  40.451  14.435  0.00  0.00    -0.346 N 
ATOM     79  H   SER d   1      -0.521  39.997  13.521  0.00  0.00     0.163 HD
BRANCH  78  80
ATOM     80  CA  SER d   1      -1.743  40.384  15.247  0.00  0.00     0.086 C 
ATOM     81  H   SER d   1      -2.017  41.407  15.503  0.00  0.00     0.086 H 
BRANCH  80  82
ATOM     82  C   SER d   1      -1.511  39.619  16.549  0.00  0.00     0.240 C 
ATOM     83  O   SER d   1      -2.031  40.001  17.597  0.00  0.00    -0.271 OA
ATOM     84  N   LEU d   1      -0.722  38.550  16.475  0.00  0.00    -0.346 N 
ATOM     85  H   LEU d   1      -0.296  38.313  15.579  0.00  0.00     0.163 HD
BRANCH  84  86
ATOM     86  CA  LEU d   1      -0.445  37.703  17.634  0.00  0.00     0.086 C 
ATOM     87  H   LEU d   1      -1.390  37.593  18.166  0.00  0.00     0.086 H 
BRANCH  86  88
ATOM     88  C   LEU d   1       0.536  38.339  18.627  0.00  0.00     0.240 C 
ATOM     89  O   LEU d   1       0.614  37.909  19.781  0.00  0.00    -0.271 OA
ATOM     90  N   LYS d   1       1.275  39.358  18.178  0.00  0.00    -0.346 N 
ATOM     91  H   LYS d   1       1.223  39.605  17.190  0.00  0.00     0.163 HD
BRANCH  90  92
ATOM     92  CA  LYS d   1       2.160  40.135  19.057  0.00  0.00     0.086 C 
ATOM     93  H   LYS d   1       2.543  39.460  19.822  0.00  0.00     0.086 H 
BRANCH  92  94
ATOM     94  C   LYS d   1       1.388  41.260  19.750  0.00  0.00     0.240 C 
ATOM     95  O   LYS d   1       1.561  41.490  20.947  0.00  0.00    -0.271 OA
ATOM     96  N   GLN d   1       0.527  41.942  18.994  0.00  0.00    -0.346 N 
ATOM     97  H   GLN d   1       0.482  41.734  17.996  0.00  0.00     0.163 HD
BRANCH  96  98
ATOM     98  CA  GLN d   1      -0.359  42.978  19.536  0.00  0.00     0.086 C 
ATOM     99  H   GLN d   1       0.266  43.639  20.137  0.00  0.00     0.086 H 
BRANCH  98 100
ATOM    100  C   GLN d   1      -1.437  42.415  20.477  0.00  0.00     0.240 C 
ATOM    101  O   GLN d   1      -2.033  43.158  21.267  0.00  0.00    -0.271 OA
ATOM    102  N   GLN d   1      -1.678  41.107  20.388  0.00  0.00    -0.346 N 
ATOM    103  H   GLN d   1      -1.163  40.558  19.700  0.00  0.00     0.163 HD
BRANCH 102 104
ATOM    104  CA  GLN d   1      -2.657  40.428  21.244  0.00  0.00     0.086 C 
ATOM    105  H   GLN d   1      -3.346  41.202  21.584  0.00  0.00     0.086 H 
BRANCH 104 106
ATOM    106  C   GLN d   1      -2.035  39.801  22.502  0.00  0.00     0.240 C 
ATOM    107  O   GLN d   1      -2.755  39.468  23.453  0.00  0.00    -0.271 OA
ATOM    108  N   LYS d   1      -0.710  39.635  22.500  0.00  0.00    -0.345 N 
ATOM    109  H   LYS d   1      -0.178  39.914  21.676  0.00  0.00     0.163 HD
BRANCH 108 110
ATOM    110  CA  LYS d   1       0.004  39.062  23.650  0.00  0.00     0.093 C 
ATOM    111  H   LYS d   1      -0.751  38.625  24.303  0.00  0.00     0.089 H 
BRANCH 110 112
ATOM    112  C   LYS d   1       0.749  40.133  24.455  0.00  0.00     0.196 C 
ATOM    113  O   LYS d   1       0.395  40.426  25.628  0.00  0.00    -0.646 OA
ATOM    114  O   LYS d   1       1.730  40.729  23.936  0.00  0.00    -0.646 OA
ENDBRANCH 110 112
BRANCH 110 115
ATOM    115  CB  LYS d   1       0.966  37.948  23.213  0.00  0.00    -0.048 C 
ATOM    116  H   LYS d   1       0.402  37.154  22.724  0.00  0.00     0.030 H 
ATOM    117  H   LYS d   1       1.700  38.355  22.517  0.00  0.00     0.030 H 
ATOM    118  H   LYS d   1       1.477  37.547  24.088  0.00  0.00     0.030 H 
ENDBRANCH 110 115
ENDBRANCH 108 110
ENDBRANCH 104 106
BRANCH 104 119
ATOM    119  CB  GLN d   1      -3.433  39.360  20.450  0.00  0.00    -0.049 C 
ATOM    120  H   GLN d   1      -3.960  39.836  19.623  0.00  0.00     0.030 H 
ATOM    121  H   GLN d   1      -2.734  38.620  20.060  0.00  0.00     0.030 H 
ATOM    122  H   GLN d   1      -4.152  38.871  21.108  0.00  0.00     0.030 H 
ENDBRANCH 104 119
ENDBRANCH 102 104
ENDBRANCH  98 100
BRANCH  98 123
ATOM    123  CB  GLN d   1      -1.005  43.783  18.399  0.00  0.00    -0.049 C 
ATOM    124  H   GLN d   1      -0.226  44.259  17.804  0.00  0.00     0.030 H 
ATOM    125  H   GLN d   1      -1.588  43.113  17.767  0.00  0.00     0.030 H 
ATOM    126  H   GLN d   1      -1.658  44.546  18.822  0.00  0.00     0.030 H 
ENDBRANCH  98 123
ENDBRANCH  96  98
ENDBRANCH  92  94
BRANCH  92 127
ATOM    127  CB  LYS d   1       3.357  40.698  18.283  0.00  0.00    -0.049 C 
ATOM    128  H   LYS d   1       3.929  39.876  17.852  0.00  0.00     0.030 H 
ATOM    129  H   LYS d   1       2.999  41.350  17.486  0.00  0.00     0.030 H 
ATOM    130  H   LYS d   1       3.992  41.267  18.962  0.00  0.00     0.030 H 
ENDBRANCH  92 127
ENDBRANCH  90  92
ENDBRANCH  86  88
BRANCH  86 131
ATOM    131  CB  LEU d   1       0.039  36.316  17.196  0.00  0.00    -0.049 C 
ATOM    132  H   LEU d   1      -0.731  35.839  16.589  0.00  0.00     0.030 H 
ATOM    133  H   LEU d   1       0.953  36.419  16.611  0.00  0.00     0.030 H 
ATOM    134  H   LEU d   1       0.238  35.707  18.078  0.00  0.00     0.030 H 
ENDBRANCH  86 131
ENDBRANCH  84  86
ENDBRANCH  80  82
BRANCH  80 135
ATOM    135  CB  SER d   1      -2.891  39.746  14.458  0.00  0.00    -0.049 C 
ATOM    136  H   SER d   1      -3.095  40.343  13.569  0.00  0.00     0.030 H 
ATOM    137  H   SER d   1      -2.609  38.735  14.162  0.00  0.00     0.030 H 
ATOM    138  H   SER d   1      -3.783  39.708  15.084  0.00  0.00     0.030 H 
ENDBRANCH  80 135
ENDBRANCH  78  80
ENDBRANCH  74  76
BRANCH  74 139
ATOM    139  CB  PHE d   1       1.633  41.985  12.747  0.00  0.00    -0.049 C 
ATOM    140  H   PHE d   1       2.545  41.977  12.149  0.00  0.00     0.030 H 
ATOM    141  H   PHE d   1       0.789  41.677  12.129  0.00  0.00     0.030 H 
ATOM    142  H   PHE d   1       1.457  42.990  13.130  0.00  0.00     0.030 H 
ENDBRANCH  74 139
ENDBRANCH   3  74
TORSDOF 43
