REMARK  12 active torsions:
REMARK  status: ('A' for Active; 'I' for Inactive)
REMARK    1  A    between atoms: C2_4  and  C1_1 
REMARK    2  A    between atoms: C9_17  and  N1_2 
REMARK    3  A    between atoms: C2_4  and  O2_6 
REMARK    4  A    between atoms: C2_4  and  C3_7 
REMARK    5  A    between atoms: C4_9  and  C2_4 
REMARK    6  A    between atoms: N3_8  and  C13_21 
REMARK    7  A    between atoms: N6_14  and  C15_23 
REMARK    8  A    between atoms: C10_18  and  C9_17 
REMARK    9  A    between atoms: C14_22  and  N7_28 
REMARK   10  A    between atoms: C26_36  and  N9_37 
REMARK   11  A    between atoms: N9_37  and  C27_38 
REMARK   12  A    between atoms: N9_37  and  C28_39 
ROOT
ATOM      1  N2  0WR d   1      15.475  -3.440  19.757  0.00  0.00    -0.226 NA
ATOM      2  N3  0WR d   1      17.070  -2.003  19.131  0.00  0.00    -0.320 N 
ATOM      3  N4  0WR d   1      18.975  -3.733  19.056  0.00  0.00    -0.041 NA
ATOM      4  N5  0WR d   1      18.346  -5.943  19.619  0.00  0.00    -0.042 NA
ATOM      5  C10 0WR d   1      15.767  -2.102  19.435  0.00  0.00     0.134 A 
ATOM      6  C11 0WR d   1      16.672  -4.182  19.644  0.00  0.00     0.151 A 
ATOM      7  C12 0WR d   1      17.666  -3.294  19.259  0.00  0.00     0.183 A 
ATOM      8  C14 0WR d   1      19.279  -5.024  19.246  0.00  0.00     0.740 A 
ATOM      9  C15 0WR d   1      17.055  -5.563  19.837  0.00  0.00     0.178 A 
ENDROOT
BRANCH   5  10
ATOM     10  C9  0WR d   1      14.754  -0.940  19.439  0.00  0.00     0.137 C 
ATOM     11  H18 0WR d   1      14.623  -0.571  20.467  0.00  0.00     0.088 H 
ATOM     12  H19 0WR d   1      15.129  -0.125  18.802  0.00  0.00     0.088 H 
BRANCH  10  13
ATOM     13  N1  0WR d   1      13.426  -1.425  18.906  0.00  0.00    -0.064 N 
ATOM     14  C6  0WR d   1      12.395  -0.649  19.570  0.00  0.00     0.084 C 
ATOM     15  C5  0WR d   1      11.057  -1.292  19.500  0.00  0.00    -0.036 C 
ATOM     16  H12 0WR d   1      12.336   0.340  19.091  0.00  0.00     0.076 H 
ATOM     17  H13 0WR d   1      12.672  -0.528  20.628  0.00  0.00     0.076 H 
ATOM     18  C4  0WR d   1      10.707  -1.658  18.106  0.00  0.00    -0.022 C 
ATOM     19  H10 0WR d   1      11.064  -2.202  20.118  0.00  0.00     0.036 H 
ATOM     20  H11 0WR d   1      10.302  -0.592  19.887  0.00  0.00     0.036 H 
ATOM     21  C8  0WR d   1      11.726  -2.438  17.472  0.00  0.00    -0.036 C 
ATOM     22  H9  0WR d   1      10.612  -0.722  17.537  0.00  0.00     0.044 H 
ATOM     23  C7  0WR d   1      13.068  -1.780  17.542  0.00  0.00     0.084 C 
ATOM     24  H16 0WR d   1      11.457  -2.581  16.415  0.00  0.00     0.036 H 
ATOM     25  H17 0WR d   1      11.785  -3.417  17.971  0.00  0.00     0.036 H 
ATOM     26  H14 0WR d   1      13.825  -2.472  17.144  0.00  0.00     0.076 H 
ATOM     27  H15 0WR d   1      13.049  -0.866  16.930  0.00  0.00     0.076 H 
ATOM     28  H4  0WR d   1      13.368  -2.333  19.340  0.00  0.00     0.280 HD
BRANCH  18  29
ATOM     29  C2  0WR d   1       9.310  -2.392  18.051  0.00  0.00     0.054 C 
BRANCH  29  30
ATOM     30  C1  0WR d   1       9.055  -2.952  16.655  0.00  0.00    -0.048 C 
ATOM     31  H1  0WR d   1       9.105  -2.137  15.918  0.00  0.00     0.031 H 
ATOM     32  H2  0WR d   1       8.058  -3.415  16.622  0.00  0.00     0.031 H 
ATOM     33  H3  0WR d   1       9.818  -3.708  16.418  0.00  0.00     0.031 H 
ENDBRANCH  29  30
BRANCH  29  34
ATOM     34  O2  0WR d   1       9.242  -3.429  18.954  0.00  0.00    -0.390 OA
ATOM     35  H5  0WR d   1       9.399  -3.096  19.830  0.00  0.00     0.210 HD
ENDBRANCH  29  34
BRANCH  29  36
ATOM     36  C3  0WR d   1       8.231  -1.355  18.393  0.00  0.00    -0.048 C 
ATOM     37  H6  0WR d   1       8.416  -0.952  19.400  0.00  0.00     0.031 H 
ATOM     38  H7  0WR d   1       7.241  -1.833  18.366  0.00  0.00     0.031 H 
ATOM     39  H8  0WR d   1       8.263  -0.537  17.659  0.00  0.00     0.031 H 
ENDBRANCH  29  36
ENDBRANCH  18  29
ENDBRANCH  10  13
ENDBRANCH   5  10
BRANCH   2  40
ATOM     40  C13 0WR d   1      17.824  -0.855  18.735  0.00  0.00    -0.011 C 
ATOM     41  H20 0WR d   1      17.164   0.024  18.704  0.00  0.00     0.057 H 
ATOM     42  H21 0WR d   1      18.255  -1.026  17.737  0.00  0.00     0.057 H 
ATOM     43  H22 0WR d   1      18.633  -0.680  19.459  0.00  0.00     0.057 H 
ENDBRANCH   2  40
BRANCH   9  44
ATOM     44  N6  0WR d   1      16.148  -6.597  20.244  0.00  0.00    -0.359 N 
ATOM     45  C16 0WR d   1      14.820  -6.415  20.678  0.00  0.00     0.016 C 
ATOM     46  C17 0WR d   1      14.595  -6.932  22.060  0.00  0.00     0.034 C 
ATOM     47  H23 0WR d   1      14.148  -6.947  19.989  0.00  0.00     0.067 H 
ATOM     48  H24 0WR d   1      14.587  -5.340  20.661  0.00  0.00     0.067 H 
ATOM     49  O1  0WR d   1      15.103  -8.229  22.200  0.00  0.00    -0.388 OA
ATOM     50  H25 0WR d   1      15.099  -6.269  22.779  0.00  0.00     0.076 H 
ATOM     51  H26 0WR d   1      13.515  -6.944  22.268  0.00  0.00     0.076 H 
ATOM     52  C18 0WR d   1      16.482  -8.278  21.923  0.00  0.00     0.034 C 
ATOM     53  C19 0WR d   1      16.728  -7.855  20.518  0.00  0.00     0.016 C 
ATOM     54  H27 0WR d   1      16.847  -9.306  22.064  0.00  0.00     0.076 H 
ATOM     55  H28 0WR d   1      17.016  -7.602  22.607  0.00  0.00     0.076 H 
ATOM     56  H29 0WR d   1      17.813  -7.792  20.349  0.00  0.00     0.067 H 
ATOM     57  H30 0WR d   1      16.294  -8.604  19.839  0.00  0.00     0.067 H 
ENDBRANCH   9  44
BRANCH   8  58
ATOM     58  N7  0WR d   1      20.597  -5.458  19.004  0.00  0.00    -0.114 N 
ATOM     59  C20 0WR d   1      21.225  -6.516  19.644  0.00  0.00     0.088 A 
ATOM     60  C21 0WR d   1      20.840  -7.396  20.642  0.00  0.00    -0.054 A 
ATOM     61  C25 0WR d   1      22.507  -6.604  19.079  0.00  0.00     0.088 A 
ATOM     62  C22 0WR d   1      21.726  -8.361  21.072  0.00  0.00    -0.081 A 
ATOM     63  H31 0WR d   1      19.851  -7.327  21.081  0.00  0.00     0.087 H 
ATOM     64  C23 0WR d   1      22.992  -8.455  20.516  0.00  0.00    -0.081 A 
ATOM     65  H32 0WR d   1      21.430  -9.053  21.852  0.00  0.00     0.083 H 
ATOM     66  C24 0WR d   1      23.391  -7.590  19.523  0.00  0.00    -0.053 A 
ATOM     67  H33 0WR d   1      23.676  -9.219  20.867  0.00  0.00     0.083 H 
ATOM     68  H34 0WR d   1      24.381  -7.673  19.090  0.00  0.00     0.087 H 
ATOM     69  N8  0WR d   1      22.601  -5.629  18.139  0.00  0.00    -0.217 NA
ATOM     70  C26 0WR d   1      21.483  -4.953  18.086  0.00  0.00     0.204 A 
BRANCH  70  71
ATOM     71  N9  0WR d   1      21.240  -3.888  17.242  0.00  0.00    -0.260 NA
BRANCH  71  72
ATOM     72  C27 0WR d   1      20.150  -4.176  16.297  0.00  0.00    -0.027 C 
ATOM     73  H35 0WR d   1      19.990  -3.304  15.645  0.00  0.00     0.049 H 
ATOM     74  H36 0WR d   1      19.227  -4.391  16.856  0.00  0.00     0.049 H 
ATOM     75  H37 0WR d   1      20.418  -5.048  15.683  0.00  0.00     0.049 H 
ENDBRANCH  71  72
BRANCH  71  76
ATOM     76  C28 0WR d   1      22.457  -3.457  16.542  0.00  0.00    -0.027 C 
ATOM     77  H38 0WR d   1      23.249  -3.251  17.277  0.00  0.00     0.049 H 
ATOM     78  H39 0WR d   1      22.245  -2.544  15.966  0.00  0.00     0.049 H 
ATOM     79  H40 0WR d   1      22.789  -4.253  15.859  0.00  0.00     0.049 H 
ENDBRANCH  71  76
ENDBRANCH  70  71
ENDBRANCH   8  58
TORSDOF 12
