REMARK  8 active torsions:
REMARK  status: ('A' for Active; 'I' for Inactive)
REMARK    1  A    between atoms: N02_2  and  C08_8 
REMARK    2  A    between atoms: C09_9  and  N02_2 
REMARK    3  A    between atoms: C07_7  and  N03_3 
REMARK    4  A    between atoms: S28_28  and  N04_4 
REMARK    5  A    between atoms: C12_12  and  N05_5 
REMARK    6  A    between atoms: C06_6  and  C10_10 
REMARK    7  A    between atoms: C10_10  and  C11_11 
REMARK    8  A    between atoms: C19_19  and  S28_28 
ROOT
ATOM      1  N01 X64 d   1     -51.218 101.297 -64.854  0.00  0.00    -0.205 NA
ATOM      2  C06 X64 d   1     -52.907 100.591 -63.369  0.00  0.00     0.104 A 
ATOM      3  C07 X64 d   1     -52.362 101.622 -64.141  0.00  0.00     0.145 A 
ATOM      4  C08 X64 d   1     -50.879 100.029 -64.651  0.00  0.00     0.174 A 
ATOM      5  S27 X64 d   1     -51.939  99.157 -63.606  0.00  0.00    -0.044 SA
ENDROOT
BRANCH   4   6
ATOM      6  N02 X64 d   1     -49.808  99.522 -65.242  0.00  0.00    -0.335 N 
ATOM      7  H1  X64 d   1     -49.514  99.997 -66.108  0.00  0.00     0.168 HD
BRANCH   6   8
ATOM      8  C09 X64 d   1     -49.049  98.475 -64.873  0.00  0.00     0.034 A 
ATOM      9  C17 X64 d   1     -49.177  97.787 -63.632  0.00  0.00    -0.056 A 
ATOM     10  C18 X64 d   1     -48.331  96.710 -63.305  0.00  0.00    -0.058 A 
ATOM     11  H10 X64 d   1     -49.939  98.098 -62.927  0.00  0.00     0.087 H 
ATOM     12  C19 X64 d   1     -47.331  96.302 -64.215  0.00  0.00     0.079 A 
ATOM     13  H11 X64 d   1     -48.447  96.196 -62.358  0.00  0.00     0.086 H 
ATOM     14  C20 X64 d   1     -47.182  96.965 -65.451  0.00  0.00    -0.058 A 
ATOM     15  C21 X64 d   1     -48.038  98.045 -65.779  0.00  0.00    -0.056 A 
ATOM     16  H12 X64 d   1     -46.414  96.649 -66.148  0.00  0.00     0.086 H 
ATOM     17  H13 X64 d   1     -47.922  98.550 -66.731  0.00  0.00     0.087 H 
BRANCH  12  18
ATOM     18  S28 X64 d   1     -46.239  94.982 -63.778  0.00  0.00     0.256 S 
ATOM     19  O23 X64 d   1     -45.285  95.563 -62.867  0.00  0.00    -0.201 OA
ATOM     20  O24 X64 d   1     -45.585  94.465 -64.960  0.00  0.00    -0.201 OA
BRANCH  18  21
ATOM     21  N04 X64 d   1     -47.045  93.769 -62.989  0.00  0.00    -0.324 N 
ATOM     22  H4  X64 d   1     -46.549  92.957 -62.682  0.00  0.00     0.169 HD
ATOM     23  H5  X64 d   1     -48.027  93.849 -62.819  0.00  0.00     0.169 HD
ENDBRANCH  18  21
ENDBRANCH  12  18
ENDBRANCH   6   8
ENDBRANCH   4   6
BRANCH   3  24
ATOM     24  N03 X64 d   1     -52.871 102.806 -64.183  0.00  0.00    -0.383 N 
ATOM     25  H2  X64 d   1     -53.722 103.020 -63.643  0.00  0.00     0.157 HD
ATOM     26  H3  X64 d   1     -52.427 103.537 -64.756  0.00  0.00     0.157 HD
ENDBRANCH   3  24
BRANCH   2  27
ATOM     27  C10 X64 d   1     -54.023 100.684 -62.533  0.00  0.00     0.205 C 
ATOM     28  O22 X64 d   1     -54.677 101.738 -62.473  0.00  0.00    -0.286 OA
BRANCH  27  29
ATOM     29  C11 X64 d   1     -54.368  99.653 -61.632  0.00  0.00     0.049 A 
ATOM     30  C12 X64 d   1     -55.672  99.034 -61.645  0.00  0.00     0.117 A 
ATOM     31  C13 X64 d   1     -55.964  98.027 -60.699  0.00  0.00    -0.050 A 
ATOM     32  C14 X64 d   1     -55.004  97.619 -59.752  0.00  0.00    -0.081 A 
ATOM     33  H6  X64 d   1     -56.943  97.561 -60.702  0.00  0.00     0.087 H 
ATOM     34  C15 X64 d   1     -53.731  98.207 -59.732  0.00  0.00    -0.082 A 
ATOM     35  H7  X64 d   1     -55.251  96.845 -59.034  0.00  0.00     0.083 H 
ATOM     36  C16 X64 d   1     -53.412  99.221 -60.661  0.00  0.00    -0.067 A 
ATOM     37  H8  X64 d   1     -52.994  97.884 -59.005  0.00  0.00     0.083 H 
ATOM     38  H9  X64 d   1     -52.429  99.678 -60.638  0.00  0.00     0.085 H 
BRANCH  30  39
ATOM     39  N05 X64 d   1     -56.595  99.369 -62.480  0.00  0.00    -0.115 N 
ATOM     40  O25 X64 d   1     -57.840  99.356 -62.091  0.00  0.00    -0.532 OA
ATOM     41  O26 X64 d   1     -56.312  99.728 -63.708  0.00  0.00    -0.532 OA
ENDBRANCH  30  39
ENDBRANCH  27  29
ENDBRANCH   2  27
TORSDOF 8
