REMARK  12 active torsions:
REMARK  status: ('A' for Active; 'I' for Inactive)
REMARK    1  A    between atoms: CAY_6  and  CAS_7 
REMARK    2  A    between atoms: CAS_7  and  CAX_8 
REMARK    3  A    between atoms: CAX_8  and  OAV_10 
REMARK    4  A    between atoms: OAV_10  and  CG1_11 
REMARK    5  A    between atoms: CG1_11  and  CB_12 
REMARK    6  A    between atoms: CB_12  and  SBE_13 
REMARK    7  A    between atoms: CB_12  and  CG2_16 
REMARK    8  A    between atoms: CB_12  and  CA_17 
REMARK    9  A    between atoms: CA_17  and  C_18 
REMARK   10  A    between atoms: CA_17  and  N_21 
REMARK   11  A    between atoms: N_21  and  CBA_22 
REMARK   12  A    between atoms: CAZ_30  and  CAH_31 
ROOT
ATOM      1  CB  17K d   1      36.774  61.302   0.186  0.00  0.00     0.110 C 
ENDROOT
BRANCH   1   2
ATOM      2  CG1 17K d   1      38.002  61.840  -0.561  0.00  0.00     0.051 C 
ATOM      3  H8  17K d   1      37.857  61.759  -1.648  0.00  0.00     0.078 H 
ATOM      4  H9  17K d   1      38.186  62.891  -0.293  0.00  0.00     0.078 H 
BRANCH   2   5
ATOM      5  OAV 17K d   1      39.083  61.025  -0.142  0.00  0.00    -0.319 OA
BRANCH   5   6
ATOM      6  CAX 17K d   1      40.341  61.502  -0.189  0.00  0.00     0.263 C 
ATOM      7  OAD 17K d   1      40.603  62.596  -0.692  0.00  0.00    -0.265 OA
BRANCH   6   8
ATOM      8  CAS 17K d   1      41.417  60.600   0.424  0.00  0.00     0.040 C 
ATOM      9  H6  17K d   1      41.602  60.909   1.464  0.00  0.00     0.055 H 
ATOM     10  H7  17K d   1      41.070  59.556   0.408  0.00  0.00     0.055 H 
BRANCH   8  11
ATOM     11  CAY 17K d   1      42.703  60.713  -0.369  0.00  0.00    -0.049 A 
ATOM     12  CAN 17K d   1      42.831  60.059  -1.595  0.00  0.00    -0.076 A 
ATOM     13  CAJ 17K d   1      44.023  60.186  -2.303  0.00  0.00    -0.082 A 
ATOM     14  H1  17K d   1      42.016  59.462  -1.989  0.00  0.00     0.084 H 
ATOM     15  CAI 17K d   1      45.061  60.959  -1.774  0.00  0.00    -0.083 A 
ATOM     16  H2  17K d   1      44.146  59.689  -3.258  0.00  0.00     0.083 H 
ATOM     17  CAK 17K d   1      44.926  61.609  -0.552  0.00  0.00    -0.082 A 
ATOM     18  H3  17K d   1      45.989  61.053  -2.327  0.00  0.00     0.083 H 
ATOM     19  CAO 17K d   1      43.734  61.490   0.155  0.00  0.00    -0.076 A 
ATOM     20  H4  17K d   1      45.741  62.202  -0.154  0.00  0.00     0.083 H 
ATOM     21  H5  17K d   1      43.608  61.997   1.105  0.00  0.00     0.084 H 
ENDBRANCH   8  11
ENDBRANCH   6   8
ENDBRANCH   5   6
ENDBRANCH   2   5
ENDBRANCH   1   2
BRANCH   1  22
ATOM     22  SBE 17K d   1      35.333  61.621  -0.884  0.00  0.00     0.150 S 
ATOM     23  OAE 17K d   1      35.676  60.937  -2.173  0.00  0.00    -0.230 OA
ATOM     24  OAF 17K d   1      35.285  63.110  -1.091  0.00  0.00    -0.230 OA
ATOM     25  H10 17K d   1      34.472  61.274  -0.491  0.00  0.00     0.172 HD
ENDBRANCH   1  22
BRANCH   1  26
ATOM     26  CG2 17K d   1      36.864  59.785   0.467  0.00  0.00    -0.052 C 
ATOM     27  H11 17K d   1      37.731  59.583   1.113  0.00  0.00     0.029 H 
ATOM     28  H12 17K d   1      36.979  59.242  -0.483  0.00  0.00     0.029 H 
ATOM     29  H13 17K d   1      35.946  59.450   0.971  0.00  0.00     0.029 H 
ENDBRANCH   1  26
BRANCH   1  30
ATOM     30  CA  17K d   1      36.563  62.148   1.455  0.00  0.00     0.117 C 
ATOM     31  H14 17K d   1      36.494  63.192   1.116  0.00  0.00     0.092 H 
BRANCH  30  32
ATOM     32  C   17K d   1      37.755  62.105   2.443  0.00  0.00     0.198 C 
ATOM     33  OXT 17K d   1      37.774  61.190   3.295  0.00  0.00    -0.646 OA
ATOM     34  O   17K d   1      38.619  63.008   2.289  0.00  0.00    -0.646 OA
ENDBRANCH  30  32
BRANCH  30  35
ATOM     35  N   17K d   1      35.263  61.836   2.103  0.00  0.00    -0.359 N 
ATOM     36  H15 17K d   1      34.715  61.017   1.804  0.00  0.00     0.162 HD
BRANCH  35  37
ATOM     37  CBA 17K d   1      34.812  62.631   3.080  0.00  0.00     0.122 A 
ATOM     38  NBD 17K d   1      34.695  64.014   3.038  0.00  0.00    -0.308 N 
ATOM     39  CAQ 17K d   1      34.957  64.965   2.032  0.00  0.00    -0.013 A 
ATOM     40  CBB 17K d   1      34.177  64.413   4.294  0.00  0.00     0.041 A 
ATOM     41  CAM 17K d   1      34.713  66.307   2.308  0.00  0.00    -0.067 A 
ATOM     42  H16 17K d   1      35.342  64.657   1.061  0.00  0.00     0.112 H 
ATOM     43  CAL 17K d   1      34.222  66.716   3.547  0.00  0.00    -0.080 A 
ATOM     44  H17 17K d   1      34.910  67.053   1.540  0.00  0.00     0.085 H 
ATOM     45  CAP 17K d   1      33.953  65.773   4.543  0.00  0.00    -0.057 A 
ATOM     46  H18 17K d   1      34.047  67.774   3.740  0.00  0.00     0.083 H 
ATOM     47  H19 17K d   1      33.570  66.095   5.510  0.00  0.00     0.086 H 
ATOM     48  CAR 17K d   1      33.995  63.302   5.049  0.00  0.00    -0.040 A 
ATOM     49  CAZ 17K d   1      34.372  62.232   4.326  0.00  0.00     0.048 A 
ATOM     50  H20 17K d   1      33.609  63.279   6.067  0.00  0.00     0.088 H 
BRANCH  49  51
ATOM     51  CAH 17K d   1      34.331  60.768   4.747  0.00  0.00     0.122 C 
ATOM     52  OAB 17K d   1      34.511  59.847   3.951  0.00  0.00    -0.301 OA
ATOM     53  H21 17K d   1      34.135  60.528   5.791  0.00  0.00     0.151 H 
ENDBRANCH  49  51
ENDBRANCH  35  37
ENDBRANCH  30  35
ENDBRANCH   1  30
TORSDOF 12
