REMARK  10 active torsions:
REMARK  status: ('A' for Active; 'I' for Inactive)
REMARK    1  A    between atoms: C2_2  and  O28_28 
REMARK    2  A    between atoms: C5_5  and  C13_13 
REMARK    3  A    between atoms: C17_17  and  C7_7 
REMARK    4  A    between atoms: C10_10  and  O24_24 
REMARK    5  A    between atoms: C11_11  and  C16_16 
REMARK    6  A    between atoms: C13_13  and  N19_19 
REMARK    7  A    between atoms: N19_19  and  C15_15 
REMARK    8  A    between atoms: O26_26  and  C17_17 
REMARK    9  A    between atoms: O26_26  and  P27_27 
REMARK   10  A    between atoms: O28_28  and  C29_29 
ROOT
ATOM      1  C1  0X1 d   1     -16.160  22.310  16.767  0.00  0.00    -0.038 A 
ATOM      2  C2  0X1 d   1     -16.588  22.006  18.045  0.00  0.00     0.077 A 
ATOM      3  C3  0X1 d   1     -18.715  21.306  17.184  0.00  0.00    -0.053 A 
ATOM      4  C6  0X1 d   1     -17.019  22.120  15.704  0.00  0.00    -0.004 A 
ATOM      5  C8  0X1 d   1     -18.297  21.631  15.906  0.00  0.00     0.056 A 
ATOM      6  C9  0X1 d   1     -17.856  21.495  18.247  0.00  0.00    -0.048 A 
ATOM      7  C12 0X1 d   1     -18.730  21.801  13.504  0.00  0.00     0.185 A 
ATOM      8  C14 0X1 d   1     -16.584  22.472  14.366  0.00  0.00    -0.041 A 
ATOM      9  C15 0X1 d   1     -17.372  22.344  13.289  0.00  0.00     0.078 A 
ATOM     10  N20 0X1 d   1     -19.124  21.472  14.764  0.00  0.00    -0.242 N 
ATOM     11  C25 0X1 d   1     -20.425  21.035  14.681  0.00  0.00     0.349 A 
ATOM     12  N35 0X1 d   1     -20.704  21.113  13.332  0.00  0.00    -0.226 N 
ATOM     13  O36 0X1 d   1     -21.196  20.661  15.559  0.00  0.00    -0.245 OA
ATOM     14  N37 0X1 d   1     -19.651  21.599  12.621  0.00  0.00    -0.149 NA
ATOM     15  H   0X1 d   1     -15.154  22.696  16.600  0.00  0.00     0.089 H 
ATOM     16  H   0X1 d   1     -19.715  20.904  17.350  0.00  0.00     0.087 H 
ATOM     17  H   0X1 d   1     -18.180  21.239  19.256  0.00  0.00     0.087 H 
ATOM     18  H   0X1 d   1     -15.573  22.857  14.230  0.00  0.00     0.088 H 
ATOM     19  H   0X1 d   1     -21.595  20.839  12.917  0.00  0.00     0.194 HD
ENDROOT
BRANCH   9  20
ATOM     20  N19 0X1 d   1     -17.058  22.670  11.997  0.00  0.00    -0.382 N 
ATOM     21  H   0X1 d   1     -17.789  22.615  11.288  0.00  0.00     0.160 HD
BRANCH  20  22
ATOM     22  C13 0X1 d   1     -15.724  23.092  11.593  0.00  0.00     0.020 C 
ATOM     23  H   0X1 d   1     -15.277  23.671  12.401  0.00  0.00     0.071 H 
ATOM     24  H   0X1 d   1     -15.124  22.208  11.377  0.00  0.00     0.071 H 
BRANCH  22  25
ATOM     25  C5  0X1 d   1     -15.791  23.951  10.356  0.00  0.00     0.004 A 
ATOM     26  C7  0X1 d   1     -14.822  24.911  10.105  0.00  0.00    -0.006 A 
ATOM     27  C4  0X1 d   1     -14.945  25.674   8.959  0.00  0.00     0.011 A 
ATOM     28  N18 0X1 d   1     -15.934  25.577   8.064  0.00  0.00    -0.262 NA
ATOM     29  H   0X1 d   1     -14.171  26.417   8.769  0.00  0.00     0.115 H 
ATOM     30  C11 0X1 d   1     -16.839  24.625   8.308  0.00  0.00     0.064 A 
ATOM     31  C10 0X1 d   1     -16.798  23.812   9.419  0.00  0.00     0.098 A 
BRANCH  26  32
ATOM     32  C17 0X1 d   1     -13.645  25.117  11.009  0.00  0.00     0.058 C 
ATOM     33  H   0X1 d   1     -13.953  25.264  12.044  0.00  0.00     0.082 H 
ATOM     34  H   0X1 d   1     -13.088  26.017  10.748  0.00  0.00     0.082 H 
BRANCH  32  35
ATOM     35  O26 0X1 d   1     -12.852  23.945  10.857  0.00  0.00    -0.278 OA
BRANCH  35  36
ATOM     36  P27 0X1 d   1     -11.262  23.917  11.216  0.00  0.00     0.422 P 
ATOM     37  O21 0X1 d   1     -10.585  23.605   9.927  0.00  0.00    -0.617 OA
ATOM     38  O22 0X1 d   1     -11.182  22.800  12.227  0.00  0.00    -0.617 OA
ATOM     39  O23 0X1 d   1     -10.935  25.291  11.737  0.00  0.00    -0.617 OA
ENDBRANCH  35  36
ENDBRANCH  32  35
ENDBRANCH  26  32
BRANCH  30  40
ATOM     40  C16 0X1 d   1     -17.953  24.491   7.324  0.00  0.00    -0.033 C 
ATOM     41  H   0X1 d   1     -17.953  23.482   6.912  0.00  0.00     0.035 H 
ATOM     42  H   0X1 d   1     -18.903  24.680   7.824  0.00  0.00     0.035 H 
ATOM     43  H   0X1 d   1     -17.814  25.213   6.519  0.00  0.00     0.035 H 
ENDBRANCH  30  40
BRANCH  31  44
ATOM     44  O24 0X1 d   1     -17.796  22.876   9.607  0.00  0.00    -0.358 OA
ATOM     45  H   0X1 d   1     -17.806  22.267   8.865  0.00  0.00     0.217 HD
ENDBRANCH  31  44
ENDBRANCH  22  25
ENDBRANCH  20  22
ENDBRANCH   9  20
BRANCH   2  46
ATOM     46  O28 0X1 d   1     -15.751  22.172  19.147  0.00  0.00    -0.311 OA
BRANCH  46  47
ATOM     47  C29 0X1 d   1     -15.521  23.491  19.507  0.00  0.00     0.076 A 
ATOM     48  C30 0X1 d   1     -14.451  23.767  20.337  0.00  0.00    -0.050 A 
ATOM     49  C31 0X1 d   1     -14.175  25.069  20.708  0.00  0.00    -0.080 A 
ATOM     50  H   0X1 d   1     -13.822  22.954  20.700  0.00  0.00     0.087 H 
ATOM     51  C32 0X1 d   1     -14.974  26.093  20.248  0.00  0.00    -0.083 A 
ATOM     52  H   0X1 d   1     -13.330  25.285  21.361  0.00  0.00     0.083 H 
ATOM     53  C33 0X1 d   1     -16.057  25.813  19.437  0.00  0.00    -0.080 A 
ATOM     54  H   0X1 d   1     -14.752  27.124  20.524  0.00  0.00     0.083 H 
ATOM     55  C34 0X1 d   1     -16.339  24.512  19.068  0.00  0.00    -0.050 A 
ATOM     56  H   0X1 d   1     -16.694  26.625  19.086  0.00  0.00     0.083 H 
ATOM     57  H   0X1 d   1     -17.200  24.294  18.436  0.00  0.00     0.087 H 
ENDBRANCH  46  47
ENDBRANCH   2  46
TORSDOF 10
