REMARK  14 active torsions:
REMARK  status: ('A' for Active; 'I' for Inactive)
REMARK    1  A    between atoms: C23_1  and  C24_3 
REMARK       I    between atoms: N1_4  and  C23_1 
REMARK    2  A    between atoms: C9_5  and  N1_4 
REMARK    3  A    between atoms: C10_6  and  C9_5 
REMARK    4  A    between atoms: C9_5  and  C8_8 
REMARK       I    between atoms: N2_22  and  C10_6 
REMARK    5  A    between atoms: C8_8  and  C5_9 
REMARK    6  A    between atoms: C2_14  and  C1_15 
REMARK    7  A    between atoms: C1_15  and  P1_18 
REMARK    8  A    between atoms: C11_24  and  N2_22 
REMARK    9  A    between atoms: C15_28  and  N4_23 
REMARK       I    between atoms: N4_23  and  C16_29 
REMARK   10  A    between atoms: C11_24  and  C12_25 
REMARK   11  A    between atoms: C13_26  and  C11_24 
REMARK       I    between atoms: C12_25  and  N3_39 
REMARK   12  A    between atoms: C14_27  and  C13_26 
REMARK   13  A    between atoms: C14_27  and  C15_28 
REMARK   14  A    between atoms: C16_29  and  C17_30 
ROOT
ATOM      1  C10 75A d   1      17.245  -1.738  -2.709  0.00  0.00     0.241 C 
ATOM      2  O4  75A d   1      17.346  -2.591  -1.856  0.00  0.00    -0.271 OA
ATOM      3  N2  75A d   1      17.357  -2.010  -4.062  0.00  0.00    -0.346 N 
ATOM      4  H12 75A d   1      18.011  -1.472  -4.594  0.00  0.00     0.163 HD
ENDROOT
BRANCH   3   5
ATOM      5  C11 75A d   1      16.573  -3.043  -4.771  0.00  0.00     0.089 C 
ATOM      6  H14 75A d   1      15.592  -3.139  -4.282  0.00  0.00     0.087 H 
BRANCH   5   7
ATOM      7  C12 75A d   1      17.267  -4.421  -4.736  0.00  0.00     0.238 C 
ATOM      8  O5  75A d   1      16.739  -5.428  -4.334  0.00  0.00    -0.271 OA
ATOM      9  N3  75A d   1      18.551  -4.456  -5.194  0.00  0.00    -0.368 N 
ATOM     10  H25 75A d   1      19.057  -5.319  -5.198  0.00  0.00     0.159 HD
ATOM     11  H26 75A d   1      18.986  -3.619  -5.526  0.00  0.00     0.159 HD
ENDBRANCH   5   7
BRANCH   5  12
ATOM     12  C13 75A d   1      16.364  -2.571  -6.232  0.00  0.00    -0.036 C 
ATOM     13  H15 75A d   1      17.084  -3.106  -6.868  0.00  0.00     0.036 H 
ATOM     14  H16 75A d   1      16.569  -1.491  -6.273  0.00  0.00     0.036 H 
BRANCH  12  15
ATOM     15  C14 75A d   1      14.952  -2.810  -6.806  0.00  0.00    -0.048 C 
ATOM     16  H17 75A d   1      14.402  -1.858  -6.816  0.00  0.00     0.035 H 
ATOM     17  H18 75A d   1      14.422  -3.533  -6.168  0.00  0.00     0.035 H 
BRANCH  15  18
ATOM     18  C15 75A d   1      15.027  -3.366  -8.247  0.00  0.00    -0.004 C 
ATOM     19  H19 75A d   1      15.868  -4.071  -8.327  0.00  0.00     0.064 H 
ATOM     20  H20 75A d   1      14.088  -3.885  -8.491  0.00  0.00     0.064 H 
BRANCH  18  21
ATOM     21  N4  75A d   1      15.229  -2.253  -9.177  0.00  0.00    -0.357 N 
ATOM     22  C16 75A d   1      16.150  -2.099 -10.185  0.00  0.00     0.251 C 
ATOM     23  O6  75A d   1      17.246  -2.574  -9.932  0.00  0.00    -0.268 OA
ATOM     24  H13 75A d   1      14.598  -1.486  -9.060  0.00  0.00     0.162 HD
BRANCH  22  25
ATOM     25  C17 75A d   1      15.975  -1.488 -11.399  0.00  0.00     0.033 A 
ATOM     26  C18 75A d   1      16.033  -0.098 -11.460  0.00  0.00    -0.068 A 
ATOM     27  C19 75A d   1      15.863   0.588 -12.647  0.00  0.00    -0.081 A 
ATOM     28  H21 75A d   1      16.217   0.462 -10.550  0.00  0.00     0.085 H 
ATOM     29  C20 75A d   1      15.627  -0.103 -13.815  0.00  0.00    -0.067 A 
ATOM     30  H22 75A d   1      15.915   1.671 -12.659  0.00  0.00     0.083 H 
ATOM     31  C21 75A d   1      15.566  -1.480 -13.777  0.00  0.00     0.007 A 
ATOM     32  H23 75A d   1      15.491   0.428 -14.750  0.00  0.00     0.085 H 
ATOM     33  C22 75A d   1      15.739  -2.154 -12.589  0.00  0.00    -0.052 A 
ATOM     34  I   75A d   1      15.197  -2.590 -15.603  0.00  0.00    -0.045 I 
ATOM     35  H24 75A d   1      15.689  -3.237 -12.586  0.00  0.00     0.087 H 
ENDBRANCH  22  25
ENDBRANCH  18  21
ENDBRANCH  15  18
ENDBRANCH  12  15
ENDBRANCH   5  12
ENDBRANCH   3   5
BRANCH   1  36
ATOM     36  C9  75A d   1      16.998  -0.265  -2.339  0.00  0.00     0.093 C 
ATOM     37  H5  75A d   1      17.190  -0.163  -1.261  0.00  0.00     0.088 H 
BRANCH  36  38
ATOM     38  N1  75A d   1      17.930   0.604  -3.081  0.00  0.00    -0.348 N 
ATOM     39  C23 75A d   1      19.109   1.163  -2.665  0.00  0.00     0.214 C 
ATOM     40  O7  75A d   1      18.979   2.172  -2.002  0.00  0.00    -0.274 OA
ATOM     41  H4  75A d   1      17.663   0.815  -4.021  0.00  0.00     0.163 HD
BRANCH  39  42
ATOM     42  C24 75A d   1      20.357   0.690  -2.946  0.00  0.00    -0.003 C 
ATOM     43  H1  75A d   1      20.275  -0.224  -3.552  0.00  0.00     0.040 H 
ATOM     44  H2  75A d   1      20.883   0.462  -2.007  0.00  0.00     0.040 H 
ATOM     45  H3  75A d   1      20.920   1.451  -3.506  0.00  0.00     0.040 H 
ENDBRANCH  39  42
ENDBRANCH  36  38
BRANCH  36  46
ATOM     46  C8  75A d   1      15.557   0.283  -2.626  0.00  0.00    -0.014 C 
ATOM     47  H6  75A d   1      15.257  -0.021  -3.639  0.00  0.00     0.043 H 
ATOM     48  H7  75A d   1      15.575   1.381  -2.563  0.00  0.00     0.043 H 
BRANCH  46  49
ATOM     49  C5  75A d   1      14.531  -0.252  -1.625  0.00  0.00    -0.056 A 
ATOM     50  C6  75A d   1      14.467   0.245  -0.340  0.00  0.00    -0.076 A 
ATOM     51  C7  75A d   1      13.549  -0.242   0.566  0.00  0.00    -0.070 A 
ATOM     52  H8  75A d   1      15.149   1.031  -0.038  0.00  0.00     0.084 H 
ATOM     53  C2  75A d   1      12.653  -1.250   0.221  0.00  0.00     0.027 A 
ATOM     54  H10 75A d   1      13.524   0.169   1.569  0.00  0.00     0.084 H 
ATOM     55  C3  75A d   1      12.721  -1.742  -1.072  0.00  0.00    -0.070 A 
ATOM     56  C4  75A d   1      13.642  -1.252  -1.976  0.00  0.00    -0.076 A 
ATOM     57  H11 75A d   1      12.039  -2.526  -1.380  0.00  0.00     0.084 H 
ATOM     58  H9  75A d   1      13.669  -1.659  -2.980  0.00  0.00     0.084 H 
BRANCH  53  59
ATOM     59  C1  75A d   1      11.648  -1.796   1.239  0.00  0.00     0.380 C 
ATOM     60  F1  75A d   1      11.970  -1.407   2.507  0.00  0.00    -0.185 F 
ATOM     61  F2  75A d   1      11.619  -3.171   1.269  0.00  0.00    -0.185 F 
BRANCH  59  62
ATOM     62  P1  75A d   1       9.891  -1.238   0.947  0.00  0.00     0.339 P 
ATOM     63  O2  75A d   1       9.655   0.151   1.420  0.00  0.00    -0.635 OA
ATOM     64  O1  75A d   1       9.541  -1.307  -0.619  0.00  0.00    -0.635 OA
ATOM     65  O3  75A d   1       8.937  -2.247   1.770  0.00  0.00    -0.635 OA
ENDBRANCH  59  62
ENDBRANCH  53  59
ENDBRANCH  46  49
ENDBRANCH  36  46
ENDBRANCH   1  36
TORSDOF 14
