REMARK  11 active torsions:
REMARK  status: ('A' for Active; 'I' for Inactive)
REMARK    1  A    between atoms: C25_18  and  C22_6 
REMARK    2  A    between atoms: C17_7  and  C11_17 
REMARK    3  A    between atoms: C12_9  and  O9_28 
REMARK    4  A    between atoms: C18_10  and  O23_26 
REMARK    5  A    between atoms: C19_11  and  C24_15 
REMARK    6  A    between atoms: N8_21  and  C3_13 
REMARK    7  A    between atoms: O9_28  and  C10_16 
REMARK    8  A    between atoms: C11_17  and  N8_21 
REMARK    9  A    between atoms: O26_29  and  C25_18 
REMARK   10  A    between atoms: N5_20  and  O6_27 
REMARK   11  A    between atoms: O26_29  and  P27_30 
ROOT
ATOM      1  C11 0KE d   1      26.646  -0.504 -14.699  0.00  0.00     0.020 C 
ATOM      2  H12 0KE d   1      26.928   0.189 -15.506  0.00  0.00     0.071 H 
ATOM      3  H13 0KE d   1      25.596  -0.333 -14.420  0.00  0.00     0.071 H 
ENDROOT
BRANCH   1   4
ATOM      4  C17 0KE d   1      27.499  -0.193 -13.502  0.00  0.00     0.004 A 
ATOM      5  C22 0KE d   1      27.734   1.135 -13.180  0.00  0.00    -0.006 A 
ATOM      6  C21 0KE d   1      28.496   1.416 -12.065  0.00  0.00     0.011 A 
ATOM      7  N20 0KE d   1      29.053   0.503 -11.264  0.00  0.00    -0.262 NA
ATOM      8  H4  0KE d   1      28.655   2.460 -11.819  0.00  0.00     0.115 H 
ATOM      9  C19 0KE d   1      28.835  -0.778 -11.597  0.00  0.00     0.064 A 
ATOM     10  C18 0KE d   1      28.063  -1.157 -12.677  0.00  0.00     0.098 A 
BRANCH   5  11
ATOM     11  C25 0KE d   1      27.201   2.276 -13.990  0.00  0.00     0.058 C 
ATOM     12  H14 0KE d   1      27.643   2.245 -14.997  0.00  0.00     0.082 H 
ATOM     13  H15 0KE d   1      27.467   3.225 -13.501  0.00  0.00     0.082 H 
BRANCH  11  14
ATOM     14  O26 0KE d   1      25.786   2.181 -14.094  0.00  0.00    -0.278 OA
BRANCH  14  15
ATOM     15  P27 0KE d   1      24.909   3.552 -14.173  0.00  0.00     0.422 P 
ATOM     16  O29 0KE d   1      24.567   3.836 -12.735  0.00  0.00    -0.617 OA
ATOM     17  O30 0KE d   1      25.764   4.636 -14.796  0.00  0.00    -0.617 OA
ATOM     18  O28 0KE d   1      23.788   3.125 -15.065  0.00  0.00    -0.617 OA
ENDBRANCH  14  15
ENDBRANCH  11  14
ENDBRANCH   5  11
BRANCH   9  19
ATOM     19  C24 0KE d   1      29.455  -1.816 -10.723  0.00  0.00    -0.033 C 
ATOM     20  H6  0KE d   1      30.028  -1.326  -9.922  0.00  0.00     0.035 H 
ATOM     21  H7  0KE d   1      30.128  -2.446 -11.323  0.00  0.00     0.035 H 
ATOM     22  H8  0KE d   1      28.666  -2.441 -10.280  0.00  0.00     0.035 H 
ENDBRANCH   9  19
BRANCH  10  23
ATOM     23  O23 0KE d   1      27.872  -2.513 -12.890  0.00  0.00    -0.358 OA
ATOM     24  H17 0KE d   1      27.445  -2.894 -12.132  0.00  0.00     0.217 HD
ENDBRANCH  10  23
ENDBRANCH   1   4
BRANCH   1  25
ATOM     25  N8  0KE d   1      26.758  -1.855 -15.211  0.00  0.00    -0.381 N 
ATOM     26  H16 0KE d   1      27.141  -2.601 -14.613  0.00  0.00     0.160 HD
BRANCH  25  27
ATOM     27  C3  0KE d   1      26.351  -2.144 -16.501  0.00  0.00     0.100 A 
ATOM     28  C2  0KE d   1      25.811  -1.271 -17.374  0.00  0.00    -0.040 A 
ATOM     29  C1  0KE d   1      25.413  -1.653 -18.725  0.00  0.00    -0.004 A 
ATOM     30  H5  0KE d   1      25.666  -0.239 -17.059  0.00  0.00     0.088 H 
ATOM     31  C14 0KE d   1      24.893  -0.742 -19.627  0.00  0.00    -0.068 A 
ATOM     32  C16 0KE d   1      25.580  -2.957 -19.124  0.00  0.00     0.079 A 
ATOM     33  C13 0KE d   1      24.515  -1.152 -20.892  0.00  0.00    -0.050 A 
ATOM     34  H1  0KE d   1      24.782   0.297 -19.341  0.00  0.00     0.085 H 
ATOM     35  C12 0KE d   1      24.664  -2.478 -21.262  0.00  0.00     0.070 A 
ATOM     36  H2  0KE d   1      24.102  -0.436 -21.594  0.00  0.00     0.087 H 
ATOM     37  C15 0KE d   1      25.206  -3.382 -20.379  0.00  0.00    -0.022 A 
ATOM     38  H3  0KE d   1      25.337  -4.418 -20.668  0.00  0.00     0.091 H 
ATOM     39  N5  0KE d   1      26.135  -3.855 -18.220  0.00  0.00    -0.185 N 
ATOM     40  C4  0KE d   1      26.542  -3.567 -16.932  0.00  0.00     0.298 A 
ATOM     41  O7  0KE d   1      27.036  -4.406 -16.180  0.00  0.00    -0.263 OA
BRANCH  35  42
ATOM     42  O9  0KE d   1      24.304  -2.998 -22.503  0.00  0.00    -0.356 OA
BRANCH  42  43
ATOM     43  C10 0KE d   1      23.857  -1.950 -23.355  0.00  0.00     0.010 C 
ATOM     44  H9  0KE d   1      23.575  -2.368 -24.333  0.00  0.00     0.066 H 
ATOM     45  H10 0KE d   1      24.666  -1.217 -23.489  0.00  0.00     0.066 H 
ATOM     46  H11 0KE d   1      22.985  -1.456 -22.902  0.00  0.00     0.066 H 
ENDBRANCH  42  43
ENDBRANCH  35  42
BRANCH  39  47
ATOM     47  O6  0KE d   1      26.302  -5.191 -18.662  0.00  0.00    -0.279 OA
ATOM     48  H18 0KE d   1      25.989  -5.269 -19.556  0.00  0.00     0.245 HD
ENDBRANCH  39  47
ENDBRANCH  25  27
ENDBRANCH   1  25
TORSDOF 11
