REMARK  15 active torsions:
REMARK  status: ('A' for Active; 'I' for Inactive)
REMARK    1  A    between atoms: C23_1  and  C24_2 
REMARK       I    between atoms: N1_11  and  C23_1 
REMARK    2  A    between atoms: C26_4  and  C30_8 
REMARK    3  A    between atoms: C9_12  and  N1_11 
REMARK    4  A    between atoms: C10_13  and  C9_12 
REMARK    5  A    between atoms: C9_12  and  C8_15 
REMARK       I    between atoms: N2_29  and  C10_13 
REMARK    6  A    between atoms: C8_15  and  C5_16 
REMARK    7  A    between atoms: C2_21  and  C1_22 
REMARK    8  A    between atoms: C1_22  and  P1_25 
REMARK    9  A    between atoms: C11_31  and  N2_29 
REMARK   10  A    between atoms: C15_35  and  N4_30 
REMARK       I    between atoms: N4_30  and  C16_36 
REMARK   11  A    between atoms: C11_31  and  C12_32 
REMARK   12  A    between atoms: C13_33  and  C11_31 
REMARK       I    between atoms: C12_32  and  N3_46 
REMARK   13  A    between atoms: C14_34  and  C13_33 
REMARK   14  A    between atoms: C14_34  and  C15_35 
REMARK   15  A    between atoms: C16_36  and  C17_37 
ROOT
ATOM      1  C9  A89 d   1      16.516   0.328  -1.698  0.00  0.00     0.093 C 
ATOM      2  H8  A89 d   1      16.831   0.455  -0.652  0.00  0.00     0.088 H 
ENDROOT
BRANCH   1   3
ATOM      3  N1  A89 d   1      17.386   1.114  -2.583  0.00  0.00    -0.343 N 
ATOM      4  C23 A89 d   1      18.524   1.826  -2.312  0.00  0.00     0.252 C 
ATOM      5  O7  A89 d   1      18.915   1.774  -1.162  0.00  0.00    -0.268 OA
ATOM      6  H7  A89 d   1      17.100   1.132  -3.541  0.00  0.00     0.163 HD
BRANCH   4   7
ATOM      7  C24 A89 d   1      19.200   2.550  -3.240  0.00  0.00     0.032 A 
ATOM      8  C25 A89 d   1      20.073   1.966  -4.136  0.00  0.00    -0.061 A 
ATOM      9  C26 A89 d   1      20.755   2.692  -5.089  0.00  0.00    -0.044 A 
ATOM     10  H1  A89 d   1      20.228   0.894  -4.088  0.00  0.00     0.086 H 
ATOM     11  C27 A89 d   1      20.540   4.074  -5.133  0.00  0.00     0.017 A 
ATOM     12  C28 A89 d   1      19.672   4.671  -4.245  0.00  0.00    -0.065 A 
ATOM     13 BR   A89 d   1      21.392   5.221  -6.384  0.00  0.00    -0.051 Br
ATOM     14  C29 A89 d   1      19.009   3.918  -3.309  0.00  0.00    -0.066 A 
ATOM     15  H2  A89 d   1      19.512   5.742  -4.286  0.00  0.00     0.085 H 
ATOM     16  H3  A89 d   1      18.329   4.400  -2.617  0.00  0.00     0.085 H 
BRANCH   9  17
ATOM     17  C30 A89 d   1      21.694   1.954  -6.032  0.00  0.00    -0.050 C 
ATOM     18  H4  A89 d   1      21.686   0.880  -5.792  0.00  0.00     0.033 H 
ATOM     19  H5  A89 d   1      22.715   2.348  -5.916  0.00  0.00     0.033 H 
ATOM     20  H6  A89 d   1      21.361   2.100  -7.070  0.00  0.00     0.033 H 
ENDBRANCH   9  17
ENDBRANCH   4   7
ENDBRANCH   1   3
BRANCH   1  21
ATOM     21  C10 A89 d   1      16.657  -1.158  -2.055  0.00  0.00     0.241 C 
ATOM     22  O4  A89 d   1      16.791  -2.005  -1.200  0.00  0.00    -0.271 OA
ATOM     23  N2  A89 d   1      16.612  -1.437  -3.402  0.00  0.00    -0.346 N 
ATOM     24  H15 A89 d   1      17.018  -0.766  -4.022  0.00  0.00     0.163 HD
BRANCH  23  25
ATOM     25  C11 A89 d   1      16.014  -2.646  -4.009  0.00  0.00     0.089 C 
ATOM     26  H17 A89 d   1      15.085  -2.907  -3.481  0.00  0.00     0.087 H 
BRANCH  25  27
ATOM     27  C12 A89 d   1      16.983  -3.840  -3.933  0.00  0.00     0.238 C 
ATOM     28  O5  A89 d   1      16.709  -4.907  -3.437  0.00  0.00    -0.271 OA
ATOM     29  N3  A89 d   1      18.221  -3.631  -4.462  0.00  0.00    -0.368 N 
ATOM     30  H28 A89 d   1      18.901  -4.364  -4.447  0.00  0.00     0.159 HD
ATOM     31  H29 A89 d   1      18.449  -2.745  -4.865  0.00  0.00     0.159 HD
ENDBRANCH  25  27
BRANCH  25  32
ATOM     32  C13 A89 d   1      15.698  -2.286  -5.481  0.00  0.00    -0.036 C 
ATOM     33  H18 A89 d   1      16.515  -2.678  -6.105  0.00  0.00     0.036 H 
ATOM     34  H19 A89 d   1      15.670  -1.189  -5.560  0.00  0.00     0.036 H 
BRANCH  32  35
ATOM     35  C14 A89 d   1      14.373  -2.831  -6.045  0.00  0.00    -0.048 C 
ATOM     36  H20 A89 d   1      13.607  -2.043  -5.985  0.00  0.00     0.035 H 
ATOM     37  H21 A89 d   1      14.057  -3.696  -5.444  0.00  0.00     0.035 H 
BRANCH  35  38
ATOM     38  C15 A89 d   1      14.528  -3.273  -7.522  0.00  0.00    -0.004 C 
ATOM     39  H22 A89 d   1      15.213  -4.132  -7.574  0.00  0.00     0.064 H 
ATOM     40  H23 A89 d   1      13.544  -3.563  -7.920  0.00  0.00     0.064 H 
BRANCH  38  41
ATOM     41  N4  A89 d   1      15.072  -2.166  -8.328  0.00  0.00    -0.357 N 
ATOM     42  C16 A89 d   1      15.937  -2.206  -9.400  0.00  0.00     0.251 C 
ATOM     43  O6  A89 d   1      16.917  -2.900  -9.204  0.00  0.00    -0.268 OA
ATOM     44  H16 A89 d   1      14.769  -1.252  -8.058  0.00  0.00     0.162 HD
BRANCH  42  45
ATOM     45  C17 A89 d   1      15.824  -1.574 -10.615  0.00  0.00     0.033 A 
ATOM     46  C18 A89 d   1      16.009  -0.196 -10.674  0.00  0.00    -0.068 A 
ATOM     47  C19 A89 d   1      15.909   0.511 -11.856  0.00  0.00    -0.081 A 
ATOM     48  H24 A89 d   1      16.239   0.341  -9.761  0.00  0.00     0.085 H 
ATOM     49  C20 A89 d   1      15.620  -0.147 -13.029  0.00  0.00    -0.067 A 
ATOM     50  H25 A89 d   1      16.058   1.585 -11.860  0.00  0.00     0.083 H 
ATOM     51  C21 A89 d   1      15.433  -1.513 -12.996  0.00  0.00     0.007 A 
ATOM     52  H26 A89 d   1      15.541   0.398 -13.963  0.00  0.00     0.085 H 
ATOM     53  C22 A89 d   1      15.536  -2.207 -11.809  0.00  0.00    -0.052 A 
ATOM     54  I   A89 d   1      14.980  -2.576 -14.820  0.00  0.00    -0.045 I 
ATOM     55  H27 A89 d   1      15.387  -3.281 -11.813  0.00  0.00     0.087 H 
ENDBRANCH  42  45
ENDBRANCH  38  41
ENDBRANCH  35  38
ENDBRANCH  32  35
ENDBRANCH  25  32
ENDBRANCH  23  25
ENDBRANCH   1  21
BRANCH   1  56
ATOM     56  C8  A89 d   1      15.088   0.943  -1.863  0.00  0.00    -0.014 C 
ATOM     57  H9  A89 d   1      14.798   0.885  -2.923  0.00  0.00     0.043 H 
ATOM     58  H10 A89 d   1      15.118   1.996  -1.548  0.00  0.00     0.043 H 
BRANCH  56  59
ATOM     59  C5  A89 d   1      14.048   0.216  -1.033  0.00  0.00    -0.056 A 
ATOM     60  C6  A89 d   1      13.862   0.518   0.302  0.00  0.00    -0.076 A 
ATOM     61  C7  A89 d   1      12.920  -0.156   1.046  0.00  0.00    -0.070 A 
ATOM     62  H11 A89 d   1      14.462   1.292   0.767  0.00  0.00     0.084 H 
ATOM     63  C2  A89 d   1      12.135  -1.152   0.481  0.00  0.00     0.027 A 
ATOM     64  H13 A89 d   1      12.789   0.096   2.092  0.00  0.00     0.084 H 
ATOM     65  C3  A89 d   1      12.327  -1.442  -0.851  0.00  0.00    -0.070 A 
ATOM     66  C4  A89 d   1      13.261  -0.775  -1.596  0.00  0.00    -0.076 A 
ATOM     67  H14 A89 d   1      11.726  -2.214  -1.319  0.00  0.00     0.084 H 
ATOM     68  H12 A89 d   1      13.387  -1.026  -2.643  0.00  0.00     0.084 H 
BRANCH  63  69
ATOM     69  C1  A89 d   1      11.105  -1.905   1.302  0.00  0.00     0.380 C 
ATOM     70  F1  A89 d   1      11.495  -2.016   2.602  0.00  0.00    -0.185 F 
ATOM     71  F2  A89 d   1      10.908  -3.178   0.836  0.00  0.00    -0.185 F 
BRANCH  69  72
ATOM     72  P1  A89 d   1       9.440  -1.087   1.328  0.00  0.00     0.339 P 
ATOM     73  O2  A89 d   1       9.485   0.229   2.025  0.00  0.00    -0.635 OA
ATOM     74  O1  A89 d   1       8.950  -0.880  -0.203  0.00  0.00    -0.635 OA
ATOM     75  O3  A89 d   1       8.444  -2.074   2.109  0.00  0.00    -0.635 OA
ENDBRANCH  69  72
ENDBRANCH  63  69
ENDBRANCH  56  59
ENDBRANCH   1  56
TORSDOF 15
