REMARK  24 active torsions:
REMARK  status: ('A' for Active; 'I' for Inactive)
REMARK    1  A    between atoms: C23_1  and  C24_2 
REMARK       I    between atoms: N1_11  and  C23_1 
REMARK    2  A    between atoms: C26_4  and  C30_8 
REMARK    3  A    between atoms: C9_12  and  N1_11 
REMARK    4  A    between atoms: C10_13  and  C9_12 
REMARK    5  A    between atoms: C9_12  and  C8_15 
REMARK       I    between atoms: N2_29  and  C10_13 
REMARK    6  A    between atoms: C8_15  and  C5_16 
REMARK    7  A    between atoms: C2_21  and  C1_22 
REMARK    8  A    between atoms: C1_22  and  P1_25 
REMARK    9  A    between atoms: C11_31  and  N2_29 
REMARK   10  A    between atoms: C15_35  and  N3_30 
REMARK       I    between atoms: N3_30  and  C16_36 
REMARK   11  A    between atoms: C12_32  and  C11_31 
REMARK   12  A    between atoms: C11_31  and  C13_33 
REMARK       I    between atoms: N4_46  and  C12_32 
REMARK   13  A    between atoms: C13_33  and  C14_34 
REMARK   14  A    between atoms: C14_34  and  C15_35 
REMARK   15  A    between atoms: C16_36  and  C17_37 
REMARK   16  A    between atoms: C31_48  and  N4_46 
REMARK   17  A    between atoms: C33_50  and  N6_47 
REMARK       I    between atoms: N6_47  and  C34_51 
REMARK   18  A    between atoms: C31_48  and  C32_49 
REMARK   19  A    between atoms: C31_48  and  C33_50 
REMARK       I    between atoms: C32_49  and  N5_64 
REMARK   20  A    between atoms: C34_51  and  C35_52 
REMARK   21  A    between atoms: C35_52  and  C36_53 
REMARK   22  A    between atoms: C38_55  and  O10_62 
REMARK   23  A    between atoms: C39_56  and  O11_63 
REMARK   24  A    between atoms: O10_62  and  C42_59 
ROOT
ATOM      1  C11 B26 d   1      16.188  -3.056  -4.481  0.00  0.00     0.089 C 
ATOM      2  H   B26 d   1      15.286  -3.344  -3.941  0.00  0.00     0.087 H 
ENDROOT
BRANCH   1   3
ATOM      3  N2  B26 d   1      16.665  -1.838  -3.786  0.00  0.00    -0.346 N 
ATOM      4  C10 B26 d   1      16.697  -1.644  -2.419  0.00  0.00     0.241 C 
ATOM      5  O4  B26 d   1      16.833  -2.535  -1.615  0.00  0.00    -0.271 OA
ATOM      6  H   B26 d   1      17.001  -1.072  -4.371  0.00  0.00     0.163 HD
BRANCH   4   7
ATOM      7  C9  B26 d   1      16.563  -0.172  -1.998  0.00  0.00     0.093 C 
ATOM      8  H   B26 d   1      16.837  -0.160  -0.943  0.00  0.00     0.088 H 
BRANCH   7   9
ATOM      9  N1  B26 d   1      17.435   0.696  -2.771  0.00  0.00    -0.343 N 
ATOM     10  C23 B26 d   1      18.351   1.659  -2.428  0.00  0.00     0.252 C 
ATOM     11  O6  B26 d   1      18.576   1.740  -1.233  0.00  0.00    -0.268 OA
ATOM     12  H   B26 d   1      17.348   0.562  -3.778  0.00  0.00     0.163 HD
BRANCH  10  13
ATOM     13  C24 B26 d   1      18.996   2.494  -3.282  0.00  0.00     0.032 A 
ATOM     14  C25 B26 d   1      19.774   1.913  -4.267  0.00  0.00    -0.061 A 
ATOM     15  C26 B26 d   1      20.465   2.620  -5.215  0.00  0.00    -0.044 A 
ATOM     16  H   B26 d   1      19.841   0.825  -4.290  0.00  0.00     0.086 H 
ATOM     17  C27 B26 d   1      20.371   4.010  -5.178  0.00  0.00     0.017 A 
ATOM     18  C28 B26 d   1      19.608   4.622  -4.207  0.00  0.00    -0.065 A 
ATOM     19 BR   B26 d   1      21.247   5.141  -6.417  0.00  0.00    -0.051 Br
ATOM     20  C29 B26 d   1      18.930   3.874  -3.275  0.00  0.00    -0.066 A 
ATOM     21  H   B26 d   1      19.542   5.710  -4.178  0.00  0.00     0.085 H 
ATOM     22  H   B26 d   1      18.330   4.378  -2.517  0.00  0.00     0.085 H 
BRANCH  15  23
ATOM     23  C30 B26 d   1      21.279   1.851  -6.245  0.00  0.00    -0.050 C 
ATOM     24  H   B26 d   1      20.906   2.077  -7.244  0.00  0.00     0.033 H 
ATOM     25  H   B26 d   1      22.326   2.145  -6.172  0.00  0.00     0.033 H 
ATOM     26  H   B26 d   1      21.186   0.782  -6.055  0.00  0.00     0.033 H 
ENDBRANCH  15  23
ENDBRANCH  10  13
ENDBRANCH   7   9
BRANCH   7  27
ATOM     27  C8  B26 d   1      15.110   0.375  -2.192  0.00  0.00    -0.014 C 
ATOM     28  H   B26 d   1      14.783   0.159  -3.209  0.00  0.00     0.043 H 
ATOM     29  H   B26 d   1      15.109   1.450  -2.011  0.00  0.00     0.043 H 
BRANCH  27  30
ATOM     30  C5  B26 d   1      14.154  -0.292  -1.213  0.00  0.00    -0.056 A 
ATOM     31  C6  B26 d   1      14.168  -0.004   0.140  0.00  0.00    -0.076 A 
ATOM     32  C7  B26 d   1      13.294  -0.632   0.998  0.00  0.00    -0.070 A 
ATOM     33  H   B26 d   1      14.877   0.726   0.530  0.00  0.00     0.084 H 
ATOM     34  C2  B26 d   1      12.377  -1.567   0.533  0.00  0.00     0.027 A 
ATOM     35  H   B26 d   1      13.322  -0.392   2.061  0.00  0.00     0.084 H 
ATOM     36  C3  B26 d   1      12.374  -1.842  -0.821  0.00  0.00    -0.070 A 
ATOM     37  C4  B26 d   1      13.242  -1.220  -1.677  0.00  0.00    -0.076 A 
ATOM     38  H   B26 d   1      11.665  -2.570  -1.216  0.00  0.00     0.084 H 
ATOM     39  H   B26 d   1      13.213  -1.460  -2.740  0.00  0.00     0.084 H 
BRANCH  34  40
ATOM     40  C1  B26 d   1      11.404  -2.279   1.464  0.00  0.00     0.380 C 
ATOM     41  F1  B26 d   1      11.851  -2.259   2.759  0.00  0.00    -0.185 F 
ATOM     42  F2  B26 d   1      11.231  -3.601   1.119  0.00  0.00    -0.185 F 
BRANCH  40  43
ATOM     43  P1  B26 d   1       9.719  -1.507   1.509  0.00  0.00     0.339 P 
ATOM     44  O2  B26 d   1       9.654  -0.379   2.478  0.00  0.00    -0.635 OA
ATOM     45  O3  B26 d   1       9.343  -0.995   0.019  0.00  0.00    -0.635 OA
ATOM     46  O1  B26 d   1       8.715  -2.663   1.990  0.00  0.00    -0.635 OA
ENDBRANCH  40  43
ENDBRANCH  34  40
ENDBRANCH  27  30
ENDBRANCH   7  27
ENDBRANCH   4   7
ENDBRANCH   1   3
BRANCH   1  47
ATOM     47  C12 B26 d   1      17.108  -4.308  -4.446  0.00  0.00     0.241 C 
ATOM     48  O7  B26 d   1      18.192  -4.301  -4.991  0.00  0.00    -0.271 OA
ATOM     49  N4  B26 d   1      16.627  -5.417  -3.788  0.00  0.00    -0.344 N 
ATOM     50  H   B26 d   1      15.695  -5.758  -4.022  0.00  0.00     0.163 HD
BRANCH  49  51
ATOM     51  C31 B26 d   1      17.407  -6.135  -2.755  0.00  0.00     0.104 C 
ATOM     52  H   B26 d   1      18.363  -5.627  -2.631  0.00  0.00     0.090 H 
BRANCH  51  53
ATOM     53  C32 B26 d   1      16.704  -6.101  -1.381  0.00  0.00     0.239 C 
ATOM     54  O8  B26 d   1      17.012  -6.824  -0.466  0.00  0.00    -0.271 OA
ATOM     55  N5  B26 d   1      15.701  -5.181  -1.245  0.00  0.00    -0.368 N 
ATOM     56  H   B26 d   1      15.201  -5.099  -0.360  0.00  0.00     0.159 HD
ATOM     57  H   B26 d   1      15.453  -4.577  -2.029  0.00  0.00     0.159 HD
ENDBRANCH  51  53
BRANCH  51  58
ATOM     58  C33 B26 d   1      17.669  -7.605  -3.221  0.00  0.00     0.022 C 
ATOM     59  H   B26 d   1      16.708  -8.069  -3.444  0.00  0.00     0.067 H 
ATOM     60  H   B26 d   1      18.319  -7.575  -4.095  0.00  0.00     0.067 H 
BRANCH  58  61
ATOM     61  N6  B26 d   1      18.340  -8.408  -2.170  0.00  0.00    -0.358 N 
ATOM     62  C34 B26 d   1      18.035  -9.705  -1.798  0.00  0.00     0.221 C 
ATOM     63  O9  B26 d   1      16.953  -9.952  -1.310  0.00  0.00    -0.273 OA
ATOM     64  H   B26 d   1      19.106  -7.957  -1.669  0.00  0.00     0.162 HD
BRANCH  62  65
ATOM     65  C35 B26 d   1      19.108 -10.786  -2.036  0.00  0.00     0.033 C 
ATOM     66  H   B26 d   1      20.046 -10.384  -1.653  0.00  0.00     0.054 H 
ATOM     67  H   B26 d   1      19.098 -11.007  -3.103  0.00  0.00     0.054 H 
BRANCH  65  68
ATOM     68  C36 B26 d   1      18.870 -12.114  -1.310  0.00  0.00    -0.047 A 
ATOM     69  C37 B26 d   1      18.682 -13.286  -2.026  0.00  0.00    -0.042 A 
ATOM     70  C38 B26 d   1      18.470 -14.516  -1.414  0.00  0.00     0.101 A 
ATOM     71  H   B26 d   1      18.701 -13.241  -3.115  0.00  0.00     0.088 H 
ATOM     72  C39 B26 d   1      18.449 -14.558  -0.024  0.00  0.00     0.099 A 
ATOM     73  C40 B26 d   1      18.635 -13.399   0.698  0.00  0.00    -0.048 A 
ATOM     74  C41 B26 d   1      18.845 -12.193   0.074  0.00  0.00    -0.074 A 
ATOM     75  H   B26 d   1      18.615 -13.440   1.787  0.00  0.00     0.087 H 
ATOM     76  H   B26 d   1      18.993 -11.293   0.671  0.00  0.00     0.084 H 
BRANCH  70  77
ATOM     77  O10 B26 d   1      18.292 -15.670  -2.169  0.00  0.00    -0.353 OA
BRANCH  77  78
ATOM     78  C42 B26 d   1      16.952 -15.966  -2.531  0.00  0.00     0.010 C 
ATOM     79  H   B26 d   1      16.353 -16.094  -1.629  0.00  0.00     0.066 H 
ATOM     80  H   B26 d   1      16.548 -15.146  -3.124  0.00  0.00     0.066 H 
ATOM     81  H   B26 d   1      16.930 -16.885  -3.117  0.00  0.00     0.066 H 
ENDBRANCH  77  78
ENDBRANCH  70  77
BRANCH  72  82
ATOM     82  O11 B26 d   1      18.247 -15.738   0.627  0.00  0.00    -0.358 OA
ATOM     83  H   B26 d   1      18.136 -16.442  -0.016  0.00  0.00     0.217 HD
ENDBRANCH  72  82
ENDBRANCH  65  68
ENDBRANCH  62  65
ENDBRANCH  58  61
ENDBRANCH  51  58
ENDBRANCH  49  51
ENDBRANCH   1  47
BRANCH   1  84
ATOM     84  C13 B26 d   1      15.993  -2.691  -5.976  0.00  0.00    -0.036 C 
ATOM     85  H   B26 d   1      16.509  -3.454  -6.559  0.00  0.00     0.036 H 
ATOM     86  H   B26 d   1      16.377  -1.679  -6.108  0.00  0.00     0.036 H 
BRANCH  84  87
ATOM     87  C14 B26 d   1      14.520  -2.680  -6.453  0.00  0.00    -0.048 C 
ATOM     88  H   B26 d   1      14.178  -1.645  -6.483  0.00  0.00     0.035 H 
ATOM     89  H   B26 d   1      13.932  -3.282  -5.761  0.00  0.00     0.035 H 
BRANCH  87  90
ATOM     90  C15 B26 d   1      14.369  -3.281  -7.866  0.00  0.00    -0.004 C 
ATOM     91  H   B26 d   1      14.887  -4.239  -7.903  0.00  0.00     0.064 H 
ATOM     92  H   B26 d   1      13.310  -3.417  -8.085  0.00  0.00     0.064 H 
BRANCH  90  93
ATOM     93  N3  B26 d   1      14.957  -2.375  -8.870  0.00  0.00    -0.357 N 
ATOM     94  C16 B26 d   1      15.796  -2.693  -9.917  0.00  0.00     0.251 C 
ATOM     95  O5  B26 d   1      16.526  -3.647  -9.720  0.00  0.00    -0.268 OA
ATOM     96  H   B26 d   1      14.712  -1.389  -8.778  0.00  0.00     0.162 HD
BRANCH  94  97
ATOM     97  C17 B26 d   1      15.857  -2.023 -11.115  0.00  0.00     0.033 A 
ATOM     98  C18 B26 d   1      16.252  -0.701 -11.216  0.00  0.00    -0.068 A 
ATOM     99  C19 B26 d   1      16.299  -0.055 -12.433  0.00  0.00    -0.081 A 
ATOM    100  H   B26 d   1      16.532  -0.158 -10.313  0.00  0.00     0.085 H 
ATOM    101  C20 B26 d   1      15.948  -0.720 -13.587  0.00  0.00    -0.067 A 
ATOM    102  H   B26 d   1      16.615   0.987 -12.482  0.00  0.00     0.083 H 
ATOM    103  C21 B26 d   1      15.550  -2.038 -13.514  0.00  0.00     0.007 A 
ATOM    104  H   B26 d   1      15.985  -0.209 -14.549  0.00  0.00     0.085 H 
ATOM    105  C22 B26 d   1      15.506  -2.678 -12.294  0.00  0.00    -0.052 A 
ATOM    106  I   B26 d   1      14.996  -3.090 -15.327  0.00  0.00    -0.045 I 
ATOM    107  H   B26 d   1      15.190  -3.720 -12.250  0.00  0.00     0.087 H 
ENDBRANCH  94  97
ENDBRANCH  90  93
ENDBRANCH  87  90
ENDBRANCH  84  87
ENDBRANCH   1  84
TORSDOF 24
