REMARK  11 active torsions:
REMARK  status: ('A' for Active; 'I' for Inactive)
REMARK    1  A    between atoms: C17_23  and  C7_6 
REMARK    2  A    between atoms: C5_15  and  C13_9 
REMARK    3  A    between atoms: C13_9  and  N19_26 
REMARK    4  A    between atoms: C11_19  and  C16_11 
REMARK    5  A    between atoms: O29_33  and  C30_16 
REMARK    6  A    between atoms: C2_17  and  O29_33 
REMARK    7  A    between atoms: C10_18  and  O25_31 
REMARK    8  A    between atoms: N19_26  and  C15_21 
REMARK    9  A    between atoms: O27_34  and  C17_23 
REMARK   10  A    between atoms: N20_25  and  O26_32 
REMARK   11  A    between atoms: O27_34  and  P28_35 
ROOT
ATOM      1  C6  0K5 d   1       6.157   4.317 -53.814  0.00  0.00    -0.002 A 
ATOM      2  C9  0K5 d   1       7.017   1.715 -54.401  0.00  0.00    -0.048 A 
ATOM      3  C8  0K5 d   1       6.667   4.064 -55.049  0.00  0.00     0.076 A 
ATOM      4  C3  0K5 d   1       7.130   2.754 -55.337  0.00  0.00    -0.051 A 
ATOM      5  C1  0K5 d   1       6.052   3.284 -52.860  0.00  0.00    -0.038 A 
ATOM      6  C2  0K5 d   1       6.434   1.968 -53.156  0.00  0.00     0.077 A 
ATOM      7  C14 0K5 d   1       5.745   5.683 -53.514  0.00  0.00    -0.040 C 
ATOM      8  C15 0K5 d   1       5.721   6.631 -54.460  0.00  0.00     0.100 C 
ATOM      9  C12 0K5 d   1       6.236   6.361 -55.802  0.00  0.00     0.298 C 
ATOM     10  N20 0K5 d   1       6.723   5.067 -55.998  0.00  0.00    -0.185 N 
ATOM     11  O23 0K5 d   1       6.243   7.199 -56.683  0.00  0.00    -0.263 OA
ATOM     12  H6  0K5 d   1       7.380   0.722 -54.642  0.00  0.00     0.087 H 
ATOM     13  H12 0K5 d   1       7.581   2.551 -56.302  0.00  0.00     0.087 H 
ATOM     14  H14 0K5 d   1       5.666   3.513 -51.873  0.00  0.00     0.089 H 
ATOM     15  H15 0K5 d   1       5.450   5.939 -52.497  0.00  0.00     0.088 H 
ENDROOT
BRANCH   8  16
ATOM     16  N19 0K5 d   1       5.139   7.906 -54.197  0.00  0.00    -0.381 N 
ATOM     17  H18 0K5 d   1       4.569   8.357 -54.927  0.00  0.00     0.160 HD
BRANCH  16  18
ATOM     18  C13 0K5 d   1       5.330   8.590 -52.920  0.00  0.00     0.020 C 
ATOM     19  H7  0K5 d   1       5.130   7.894 -52.092  0.00  0.00     0.071 H 
ATOM     20  H8  0K5 d   1       6.363   8.960 -52.847  0.00  0.00     0.071 H 
BRANCH  18  21
ATOM     21  C5  0K5 d   1       4.363   9.753 -52.857  0.00  0.00     0.004 A 
ATOM     22  C7  0K5 d   1       3.414   9.889 -51.826  0.00  0.00    -0.006 A 
ATOM     23  C4  0K5 d   1       2.565  10.995 -51.890  0.00  0.00     0.011 A 
ATOM     24  N18 0K5 d   1       2.555  11.927 -52.851  0.00  0.00    -0.262 NA
ATOM     25  H5  0K5 d   1       1.847  11.110 -51.087  0.00  0.00     0.115 H 
ATOM     26  C11 0K5 d   1       3.461  11.784 -53.826  0.00  0.00     0.064 A 
ATOM     27  C10 0K5 d   1       4.382  10.733 -53.866  0.00  0.00     0.098 A 
BRANCH  22  28
ATOM     28  C17 0K5 d   1       3.189   8.932 -50.664  0.00  0.00     0.058 C 
ATOM     29  H16 0K5 d   1       3.042   7.911 -51.047  0.00  0.00     0.082 H 
ATOM     30  H17 0K5 d   1       2.301   9.242 -50.094  0.00  0.00     0.082 H 
BRANCH  28  31
ATOM     31  O27 0K5 d   1       4.327   8.968 -49.829  0.00  0.00    -0.278 OA
BRANCH  31  32
ATOM     32  P28 0K5 d   1       4.352   8.480 -48.317  0.00  0.00     0.422 P 
ATOM     33  O22 0K5 d   1       4.714   9.717 -47.534  0.00  0.00    -0.617 OA
ATOM     34  O24 0K5 d   1       5.498   7.470 -48.289  0.00  0.00    -0.617 OA
ATOM     35  O21 0K5 d   1       2.981   7.895 -47.960  0.00  0.00    -0.617 OA
ENDBRANCH  31  32
ENDBRANCH  28  31
ENDBRANCH  22  28
BRANCH  26  36
ATOM     36  C16 0K5 d   1       3.520  12.811 -54.926  0.00  0.00    -0.033 C 
ATOM     37  H9  0K5 d   1       2.741  13.570 -54.761  0.00  0.00     0.035 H 
ATOM     38  H10 0K5 d   1       3.354  12.319 -55.896  0.00  0.00     0.035 H 
ATOM     39  H11 0K5 d   1       4.508  13.294 -54.924  0.00  0.00     0.035 H 
ENDBRANCH  26  36
BRANCH  27  40
ATOM     40  O25 0K5 d   1       5.274  10.665 -54.905  0.00  0.00    -0.358 OA
ATOM     41  H19 0K5 d   1       5.809  11.450 -54.913  0.00  0.00     0.217 HD
ENDBRANCH  27  40
ENDBRANCH  18  21
ENDBRANCH  16  18
ENDBRANCH   8  16
BRANCH  10  42
ATOM     42  O26 0K5 d   1       7.265   4.835 -57.292  0.00  0.00    -0.279 OA
ATOM     43  H20 0K5 d   1       6.592   4.981 -57.947  0.00  0.00     0.245 HD
ENDBRANCH  10  42
BRANCH   6  44
ATOM     44  O29 0K5 d   1       6.148   0.950 -52.294  0.00  0.00    -0.311 OA
BRANCH  44  45
ATOM     45  C30 0K5 d   1       4.877   0.444 -52.191  0.00  0.00     0.076 A 
ATOM     46  C35 0K5 d   1       3.891   0.810 -53.098  0.00  0.00    -0.050 A 
ATOM     47  C34 0K5 d   1       2.606   0.302 -52.942  0.00  0.00    -0.080 A 
ATOM     48  H1  0K5 d   1       4.120   1.483 -53.917  0.00  0.00     0.087 H 
ATOM     49  C33 0K5 d   1       2.310  -0.585 -51.910  0.00  0.00    -0.083 A 
ATOM     50  H3  0K5 d   1       1.825   0.600 -53.632  0.00  0.00     0.083 H 
ATOM     51  C32 0K5 d   1       3.294  -0.975 -51.011  0.00  0.00    -0.080 A 
ATOM     52  H2  0K5 d   1       1.303  -0.974 -51.808  0.00  0.00     0.083 H 
ATOM     53  C31 0K5 d   1       4.565  -0.438 -51.156  0.00  0.00    -0.050 A 
ATOM     54  H4  0K5 d   1       3.075  -1.680 -50.217  0.00  0.00     0.083 H 
ATOM     55  H13 0K5 d   1       5.337  -0.711 -50.446  0.00  0.00     0.087 H 
ENDBRANCH  44  45
ENDBRANCH   6  44
TORSDOF 11
