REMARK  13 active torsions:
REMARK  status: ('A' for Active; 'I' for Inactive)
REMARK    1  A    between atoms: N44_1  and  O31_31 
REMARK    2  A    between atoms: C33_2  and  C1_10 
REMARK    3  A    between atoms: N10_16  and  C33_2 
REMARK    4  A    between atoms: C3_12  and  C7_3 
REMARK    5  A    between atoms: C6_4  and  C8_6 
REMARK    6  A    between atoms: C8_6  and  O47_34 
REMARK    7  A    between atoms: O18_22  and  C19_8 
REMARK    8  A    between atoms: C2_11  and  O45_32 
REMARK    9  A    between atoms: C29_29  and  N10_16 
REMARK   10  A    between atoms: C11_17  and  C12_18 
REMARK   11  A    between atoms: C23_24  and  C11_17 
REMARK   12  A    between atoms: C22_23  and  O18_22 
REMARK   13  A    between atoms: O47_34  and  P46_33 
ROOT
ATOM      1  N44 0L0 d   1      15.861 -11.500 -52.057  0.00  0.00    -0.186 N 
ATOM      2  C26 0L0 d   1      16.929 -10.790 -52.600  0.00  0.00     0.075 A 
ATOM      3  O9  0L0 d   1      13.820 -11.543 -51.256  0.00  0.00    -0.264 OA
ATOM      4  C22 0L0 d   1      19.182 -10.718 -53.456  0.00  0.00     0.077 A 
ATOM      5  C23 0L0 d   1      19.050  -9.335 -53.689  0.00  0.00    -0.020 A 
ATOM      6  C24 0L0 d   1      17.865  -8.692 -53.447  0.00  0.00    -0.065 A 
ATOM      7  C25 0L0 d   1      18.126 -11.432 -52.887  0.00  0.00    -0.021 A 
ATOM      8  C27 0L0 d   1      16.787  -9.395 -52.894  0.00  0.00    -0.022 A 
ATOM      9  C28 0L0 d   1      15.507  -8.715 -52.615  0.00  0.00     0.006 A 
ATOM     10  C29 0L0 d   1      14.485  -9.455 -52.049  0.00  0.00     0.103 A 
ATOM     11  C30 0L0 d   1      14.695 -10.885 -51.763  0.00  0.00     0.296 A 
ATOM     12  H19 0L0 d   1      17.762  -7.639 -53.683  0.00  0.00     0.085 H 
ATOM     13  H20 0L0 d   1      18.241 -12.488 -52.669  0.00  0.00     0.091 H 
ATOM     14  H21 0L0 d   1      15.133  -8.319 -53.571  0.00  0.00     0.050 H 
ATOM     15  H22 0L0 d   1      15.723  -7.880 -51.932  0.00  0.00     0.050 H 
ENDROOT
BRANCH  10  16
ATOM     16  N10 0L0 d   1      13.238  -8.875 -51.744  0.00  0.00    -0.283 NA
BRANCH  16  17
ATOM     17  C33 0L0 d   1      12.973  -7.456 -52.008  0.00  0.00     0.042 C 
ATOM     18  H1  0L0 d   1      13.929  -6.915 -52.070  0.00  0.00     0.074 H 
ATOM     19  H2  0L0 d   1      12.434  -7.360 -52.962  0.00  0.00     0.074 H 
BRANCH  17  20
ATOM     20  C1  0L0 d   1      12.135  -6.859 -50.902  0.00  0.00     0.007 A 
ATOM     21  C6  0L0 d   1      12.427  -5.574 -50.426  0.00  0.00    -0.006 A 
ATOM     22  C5  0L0 d   1      11.651  -5.046 -49.399  0.00  0.00     0.011 A 
ATOM     23  N4  0L0 d   1      10.660  -5.745 -48.857  0.00  0.00    -0.262 NA
ATOM     24  H13 0L0 d   1      11.859  -4.046 -49.035  0.00  0.00     0.115 H 
ATOM     25  C3  0L0 d   1      10.332  -6.954 -49.267  0.00  0.00     0.064 A 
ATOM     26  C2  0L0 d   1      11.058  -7.580 -50.312  0.00  0.00     0.098 A 
BRANCH  21  27
ATOM     27  C8  0L0 d   1      13.584  -4.756 -50.964  0.00  0.00     0.058 C 
ATOM     28  H7  0L0 d   1      14.511  -5.345 -50.908  0.00  0.00     0.082 H 
ATOM     29  H8  0L0 d   1      13.696  -3.838 -50.369  0.00  0.00     0.082 H 
BRANCH  27  30
ATOM     30  O47 0L0 d   1      13.311  -4.416 -52.328  0.00  0.00    -0.278 OA
BRANCH  30  31
ATOM     31  P46 0L0 d   1      13.996  -3.197 -53.107  0.00  0.00     0.422 P 
ATOM     32  O48 0L0 d   1      14.696  -3.781 -54.361  0.00  0.00    -0.617 OA
ATOM     33  O49 0L0 d   1      12.914  -2.140 -53.481  0.00  0.00    -0.617 OA
ATOM     34  O50 0L0 d   1      15.083  -2.516 -52.231  0.00  0.00    -0.617 OA
ENDBRANCH  30  31
ENDBRANCH  27  30
ENDBRANCH  21  27
BRANCH  25  35
ATOM     35  C7  0L0 d   1       9.168  -7.629 -48.584  0.00  0.00    -0.033 C 
ATOM     36  H3  0L0 d   1       8.760  -6.962 -47.810  0.00  0.00     0.035 H 
ATOM     37  H4  0L0 d   1       9.509  -8.565 -48.118  0.00  0.00     0.035 H 
ATOM     38  H5  0L0 d   1       8.387  -7.852 -49.325  0.00  0.00     0.035 H 
ENDBRANCH  25  35
BRANCH  26  39
ATOM     39  O45 0L0 d   1      10.762  -8.865 -50.729  0.00  0.00    -0.358 OA
ATOM     40  H24 0L0 d   1      11.350  -9.112 -51.433  0.00  0.00     0.217 HD
ENDBRANCH  26  39
ENDBRANCH  17  20
ENDBRANCH  16  17
ENDBRANCH  10  16
BRANCH   1  41
ATOM     41  O31 0L0 d   1      15.999 -12.873 -51.750  0.00  0.00    -0.279 OA
ATOM     42  H23 0L0 d   1      15.339 -13.369 -52.219  0.00  0.00     0.245 HD
ENDBRANCH   1  41
BRANCH   5  43
ATOM     43  C11 0L0 d   1      20.212  -8.525 -54.222  0.00  0.00    -0.014 C 
ATOM     44  H14 0L0 d   1      20.768  -9.148 -54.938  0.00  0.00     0.047 H 
ATOM     45  H15 0L0 d   1      19.809  -7.642 -54.739  0.00  0.00     0.047 H 
BRANCH  43  46
ATOM     46  C12 0L0 d   1      21.175  -8.053 -53.155  0.00  0.00    -0.054 A 
ATOM     47  C13 0L0 d   1      20.922  -8.275 -51.791  0.00  0.00    -0.077 A 
ATOM     48  C14 0L0 d   1      21.838  -7.832 -50.837  0.00  0.00    -0.082 A 
ATOM     49  H6  0L0 d   1      20.019  -8.788 -51.481  0.00  0.00     0.084 H 
ATOM     50  C15 0L0 d   1      22.997  -7.143 -51.253  0.00  0.00    -0.083 A 
ATOM     51  H16 0L0 d   1      21.661  -8.016 -49.783  0.00  0.00     0.083 H 
ATOM     52  C16 0L0 d   1      23.204  -6.896 -52.606  0.00  0.00    -0.082 A 
ATOM     53  H17 0L0 d   1      23.723  -6.808 -50.521  0.00  0.00     0.083 H 
ATOM     54  C17 0L0 d   1      22.325  -7.373 -53.564  0.00  0.00    -0.077 A 
ATOM     55  H9  0L0 d   1      24.068  -6.320 -52.916  0.00  0.00     0.083 H 
ATOM     56  H18 0L0 d   1      22.527  -7.221 -54.618  0.00  0.00     0.084 H 
ENDBRANCH  43  46
ENDBRANCH   5  43
BRANCH   4  57
ATOM     57  O18 0L0 d   1      20.383 -11.338 -53.652  0.00  0.00    -0.355 OA
BRANCH  57  58
ATOM     58  C19 0L0 d   1      20.420 -12.684 -54.159  0.00  0.00     0.010 C 
ATOM     59  H10 0L0 d   1      21.466 -13.013 -54.250  0.00  0.00     0.066 H 
ATOM     60  H11 0L0 d   1      19.938 -12.717 -55.147  0.00  0.00     0.066 H 
ATOM     61  H12 0L0 d   1      19.885 -13.351 -53.467  0.00  0.00     0.066 H 
ENDBRANCH  57  58
ENDBRANCH   4  57
TORSDOF 13
