REMARK  6 active torsions:
REMARK  status: ('A' for Active; 'I' for Inactive)
REMARK    1  A    between atoms: C5_3  and  C10_4 
REMARK    2  A    between atoms: C10_4  and  C11_5 
REMARK    3  A    between atoms: C6_8  and  N13_9 
REMARK    4  A    between atoms: C18_12  and  N19_13 
REMARK    5  A    between atoms: C8_17  and  O20_20 
REMARK    6  A    between atoms: O20_20  and  C21_21 
ROOT
ATOM      1 CL1  0WT d   1     -10.371  -2.049 -11.409  0.00  0.00    -0.081 Cl
ATOM      2  C4  0WT d   1     -11.491  -3.180 -12.309  0.00  0.00     0.074 A 
ATOM      3  C5  0WT d   1     -12.909  -3.290 -11.955  0.00  0.00     0.033 A 
ATOM      4  N1  0WT d   1     -13.402  -4.231 -12.788  0.00  0.00    -0.342 N 
ATOM      5  C3  0WT d   1     -11.136  -4.105 -13.393  0.00  0.00     0.080 A 
ATOM      6  C6  0WT d   1      -9.979  -4.558 -14.232  0.00  0.00     0.146 A 
ATOM      7  N7  0WT d   1     -10.250  -5.515 -15.136  0.00  0.00    -0.188 NA
ATOM      8  C8  0WT d   1     -11.481  -6.058 -15.303  0.00  0.00     0.277 A 
ATOM      9  N9  0WT d   1     -12.554  -5.685 -14.578  0.00  0.00    -0.188 NA
ATOM     10  C2  0WT d   1     -12.463  -4.738 -13.619  0.00  0.00     0.148 A 
ATOM     11  H6  0WT d   1     -14.387  -4.531 -12.790  0.00  0.00     0.167 HD
ENDROOT
BRANCH   6  12
ATOM     12  N13 0WT d   1      -8.664  -4.066 -14.215  0.00  0.00    -0.364 N 
ATOM     13  C17 0WT d   1      -7.613  -4.713 -14.991  0.00  0.00     0.002 C 
ATOM     14  C16 0WT d   1      -6.687  -3.541 -15.316  0.00  0.00    -0.004 A 
ATOM     15  H7  0WT d   1      -8.016  -5.169 -15.907  0.00  0.00     0.065 H 
ATOM     16  H8  0WT d   1      -7.093  -5.480 -14.398  0.00  0.00     0.065 H 
ATOM     17  C18 0WT d   1      -7.425  -2.372 -15.958  0.00  0.00     0.111 A 
ATOM     18  C15 0WT d   1      -7.117  -2.355 -14.463  0.00  0.00    -0.004 A 
ATOM     19  H9  0WT d   1      -5.648  -3.814 -15.552  0.00  0.00     0.046 H 
ATOM     20  H10 0WT d   1      -8.435  -2.423 -16.392  0.00  0.00     0.085 H 
ATOM     21  C14 0WT d   1      -8.295  -2.800 -13.597  0.00  0.00     0.002 C 
ATOM     22  H14 0WT d   1      -6.438  -1.631 -13.989  0.00  0.00     0.046 H 
ATOM     23  H15 0WT d   1      -7.990  -2.940 -12.549  0.00  0.00     0.065 H 
ATOM     24  H16 0WT d   1      -9.122  -2.076 -13.645  0.00  0.00     0.065 H 
BRANCH  17  25
ATOM     25  N19 0WT d   1      -6.474  -1.532 -16.673  0.00  0.00    -0.074 N 
ATOM     26  H11 0WT d   1      -6.962  -0.759 -17.098  0.00  0.00     0.274 HD
ATOM     27  H12 0WT d   1      -6.018  -2.075 -17.389  0.00  0.00     0.274 HD
ATOM     28  H13 0WT d   1      -5.785  -1.180 -16.027  0.00  0.00     0.274 HD
ENDBRANCH  17  25
ENDBRANCH   6  12
BRANCH   8  29
ATOM     29  O20 0WT d   1     -11.670  -7.032 -16.238  0.00  0.00    -0.274 OA
BRANCH  29  30
ATOM     30  C21 0WT d   1     -10.650  -7.543 -17.000  0.00  0.00     0.114 A 
ATOM     31  C26 0WT d   1     -10.447  -8.917 -17.023  0.00  0.00     0.037 A 
ATOM     32  N25 0WT d   1      -9.451  -9.410 -17.782  0.00  0.00    -0.251 NA
ATOM     33  H17 0WT d   1     -11.078  -9.579 -16.441  0.00  0.00     0.119 H 
ATOM     34  C24 0WT d   1      -8.679  -8.591 -18.513  0.00  0.00     0.086 A 
ATOM     35  N23 0WT d   1      -8.862  -7.263 -18.522  0.00  0.00    -0.251 NA
ATOM     36  H18 0WT d   1      -7.883  -9.016 -19.114  0.00  0.00     0.146 H 
ATOM     37  C22 0WT d   1      -9.839  -6.713 -17.779  0.00  0.00     0.037 A 
ATOM     38  H19 0WT d   1      -9.995  -5.640 -17.784  0.00  0.00     0.119 H 
ENDBRANCH  29  30
ENDBRANCH   8  29
BRANCH   3  39
ATOM     39  C10 0WT d   1     -13.641  -2.506 -10.895  0.00  0.00    -0.028 C 
ATOM     40  H1  0WT d   1     -14.124  -1.637 -11.365  0.00  0.00     0.041 H 
ATOM     41  H2  0WT d   1     -12.916  -2.160 -10.143  0.00  0.00     0.041 H 
BRANCH  39  42
ATOM     42  C11 0WT d   1     -14.697  -3.341 -10.208  0.00  0.00    -0.071 C 
ATOM     43  H3  0WT d   1     -15.206  -2.734  -9.445  0.00  0.00     0.028 H 
ATOM     44  H4  0WT d   1     -14.223  -4.210  -9.729  0.00  0.00     0.028 H 
ATOM     45  H5  0WT d   1     -15.431  -3.687 -10.950  0.00  0.00     0.028 H 
ENDBRANCH  39  42
ENDBRANCH   3  39
TORSDOF 6
