REMARK  12 active torsions:
REMARK  status: ('A' for Active; 'I' for Inactive)
REMARK    1  A    between atoms: C25_8  and  C36_17 
REMARK    2  A    between atoms: C16_28  and  C22_9 
REMARK    3  A    between atoms: O28_37  and  C29_10 
REMARK    4  A    between atoms: C26_11  and  O28_37 
REMARK    5  A    between atoms: C2_14  and  C1_23 
REMARK    6  A    between atoms: C10_22  and  N4_31 
REMARK    7  A    between atoms: C18_29  and  C19_24 
REMARK    8  A    between atoms: C18_29  and  C20_25 
REMARK    9  A    between atoms: C18_29  and  C21_26 
REMARK   10  A    between atoms: C16_28  and  C17_27 
REMARK   11  A    between atoms: C17_27  and  C18_29 
REMARK   12  A    between atoms: C16_28  and  N14_32 
ROOT
ATOM      1  C16 0YB d   1      12.362   3.273   5.185  0.00  0.00     0.161 C 
ATOM      2  H   0YB d   1      11.876   3.835   5.983  0.00  0.00     0.096 H 
ENDROOT
BRANCH   1   3
ATOM      3  C22 0YB d   1      13.478   2.547   5.895  0.00  0.00    -0.022 A 
ATOM      4  C23 0YB d   1      13.338   2.299   7.250  0.00  0.00    -0.074 A 
ATOM      5  C24 0YB d   1      14.300   1.603   7.940  0.00  0.00    -0.063 A 
ATOM      6  H   0YB d   1      12.454   2.660   7.775  0.00  0.00     0.084 H 
ATOM      7  C25 0YB d   1      15.442   1.184   7.299  0.00  0.00     0.074 A 
ATOM      8  H   0YB d   1      14.158   1.382   8.998  0.00  0.00     0.085 H 
ATOM      9  C26 0YB d   1      15.618   1.455   5.949  0.00  0.00     0.093 A 
ATOM     10  C27 0YB d   1      14.638   2.131   5.258  0.00  0.00    -0.041 A 
ATOM     11  H   0YB d   1      14.775   2.342   4.197  0.00  0.00     0.088 H 
BRANCH   7  12
ATOM     12  C36 0YB d   1      16.442   0.489   8.125  0.00  0.00     0.212 C 
ATOM     13  O37 0YB d   1      16.900   0.939   9.162  0.00  0.00    -0.644 OA
ATOM     14  O38 0YB d   1      16.712  -0.733   7.618  0.00  0.00    -0.644 OA
ENDBRANCH   7  12
BRANCH   9  15
ATOM     15  O28 0YB d   1      16.800   1.104   5.341  0.00  0.00    -0.310 OA
BRANCH  15  16
ATOM     16  C29 0YB d   1      16.823   0.147   4.347  0.00  0.00     0.077 A 
ATOM     17  C30 0YB d   1      15.973  -0.947   4.329  0.00  0.00    -0.050 A 
ATOM     18  C31 0YB d   1      16.091  -1.873   3.305  0.00  0.00    -0.079 A 
ATOM     19  H   0YB d   1      15.223  -1.077   5.109  0.00  0.00     0.087 H 
ATOM     20  C32 0YB d   1      17.050  -1.700   2.329  0.00  0.00    -0.066 A 
ATOM     21  H   0YB d   1      15.427  -2.737   3.271  0.00  0.00     0.083 H 
ATOM     22  C33 0YB d   1      17.898  -0.611   2.377  0.00  0.00     0.013 A 
ATOM     23  H   0YB d   1      17.139  -2.424   1.519  0.00  0.00     0.085 H 
ATOM     24  C34 0YB d   1      17.800   0.321   3.391  0.00  0.00    -0.034 A 
ATOM     25 BR3  0YB d   1      19.209  -0.302   1.056  0.00  0.00    -0.051 Br
ATOM     26  H   0YB d   1      18.479   1.173   3.434  0.00  0.00     0.089 H 
ENDBRANCH  15  16
ENDBRANCH   9  15
ENDBRANCH   1   3
BRANCH   1  27
ATOM     27  C17 0YB d   1      12.887   4.288   4.151  0.00  0.00    -0.026 C 
ATOM     28  H   0YB d   1      12.033   4.501   3.508  0.00  0.00     0.037 H 
ATOM     29  H   0YB d   1      13.770   3.817   3.718  0.00  0.00     0.037 H 
BRANCH  27  30
ATOM     30  C18 0YB d   1      13.370   5.663   4.636  0.00  0.00    -0.049 C 
BRANCH  30  31
ATOM     31  C19 0YB d   1      13.654   6.507   3.412  0.00  0.00    -0.070 C 
ATOM     32  H   0YB d   1      12.735   6.635   2.839  0.00  0.00     0.028 H 
ATOM     33  H   0YB d   1      14.028   7.482   3.724  0.00  0.00     0.028 H 
ATOM     34  H   0YB d   1      14.402   6.010   2.795  0.00  0.00     0.028 H 
ENDBRANCH  30  31
BRANCH  30  35
ATOM     35  C20 0YB d   1      12.330   6.406   5.445  0.00  0.00    -0.070 C 
ATOM     36  H   0YB d   1      12.722   7.383   5.729  0.00  0.00     0.028 H 
ATOM     37  H   0YB d   1      11.429   6.535   4.845  0.00  0.00     0.028 H 
ATOM     38  H   0YB d   1      12.092   5.834   6.342  0.00  0.00     0.028 H 
ENDBRANCH  30  35
BRANCH  30  39
ATOM     39  C21 0YB d   1      14.660   5.602   5.414  0.00  0.00    -0.070 C 
ATOM     40  H   0YB d   1      15.435   5.149   4.796  0.00  0.00     0.028 H 
ATOM     41  H   0YB d   1      14.962   6.611   5.694  0.00  0.00     0.028 H 
ATOM     42  H   0YB d   1      14.513   5.002   6.312  0.00  0.00     0.028 H 
ENDBRANCH  30  39
ENDBRANCH  27  30
ENDBRANCH   1  27
BRANCH   1  43
ATOM     43  N14 0YB d   1      11.263   2.432   4.660  0.00  0.00     0.099 N 
ATOM     44  C13 0YB d   1      10.599   1.590   5.672  0.00  0.00     0.114 C 
ATOM     45  C12 0YB d   1       9.377   0.913   5.067  0.00  0.00    -0.038 C 
ATOM     46  H   0YB d   1      11.297   0.827   6.017  0.00  0.00     0.079 H 
ATOM     47  H   0YB d   1      10.285   2.215   6.508  0.00  0.00     0.079 H 
ATOM     48  C11 0YB d   1       9.763   0.080   3.843  0.00  0.00    -0.042 C 
ATOM     49  H   0YB d   1       8.936   0.254   5.814  0.00  0.00     0.035 H 
ATOM     50  H   0YB d   1       8.668   1.681   4.758  0.00  0.00     0.035 H 
ATOM     51  C10 0YB d   1      10.644   0.873   2.864  0.00  0.00     0.046 C 
ATOM     52  H   0YB d   1       8.849  -0.208   3.324  0.00  0.00     0.036 H 
ATOM     53  H   0YB d   1      10.327  -0.788   4.184  0.00  0.00     0.036 H 
ATOM     54  C15 0YB d   1      11.757   1.571   3.584  0.00  0.00     0.133 C 
ATOM     55  H   0YB d   1       9.979   1.621   2.432  0.00  0.00     0.076 H 
ATOM     56  H   0YB d   1      12.287   2.196   2.865  0.00  0.00     0.083 H 
ATOM     57  H   0YB d   1      12.404   0.813   4.025  0.00  0.00     0.083 H 
BRANCH  51  58
ATOM     58  N4  0YB d   1      11.122   0.132   1.716  0.00  0.00    -0.303 N 
ATOM     59  C3  0YB d   1      11.684  -1.117   1.863  0.00  0.00    -0.004 A 
ATOM     60  C2  0YB d   1      12.118  -1.840   0.815  0.00  0.00     0.022 A 
ATOM     61  H   0YB d   1      11.781  -1.535   2.865  0.00  0.00     0.112 H 
ATOM     62  C8  0YB d   1      12.002  -1.264  -0.516  0.00  0.00     0.256 A 
ATOM     63  N7  0YB d   1      11.439  -0.001  -0.572  0.00  0.00    -0.275 N 
ATOM     64  O9  0YB d   1      12.353  -1.831  -1.549  0.00  0.00    -0.267 OA
ATOM     65  C5  0YB d   1      11.047   0.765   0.495  0.00  0.00     0.329 A 
ATOM     66  H   0YB d   1      11.302   0.400  -1.500  0.00  0.00     0.173 HD
ATOM     67  O6  0YB d   1      10.653   1.918   0.348  0.00  0.00    -0.246 OA
BRANCH  60  68
ATOM     68  C1  0YB d   1      12.731  -3.193   0.948  0.00  0.00    -0.045 C 
ATOM     69  H   0YB d   1      13.626  -3.126   1.567  0.00  0.00     0.033 H 
ATOM     70  H   0YB d   1      12.015  -3.870   1.414  0.00  0.00     0.033 H 
ATOM     71  H   0YB d   1      12.998  -3.568  -0.040  0.00  0.00     0.033 H 
ENDBRANCH  60  68
ENDBRANCH  51  58
ENDBRANCH   1  43
TORSDOF 12
