REMARK  6 active torsions:
REMARK  status: ('A' for Active; 'I' for Inactive)
REMARK    1  A    between atoms: C8_3  and  C10_4 
REMARK    2  A    between atoms: C10_4  and  C11_5 
REMARK    3  A    between atoms: C4_10  and  N13_11 
REMARK    4  A    between atoms: C18_14  and  N19_15 
REMARK    5  A    between atoms: C2_19  and  S20_20 
REMARK    6  A    between atoms: S20_20  and  C21_21 
ROOT
ATOM      1 CL1  SUY d   1     -10.316  -1.963 -11.554  0.00  0.00    -0.081 Cl
ATOM      2  C9  SUY d   1     -11.459  -3.137 -12.380  0.00  0.00     0.074 A 
ATOM      3  C8  SUY d   1     -12.874  -3.251 -12.019  0.00  0.00     0.033 A 
ATOM      4  N7  SUY d   1     -13.359  -4.266 -12.783  0.00  0.00    -0.342 N 
ATOM      5  C6  SUY d   1     -12.400  -4.809 -13.574  0.00  0.00     0.146 A 
ATOM      6  N1  SUY d   1     -12.471  -5.822 -14.457  0.00  0.00    -0.204 NA
ATOM      7  C5  SUY d   1     -11.088  -4.134 -13.399  0.00  0.00     0.080 A 
ATOM      8  C4  SUY d   1      -9.916  -4.636 -14.192  0.00  0.00     0.144 A 
ATOM      9  N3  SUY d   1     -10.175  -5.665 -15.025  0.00  0.00    -0.204 NA
ATOM     10  C2  SUY d   1     -11.397  -6.241 -15.136  0.00  0.00     0.197 A 
ATOM     11  H6  SUY d   1     -14.338  -4.585 -12.763  0.00  0.00     0.167 HD
ENDROOT
BRANCH   8  12
ATOM     12  N13 SUY d   1      -8.609  -4.113 -14.240  0.00  0.00    -0.364 N 
ATOM     13  C17 SUY d   1      -7.554  -4.777 -15.006  0.00  0.00     0.002 C 
ATOM     14  C16 SUY d   1      -6.646  -3.609 -15.425  0.00  0.00    -0.004 A 
ATOM     15  H7  SUY d   1      -7.968  -5.292 -15.886  0.00  0.00     0.065 H 
ATOM     16  H8  SUY d   1      -7.007  -5.499 -14.382  0.00  0.00     0.065 H 
ATOM     17  C18 SUY d   1      -7.393  -2.470 -16.114  0.00  0.00     0.111 A 
ATOM     18  C15 SUY d   1      -7.093  -2.388 -14.622  0.00  0.00    -0.004 A 
ATOM     19  H9  SUY d   1      -5.606  -3.882 -15.656  0.00  0.00     0.046 H 
ATOM     20  H10 SUY d   1      -8.389  -2.554 -16.573  0.00  0.00     0.085 H 
ATOM     21  C14 SUY d   1      -8.281  -2.783 -13.744  0.00  0.00     0.002 C 
ATOM     22  H14 SUY d   1      -6.418  -1.642 -14.177  0.00  0.00     0.046 H 
ATOM     23  H15 SUY d   1      -7.998  -2.813 -12.682  0.00  0.00     0.065 H 
ATOM     24  H16 SUY d   1      -9.124  -2.089 -13.879  0.00  0.00     0.065 H 
BRANCH  17  25
ATOM     25  N19 SUY d   1      -6.445  -1.582 -16.775  0.00  0.00    -0.074 N 
ATOM     26  H11 SUY d   1      -6.946  -0.833 -17.227  0.00  0.00     0.274 HD
ATOM     27  H12 SUY d   1      -5.923  -2.101 -17.463  0.00  0.00     0.274 HD
ATOM     28  H13 SUY d   1      -5.811  -1.198 -16.091  0.00  0.00     0.274 HD
ENDBRANCH  17  25
ENDBRANCH   8  12
BRANCH  10  29
ATOM     29  S20 SUY d   1     -11.632  -7.566 -16.143  0.00  0.00    -0.047 SA
BRANCH  29  30
ATOM     30  C21 SUY d   1     -10.306  -7.869 -17.164  0.00  0.00     0.043 A 
ATOM     31  C26 SUY d   1      -9.875  -9.176 -17.362  0.00  0.00     0.021 A 
ATOM     32  N25 SUY d   1      -8.824  -9.408 -18.173  0.00  0.00    -0.253 NA
ATOM     33  H17 SUY d   1     -10.379 -10.000 -16.869  0.00  0.00     0.117 H 
ATOM     34  C24 SUY d   1      -8.199  -8.390 -18.801  0.00  0.00     0.086 A 
ATOM     35  N23 SUY d   1      -8.602  -7.119 -18.633  0.00  0.00    -0.253 NA
ATOM     36  H18 SUY d   1      -7.358  -8.601 -19.452  0.00  0.00     0.146 H 
ATOM     37  C22 SUY d   1      -9.642  -6.833 -17.830  0.00  0.00     0.021 A 
ATOM     38  H19 SUY d   1      -9.964  -5.806 -17.700  0.00  0.00     0.117 H 
ENDBRANCH  29  30
ENDBRANCH  10  29
BRANCH   3  39
ATOM     39  C10 SUY d   1     -13.639  -2.416 -11.016  0.00  0.00    -0.028 C 
ATOM     40  H1  SUY d   1     -14.291  -1.708 -11.548  0.00  0.00     0.041 H 
ATOM     41  H2  SUY d   1     -12.931  -1.859 -10.385  0.00  0.00     0.041 H 
BRANCH  39  42
ATOM     42  C11 SUY d   1     -14.488  -3.333 -10.143  0.00  0.00    -0.071 C 
ATOM     43  H3  SUY d   1     -15.046  -2.730  -9.412  0.00  0.00     0.028 H 
ATOM     44  H4  SUY d   1     -13.835  -4.041  -9.612  0.00  0.00     0.028 H 
ATOM     45  H5  SUY d   1     -15.195  -3.890 -10.775  0.00  0.00     0.028 H 
ENDBRANCH  39  42
ENDBRANCH   3  39
TORSDOF 6
