REMARK  7 active torsions:
REMARK  status: ('A' for Active; 'I' for Inactive)
REMARK    1  A    between atoms: NBD_3  and  CAA_4 
REMARK    2  A    between atoms: NBE_7  and  CAX_8 
REMARK    3  A    between atoms: CAY_15  and  CBF_16 
REMARK    4  A    between atoms: CAZ_21  and  NAU_22 
REMARK    5  A    between atoms: NAU_22  and  CAS_23 
REMARK    6  A    between atoms: CAS_23  and  CAV_24 
REMARK    7  A    between atoms: CAW_29  and  NBC_30 
ROOT
ATOM      1  CAX 0J3 d   1      -2.612  17.687  33.864  0.00  0.00     0.049 A 
ATOM      2  CAM 0J3 d   1      -2.694  16.524  33.118  0.00  0.00    -0.042 A 
ATOM      3  CBB 0J3 d   1      -1.744  16.310  32.080  0.00  0.00     0.021 A 
ATOM      4  CAJ 0J3 d   1      -1.580  18.638  33.567  0.00  0.00     0.028 A 
ATOM      5  NAT 0J3 d   1      -0.720  18.413  32.596  0.00  0.00    -0.258 NA
ATOM      6  CBA 0J3 d   1      -0.769  17.289  31.849  0.00  0.00     0.070 A 
ATOM      7  CAN 0J3 d   1       0.190  17.119  30.823  0.00  0.00    -0.040 A 
ATOM      8  CAY 0J3 d   1       0.174  15.976  30.030  0.00  0.00     0.052 A 
ATOM      9  CAL 0J3 d   1      -0.827  14.959  30.259  0.00  0.00    -0.042 A 
ATOM     10  CAZ 0J3 d   1      -1.761  15.122  31.251  0.00  0.00     0.041 A 
ATOM     11  H13 0J3 d   1      -3.466  15.791  33.320  0.00  0.00     0.088 H 
ATOM     12  H14 0J3 d   1      -1.508  19.550  34.148  0.00  0.00     0.118 H 
ATOM     13  H15 0J3 d   1       0.941  17.883  30.654  0.00  0.00     0.088 H 
ATOM     14  H16 0J3 d   1      -0.840  14.065  29.646  0.00  0.00     0.088 H 
ENDROOT
BRANCH   1  15
ATOM     15  NBE 0J3 d   1      -3.555  18.017  34.955  0.00  0.00    -0.377 N 
ATOM     16  CAQ 0J3 d   1      -4.725  17.341  34.726  0.00  0.00     0.018 C 
ATOM     17  CAO 0J3 d   1      -5.910  18.103  35.238  0.00  0.00     0.098 C 
ATOM     18  H1  0J3 d   1      -4.841  17.185  33.643  0.00  0.00     0.066 H 
ATOM     19  H2  0J3 d   1      -4.680  16.367  35.234  0.00  0.00     0.066 H 
ATOM     20  NBD 0J3 d   1      -5.657  18.736  36.562  0.00  0.00    -0.072 N 
ATOM     21  H3  0J3 d   1      -6.759  17.410  35.336  0.00  0.00     0.078 H 
ATOM     22  H4  0J3 d   1      -6.162  18.891  34.513  0.00  0.00     0.078 H 
ATOM     23  CAP 0J3 d   1      -4.384  19.493  36.607  0.00  0.00     0.098 C 
ATOM     24  H5  0J3 d   1      -6.269  19.527  36.438  0.00  0.00     0.279 HD
ATOM     25  CAR 0J3 d   1      -3.547  19.324  35.385  0.00  0.00     0.018 C 
ATOM     26  H9  0J3 d   1      -3.804  19.148  37.476  0.00  0.00     0.078 H 
ATOM     27  H10 0J3 d   1      -4.618  20.561  36.723  0.00  0.00     0.078 H 
ATOM     28  H11 0J3 d   1      -2.513  19.620  35.614  0.00  0.00     0.066 H 
ATOM     29  H12 0J3 d   1      -3.944  19.967  34.586  0.00  0.00     0.066 H 
BRANCH  20  30
ATOM     30  CAA 0J3 d   1      -6.277  18.272  37.751  0.00  0.00     0.066 C 
ATOM     31  H6  0J3 d   1      -5.945  18.886  38.601  0.00  0.00     0.068 H 
ATOM     32  H7  0J3 d   1      -5.997  17.222  37.925  0.00  0.00     0.068 H 
ATOM     33  H8  0J3 d   1      -7.370  18.348  37.649  0.00  0.00     0.068 H 
ENDBRANCH  20  30
ENDBRANCH   1  15
BRANCH  10  34
ATOM     34  NAU 0J3 d   1      -2.758  14.097  31.480  0.00  0.00    -0.385 N 
ATOM     35  H17 0J3 d   1      -3.399  14.175  32.283  0.00  0.00     0.160 HD
BRANCH  34  36
ATOM     36  CAS 0J3 d   1      -2.857  12.963  30.584  0.00  0.00     0.017 C 
ATOM     37  H18 0J3 d   1      -3.389  12.151  31.102  0.00  0.00     0.071 H 
ATOM     38  H19 0J3 d   1      -1.841  12.630  30.325  0.00  0.00     0.071 H 
BRANCH  36  39
ATOM     39  CAV 0J3 d   1      -3.607  13.292  29.292  0.00  0.00    -0.038 A 
ATOM     40  CAK 0J3 d   1      -2.893  13.380  28.066  0.00  0.00    -0.043 A 
ATOM     41  CAW 0J3 d   1      -3.586  13.690  26.902  0.00  0.00     0.103 A 
ATOM     42  H20 0J3 d   1      -1.823  13.208  28.039  0.00  0.00     0.088 H 
ATOM     43  CAI 0J3 d   1      -4.976  13.924  26.930  0.00  0.00    -0.051 A 
ATOM     44  CAG 0J3 d   1      -5.689  13.846  28.160  0.00  0.00    -0.080 A 
ATOM     45  H23 0J3 d   1      -5.503  14.164  26.014  0.00  0.00     0.087 H 
ATOM     46  CAH 0J3 d   1      -4.991  13.529  29.335  0.00  0.00    -0.075 A 
ATOM     47  H22 0J3 d   1      -6.757  14.029  28.188  0.00  0.00     0.083 H 
ATOM     48  H21 0J3 d   1      -5.521  13.467  30.279  0.00  0.00     0.084 H 
BRANCH  41  49
ATOM     49  NBC 0J3 d   1      -2.898  13.771  25.655  0.00  0.00    -0.116 N 
ATOM     50  OAC 0J3 d   1      -3.525  14.300  24.651  0.00  0.00    -0.532 OA
ATOM     51  OAB 0J3 d   1      -1.664  13.332  25.514  0.00  0.00    -0.532 OA
ENDBRANCH  41  49
ENDBRANCH  36  39
ENDBRANCH  34  36
ENDBRANCH  10  34
BRANCH   8  52
ATOM     52  CBF 0J3 d   1       1.199  15.820  28.905  0.00  0.00     0.417 C 
ATOM     53  FAE 0J3 d   1       0.503  15.865  27.744  0.00  0.00    -0.166 F 
ATOM     54  FAF 0J3 d   1       2.042  16.830  28.894  0.00  0.00    -0.166 F 
ATOM     55  FAD 0J3 d   1       1.846  14.680  28.975  0.00  0.00    -0.166 F 
ENDBRANCH   8  52
TORSDOF 7
