REMARK  6 active torsions:
REMARK  status: ('A' for Active; 'I' for Inactive)
REMARK    1  A    between atoms: C20_10  and  S19_12 
REMARK    2  A    between atoms: S19_12  and  C10_13 
REMARK    3  A    between atoms: C8_15  and  N13_16 
REMARK    4  A    between atoms: C16_19  and  N18_20 
REMARK    5  A    between atoms: C5_26  and  C6_29 
REMARK    6  A    between atoms: C6_29  and  C7_30 
ROOT
ATOM      1  C10 CJC d   1     -11.552  -6.446 -15.039  0.00  0.00     0.197 A 
ATOM      2  N9  CJC d   1     -10.320  -5.884 -15.019  0.00  0.00    -0.204 NA
ATOM      3  C8  CJC d   1     -10.015  -4.838 -14.219  0.00  0.00     0.144 A 
ATOM      4  C3  CJC d   1     -11.130  -4.289 -13.376  0.00  0.00     0.080 A 
ATOM      5  C2  CJC d   1     -12.456  -4.954 -13.455  0.00  0.00     0.146 A 
ATOM      6  N11 CJC d   1     -12.581  -5.994 -14.299  0.00  0.00    -0.204 NA
ATOM      7  N1  CJC d   1     -13.359  -4.364 -12.635  0.00  0.00    -0.342 N 
ATOM      8  C5  CJC d   1     -12.842  -3.338 -11.928  0.00  0.00     0.033 A 
ATOM      9  C4  CJC d   1     -11.435  -3.253 -12.371  0.00  0.00     0.074 A 
ATOM     10 CL1  CJC d   1     -10.249  -2.040 -11.671  0.00  0.00    -0.081 Cl
ATOM     11  H15 CJC d   1     -14.340  -4.668 -12.559  0.00  0.00     0.167 HD
ENDROOT
BRANCH   1  12
ATOM     12  S19 CJC d   1     -11.868  -7.794 -16.001  0.00  0.00    -0.049 SA
BRANCH  12  13
ATOM     13  C20 CJC d   1     -10.583  -8.221 -17.023  0.00  0.00     0.028 A 
ATOM     14  C25 CJC d   1     -10.259  -9.575 -17.141  0.00  0.00     0.021 A 
ATOM     15  N24 CJC d   1      -9.262 -10.006 -17.935  0.00  0.00    -0.238 NA
ATOM     16  H3  CJC d   1     -10.829 -10.302 -16.574  0.00  0.00     0.117 H 
ATOM     17  C23 CJC d   1      -8.539  -9.133 -18.668  0.00  0.00     0.176 A 
ATOM     18  C22 CJC d   1      -8.851  -7.679 -18.580  0.00  0.00     0.084 A 
ATOM     19  N26 CJC d   1      -7.531  -9.551 -19.477  0.00  0.00    -0.234 NA
ATOM     20  N29 CJC d   1      -8.134  -6.818 -19.305  0.00  0.00    -0.319 N 
ATOM     21  C21 CJC d   1      -9.884  -7.257 -17.750  0.00  0.00    -0.035 A 
ATOM     22  C28 CJC d   1      -7.140  -7.271 -20.097  0.00  0.00     0.263 A 
ATOM     23  H2  CJC d   1      -8.333  -5.839 -19.261  0.00  0.00     0.169 HD
ATOM     24  O47 CJC d   1      -6.476  -6.442 -20.767  0.00  0.00    -0.267 OA
ATOM     25  C27 CJC d   1      -6.841  -8.640 -20.182  0.00  0.00     0.070 A 
ATOM     26  H1  CJC d   1      -6.033  -8.970 -20.833  0.00  0.00     0.123 H 
ATOM     27  H4  CJC d   1     -10.139  -6.207 -17.670  0.00  0.00     0.089 H 
ENDBRANCH  12  13
ENDBRANCH   1  12
BRANCH   3  28
ATOM     28  N13 CJC d   1      -8.725  -4.301 -14.334  0.00  0.00    -0.363 N 
ATOM     29  C14 CJC d   1      -7.680  -4.983 -15.092  0.00  0.00    -0.002 C 
ATOM     30  C15 CJC d   1      -6.883  -3.790 -15.620  0.00  0.00    -0.022 C 
ATOM     31  H5  CJC d   1      -8.101  -5.583 -15.912  0.00  0.00     0.064 H 
ATOM     32  H6  CJC d   1      -7.065  -5.626 -14.445  0.00  0.00     0.064 H 
ATOM     33  C16 CJC d   1      -7.497  -2.508 -15.065  0.00  0.00     0.117 C 
ATOM     34  H7  CJC d   1      -6.924  -3.775 -16.719  0.00  0.00     0.038 H 
ATOM     35  H8  CJC d   1      -5.836  -3.870 -15.293  0.00  0.00     0.038 H 
ATOM     36  C17 CJC d   1      -8.408  -2.943 -13.920  0.00  0.00     0.023 C 
ATOM     37  H9  CJC d   1      -6.714  -1.826 -14.703  0.00  0.00     0.086 H 
ATOM     38  H13 CJC d   1      -7.882  -2.925 -12.954  0.00  0.00     0.067 H 
ATOM     39  H14 CJC d   1      -9.310  -2.316 -13.858  0.00  0.00     0.067 H 
BRANCH  33  40
ATOM     40  N18 CJC d   1      -8.285  -1.857 -16.095  0.00  0.00    -0.073 N 
ATOM     41  H10 CJC d   1      -8.689  -1.011 -15.725  0.00  0.00     0.274 HD
ATOM     42  H11 CJC d   1      -9.021  -2.476 -16.397  0.00  0.00     0.274 HD
ATOM     43  H12 CJC d   1      -7.693  -1.631 -16.879  0.00  0.00     0.274 HD
ENDBRANCH  33  40
ENDBRANCH   3  28
BRANCH   8  44
ATOM     44  C6  CJC d   1     -13.557  -2.457 -10.922  0.00  0.00    -0.028 C 
ATOM     45  H16 CJC d   1     -14.072  -1.647 -11.459  0.00  0.00     0.041 H 
ATOM     46  H17 CJC d   1     -12.815  -2.027 -10.233  0.00  0.00     0.041 H 
BRANCH  44  47
ATOM     47  C7  CJC d   1     -14.580  -3.244 -10.117  0.00  0.00    -0.071 C 
ATOM     48  H18 CJC d   1     -15.077  -2.574  -9.400  0.00  0.00     0.028 H 
ATOM     49  H19 CJC d   1     -14.073  -4.054  -9.571  0.00  0.00     0.028 H 
ATOM     50  H20 CJC d   1     -15.330  -3.674 -10.797  0.00  0.00     0.028 H 
ENDBRANCH  44  47
ENDBRANCH   8  44
TORSDOF 6
