REMARK  9 active torsions:
REMARK  status: ('A' for Active; 'I' for Inactive)
REMARK    1  A    between atoms: CL1_1  and  C2_2 
REMARK    2  A    between atoms: C7_7  and  N8_8 
REMARK    3  A    between atoms: C14_17  and  N18_18 
REMARK    4  A    between atoms: N18_18  and  C19_19 
REMARK    5  A    between atoms: C19_19  and  C20_20 
REMARK    6  A    between atoms: C19_19  and  C21_21 
REMARK       I    between atoms: C21_21  and  N23_23 
REMARK    7  A    between atoms: N23_23  and  C24_24 
REMARK    8  A    between atoms: C27_27  and  O30_28 
REMARK    9  A    between atoms: O30_28  and  C31_29 
ROOT
ATOM      1  N18 LUO d   1      75.839  54.101  40.964  0.00  0.00    -0.211 N 
ATOM      2  H   LUO d   1      76.046  55.095  40.868  0.00  0.00     0.178 HD
ENDROOT
BRANCH   1   3
ATOM      3  C14 LUO d   1      76.500  53.269  41.814  0.00  0.00     0.705 A 
ATOM      4  N13 LUO d   1      77.546  52.564  41.361  0.00  0.00    -0.044 NA
ATOM      5  C11 LUO d   1      78.322  51.890  42.219  0.00  0.00     0.186 A 
ATOM      6  N8  LUO d   1      79.399  51.129  42.048  0.00  0.00    -0.214 N 
ATOM      7  C12 LUO d   1      78.060  51.907  43.519  0.00  0.00     0.086 A 
ATOM      8  N9  LUO d   1      79.768  50.729  43.045  0.00  0.00    -0.177 NA
ATOM      9  C10 LUO d   1      79.011  51.151  44.058  0.00  0.00     0.040 A 
ATOM     10  H   LUO d   1      79.145  50.922  45.115  0.00  0.00     0.119 H 
ATOM     11  C16 LUO d   1      77.014  52.592  43.972  0.00  0.00     0.209 A 
ATOM     12  O17 LUO d   1      76.827  52.613  45.319  0.00  0.00    -0.171 OA
ATOM     13  N15 LUO d   1      76.224  53.270  43.127  0.00  0.00    -0.165 N 
ATOM     14  H   LUO d   1      75.433  53.774  43.474  0.00  0.00     0.186 HD
BRANCH   6  15
ATOM     15  C7  LUO d   1      79.945  50.916  40.853  0.00  0.00     0.066 A 
ATOM     16  C2  LUO d   1      79.239  50.206  39.888  0.00  0.00    -0.033 A 
ATOM     17  C3  LUO d   1      79.797  49.992  38.633  0.00  0.00    -0.075 A 
ATOM     18  C4  LUO d   1      81.066  50.480  38.344  0.00  0.00    -0.082 A 
ATOM     19  H   LUO d   1      79.239  49.441  37.875  0.00  0.00     0.084 H 
ATOM     20  C5  LUO d   1      81.776  51.179  39.314  0.00  0.00    -0.081 A 
ATOM     21  H   LUO d   1      81.504  50.315  37.359  0.00  0.00     0.083 H 
ATOM     22  C6  LUO d   1      81.215  51.402  40.566  0.00  0.00    -0.054 A 
ATOM     23  H   LUO d   1      82.775  51.553  39.092  0.00  0.00     0.083 H 
ATOM     24  H   LUO d   1      81.770  51.957  41.322  0.00  0.00     0.087 H 
BRANCH  16  25
ATOM     25  CL1 LUO d   1      77.971  49.716  40.173  0.00  0.00    -0.049 C 
ATOM     26  H   LUO d   1      77.250  50.154  39.483  0.00  0.00     0.033 H 
ATOM     27  H   LUO d   1      77.969  48.632  40.062  0.00  0.00     0.033 H 
ATOM     28  H   LUO d   1      77.703  49.979  41.196  0.00  0.00     0.033 H 
ENDBRANCH  16  25
ENDBRANCH   6  15
ENDBRANCH   1   3
BRANCH   1  29
ATOM     29  C19 LUO d   1      74.814  53.420  40.215  0.00  0.00     0.100 C 
ATOM     30  H   LUO d   1      74.192  52.855  40.909  0.00  0.00     0.087 H 
BRANCH  29  31
ATOM     31  C20 LUO d   1      73.986  54.464  39.464  0.00  0.00    -0.049 C 
ATOM     32  H   LUO d   1      73.531  55.149  40.180  0.00  0.00     0.030 H 
ATOM     33  H   LUO d   1      74.634  55.021  38.787  0.00  0.00     0.030 H 
ATOM     34  H   LUO d   1      73.205  53.963  38.892  0.00  0.00     0.030 H 
ENDBRANCH  29  31
BRANCH  29  35
ATOM     35  C21 LUO d   1      75.415  52.434  39.210  0.00  0.00     0.245 C 
ATOM     36  O22 LUO d   1      76.477  52.674  38.638  0.00  0.00    -0.271 OA
ATOM     37  N23 LUO d   1      74.627  51.257  39.014  0.00  0.00    -0.325 N 
ATOM     38  H   LUO d   1      73.824  51.029  39.600  0.00  0.00     0.169 HD
BRANCH  37  39
ATOM     39  C24 LUO d   1      75.032  50.463  37.983  0.00  0.00     0.035 A 
ATOM     40  C29 LUO d   1      74.368  49.255  37.798  0.00  0.00    -0.054 A 
ATOM     41  C28 LUO d   1      74.726  48.394  36.767  0.00  0.00    -0.049 A 
ATOM     42  H   LUO d   1      73.556  48.980  38.471  0.00  0.00     0.087 H 
ATOM     43  C27 LUO d   1      75.760  48.743  35.906  0.00  0.00     0.068 A 
ATOM     44  H   LUO d   1      74.198  47.450  36.634  0.00  0.00     0.087 H 
ATOM     45  C26 LUO d   1      76.428  49.950  36.085  0.00  0.00    -0.049 A 
ATOM     46  C25 LUO d   1      76.066  50.809  37.119  0.00  0.00    -0.054 A 
ATOM     47  H   LUO d   1      77.240  50.225  35.412  0.00  0.00     0.087 H 
ATOM     48  H   LUO d   1      76.593  51.754  37.252  0.00  0.00     0.087 H 
BRANCH  43  49
ATOM     49  O30 LUO d   1      76.115  47.883  34.913  0.00  0.00    -0.356 OA
BRANCH  49  50
ATOM     50  C31 LUO d   1      75.732  48.399  33.635  0.00  0.00     0.010 C 
ATOM     51  H   LUO d   1      74.651  48.539  33.610  0.00  0.00     0.066 H 
ATOM     52  H   LUO d   1      76.228  49.355  33.467  0.00  0.00     0.066 H 
ATOM     53  H   LUO d   1      76.026  47.694  32.857  0.00  0.00     0.066 H 
ENDBRANCH  49  50
ENDBRANCH  43  49
ENDBRANCH  37  39
ENDBRANCH  29  35
ENDBRANCH   1  29
TORSDOF 9
