REMARK  21 active torsions:
REMARK  status: ('A' for Active; 'I' for Inactive)
REMARK    1  A    between atoms: C02_2  and  C01_1 
REMARK    2  A    between atoms: C01_1  and  C57_28 
REMARK    3  A    between atoms: C04_4  and  C02_2 
REMARK    4  A    between atoms: C04_4  and  C05_5 
REMARK    5  A    between atoms: C47_24  and  C04_4 
REMARK    6  A    between atoms: C05_5  and  C06_6 
REMARK    7  A    between atoms: N12_12  and  C13_13 
REMARK       I    between atoms: N12_12  and  C47_24 
REMARK    8  A    between atoms: C13_13  and  C14_14 
REMARK    9  A    between atoms: C13_13  and  C19_19 
REMARK   10  A    between atoms: C14_14  and  C15_15 
REMARK   11  A    between atoms: C19_19  and  C20_20 
REMARK   12  A    between atoms: C20_20  and  C21_21 
REMARK   13  A    between atoms: C21_21  and  O22_22 
REMARK   14  A    between atoms: O22_22  and  C50_26 
REMARK   15  A    between atoms: C50_26  and  C53_27 
REMARK   16  A    between atoms: C57_28  and  N58_29 
REMARK   17  A    between atoms: C57_28  and  C78_32 
REMARK       I    between atoms: N58_29  and  C59_30 
REMARK   18  A    between atoms: C59_30  and  C1_38 
REMARK   19  A    between atoms: C78_32  and  C81_33 
REMARK   20  A    between atoms: C78_32  and  C82_35 
REMARK   21  A    between atoms: C3_40  and  C4_43 
ROOT
ATOM      1  C04 AG7 d   1       8.762  -7.008  -1.741  0.00  0.00     0.034 C 
ATOM      2  H3  AG7 d   1       8.364  -8.032  -1.688  0.00  0.00     0.055 H 
ENDROOT
BRANCH   1   3
ATOM      3  C02 AG7 d   1       9.364  -6.644  -0.377  0.00  0.00     0.004 C 
ATOM      4  H1  AG7 d   1       9.559  -5.561  -0.363  0.00  0.00     0.045 H 
ATOM      5  H2  AG7 d   1       8.630  -6.894   0.403  0.00  0.00     0.045 H 
BRANCH   3   6
ATOM      6  C01 AG7 d   1      10.661  -7.366  -0.060  0.00  0.00     0.150 C 
ATOM      7  O03 AG7 d   1      11.082  -8.252  -0.797  0.00  0.00    -0.296 OA
BRANCH   6   8
ATOM      8  C57 AG7 d   1      11.398  -6.918   1.210  0.00  0.00     0.073 C 
ATOM      9  H25 AG7 d   1      10.652  -6.430   1.855  0.00  0.00     0.085 H 
BRANCH   8  10
ATOM     10  N58 AG7 d   1      11.951  -8.080   1.899  0.00  0.00    -0.344 N 
ATOM     11  C59 AG7 d   1      11.511  -8.435   3.097  0.00  0.00     0.273 C 
ATOM     12  O60 AG7 d   1      10.673  -7.795   3.741  0.00  0.00    -0.266 OA
ATOM     13  H26 AG7 d   1      12.672  -8.616   1.460  0.00  0.00     0.163 HD
BRANCH  11  14
ATOM     14  C1  AG7 d   1      12.203  -9.623   3.652  0.00  0.00     0.154 A 
ATOM     15  C2  AG7 d   1      11.960 -10.249   4.878  0.00  0.00    -0.017 A 
ATOM     16  C3  AG7 d   1      12.906 -11.247   4.917  0.00  0.00     0.077 A 
ATOM     17  H38 AG7 d   1      11.204 -10.005   5.623  0.00  0.00     0.091 H 
ATOM     18  O4  AG7 d   1      13.663 -11.244   3.798  0.00  0.00    -0.218 OA
ATOM     19  N5  AG7 d   1      13.249 -10.235   3.001  0.00  0.00    -0.123 NA
BRANCH  16  20
ATOM     20  C4  AG7 d   1      13.085 -12.239   6.035  0.00  0.00    -0.029 C 
ATOM     21  H39 AG7 d   1      13.917 -12.917   5.794  0.00  0.00     0.036 H 
ATOM     22  H40 AG7 d   1      12.161 -12.822   6.159  0.00  0.00     0.036 H 
ATOM     23  H41 AG7 d   1      13.309 -11.703   6.969  0.00  0.00     0.036 H 
ENDBRANCH  16  20
ENDBRANCH  11  14
ENDBRANCH   8  10
BRANCH   8  24
ATOM     24  C78 AG7 d   1      12.590  -5.951   1.054  0.00  0.00    -0.035 C 
ATOM     25  H27 AG7 d   1      13.458  -6.556   0.753  0.00  0.00     0.042 H 
BRANCH  24  26
ATOM     26  C81 AG7 d   1      12.396  -4.887  -0.009  0.00  0.00    -0.071 C 
ATOM     27  H28 AG7 d   1      13.288  -4.245  -0.053  0.00  0.00     0.028 H 
ATOM     28  H29 AG7 d   1      11.516  -4.275   0.241  0.00  0.00     0.028 H 
ATOM     29  H30 AG7 d   1      12.243  -5.369  -0.986  0.00  0.00     0.028 H 
ENDBRANCH  24  26
BRANCH  24  30
ATOM     30  C82 AG7 d   1      12.920  -5.288   2.400  0.00  0.00    -0.071 C 
ATOM     31  H31 AG7 d   1      13.059  -6.064   3.167  0.00  0.00     0.028 H 
ATOM     32  H32 AG7 d   1      12.093  -4.626   2.695  0.00  0.00     0.028 H 
ATOM     33  H33 AG7 d   1      13.844  -4.699   2.302  0.00  0.00     0.028 H 
ENDBRANCH  24  30
ENDBRANCH   8  24
ENDBRANCH   6   8
ENDBRANCH   3   6
ENDBRANCH   1   3
BRANCH   1  34
ATOM     34  C05 AG7 d   1       7.654  -6.024  -2.055  0.00  0.00    -0.029 C 
ATOM     35  H4  AG7 d   1       7.246  -6.263  -3.048  0.00  0.00     0.041 H 
ATOM     36  H5  AG7 d   1       8.081  -5.010  -2.069  0.00  0.00     0.041 H 
BRANCH  34  37
ATOM     37  C06 AG7 d   1       6.505  -6.055  -1.035  0.00  0.00    -0.057 A 
ATOM     38  C07 AG7 d   1       5.735  -7.175  -0.788  0.00  0.00    -0.074 A 
ATOM     39  C08 AG7 d   1       4.664  -7.164   0.155  0.00  0.00    -0.045 A 
ATOM     40  H6  AG7 d   1       5.951  -8.090  -1.327  0.00  0.00     0.084 H 
ATOM     41  C09 AG7 d   1       4.369  -5.986   0.855  0.00  0.00     0.116 A 
ATOM     42  H7  AG7 d   1       4.082  -8.062   0.329  0.00  0.00     0.088 H 
ATOM     43  C10 AG7 d   1       5.133  -4.856   0.594  0.00  0.00    -0.045 A 
ATOM     44  F1  AG7 d   1       3.334  -5.891   1.747  0.00  0.00    -0.206 F 
ATOM     45  C11 AG7 d   1       6.190  -4.896  -0.324  0.00  0.00    -0.074 A 
ATOM     46  H8  AG7 d   1       4.908  -3.929   1.109  0.00  0.00     0.088 H 
ATOM     47  H9  AG7 d   1       6.780  -4.002  -0.487  0.00  0.00     0.084 H 
ENDBRANCH  34  37
ENDBRANCH   1  34
BRANCH   1  48
ATOM     48  C47 AG7 d   1       9.725  -6.909  -2.899  0.00  0.00     0.222 C 
ATOM     49  N12 AG7 d   1       9.774  -7.903  -3.712  0.00  0.00    -0.356 N 
ATOM     50  H10 AG7 d   1       9.219  -8.710  -3.512  0.00  0.00     0.162 HD
ATOM     51  O48 AG7 d   1      10.365  -5.873  -3.002  0.00  0.00    -0.273 OA
BRANCH  49  52
ATOM     52  C13 AG7 d   1      10.607  -7.909  -4.922  0.00  0.00     0.013 C 
ATOM     53  H11 AG7 d   1      11.141  -6.950  -4.993  0.00  0.00     0.072 H 
BRANCH  52  54
ATOM     54  C14 AG7 d   1      11.659  -9.033  -4.898  0.00  0.00    -0.035 C 
ATOM     55  H12 AG7 d   1      12.167  -9.073  -5.873  0.00  0.00     0.037 H 
ATOM     56  H13 AG7 d   1      11.158  -9.993  -4.706  0.00  0.00     0.037 H 
BRANCH  54  57
ATOM     57  C15 AG7 d   1      12.686  -8.780  -3.810  0.00  0.00     0.027 C 
ATOM     58  C16 AG7 d   1      13.892  -9.715  -3.872  0.00  0.00     0.221 C 
ATOM     59  N17 AG7 d   1      14.876  -9.135  -3.366  0.00  0.00    -0.361 N 
ATOM     60  O18 AG7 d   1      13.891 -10.832  -4.359  0.00  0.00    -0.273 OA
ATOM     61  C83 AG7 d   1      14.743  -7.681  -3.221  0.00  0.00    -0.004 C 
ATOM     62  H15 AG7 d   1      15.698  -9.628  -3.079  0.00  0.00     0.162 HD
ATOM     63  C84 AG7 d   1      13.333  -7.393  -3.775  0.00  0.00    -0.039 C 
ATOM     64  H34 AG7 d   1      15.511  -7.155  -3.807  0.00  0.00     0.064 H 
ATOM     65  H35 AG7 d   1      14.819  -7.382  -2.165  0.00  0.00     0.064 H 
ATOM     66  H36 AG7 d   1      12.778  -6.715  -3.110  0.00  0.00     0.036 H 
ATOM     67  H37 AG7 d   1      13.386  -6.956  -4.783  0.00  0.00     0.036 H 
ATOM     68  H14 AG7 d   1      12.163  -8.938  -2.855  0.00  0.00     0.054 H 
ENDBRANCH  54  57
ENDBRANCH  52  54
BRANCH  52  69
ATOM     69  C19 AG7 d   1       9.641  -8.032  -6.117  0.00  0.00    -0.038 C 
ATOM     70  H16 AG7 d   1       9.000  -8.915  -5.976  0.00  0.00     0.036 H 
ATOM     71  H17 AG7 d   1      10.222  -8.145  -7.044  0.00  0.00     0.036 H 
BRANCH  69  72
ATOM     72  C20 AG7 d   1       8.766  -6.783  -6.219  0.00  0.00     0.018 C 
ATOM     73  H18 AG7 d   1       8.316  -6.577  -5.237  0.00  0.00     0.048 H 
ATOM     74  H19 AG7 d   1       7.970  -6.960  -6.957  0.00  0.00     0.048 H 
BRANCH  72  75
ATOM     75  C21 AG7 d   1       9.590  -5.574  -6.654  0.00  0.00     0.258 C 
ATOM     76  O23 AG7 d   1      10.490  -5.670  -7.465  0.00  0.00    -0.265 OA
BRANCH  75  77
ATOM     77  O22 AG7 d   1       9.305  -4.311  -6.081  0.00  0.00    -0.322 OA
BRANCH  77  78
ATOM     78  C50 AG7 d   1      10.170  -3.186  -6.235  0.00  0.00     0.025 C 
ATOM     79  H20 AG7 d   1       9.576  -2.295  -6.485  0.00  0.00     0.074 H 
ATOM     80  H21 AG7 d   1      10.892  -3.383  -7.041  0.00  0.00     0.074 H 
BRANCH  78  81
ATOM     81  C53 AG7 d   1      10.911  -2.954  -4.933  0.00  0.00    -0.056 C 
ATOM     82  H22 AG7 d   1      11.581  -2.088  -5.042  0.00  0.00     0.030 H 
ATOM     83  H23 AG7 d   1      11.503  -3.847  -4.684  0.00  0.00     0.030 H 
ATOM     84  H24 AG7 d   1      10.187  -2.759  -4.129  0.00  0.00     0.030 H 
ENDBRANCH  78  81
ENDBRANCH  77  78
ENDBRANCH  75  77
ENDBRANCH  72  75
ENDBRANCH  69  72
ENDBRANCH  52  69
ENDBRANCH  49  52
ENDBRANCH   1  48
TORSDOF 21
