REMARK  6 active torsions:
REMARK  status: ('A' for Active; 'I' for Inactive)
REMARK    1  A    between atoms: CX0_2  and  CX1_4 
REMARK    2  A    between atoms: CX3_8  and  C3_9 
REMARK    3  A    between atoms: CX2_10  and  N1_11 
REMARK    4  A    between atoms: N1_11  and  CY1_12 
REMARK    5  A    between atoms: CY2_13  and  CY0_14 
REMARK    6  A    between atoms: CY5_18  and  C5_19 
ROOT
ATOM      1  N1  636 d   1       2.701 -28.111  33.000  0.00  0.00    -0.354 N 
ATOM      2  H   636 d   1       3.543 -27.838  32.474  0.00  0.00     0.166 HD
ENDROOT
BRANCH   1   3
ATOM      3  CX2 636 d   1       2.004 -29.310  32.611  0.00  0.00     0.055 A 
ATOM      4  CX1 636 d   1       2.624 -30.555  32.784  0.00  0.00     0.068 A 
ATOM      5  CX6 636 d   1       1.964 -31.718  32.405  0.00  0.00    -0.064 A 
ATOM      6  CX5 636 d   1       0.698 -31.659  31.851  0.00  0.00    -0.081 A 
ATOM      7  H   636 d   1       2.445 -32.679  32.545  0.00  0.00     0.085 H 
ATOM      8  CX4 636 d   1       0.082 -30.433  31.673  0.00  0.00    -0.075 A 
ATOM      9  H   636 d   1       0.190 -32.571  31.557  0.00  0.00     0.083 H 
ATOM     10  CX3 636 d   1       0.725 -29.258  32.043  0.00  0.00    -0.034 A 
ATOM     11  H   636 d   1      -0.911 -30.389  31.241  0.00  0.00     0.084 H 
BRANCH   4  12
ATOM     12  CX0 636 d   1       4.005 -30.684  33.332  0.00  0.00     0.211 C 
ATOM     13  OX1 636 d   1       4.320 -31.626  34.103  0.00  0.00    -0.644 OA
ATOM     14  OX2 636 d   1       4.889 -29.866  32.948  0.00  0.00    -0.644 OA
ENDBRANCH   4  12
BRANCH  10  15
ATOM     15  C3  636 d   1      -0.006 -27.972  31.795  0.00  0.00    -0.049 C 
ATOM     16  H   636 d   1      -0.986 -28.188  31.344  0.00  0.00     0.033 H 
ATOM     17  H   636 d   1       0.582 -27.342  31.111  0.00  0.00     0.033 H 
ATOM     18  H   636 d   1      -0.150 -27.442  32.748  0.00  0.00     0.033 H 
ENDBRANCH  10  15
ENDBRANCH   1   3
BRANCH   1  19
ATOM     19  CY1 636 d   1       2.270 -27.275  34.096  0.00  0.00     0.050 A 
ATOM     20  CY2 636 d   1       3.080 -26.207  34.485  0.00  0.00     0.067 A 
ATOM     21  CY3 636 d   1       2.689 -25.380  35.532  0.00  0.00    -0.064 A 
ATOM     22  CY4 636 d   1       1.489 -25.610  36.191  0.00  0.00    -0.076 A 
ATOM     23  H   636 d   1       3.322 -24.554  35.834  0.00  0.00     0.085 H 
ATOM     24  CY5 636 d   1       0.677 -26.667  35.809  0.00  0.00    -0.060 A 
ATOM     25  H   636 d   1       1.186 -24.962  37.006  0.00  0.00     0.084 H 
ATOM     26  CY6 636 d   1       1.071 -27.499  34.776  0.00  0.00    -0.050 A 
ATOM     27  H   636 d   1       0.442 -28.334  34.491  0.00  0.00     0.087 H 
BRANCH  20  28
ATOM     28  CY0 636 d   1       4.374 -25.943  33.775  0.00  0.00     0.211 C 
ATOM     29  OY1 636 d   1       5.037 -26.891  33.274  0.00  0.00    -0.644 OA
ATOM     30  OY2 636 d   1       4.800 -24.758  33.671  0.00  0.00    -0.644 OA
ENDBRANCH  20  28
BRANCH  24  31
ATOM     31  C5  636 d   1      -0.616 -26.897  36.531  0.00  0.00    -0.051 C 
ATOM     32  H   636 d   1      -0.742 -26.132  37.311  0.00  0.00     0.033 H 
ATOM     33  H   636 d   1      -0.605 -27.895  36.995  0.00  0.00     0.033 H 
ATOM     34  H   636 d   1      -1.451 -26.834  35.817  0.00  0.00     0.033 H 
ENDBRANCH  24  31
ENDBRANCH   1  19
TORSDOF 6
