REMARK  6 active torsions:
REMARK  status: ('A' for Active; 'I' for Inactive)
REMARK    1  A    between atoms: C3_3  and  C8_8 
REMARK    2  A    between atoms: C4_4  and  C6_6 
REMARK    3  A    between atoms: C6_6  and  C7_7 
REMARK    4  A    between atoms: C8_8  and  N9_9 
REMARK    5  A    between atoms: N9_9  and  C10_10 
REMARK    6  A    between atoms: N9_9  and  C11_11 
ROOT
ATOM      1  N1  0LS d   1       3.890  23.244  48.792  0.00  0.00    -0.074 N 
ATOM      2  C2  0LS d   1       5.302  23.312  48.396  0.00  0.00     0.087 C 
ATOM      3  C3  0LS d   1       5.491  22.262  47.269  0.00  0.00    -0.010 C 
ATOM      4  C4  0LS d   1       4.121  21.586  47.111  0.00  0.00    -0.021 C 
ATOM      5  C5  0LS d   1       3.438  21.897  48.454  0.00  0.00     0.086 C 
ATOM      6  H1  0LS d   1       3.352  23.930  48.287  0.00  0.00     0.277 HD
ATOM      7  H2  0LS d   1       3.796  23.406  49.782  0.00  0.00     0.277 HD
ATOM      8  H3  0LS d   1       5.949  23.072  49.252  0.00  0.00     0.076 H 
ATOM      9  H4  0LS d   1       5.545  24.318  48.023  0.00  0.00     0.076 H 
ATOM     10  H5  0LS d   1       5.747  22.789  46.338  0.00  0.00     0.045 H 
ATOM     11  H6  0LS d   1       4.269  20.498  47.040  0.00  0.00     0.043 H 
ATOM     12  H7  0LS d   1       2.343  21.869  48.349  0.00  0.00     0.076 H 
ATOM     13  H8  0LS d   1       3.751  21.177  49.225  0.00  0.00     0.076 H 
ENDROOT
BRANCH   3  14
ATOM     14  C8  0LS d   1       6.605  21.217  47.534  0.00  0.00     0.006 C 
ATOM     15  H11 0LS d   1       6.658  20.543  46.666  0.00  0.00     0.065 H 
ATOM     16  H12 0LS d   1       6.330  20.641  48.430  0.00  0.00     0.065 H 
BRANCH  14  17
ATOM     17  N9  0LS d   1       7.943  21.795  47.751  0.00  0.00    -0.346 N 
BRANCH  17  18
ATOM     18  C10 0LS d   1       8.585  22.519  46.788  0.00  0.00     0.034 A 
ATOM     19  C12 0LS d   1       8.211  22.353  45.433  0.00  0.00    -0.055 A 
ATOM     20  C13 0LS d   1       8.926  22.980  44.413  0.00  0.00    -0.060 A 
ATOM     21  H13 0LS d   1       7.359  21.731  45.185  0.00  0.00     0.087 H 
ATOM     22  C14 0LS d   1      10.025  23.785  44.751  0.00  0.00     0.034 A 
ATOM     23  H14 0LS d   1       8.638  22.848  43.376  0.00  0.00     0.086 H 
ATOM     24  C15 0LS d   1      10.428  23.950  46.080  0.00  0.00    -0.060 A 
ATOM     25 CL2  0LS d   1      10.983  24.539  43.505  0.00  0.00    -0.084 Cl
ATOM     26  C16 0LS d   1       9.729  23.294  47.085  0.00  0.00    -0.055 A 
ATOM     27  H15 0LS d   1      11.275  24.582  46.323  0.00  0.00     0.086 H 
ATOM     28  H16 0LS d   1      10.066  23.378  48.112  0.00  0.00     0.087 H 
ENDBRANCH  17  18
BRANCH  17  29
ATOM     29  C11 0LS d   1       8.582  21.479  48.912  0.00  0.00     0.034 A 
ATOM     30  C17 0LS d   1       9.439  20.355  49.001  0.00  0.00    -0.057 A 
ATOM     31  C18 0LS d   1      10.058  20.005  50.215  0.00  0.00    -0.081 A 
ATOM     32  H17 0LS d   1       9.621  19.753  48.118  0.00  0.00     0.086 H 
ATOM     33  C19 0LS d   1       9.793  20.761  51.366  0.00  0.00    -0.083 A 
ATOM     34  H18 0LS d   1      10.734  19.159  50.260  0.00  0.00     0.083 H 
ATOM     35  C20 0LS d   1       8.919  21.855  51.301  0.00  0.00    -0.081 A 
ATOM     36  H19 0LS d   1      10.264  20.499  52.306  0.00  0.00     0.083 H 
ATOM     37  C21 0LS d   1       8.331  22.214  50.078  0.00  0.00    -0.057 A 
ATOM     38  H20 0LS d   1       8.697  22.424  52.196  0.00  0.00     0.083 H 
ATOM     39  H21 0LS d   1       7.672  23.074  50.035  0.00  0.00     0.086 H 
ENDBRANCH  17  29
ENDBRANCH  14  17
ENDBRANCH   3  14
BRANCH   4  40
ATOM     40  C6  0LS d   1       3.342  21.999  45.837  0.00  0.00    -0.036 C 
ATOM     41  H9  0LS d   1       3.901  21.663  44.951  0.00  0.00     0.040 H 
ATOM     42  H10 0LS d   1       3.245  23.095  45.816  0.00  0.00     0.040 H 
BRANCH  40  43
ATOM     43  C7  0LS d   1       1.941  21.373  45.811  0.00  0.00    -0.058 A 
ATOM     44  C22 0LS d   1       0.814  22.123  46.250  0.00  0.00    -0.077 A 
ATOM     45  C23 0LS d   1      -0.482  21.561  46.238  0.00  0.00    -0.082 A 
ATOM     46  H22 0LS d   1       0.952  23.140  46.599  0.00  0.00     0.084 H 
ATOM     47  C24 0LS d   1      -0.646  20.241  45.782  0.00  0.00    -0.083 A 
ATOM     48  H23 0LS d   1      -1.336  22.138  46.575  0.00  0.00     0.083 H 
ATOM     49  C25 0LS d   1       0.474  19.485  45.348  0.00  0.00    -0.082 A 
ATOM     50  H24 0LS d   1      -1.635  19.798  45.762  0.00  0.00     0.083 H 
ATOM     51  C26 0LS d   1       1.770  20.047  45.354  0.00  0.00    -0.077 A 
ATOM     52  H25 0LS d   1       0.333  18.465  45.008  0.00  0.00     0.083 H 
ATOM     53  H26 0LS d   1       2.621  19.469  45.013  0.00  0.00     0.084 H 
ENDBRANCH  40  43
ENDBRANCH   4  40
TORSDOF 6
