REMARK  16 active torsions:
REMARK  status: ('A' for Active; 'I' for Inactive)
REMARK       I    between atoms: C1_1  and  N2_2 
REMARK    1  A    between atoms: C1_1  and  C4_4 
REMARK    2  A    between atoms: N2_2  and  C3_3 
REMARK    3  A    between atoms: N2_2  and  C14_14 
REMARK    4  A    between atoms: C3_3  and  C5_5 
REMARK    5  A    between atoms: C7_7  and  O18_18 
REMARK    6  A    between atoms: C9_9  and  C13_13 
REMARK    7  A    between atoms: C11_11  and  O20_20 
REMARK    8  A    between atoms: C13_13  and  C19_19 
REMARK    9  A    between atoms: C14_14  and  C25_25 
REMARK   10  A    between atoms: C14_14  and  C26_26 
REMARK   11  A    between atoms: O18_18  and  C23_23 
REMARK   12  A    between atoms: O20_20  and  C29_29 
REMARK   13  A    between atoms: C23_23  and  C21_21 
REMARK   14  A    between atoms: C21_21  and  C24_24 
REMARK   15  A    between atoms: C24_24  and  O22_22 
REMARK   16  A    between atoms: O22_22  and  C30_30 
ROOT
ATOM      1  C1  0LT d   1      70.316   8.960  47.571  0.00  0.00     0.254 C 
ATOM      2  N2  0LT d   1      68.955   8.769  47.533  0.00  0.00    -0.344 N 
ATOM      3  O10 0LT d   1      71.140   8.181  47.087  0.00  0.00    -0.267 OA
ENDROOT
BRANCH   2   4
ATOM      4  C3  0LT d   1      68.400   7.485  47.044  0.00  0.00     0.004 C 
ATOM      5  H1  0LT d   1      67.310   7.610  46.970  0.00  0.00     0.065 H 
ATOM      6  H2  0LT d   1      68.631   6.722  47.802  0.00  0.00     0.065 H 
BRANCH   4   7
ATOM      7  C5  0LT d   1      68.894   6.931  45.669  0.00  0.00    -0.010 C 
ATOM      8  C9  0LT d   1      68.345   5.509  45.374  0.00  0.00    -0.021 C 
ATOM      9  C17 0LT d   1      66.918   5.867  44.856  0.00  0.00     0.086 C 
ATOM     10  H7  0LT d   1      68.234   4.977  46.330  0.00  0.00     0.043 H 
ATOM     11  N8  0LT d   1      67.095   7.118  44.075  0.00  0.00    -0.074 N 
ATOM     12  H15 0LT d   1      66.526   5.063  44.215  0.00  0.00     0.076 H 
ATOM     13  H16 0LT d   1      66.231   6.032  45.699  0.00  0.00     0.076 H 
ATOM     14  C16 0LT d   1      68.391   7.741  44.446  0.00  0.00     0.087 C 
ATOM     15  H5  0LT d   1      67.093   6.904  43.090  0.00  0.00     0.277 HD
ATOM     16  H6  0LT d   1      66.342   7.755  44.283  0.00  0.00     0.277 HD
ATOM     17  H13 0LT d   1      69.107   7.668  43.614  0.00  0.00     0.076 H 
ATOM     18  H14 0LT d   1      68.248   8.798  44.715  0.00  0.00     0.076 H 
ATOM     19  H3  0LT d   1      69.994   6.919  45.683  0.00  0.00     0.045 H 
BRANCH   8  20
ATOM     20  C13 0LT d   1      69.244   4.572  44.497  0.00  0.00    -0.036 C 
ATOM     21  H9  0LT d   1      70.166   4.336  45.048  0.00  0.00     0.040 H 
ATOM     22  H10 0LT d   1      69.499   5.088  43.560  0.00  0.00     0.040 H 
BRANCH  20  23
ATOM     23  C19 0LT d   1      68.502   3.266  44.169  0.00  0.00    -0.058 A 
ATOM     24  C27 0LT d   1      67.653   3.164  43.038  0.00  0.00    -0.077 A 
ATOM     25  C31 0LT d   1      66.929   1.985  42.790  0.00  0.00    -0.082 A 
ATOM     26  H29 0LT d   1      67.561   4.003  42.358  0.00  0.00     0.084 H 
ATOM     27  C33 0LT d   1      67.095   0.875  43.638  0.00  0.00    -0.083 A 
ATOM     28  H37 0LT d   1      66.246   1.931  41.950  0.00  0.00     0.083 H 
ATOM     29  C32 0LT d   1      67.933   0.967  44.768  0.00  0.00    -0.082 A 
ATOM     30  H39 0LT d   1      66.578  -0.053  43.422  0.00  0.00     0.083 H 
ATOM     31  C28 0LT d   1      68.642   2.155  45.030  0.00  0.00    -0.077 A 
ATOM     32  H38 0LT d   1      68.032   0.120  45.438  0.00  0.00     0.083 H 
ATOM     33  H30 0LT d   1      69.295   2.217  45.893  0.00  0.00     0.084 H 
ENDBRANCH  20  23
ENDBRANCH   8  20
ENDBRANCH   4   7
ENDBRANCH   2   4
BRANCH   2  34
ATOM     34  C14 0LT d   1      68.050   9.726  48.189  0.00  0.00     0.008 C 
ATOM     35  H11 0LT d   1      68.791  10.489  48.470  0.00  0.00     0.071 H 
BRANCH  34  36
ATOM     36  C25 0LT d   1      67.102  10.654  47.382  0.00  0.00    -0.057 C 
ATOM     37  H23 0LT d   1      66.523  11.280  48.077  0.00  0.00     0.030 H 
ATOM     38  H24 0LT d   1      66.414  10.042  46.780  0.00  0.00     0.030 H 
ATOM     39  H25 0LT d   1      67.697  11.298  46.718  0.00  0.00     0.030 H 
ENDBRANCH  34  36
BRANCH  34  40
ATOM     40  C26 0LT d   1      67.617   9.256  49.615  0.00  0.00    -0.057 C 
ATOM     41  H26 0LT d   1      66.944  10.004  50.059  0.00  0.00     0.030 H 
ATOM     42  H27 0LT d   1      68.508   9.142  50.250  0.00  0.00     0.030 H 
ATOM     43  H28 0LT d   1      67.094   8.291  49.540  0.00  0.00     0.030 H 
ENDBRANCH  34  40
ENDBRANCH   2  34
BRANCH   1  44
ATOM     44  C4  0LT d   1      71.044  10.192  48.047  0.00  0.00     0.035 A 
ATOM     45  C6  0LT d   1      71.103  11.298  47.181  0.00  0.00    -0.033 A 
ATOM     46  C7  0LT d   1      71.867  12.433  47.542  0.00  0.00     0.102 A 
ATOM     47  H4  0LT d   1      70.565  11.281  46.240  0.00  0.00     0.089 H 
ATOM     48  C11 0LT d   1      72.607  12.415  48.757  0.00  0.00     0.101 A 
ATOM     49  C15 0LT d   1      72.551  11.277  49.609  0.00  0.00    -0.047 A 
ATOM     50  C12 0LT d   1      71.788  10.160  49.240  0.00  0.00    -0.065 A 
ATOM     51  H12 0LT d   1      73.099  11.274  50.544  0.00  0.00     0.087 H 
ATOM     52  H8  0LT d   1      71.772   9.278  49.870  0.00  0.00     0.085 H 
BRANCH  46  53
ATOM     53  O18 0LT d   1      71.954  13.564  46.715  0.00  0.00    -0.348 OA
BRANCH  53  54
ATOM     54  C23 0LT d   1      71.235  13.731  45.458  0.00  0.00     0.028 C 
ATOM     55  H19 0LT d   1      71.174  12.752  44.961  0.00  0.00     0.075 H 
ATOM     56  H20 0LT d   1      71.802  14.429  44.825  0.00  0.00     0.075 H 
BRANCH  54  57
ATOM     57  C21 0LT d   1      69.791  14.285  45.626  0.00  0.00    -0.025 C 
ATOM     58  H17 0LT d   1      69.849  15.252  46.147  0.00  0.00     0.039 H 
ATOM     59  H18 0LT d   1      69.216  13.574  46.237  0.00  0.00     0.039 H 
BRANCH  57  60
ATOM     60  C24 0LT d   1      69.041  14.496  44.284  0.00  0.00     0.021 C 
ATOM     61  H21 0LT d   1      68.032  14.883  44.489  0.00  0.00     0.074 H 
ATOM     62  H22 0LT d   1      68.965  13.534  43.756  0.00  0.00     0.074 H 
BRANCH  60  63
ATOM     63  O22 0LT d   1      69.751  15.438  43.455  0.00  0.00    -0.396 OA
BRANCH  63  64
ATOM     64  C30 0LT d   1      69.869  15.036  42.082  0.00  0.00     0.004 C 
ATOM     65  H34 0LT d   1      70.420  15.805  41.521  0.00  0.00     0.066 H 
ATOM     66  H35 0LT d   1      68.866  14.914  41.648  0.00  0.00     0.066 H 
ATOM     67  H36 0LT d   1      70.412  14.081  42.025  0.00  0.00     0.066 H 
ENDBRANCH  63  64
ENDBRANCH  60  63
ENDBRANCH  57  60
ENDBRANCH  54  57
ENDBRANCH  53  54
ENDBRANCH  46  53
BRANCH  48  68
ATOM     68  O20 0LT d   1      73.407  13.528  49.074  0.00  0.00    -0.353 OA
BRANCH  68  69
ATOM     69  C29 0LT d   1      74.015  13.694  50.372  0.00  0.00     0.010 C 
ATOM     70  H31 0LT d   1      74.591  14.631  50.390  0.00  0.00     0.066 H 
ATOM     71  H32 0LT d   1      74.687  12.847  50.573  0.00  0.00     0.066 H 
ATOM     72  H33 0LT d   1      73.231  13.731  51.142  0.00  0.00     0.066 H 
ENDBRANCH  68  69
ENDBRANCH  48  68
ENDBRANCH   1  44
TORSDOF 16
