REMARK  5 active torsions:
REMARK  status: ('A' for Active; 'I' for Inactive)
REMARK    1  A    between atoms: C2_2  and  C6_6 
REMARK    2  A    between atoms: C6_6  and  C12_12 
REMARK    3  A    between atoms: C12_12  and  C16_16 
REMARK    4  A    between atoms: C12_12  and  O17_17 
REMARK    5  A    between atoms: C16_16  and  N19_19 
ROOT
ATOM      1  C6  0LU d   1       9.901  22.393  46.117  0.00  0.00    -0.029 C 
ATOM      2  H3  0LU d   1       8.838  22.676  46.091  0.00  0.00     0.038 H 
ATOM      3  H4  0LU d   1      10.031  21.411  45.638  0.00  0.00     0.038 H 
ENDROOT
BRANCH   1   4
ATOM      4  C2  0LU d   1      10.350  22.287  47.595  0.00  0.00     0.002 C 
ATOM      5  C1  0LU d   1       9.130  21.853  48.448  0.00  0.00    -0.032 A 
ATOM      6  C3  0LU d   1       8.773  20.497  48.627  0.00  0.00     0.012 A 
ATOM      7  C4  0LU d   1       8.310  22.826  49.056  0.00  0.00    -0.075 A 
ATOM      8  S7  0LU d   1       9.728  19.210  47.899  0.00  0.00    -0.089 SA
ATOM      9  C8  0LU d   1       7.633  20.123  49.373  0.00  0.00    -0.066 A 
ATOM     10  C10 0LU d   1      11.350  19.928  47.821  0.00  0.00     0.012 A 
ATOM     11  C5  0LU d   1      11.544  21.323  47.685  0.00  0.00    -0.032 A 
ATOM     12  C14 0LU d   1      12.448  19.065  47.886  0.00  0.00    -0.066 A 
ATOM     13  C11 0LU d   1      12.845  21.844  47.600  0.00  0.00    -0.075 A 
ATOM     14  C15 0LU d   1      13.943  20.983  47.684  0.00  0.00    -0.082 A 
ATOM     15  H7  0LU d   1      12.997  22.909  47.470  0.00  0.00     0.084 H 
ATOM     16  C18 0LU d   1      13.752  19.596  47.823  0.00  0.00    -0.082 A 
ATOM     17  H11 0LU d   1      14.948  21.387  47.642  0.00  0.00     0.083 H 
ATOM     18  H15 0LU d   1      14.609  18.935  47.882  0.00  0.00     0.083 H 
ATOM     19  H10 0LU d   1      12.298  17.996  47.984  0.00  0.00     0.085 H 
ATOM     20  C13 0LU d   1       6.814  21.109  49.944  0.00  0.00    -0.082 A 
ATOM     21  H5  0LU d   1       7.391  19.075  49.504  0.00  0.00     0.085 H 
ATOM     22  C9  0LU d   1       7.168  22.460  49.791  0.00  0.00    -0.082 A 
ATOM     23  H9  0LU d   1       5.922  20.833  50.495  0.00  0.00     0.083 H 
ATOM     24  H6  0LU d   1       6.554  23.229  50.245  0.00  0.00     0.083 H 
ATOM     25  H2  0LU d   1       8.564  23.875  48.955  0.00  0.00     0.084 H 
ATOM     26  H1  0LU d   1      10.681  23.276  47.945  0.00  0.00     0.055 H 
ENDBRANCH   1   4
BRANCH   1  27
ATOM     27  C12 0LU d   1      10.711  23.442  45.322  0.00  0.00     0.060 C 
ATOM     28  H8  0LU d   1      11.366  24.006  46.002  0.00  0.00     0.085 H 
BRANCH  27  29
ATOM     29  C16 0LU d   1      11.581  22.728  44.249  0.00  0.00     0.107 C 
ATOM     30  H12 0LU d   1      11.071  21.801  43.949  0.00  0.00     0.080 H 
ATOM     31  H13 0LU d   1      12.555  22.483  44.698  0.00  0.00     0.080 H 
BRANCH  29  32
ATOM     32  N19 0LU d   1      11.817  23.548  43.035  0.00  0.00    -0.069 N 
ATOM     33  C20 0LU d   1      13.179  24.056  42.778  0.00  0.00     0.084 C 
ATOM     34  C22 0LU d   1      13.127  24.567  41.321  0.00  0.00    -0.041 C 
ATOM     35  H17 0LU d   1      13.921  23.251  42.882  0.00  0.00     0.076 H 
ATOM     36  H18 0LU d   1      13.427  24.875  43.469  0.00  0.00     0.076 H 
ATOM     37  C23 0LU d   1      11.657  24.339  40.891  0.00  0.00    -0.041 C 
ATOM     38  H21 0LU d   1      13.814  23.993  40.681  0.00  0.00     0.035 H 
ATOM     39  H22 0LU d   1      13.386  25.635  41.273  0.00  0.00     0.035 H 
ATOM     40  C21 0LU d   1      11.281  23.110  41.739  0.00  0.00     0.084 C 
ATOM     41  H23 0LU d   1      11.027  25.206  41.137  0.00  0.00     0.035 H 
ATOM     42  H24 0LU d   1      11.581  24.124  39.815  0.00  0.00     0.035 H 
ATOM     43  H19 0LU d   1      10.193  22.952  41.775  0.00  0.00     0.076 H 
ATOM     44  H20 0LU d   1      11.773  22.195  41.378  0.00  0.00     0.076 H 
ATOM     45  H16 0LU d   1      11.284  24.377  43.246  0.00  0.00     0.280 HD
ENDBRANCH  29  32
ENDBRANCH  27  29
BRANCH  27  46
ATOM     46  O17 0LU d   1       9.765  24.333  44.712  0.00  0.00    -0.394 OA
ATOM     47  H14 0LU d   1       9.193  23.840  44.136  0.00  0.00     0.210 HD
ENDBRANCH  27  46
ENDBRANCH   1  27
TORSDOF 5
