REMARK  4 active torsions:
REMARK  status: ('A' for Active; 'I' for Inactive)
REMARK    1  A    between atoms: N9_9  and  C15_15 
REMARK    2  A    between atoms: C15_15  and  C19_19 
REMARK    3  A    between atoms: C19_19  and  C21_21 
REMARK    4  A    between atoms: C19_19  and  O22_22 
ROOT
ATOM      1  C1  0M2 d   1      11.723  20.464  54.339  0.00  0.00    -0.011 C 
ATOM      2  C2  0M2 d   1      12.926  20.583  53.726  0.00  0.00    -0.011 C 
ATOM      3  C3  0M2 d   1      10.993  19.215  54.828  0.00  0.00    -0.001 A 
ATOM      4  C4  0M2 d   1      11.069  21.816  54.429  0.00  0.00     0.109 C 
ATOM      5  C5  0M2 d   1      13.976  19.486  53.572  0.00  0.00    -0.001 A 
ATOM      6  C6  0M2 d   1      13.216  22.040  53.412  0.00  0.00     0.109 C 
ATOM      7  C7  0M2 d   1      11.355  17.890  54.434  0.00  0.00     0.043 A 
ATOM      8  C8  0M2 d   1       9.843  19.378  55.634  0.00  0.00    -0.070 A 
ATOM      9  N9  0M2 d   1      12.167  22.782  54.169  0.00  0.00    -0.061 N 
ATOM     10  C10 0M2 d   1      13.666  18.095  53.639  0.00  0.00     0.043 A 
ATOM     11  C11 0M2 d   1      15.345  19.867  53.631  0.00  0.00    -0.070 A 
ATOM     12  N12 0M2 d   1      12.403  17.590  53.608  0.00  0.00    -0.355 N 
ATOM     13  C13 0M2 d   1      10.577  16.775  54.838  0.00  0.00    -0.056 A 
ATOM     14  C14 0M2 d   1       9.093  18.263  56.040  0.00  0.00    -0.082 A 
ATOM     15  C16 0M2 d   1      14.700  17.143  53.616  0.00  0.00    -0.056 A 
ATOM     16  C17 0M2 d   1      16.373  18.909  53.634  0.00  0.00    -0.082 A 
ATOM     17  C18 0M2 d   1       9.486  16.962  55.688  0.00  0.00    -0.081 A 
ATOM     18  C20 0M2 d   1      16.045  17.543  53.614  0.00  0.00    -0.081 A 
ATOM     19  H1  0M2 d   1      10.641  21.975  55.430  0.00  0.00     0.083 H 
ATOM     20  H2  0M2 d   1      10.277  21.915  53.672  0.00  0.00     0.083 H 
ATOM     21  H3  0M2 d   1      13.130  22.233  52.332  0.00  0.00     0.083 H 
ATOM     22  H4  0M2 d   1      14.222  22.323  53.757  0.00  0.00     0.083 H 
ATOM     23  H5  0M2 d   1       9.538  20.372  55.941  0.00  0.00     0.084 H 
ATOM     24  H6  0M2 d   1      12.578  22.958  55.073  0.00  0.00     0.280 HD
ATOM     25  H7  0M2 d   1      15.601  20.919  53.675  0.00  0.00     0.084 H 
ATOM     26  H8  0M2 d   1      12.213  16.896  52.871  0.00  0.00     0.166 HD
ATOM     27  H9  0M2 d   1      10.829  15.781  54.488  0.00  0.00     0.086 H 
ATOM     28  H10 0M2 d   1       8.198  18.409  56.634  0.00  0.00     0.083 H 
ATOM     29  H13 0M2 d   1      14.455  16.087  53.600  0.00  0.00     0.086 H 
ATOM     30  H14 0M2 d   1      17.411  19.221  53.652  0.00  0.00     0.083 H 
ATOM     31  H15 0M2 d   1       8.944  16.106  56.075  0.00  0.00     0.083 H 
ATOM     32  H17 0M2 d   1      16.832  16.797  53.597  0.00  0.00     0.083 H 
ENDROOT
BRANCH   9  33
ATOM     33  C15 0M2 d   1      11.792  24.151  53.707  0.00  0.00     0.107 C 
ATOM     34  H11 0M2 d   1      11.008  24.041  52.943  0.00  0.00     0.080 H 
ATOM     35  H12 0M2 d   1      12.685  24.605  53.253  0.00  0.00     0.080 H 
BRANCH  33  36
ATOM     36  C19 0M2 d   1      11.264  25.132  54.778  0.00  0.00     0.055 C 
ATOM     37  H16 0M2 d   1      10.268  24.814  55.120  0.00  0.00     0.084 H 
BRANCH  36  38
ATOM     38  C21 0M2 d   1      12.216  25.215  55.967  0.00  0.00    -0.051 C 
ATOM     39  H18 0M2 d   1      11.814  25.919  56.710  0.00  0.00     0.030 H 
ATOM     40  H19 0M2 d   1      13.201  25.566  55.625  0.00  0.00     0.030 H 
ATOM     41  H20 0M2 d   1      12.320  24.220  56.424  0.00  0.00     0.030 H 
ENDBRANCH  36  38
BRANCH  36  42
ATOM     42  O22 0M2 d   1      11.198  26.428  54.171  0.00  0.00    -0.394 OA
ATOM     43  H21 0M2 d   1      10.609  26.398  53.426  0.00  0.00     0.210 HD
ENDBRANCH  36  42
ENDBRANCH  33  36
ENDBRANCH   9  33
TORSDOF 4
