REMARK  9 active torsions:
REMARK  status: ('A' for Active; 'I' for Inactive)
REMARK    1  A    between atoms: C1_1  and  C2_2 
REMARK    2  A    between atoms: C5_5  and  S8_8 
REMARK    3  A    between atoms: S8_8  and  N11_11 
REMARK    4  A    between atoms: N11_11  and  C12_12 
REMARK    5  A    between atoms: C16_16  and  C18_18 
REMARK       I    between atoms: C18_18  and  N20_20 
REMARK    6  A    between atoms: N20_20  and  C21_21 
REMARK    7  A    between atoms: C21_21  and  C22_22 
REMARK    8  A    between atoms: C22_22  and  C23_23 
REMARK    9  A    between atoms: C22_22  and  C29_29 
ROOT
ATOM      1  C12 0M3 d   1      40.022 108.690   8.914  0.00  0.00     0.044 C 
ATOM      2  C13 0M3 d   1      40.881 109.981   8.926  0.00  0.00     0.101 C 
ATOM      3  N14 0M3 d   1      42.292 109.606   8.687  0.00  0.00    -0.072 N 
ATOM      4  C15 0M3 d   1      42.867 108.687   9.700  0.00  0.00     0.093 C 
ATOM      5  C16 0M3 d   1      42.072 107.341   9.722  0.00  0.00     0.048 C 
ATOM      6  C17 0M3 d   1      40.555 107.641   9.933  0.00  0.00    -0.031 C 
ATOM      7  H9  0M3 d   1      40.067 108.252   7.906  0.00  0.00     0.076 H 
ATOM      8  H10 0M3 d   1      40.789 110.479   9.902  0.00  0.00     0.078 H 
ATOM      9  H11 0M3 d   1      40.538 110.662   8.133  0.00  0.00     0.078 H 
ATOM     10  H12 0M3 d   1      42.844 110.449   8.678  0.00  0.00     0.277 HD
ATOM     11  H13 0M3 d   1      42.350 109.157   7.786  0.00  0.00     0.277 HD
ATOM     12  H14 0M3 d   1      42.810 109.159  10.692  0.00  0.00     0.076 H 
ATOM     13  H15 0M3 d   1      43.919 108.484   9.450  0.00  0.00     0.076 H 
ATOM     14  H16 0M3 d   1      42.179 106.856   8.741  0.00  0.00     0.057 H 
ATOM     15  H17 0M3 d   1      39.988 106.707   9.811  0.00  0.00     0.037 H 
ATOM     16  H18 0M3 d   1      40.408 108.029  10.952  0.00  0.00     0.037 H 
ENDROOT
BRANCH   5  17
ATOM     17  C18 0M3 d   1      42.683 106.414  10.758  0.00  0.00     0.223 C 
ATOM     18  O19 0M3 d   1      42.054 106.144  11.770  0.00  0.00    -0.273 OA
ATOM     19  N20 0M3 d   1      43.927 105.921  10.506  0.00  0.00    -0.360 N 
ATOM     20  H19 0M3 d   1      44.364 106.170   9.642  0.00  0.00     0.162 HD
BRANCH  19  21
ATOM     21  C21 0M3 d   1      44.666 105.045  11.426  0.00  0.00     0.006 C 
ATOM     22  H20 0M3 d   1      45.064 104.183  10.870  0.00  0.00     0.065 H 
ATOM     23  H21 0M3 d   1      43.989 104.691  12.217  0.00  0.00     0.065 H 
BRANCH  21  24
ATOM     24  C22 0M3 d   1      45.845 105.836  12.069  0.00  0.00     0.012 C 
ATOM     25  H22 0M3 d   1      46.511 106.015  11.212  0.00  0.00     0.057 H 
BRANCH  24  26
ATOM     26  C23 0M3 d   1      45.470 107.254  12.516  0.00  0.00    -0.048 A 
ATOM     27  C24 0M3 d   1      46.010 108.355  11.804  0.00  0.00    -0.076 A 
ATOM     28  C25 0M3 d   1      45.634 109.667  12.126  0.00  0.00    -0.082 A 
ATOM     29  H23 0M3 d   1      46.720 108.181  11.004  0.00  0.00     0.084 H 
ATOM     30  C26 0M3 d   1      44.677 109.864  13.139  0.00  0.00    -0.083 A 
ATOM     31  H24 0M3 d   1      46.071 110.512  11.606  0.00  0.00     0.083 H 
ATOM     32  C27 0M3 d   1      44.145 108.771  13.872  0.00  0.00    -0.082 A 
ATOM     33  H25 0M3 d   1      44.340 110.869  13.364  0.00  0.00     0.083 H 
ATOM     34  C28 0M3 d   1      44.519 107.463  13.539  0.00  0.00    -0.076 A 
ATOM     35  H26 0M3 d   1      43.452 108.948  14.686  0.00  0.00     0.083 H 
ATOM     36  H27 0M3 d   1      44.083 106.619  14.061  0.00  0.00     0.084 H 
ENDBRANCH  24  26
BRANCH  24  37
ATOM     37  C29 0M3 d   1      46.753 105.063  13.039  0.00  0.00    -0.048 A 
ATOM     38  C30 0M3 d   1      47.868 104.343  12.554  0.00  0.00    -0.076 A 
ATOM     39  C31 0M3 d   1      48.696 103.621  13.437  0.00  0.00    -0.082 A 
ATOM     40  H28 0M3 d   1      48.089 104.346  11.493  0.00  0.00     0.084 H 
ATOM     41  C32 0M3 d   1      48.416 103.613  14.818  0.00  0.00    -0.083 A 
ATOM     42  H29 0M3 d   1      49.548 103.072  13.054  0.00  0.00     0.083 H 
ATOM     43  C33 0M3 d   1      47.322 104.342  15.317  0.00  0.00    -0.082 A 
ATOM     44  H30 0M3 d   1      49.044 103.045  15.495  0.00  0.00     0.083 H 
ATOM     45  C34 0M3 d   1      46.485 105.049  14.425  0.00  0.00    -0.076 A 
ATOM     46  H31 0M3 d   1      47.122 104.362  16.382  0.00  0.00     0.083 H 
ATOM     47  H32 0M3 d   1      45.626 105.587  14.810  0.00  0.00     0.084 H 
ENDBRANCH  24  37
ENDBRANCH  21  24
ENDBRANCH  19  21
ENDBRANCH   5  17
BRANCH   1  48
ATOM     48  N11 0M3 d   1      38.635 109.012   9.226  0.00  0.00    -0.309 N 
ATOM     49  H8  0M3 d   1      38.455 109.658   9.968  0.00  0.00     0.172 HD
BRANCH  48  50
ATOM     50  S8  0M3 d   1      37.354 108.372   8.427  0.00  0.00     0.259 S 
ATOM     51  O9  0M3 d   1      37.788 107.481   7.345  0.00  0.00    -0.201 OA
ATOM     52  O10 0M3 d   1      36.424 109.452   8.117  0.00  0.00    -0.201 OA
BRANCH  50  53
ATOM     53  C5  0M3 d   1      36.628 107.386   9.707  0.00  0.00     0.079 A 
ATOM     54  C4  0M3 d   1      36.128 107.919  10.921  0.00  0.00    -0.060 A 
ATOM     55  C3  0M3 d   1      35.512 107.054  11.857  0.00  0.00    -0.076 A 
ATOM     56  H5  0M3 d   1      36.216 108.979  11.131  0.00  0.00     0.085 H 
ATOM     57  C2  0M3 d   1      35.384 105.683  11.557  0.00  0.00    -0.062 A 
ATOM     58  H4  0M3 d   1      35.141 107.444  12.798  0.00  0.00     0.084 H 
ATOM     59  C7  0M3 d   1      35.790 105.220  10.292  0.00  0.00    -0.076 A 
ATOM     60  C6  0M3 d   1      36.423 106.056   9.370  0.00  0.00    -0.060 A 
ATOM     61  H7  0M3 d   1      35.606 104.185  10.026  0.00  0.00     0.084 H 
ATOM     62  H6  0M3 d   1      36.748 105.673   8.409  0.00  0.00     0.085 H 
BRANCH  57  63
ATOM     63  C1  0M3 d   1      34.730 104.737  12.564  0.00  0.00    -0.051 C 
ATOM     64  H1  0M3 d   1      34.489 105.290  13.484  0.00  0.00     0.033 H 
ATOM     65  H2  0M3 d   1      35.424 103.917  12.800  0.00  0.00     0.033 H 
ATOM     66  H3  0M3 d   1      33.806 104.324  12.133  0.00  0.00     0.033 H 
ENDBRANCH  57  63
ENDBRANCH  50  53
ENDBRANCH  48  50
ENDBRANCH   1  48
TORSDOF 9
