REMARK  3 active torsions:
REMARK  status: ('A' for Active; 'I' for Inactive)
REMARK    1  A    between atoms: C4_4  and  C15_15 
REMARK    2  A    between atoms: C15_15  and  N16_16 
REMARK       I    between atoms: N16_16  and  C17_17 
REMARK    3  A    between atoms: C17_17  and  C19_19 
ROOT
ATOM      1  C15 0ME d   1       9.361  23.195  45.362  0.00  0.00     0.006 C 
ATOM      2  H10 0ME d   1       9.540  22.200  44.929  0.00  0.00     0.065 H 
ATOM      3  H11 0ME d   1       9.854  23.958  44.742  0.00  0.00     0.065 H 
ENDROOT
BRANCH   1   4
ATOM      4  C4  0ME d   1       9.996  23.234  46.791  0.00  0.00     0.018 C 
ATOM      5  C1  0ME d   1       9.140  22.374  47.735  0.00  0.00    -0.014 A 
ATOM      6  C2  0ME d   1       9.420  20.980  47.878  0.00  0.00     0.083 A 
ATOM      7  C8  0ME d   1       8.077  22.965  48.440  0.00  0.00    -0.073 A 
ATOM      8  O3  0ME d   1      10.509  20.373  47.235  0.00  0.00    -0.310 OA
ATOM      9  C7  0ME d   1       8.629  20.185  48.711  0.00  0.00    -0.050 A 
ATOM     10  C10 0ME d   1      11.591  21.220  46.956  0.00  0.00     0.083 A 
ATOM     11  C9  0ME d   1      11.405  22.621  46.727  0.00  0.00    -0.014 A 
ATOM     12  C11 0ME d   1      12.876  20.657  46.912  0.00  0.00    -0.050 A 
ATOM     13  C14 0ME d   1      12.516  23.447  46.463  0.00  0.00    -0.073 A 
ATOM     14  C13 0ME d   1      13.798  22.875  46.413  0.00  0.00    -0.082 A 
ATOM     15  H9  0ME d   1      12.383  24.511  46.301  0.00  0.00     0.084 H 
ATOM     16  C12 0ME d   1      13.976  21.494  46.650  0.00  0.00    -0.080 A 
ATOM     17  H8  0ME d   1      14.657  23.498  46.191  0.00  0.00     0.083 H 
ATOM     18  H7  0ME d   1      14.975  21.073  46.630  0.00  0.00     0.083 H 
ATOM     19  H6  0ME d   1      13.018  19.595  47.077  0.00  0.00     0.087 H 
ATOM     20  C6  0ME d   1       7.535  20.770  49.376  0.00  0.00    -0.080 A 
ATOM     21  H4  0ME d   1       8.854  19.133  48.843  0.00  0.00     0.087 H 
ATOM     22  C5  0ME d   1       7.286  22.147  49.266  0.00  0.00    -0.082 A 
ATOM     23  H3  0ME d   1       6.879  20.152  49.978  0.00  0.00     0.083 H 
ATOM     24  H2  0ME d   1       6.470  22.587  49.827  0.00  0.00     0.083 H 
ATOM     25  H5  0ME d   1       7.872  24.026  48.349  0.00  0.00     0.084 H 
ATOM     26  H1  0ME d   1      10.046  24.270  47.157  0.00  0.00     0.057 H 
ENDBRANCH   1   4
BRANCH   1  27
ATOM     27  N16 0ME d   1       7.905  23.454  45.353  0.00  0.00    -0.360 N 
ATOM     28  C17 0ME d   1       6.912  22.535  45.112  0.00  0.00     0.223 C 
ATOM     29  O18 0ME d   1       7.136  21.357  44.845  0.00  0.00    -0.273 OA
ATOM     30  H12 0ME d   1       7.614  24.392  45.541  0.00  0.00     0.162 HD
BRANCH  28  31
ATOM     31  C19 0ME d   1       5.469  23.012  45.166  0.00  0.00     0.046 C 
ATOM     32  C20 0ME d   1       4.450  21.905  44.763  0.00  0.00    -0.051 C 
ATOM     33  C21 0ME d   1       2.952  22.319  44.921  0.00  0.00    -0.042 C 
ATOM     34  H14 0ME d   1       4.632  21.023  45.395  0.00  0.00     0.034 H 
ATOM     35  H15 0ME d   1       4.625  21.643  43.709  0.00  0.00     0.034 H 
ATOM     36  C22 0ME d   1       2.654  22.867  46.345  0.00  0.00     0.082 C 
ATOM     37  H16 0ME d   1       2.318  21.439  44.738  0.00  0.00     0.035 H 
ATOM     38  H17 0ME d   1       2.718  23.100  44.182  0.00  0.00     0.035 H 
ATOM     39  N23 0ME d   1       3.641  23.910  46.682  0.00  0.00    -0.074 N 
ATOM     40  H18 0ME d   1       2.721  22.047  47.076  0.00  0.00     0.075 H 
ATOM     41  H19 0ME d   1       1.642  23.297  46.369  0.00  0.00     0.075 H 
ATOM     42  C24 0ME d   1       5.068  23.507  46.582  0.00  0.00     0.093 C 
ATOM     43  H20 0ME d   1       3.469  24.204  47.631  0.00  0.00     0.277 HD
ATOM     44  H21 0ME d   1       3.495  24.688  46.057  0.00  0.00     0.277 HD
ATOM     45  H22 0ME d   1       5.694  24.374  46.839  0.00  0.00     0.076 H 
ATOM     46  H23 0ME d   1       5.253  22.695  47.301  0.00  0.00     0.076 H 
ATOM     47  H13 0ME d   1       5.371  23.850  44.460  0.00  0.00     0.057 H 
ENDBRANCH  28  31
ENDBRANCH   1  27
TORSDOF 3
