REMARK  7 active torsions:
REMARK  status: ('A' for Active; 'I' for Inactive)
REMARK    1  A    between atoms: C7_7  and  C1_1 
REMARK    2  A    between atoms: N16_16  and  C7_7 
REMARK       I    between atoms: C17_17  and  N16_16 
REMARK    3  A    between atoms: C18_18  and  C17_17 
REMARK    4  A    between atoms: N25_25  and  C22_22 
REMARK    5  A    between atoms: S26_26  and  N25_25 
REMARK    6  A    between atoms: C29_29  and  S26_26 
REMARK    7  A    between atoms: C31_31  and  C35_35 
ROOT
ATOM      1  C18 0MJ d   1      69.699   6.948  45.218  0.00  0.00     0.048 C 
ATOM      2  C19 0MJ d   1      69.353   5.479  45.626  0.00  0.00    -0.031 C 
ATOM      3  C20 0MJ d   1      67.144   5.638  44.316  0.00  0.00     0.101 C 
ATOM      4  N21 0MJ d   1      67.505   7.025  43.939  0.00  0.00    -0.072 N 
ATOM      5  C22 0MJ d   1      68.452   4.829  44.539  0.00  0.00     0.044 C 
ATOM      6  C23 0MJ d   1      68.380   7.743  44.910  0.00  0.00     0.093 C 
ATOM      7  H13 0MJ d   1      70.259   6.888  44.273  0.00  0.00     0.057 H 
ATOM      8  H14 0MJ d   1      68.819   5.483  46.588  0.00  0.00     0.037 H 
ATOM      9  H15 0MJ d   1      70.282   4.899  45.725  0.00  0.00     0.037 H 
ATOM     10  H16 0MJ d   1      66.555   5.176  43.510  0.00  0.00     0.078 H 
ATOM     11  H17 0MJ d   1      66.552   5.648  45.243  0.00  0.00     0.078 H 
ATOM     12  H18 0MJ d   1      66.652   7.553  43.840  0.00  0.00     0.277 HD
ATOM     13  H19 0MJ d   1      67.985   6.992  43.053  0.00  0.00     0.277 HD
ATOM     14  H20 0MJ d   1      69.013   4.842  43.593  0.00  0.00     0.076 H 
ATOM     15  H21 0MJ d   1      68.647   8.723  44.489  0.00  0.00     0.076 H 
ATOM     16  H22 0MJ d   1      67.825   7.886  45.849  0.00  0.00     0.076 H 
ENDROOT
BRANCH   1  17
ATOM     17  C17 0MJ d   1      70.618   7.663  46.205  0.00  0.00     0.223 C 
ATOM     18  N16 0MJ d   1      71.007   8.947  45.919  0.00  0.00    -0.360 N 
ATOM     19  H12 0MJ d   1      70.698   9.333  45.050  0.00  0.00     0.162 HD
ATOM     20  O24 0MJ d   1      70.969   7.063  47.217  0.00  0.00    -0.273 OA
BRANCH  18  21
ATOM     21  C7  0MJ d   1      71.844   9.814  46.782  0.00  0.00     0.006 C 
ATOM     22  H2  0MJ d   1      72.308   9.187  47.558  0.00  0.00     0.065 H 
ATOM     23  H3  0MJ d   1      72.629  10.269  46.160  0.00  0.00     0.065 H 
BRANCH  21  24
ATOM     24  C1  0MJ d   1      71.044  10.962  47.487  0.00  0.00     0.018 C 
ATOM     25  C3  0MJ d   1      69.793  10.349  48.147  0.00  0.00    -0.014 A 
ATOM     26  C5  0MJ d   1      69.887   9.856  49.472  0.00  0.00     0.083 A 
ATOM     27  C9  0MJ d   1      68.581  10.264  47.428  0.00  0.00    -0.073 A 
ATOM     28  O2  0MJ d   1      71.074   9.986  50.205  0.00  0.00    -0.310 OA
ATOM     29  C10 0MJ d   1      68.772   9.287  50.094  0.00  0.00    -0.050 A 
ATOM     30  C6  0MJ d   1      71.909  11.078  49.894  0.00  0.00     0.083 A 
ATOM     31  C4  0MJ d   1      71.926  11.610  48.576  0.00  0.00    -0.014 A 
ATOM     32  C11 0MJ d   1      72.702  11.665  50.917  0.00  0.00    -0.050 A 
ATOM     33  C8  0MJ d   1      72.759  12.719  48.310  0.00  0.00    -0.073 A 
ATOM     34  C13 0MJ d   1      73.554  13.289  49.346  0.00  0.00    -0.082 A 
ATOM     35  H4  0MJ d   1      72.794  13.139  47.311  0.00  0.00     0.084 H 
ATOM     36  C15 0MJ d   1      73.539  12.762  50.654  0.00  0.00    -0.080 A 
ATOM     37  H9  0MJ d   1      74.182  14.144  49.124  0.00  0.00     0.083 H 
ATOM     38  H11 0MJ d   1      74.156  13.191  51.435  0.00  0.00     0.083 H 
ATOM     39  H7  0MJ d   1      72.660  11.258  51.921  0.00  0.00     0.087 H 
ATOM     40  C14 0MJ d   1      67.579   9.194  49.357  0.00  0.00    -0.080 A 
ATOM     41  H6  0MJ d   1      68.826   8.928  51.115  0.00  0.00     0.087 H 
ATOM     42  C12 0MJ d   1      67.473   9.657  48.022  0.00  0.00    -0.082 A 
ATOM     43  H10 0MJ d   1      66.708   8.752  49.827  0.00  0.00     0.083 H 
ATOM     44  H8  0MJ d   1      66.547   9.542  47.471  0.00  0.00     0.083 H 
ATOM     45  H5  0MJ d   1      68.511  10.666  46.424  0.00  0.00     0.084 H 
ATOM     46  H1  0MJ d   1      70.746  11.721  46.748  0.00  0.00     0.057 H 
ENDBRANCH  21  24
ENDBRANCH  18  21
ENDBRANCH   1  17
BRANCH   5  47
ATOM     47  N25 0MJ d   1      68.168   3.440  44.863  0.00  0.00    -0.309 N 
ATOM     48  H23 0MJ d   1      67.584   3.252  45.652  0.00  0.00     0.172 HD
BRANCH  47  49
ATOM     49  S26 0MJ d   1      68.747   2.163  44.014  0.00  0.00     0.259 S 
ATOM     50  O27 0MJ d   1      67.621   1.308  43.636  0.00  0.00    -0.201 OA
ATOM     51  O28 0MJ d   1      69.614   2.626  42.941  0.00  0.00    -0.201 OA
BRANCH  49  52
ATOM     52  C29 0MJ d   1      69.736   1.390  45.278  0.00  0.00     0.079 A 
ATOM     53  C30 0MJ d   1      69.140   0.943  46.476  0.00  0.00    -0.060 A 
ATOM     54  C33 0MJ d   1      69.921   0.311  47.467  0.00  0.00    -0.076 A 
ATOM     55  H24 0MJ d   1      68.077   1.086  46.636  0.00  0.00     0.085 H 
ATOM     56  C31 0MJ d   1      71.304   0.121  47.261  0.00  0.00    -0.062 A 
ATOM     57  H26 0MJ d   1      69.458  -0.029  48.387  0.00  0.00     0.084 H 
ATOM     58  C32 0MJ d   1      71.894   0.555  46.057  0.00  0.00    -0.076 A 
ATOM     59  C34 0MJ d   1      71.119   1.191  45.073  0.00  0.00    -0.060 A 
ATOM     60  H25 0MJ d   1      72.953   0.397  45.889  0.00  0.00     0.084 H 
ATOM     61  H27 0MJ d   1      71.584   1.530  44.154  0.00  0.00     0.085 H 
BRANCH  56  62
ATOM     62  C35 0MJ d   1      72.155  -0.564  48.342  0.00  0.00    -0.051 C 
ATOM     63  H28 0MJ d   1      73.200  -0.622  48.004  0.00  0.00     0.033 H 
ATOM     64  H29 0MJ d   1      71.771  -1.579  48.522  0.00  0.00     0.033 H 
ATOM     65  H30 0MJ d   1      72.103   0.018  49.274  0.00  0.00     0.033 H 
ENDBRANCH  56  62
ENDBRANCH  49  52
ENDBRANCH  47  49
ENDBRANCH   5  47
TORSDOF 7
