REMARK  13 active torsions:
REMARK  status: ('A' for Active; 'I' for Inactive)
REMARK    1  A    between atoms: C2_2  and  N7_7 
REMARK    2  A    between atoms: C8_8  and  C4_4 
REMARK    3  A    between atoms: N7_7  and  S9_9 
REMARK       I    between atoms: N20_20  and  C8_8 
REMARK    4  A    between atoms: S9_9  and  C10_10 
REMARK    5  A    between atoms: C15_15  and  C18_18 
REMARK    6  A    between atoms: C21_21  and  N20_20 
REMARK    7  A    between atoms: C22_22  and  C21_21 
REMARK    8  A    between atoms: C22_22  and  C36_36 
REMARK    9  A    between atoms: C36_36  and  C37_37 
REMARK   10  A    between atoms: C37_37  and  C38_38 
REMARK   11  A    between atoms: C38_38  and  C39_39 
REMARK   12  A    between atoms: C39_39  and  O40_40 
REMARK   13  A    between atoms: O40_40  and  C41_41 
ROOT
ATOM      1  C21 0N0 d   1      44.968 105.380  11.589  0.00  0.00     0.010 C 
ATOM      2  H20 0N0 d   1      45.321 104.455  11.110  0.00  0.00     0.066 H 
ATOM      3  H21 0N0 d   1      44.312 105.128  12.435  0.00  0.00     0.066 H 
ENDROOT
BRANCH   1   4
ATOM      4  N20 0N0 d   1      44.171 106.131  10.600  0.00  0.00    -0.359 N 
ATOM      5  C8  0N0 d   1      43.004 106.793  10.869  0.00  0.00     0.223 C 
ATOM      6  O19 0N0 d   1      42.500 106.790  11.977  0.00  0.00    -0.273 OA
ATOM      7  H19 0N0 d   1      44.510 106.158   9.660  0.00  0.00     0.162 HD
BRANCH   5   8
ATOM      8  C4  0N0 d   1      42.324 107.582   9.756  0.00  0.00     0.048 C 
ATOM      9  C3  0N0 d   1      40.794 107.839   9.982  0.00  0.00    -0.031 C 
ATOM     10  C2  0N0 d   1      40.183 108.893   9.012  0.00  0.00     0.044 C 
ATOM     11  H4  0N0 d   1      40.259 106.888   9.843  0.00  0.00     0.037 H 
ATOM     12  H5  0N0 d   1      40.651 108.193  11.014  0.00  0.00     0.037 H 
ATOM     13  C1  0N0 d   1      40.991 110.209   9.028  0.00  0.00     0.101 C 
ATOM     14  H3  0N0 d   1      40.240 108.483   7.993  0.00  0.00     0.076 H 
ATOM     15  N6  0N0 d   1      42.385 109.882   8.690  0.00  0.00    -0.072 N 
ATOM     16  H1  0N0 d   1      40.945 110.665  10.028  0.00  0.00     0.078 H 
ATOM     17  H2  0N0 d   1      40.580 110.910   8.286  0.00  0.00     0.078 H 
ATOM     18  C5  0N0 d   1      43.057 108.944   9.625  0.00  0.00     0.093 C 
ATOM     19  H9  0N0 d   1      42.913 110.741   8.677  0.00  0.00     0.277 HD
ATOM     20  H10 0N0 d   1      42.395 109.467   7.771  0.00  0.00     0.277 HD
ATOM     21  H7  0N0 d   1      44.078 108.758   9.260  0.00  0.00     0.076 H 
ATOM     22  H8  0N0 d   1      43.103 109.414  10.619  0.00  0.00     0.076 H 
ATOM     23  H6  0N0 d   1      42.437 107.018   8.818  0.00  0.00     0.057 H 
BRANCH  10  24
ATOM     24  N7  0N0 d   1      38.777 109.117   9.320  0.00  0.00    -0.309 N 
ATOM     25  H11 0N0 d   1      38.538 109.731  10.072  0.00  0.00     0.172 HD
BRANCH  24  26
ATOM     26  S9  0N0 d   1      37.574 108.394   8.472  0.00  0.00     0.259 S 
ATOM     27  O11 0N0 d   1      36.644 109.457   8.132  0.00  0.00    -0.201 OA
ATOM     28  O12 0N0 d   1      38.104 107.549   7.405  0.00  0.00    -0.201 OA
BRANCH  26  29
ATOM     29  C10 0N0 d   1      36.892 107.330   9.718  0.00  0.00     0.079 A 
ATOM     30  C13 0N0 d   1      36.423 107.905  10.923  0.00  0.00    -0.060 A 
ATOM     31  C14 0N0 d   1      35.861 107.085  11.925  0.00  0.00    -0.076 A 
ATOM     32  H12 0N0 d   1      36.495 108.976  11.077  0.00  0.00     0.085 H 
ATOM     33  C15 0N0 d   1      35.767 105.695  11.731  0.00  0.00    -0.062 A 
ATOM     34  H13 0N0 d   1      35.501 107.528  12.847  0.00  0.00     0.084 H 
ATOM     35  C16 0N0 d   1      36.219 105.120  10.517  0.00  0.00    -0.076 A 
ATOM     36  C17 0N0 d   1      36.799 105.930   9.518  0.00  0.00    -0.060 A 
ATOM     37  H14 0N0 d   1      36.119 104.053  10.355  0.00  0.00     0.084 H 
ATOM     38  H15 0N0 d   1      37.171 105.484   8.603  0.00  0.00     0.085 H 
BRANCH  33  39
ATOM     39  C18 0N0 d   1      35.153 104.821  12.837  0.00  0.00    -0.051 C 
ATOM     40  H16 0N0 d   1      34.869 105.455  13.690  0.00  0.00     0.033 H 
ATOM     41  H17 0N0 d   1      35.890 104.074  13.165  0.00  0.00     0.033 H 
ATOM     42  H18 0N0 d   1      34.261 104.309  12.447  0.00  0.00     0.033 H 
ENDBRANCH  33  39
ENDBRANCH  26  29
ENDBRANCH  24  26
ENDBRANCH  10  24
ENDBRANCH   5   8
ENDBRANCH   1   4
BRANCH   1  43
ATOM     43  C22 0N0 d   1      46.224 106.146  12.157  0.00  0.00     0.035 C 
ATOM     44  C24 0N0 d   1      45.730 107.538  12.679  0.00  0.00    -0.009 A 
ATOM     45  C25 0N0 d   1      45.189 107.605  13.983  0.00  0.00     0.083 A 
ATOM     46  C29 0N0 d   1      45.676 108.731  11.895  0.00  0.00    -0.073 A 
ATOM     47  O23 0N0 d   1      45.221 106.482  14.810  0.00  0.00    -0.310 OA
ATOM     48  C26 0N0 d   1      44.652 108.803  14.489  0.00  0.00    -0.050 A 
ATOM     49  C30 0N0 d   1      46.204 105.508  14.637  0.00  0.00     0.083 A 
ATOM     50  C31 0N0 d   1      46.741 105.275  13.353  0.00  0.00    -0.009 A 
ATOM     51  C35 0N0 d   1      46.661 104.793  15.767  0.00  0.00    -0.050 A 
ATOM     52  C32 0N0 d   1      47.737 104.253  13.256  0.00  0.00    -0.073 A 
ATOM     53  C33 0N0 d   1      48.168 103.502  14.385  0.00  0.00    -0.082 A 
ATOM     54  H26 0N0 d   1      48.179 104.043  12.289  0.00  0.00     0.084 H 
ATOM     55  C34 0N0 d   1      47.640 103.782  15.657  0.00  0.00    -0.080 A 
ATOM     56  H27 0N0 d   1      48.903 102.715  14.264  0.00  0.00     0.083 H 
ATOM     57  H28 0N0 d   1      47.976 103.236  16.531  0.00  0.00     0.083 H 
ATOM     58  H29 0N0 d   1      46.250 105.027  16.742  0.00  0.00     0.087 H 
ATOM     59  C27 0N0 d   1      44.602 109.952  13.676  0.00  0.00    -0.080 A 
ATOM     60  H22 0N0 d   1      44.276 108.842  15.505  0.00  0.00     0.087 H 
ATOM     61  C28 0N0 d   1      45.121 109.928  12.373  0.00  0.00    -0.082 A 
ATOM     62  H23 0N0 d   1      44.158 110.863  14.061  0.00  0.00     0.083 H 
ATOM     63  H24 0N0 d   1      45.094 110.814  11.749  0.00  0.00     0.083 H 
ATOM     64  H25 0N0 d   1      46.080 108.711  10.889  0.00  0.00     0.084 H 
BRANCH  43  65
ATOM     65  C36 0N0 d   1      47.303 106.269  11.021  0.00  0.00    -0.048 C 
ATOM     66  H30 0N0 d   1      46.797 106.707  10.148  0.00  0.00     0.035 H 
ATOM     67  H31 0N0 d   1      47.630 105.247  10.781  0.00  0.00     0.035 H 
BRANCH  65  68
ATOM     68  C37 0N0 d   1      48.592 107.110  11.264  0.00  0.00    -0.062 C 
ATOM     69  H32 0N0 d   1      49.042 106.805  12.220  0.00  0.00     0.033 H 
ATOM     70  H33 0N0 d   1      48.320 108.175  11.310  0.00  0.00     0.033 H 
BRANCH  68  71
ATOM     71  C38 0N0 d   1      49.633 106.905  10.129  0.00  0.00    -0.045 C 
ATOM     72  H34 0N0 d   1      49.639 105.843   9.843  0.00  0.00     0.036 H 
ATOM     73  H35 0N0 d   1      50.627 107.189  10.505  0.00  0.00     0.036 H 
BRANCH  71  74
ATOM     74  C39 0N0 d   1      49.314 107.757   8.873  0.00  0.00     0.019 C 
ATOM     75  H36 0N0 d   1      49.073 108.786   9.178  0.00  0.00     0.074 H 
ATOM     76  H37 0N0 d   1      48.455 107.322   8.342  0.00  0.00     0.074 H 
BRANCH  74  77
ATOM     77  O40 0N0 d   1      50.464 107.769   8.001  0.00  0.00    -0.396 OA
BRANCH  77  78
ATOM     78  C41 0N0 d   1      50.148 107.415   6.649  0.00  0.00     0.004 C 
ATOM     79  H38 0N0 d   1      51.063 107.443   6.039  0.00  0.00     0.066 H 
ATOM     80  H39 0N0 d   1      49.416 108.129   6.245  0.00  0.00     0.066 H 
ATOM     81  H40 0N0 d   1      49.723 106.401   6.625  0.00  0.00     0.066 H 
ENDBRANCH  77  78
ENDBRANCH  74  77
ENDBRANCH  71  74
ENDBRANCH  68  71
ENDBRANCH  65  68
ENDBRANCH  43  65
ENDBRANCH   1  43
TORSDOF 13
