REMARK  7 active torsions:
REMARK  status: ('A' for Active; 'I' for Inactive)
REMARK    1  A    between atoms: N5_6  and  C18_7 
REMARK    2  A    between atoms: N3_14  and  C32_24 
REMARK    3  A    between atoms: C5_15  and  C10_16 
REMARK    4  A    between atoms: C11_17  and  C40_18 
REMARK    5  A    between atoms: C14_22  and  O41_23 
REMARK    6  A    between atoms: C37_29  and  O38_30 
REMARK    7  A    between atoms: O38_30  and  C39_31 
ROOT
ATOM      1  O2  L66 d   1      -0.095 -17.184 -12.576  0.00  0.00    -0.151 OA
ATOM      2  C17 L66 d   1       0.193 -15.856 -12.676  0.00  0.00     0.261 A 
ATOM      3  N4  L66 d   1       0.304 -15.081 -11.565  0.00  0.00    -0.296 N 
ATOM      4  C16 L66 d   1       0.583 -13.758 -11.644  0.00  0.00     0.213 A 
ATOM      5  O3  L66 d   1       0.691 -12.994 -10.524  0.00  0.00    -0.169 OA
ATOM      6  N5  L66 d   1       0.362 -15.352 -13.907  0.00  0.00    -0.299 N 
ATOM      7  C2  L66 d   1       0.639 -14.059 -14.028  0.00  0.00     0.158 A 
ATOM      8  C3  L66 d   1       0.764 -13.223 -12.916  0.00  0.00     0.155 A 
ATOM      9  N1  L66 d   1       0.842 -13.374 -15.197  0.00  0.00    -0.173 N 
ATOM     10  C1  L66 d   1       1.074 -12.086 -14.728  0.00  0.00     0.698 A 
ATOM     11  N2  L66 d   1       1.063 -11.959 -13.381  0.00  0.00    -0.147 N 
ATOM     12  C4  L66 d   1       1.313 -10.594 -12.925  0.00  0.00     0.031 A 
ATOM     13  N3  L66 d   1       1.397 -10.895 -15.330  0.00  0.00    -0.142 N 
ATOM     14  C5  L66 d   1       1.499 -10.018 -14.336  0.00  0.00     0.085 A 
ATOM     15  H1  L66 d   1       0.176 -15.499 -10.665  0.00  0.00     0.171 HD
ATOM     16  H5  L66 d   1       0.827 -13.721 -16.167  0.00  0.00     0.186 HD
ATOM     17  H6  L66 d   1       1.353 -10.144 -11.934  0.00  0.00     0.116 H 
ENDROOT
BRANCH  13  18
ATOM     18  C32 L66 d   1       1.444 -10.686 -16.645  0.00  0.00     0.090 A 
ATOM     19  C33 L66 d   1       2.598 -10.482 -17.396  0.00  0.00    -0.053 A 
ATOM     20  C34 L66 d   1       2.557 -10.283 -18.775  0.00  0.00    -0.081 A 
ATOM     21  H14 L66 d   1       3.558 -10.478 -16.893  0.00  0.00     0.087 H 
ATOM     22  C35 L66 d   1       1.357 -10.266 -19.480  0.00  0.00    -0.080 A 
ATOM     23  H15 L66 d   1       3.486 -10.137 -19.314  0.00  0.00     0.083 H 
ATOM     24  C36 L66 d   1       0.165 -10.461 -18.806  0.00  0.00    -0.049 A 
ATOM     25  H16 L66 d   1       1.357 -10.101 -20.551  0.00  0.00     0.083 H 
ATOM     26  C37 L66 d   1       0.177 -10.660 -17.430  0.00  0.00     0.096 A 
ATOM     27  H17 L66 d   1      -0.774 -10.459 -19.348  0.00  0.00     0.087 H 
BRANCH  26  28
ATOM     28  O38 L66 d   1      -1.012 -10.864 -16.771  0.00  0.00    -0.354 OA
BRANCH  28  29
ATOM     29  C39 L66 d   1      -2.187 -10.136 -17.126  0.00  0.00     0.010 C 
ATOM     30  H18 L66 d   1      -3.021 -10.448 -16.480  0.00  0.00     0.066 H 
ATOM     31  H19 L66 d   1      -2.441 -10.339 -18.177  0.00  0.00     0.066 H 
ATOM     32  H20 L66 d   1      -2.005  -9.059 -16.994  0.00  0.00     0.066 H 
ENDBRANCH  28  29
ENDBRANCH  26  28
ENDBRANCH  13  18
BRANCH  14  33
ATOM     33  C10 L66 d   1       1.832  -8.574 -14.485  0.00  0.00     0.002 A 
ATOM     34  C11 L66 d   1       3.012  -8.028 -13.956  0.00  0.00    -0.049 A 
ATOM     35  C12 L66 d   1       3.287  -6.679 -14.160  0.00  0.00    -0.074 A 
ATOM     36  C13 L66 d   1       2.393  -5.892 -14.881  0.00  0.00    -0.051 A 
ATOM     37  H10 L66 d   1       4.194  -6.242 -13.759  0.00  0.00     0.084 H 
ATOM     38  C14 L66 d   1       1.237  -6.436 -15.418  0.00  0.00     0.066 A 
ATOM     39  H11 L66 d   1       2.604  -4.838 -15.024  0.00  0.00     0.087 H 
ATOM     40  C15 L66 d   1       0.951  -7.781 -15.221  0.00  0.00    -0.038 A 
ATOM     41  H12 L66 d   1       0.048  -8.212 -15.637  0.00  0.00     0.089 H 
BRANCH  34  42
ATOM     42  C40 L66 d   1       4.003  -8.855 -13.164  0.00  0.00    -0.050 C 
ATOM     43  H7  L66 d   1       4.845  -8.219 -12.853  0.00  0.00     0.033 H 
ATOM     44  H8  L66 d   1       4.377  -9.678 -13.790  0.00  0.00     0.033 H 
ATOM     45  H9  L66 d   1       3.507  -9.268 -12.273  0.00  0.00     0.033 H 
ENDBRANCH  34  42
BRANCH  38  46
ATOM     46  O41 L66 d   1       0.377  -5.647 -16.118  0.00  0.00    -0.361 OA
ATOM     47  H13 L66 d   1       0.722  -4.763 -16.158  0.00  0.00     0.217 HD
ENDBRANCH  38  46
ENDBRANCH  14  33
BRANCH   6  48
ATOM     48  C18 L66 d   1       0.236 -16.189 -15.107  0.00  0.00    -0.009 C 
ATOM     49  H2  L66 d   1       0.006 -17.223 -14.810  0.00  0.00     0.057 H 
ATOM     50  H3  L66 d   1       1.182 -16.170 -15.668  0.00  0.00     0.057 H 
ATOM     51  H4  L66 d   1      -0.575 -15.801 -15.741  0.00  0.00     0.057 H 
ENDBRANCH   6  48
TORSDOF 7
