REMARK  7 active torsions:
REMARK  status: ('A' for Active; 'I' for Inactive)
REMARK    1  A    between atoms: N5_4  and  C18_5 
REMARK    2  A    between atoms: N3_13  and  C6_14 
REMARK    3  A    between atoms: C6_14  and  C7_15 
REMARK    4  A    between atoms: C7_15  and  C8_16 
REMARK    5  A    between atoms: C8_16  and  C9_17 
REMARK    6  A    between atoms: C5_18  and  C10_20 
REMARK    7  A    between atoms: C11_21  and  C26_22 
ROOT
ATOM      1  O2  L87 d   1      18.742 -16.527  24.508  0.00  0.00    -0.246 OA
ATOM      2  C17 L87 d   1      19.074 -15.315  24.450  0.00  0.00     0.330 A 
ATOM      3  N4  L87 d   1      19.254 -14.603  25.600  0.00  0.00    -0.273 N 
ATOM      4  N5  L87 d   1      19.249 -14.743  23.249  0.00  0.00    -0.287 N 
ATOM      5  C2  L87 d   1      19.603 -13.458  23.188  0.00  0.00     0.160 A 
ATOM      6  C3  L87 d   1      19.796 -12.689  24.339  0.00  0.00     0.169 A 
ATOM      7  C16 L87 d   1      19.611 -13.291  25.586  0.00  0.00     0.281 A 
ATOM      8  O3  L87 d   1      19.755 -12.689  26.663  0.00  0.00    -0.265 OA
ATOM      9  N1  L87 d   1      19.827 -12.715  22.043  0.00  0.00    -0.173 N 
ATOM     10  C1  L87 d   1      20.166 -11.475  22.591  0.00  0.00     0.693 A 
ATOM     11  N2  L87 d   1      20.163 -11.426  23.925  0.00  0.00    -0.146 N 
ATOM     12  N3  L87 d   1      20.489 -10.236  22.096  0.00  0.00    -0.180 N 
ATOM     13  C5  L87 d   1      20.713  -9.430  23.173  0.00  0.00     0.079 A 
ATOM     14  C4  L87 d   1      20.488 -10.151  24.391  0.00  0.00     0.030 A 
ATOM     15  H1  L87 d   1      19.119 -15.060  26.479  0.00  0.00     0.173 HD
ATOM     16  H5  L87 d   1      19.762 -12.999  21.055  0.00  0.00     0.186 HD
ATOM     17  H15 L87 d   1      20.554  -9.795  25.418  0.00  0.00     0.116 H 
ENDROOT
BRANCH  13  18
ATOM     18  C10 L87 d   1      21.118  -8.007  22.946  0.00  0.00    -0.001 A 
ATOM     19  C11 L87 d   1      22.361  -7.532  23.367  0.00  0.00    -0.050 A 
ATOM     20  C12 L87 d   1      22.728  -6.211  23.108  0.00  0.00    -0.076 A 
ATOM     21  C13 L87 d   1      21.857  -5.369  22.421  0.00  0.00    -0.082 A 
ATOM     22  H19 L87 d   1      23.691  -5.840  23.441  0.00  0.00     0.084 H 
ATOM     23  C14 L87 d   1      20.623  -5.851  21.986  0.00  0.00    -0.082 A 
ATOM     24  H20 L87 d   1      22.138  -4.341  22.225  0.00  0.00     0.083 H 
ATOM     25  C15 L87 d   1      20.256  -7.167  22.245  0.00  0.00    -0.070 A 
ATOM     26  H21 L87 d   1      19.948  -5.198  21.445  0.00  0.00     0.083 H 
ATOM     27  H22 L87 d   1      19.298  -7.540  21.901  0.00  0.00     0.084 H 
BRANCH  19  28
ATOM     28  C26 L87 d   1      23.328  -8.415  24.124  0.00  0.00    -0.050 C 
ATOM     29  H16 L87 d   1      24.240  -7.845  24.357  0.00  0.00     0.033 H 
ATOM     30  H17 L87 d   1      23.589  -9.287  23.506  0.00  0.00     0.033 H 
ATOM     31  H18 L87 d   1      22.859  -8.755  25.059  0.00  0.00     0.033 H 
ENDBRANCH  19  28
ENDBRANCH  13  18
BRANCH  12  32
ATOM     32  C6  L87 d   1      20.573 -10.079  20.641  0.00  0.00     0.017 C 
ATOM     33  H6  L87 d   1      21.243 -10.849  20.232  0.00  0.00     0.065 H 
ATOM     34  H7  L87 d   1      20.975  -9.082  20.407  0.00  0.00     0.065 H 
BRANCH  32  35
ATOM     35  C7  L87 d   1      19.190 -10.226  20.004  0.00  0.00    -0.050 C 
ATOM     36  H8  L87 d   1      18.841 -11.259  20.153  0.00  0.00     0.035 H 
ATOM     37  H9  L87 d   1      19.274 -10.019  18.927  0.00  0.00     0.035 H 
BRANCH  35  38
ATOM     38  C8  L87 d   1      18.161  -9.271  20.606  0.00  0.00    -0.067 C 
ATOM     39  H10 L87 d   1      18.461  -8.234  20.395  0.00  0.00     0.032 H 
ATOM     40  H11 L87 d   1      18.116  -9.425  21.694  0.00  0.00     0.032 H 
BRANCH  38  41
ATOM     41  C9  L87 d   1      16.792  -9.526  20.009  0.00  0.00    -0.076 C 
ATOM     42  H12 L87 d   1      16.064  -8.831  20.452  0.00  0.00     0.027 H 
ATOM     43  H13 L87 d   1      16.487 -10.561  20.221  0.00  0.00     0.027 H 
ATOM     44  H14 L87 d   1      16.832  -9.370  18.921  0.00  0.00     0.027 H 
ENDBRANCH  38  41
ENDBRANCH  35  38
ENDBRANCH  32  35
ENDBRANCH  12  32
BRANCH   4  45
ATOM     45  C18 L87 d   1      19.058 -15.504  22.005  0.00  0.00    -0.008 C 
ATOM     46  H2  L87 d   1      18.770 -16.538  22.248  0.00  0.00     0.057 H 
ATOM     47  H3  L87 d   1      19.996 -15.510  21.431  0.00  0.00     0.057 H 
ATOM     48  H4  L87 d   1      18.264 -15.034  21.406  0.00  0.00     0.057 H 
ENDBRANCH   4  45
TORSDOF 7
