REMARK  7 active torsions:
REMARK  status: ('A' for Active; 'I' for Inactive)
REMARK    1  A    between atoms: C5_7  and  C10_20 
REMARK    2  A    between atoms: N3_8  and  C6_9 
REMARK    3  A    between atoms: C6_9  and  C7_10 
REMARK    4  A    between atoms: C7_10  and  C8_11 
REMARK    5  A    between atoms: C8_11  and  C9_12 
REMARK    6  A    between atoms: N5_16  and  C18_17 
REMARK    7  A    between atoms: C11_28  and  C26_29 
ROOT
ATOM      1  O3  L90 d   1      -8.598   5.335  47.588  0.00  0.00    -0.265 OA
ATOM      2  C16 L90 d   1      -8.423   4.595  48.576  0.00  0.00     0.281 A 
ATOM      3  N4  L90 d   1      -8.036   3.307  48.424  0.00  0.00    -0.273 N 
ATOM      4  C3  L90 d   1      -8.621   5.046  49.871  0.00  0.00     0.169 A 
ATOM      5  N2  L90 d   1      -9.016   6.260  50.372  0.00  0.00    -0.146 N 
ATOM      6  C4  L90 d   1      -9.380   7.539  49.974  0.00  0.00     0.030 A 
ATOM      7  C5  L90 d   1      -9.635   8.187  51.223  0.00  0.00     0.080 A 
ATOM      8  N3  L90 d   1      -9.402   7.317  52.255  0.00  0.00    -0.180 N 
ATOM      9  C1  L90 d   1      -9.037   6.117  51.690  0.00  0.00     0.693 A 
ATOM     10  N1  L90 d   1      -8.666   4.843  52.140  0.00  0.00    -0.173 N 
ATOM     11  C2  L90 d   1      -8.414   4.189  50.947  0.00  0.00     0.160 A 
ATOM     12  N5  L90 d   1      -8.022   2.926  50.756  0.00  0.00    -0.287 N 
ATOM     13  C17 L90 d   1      -7.831   2.491  49.497  0.00  0.00     0.330 A 
ATOM     14  O2  L90 d   1      -7.464   1.307  49.306  0.00  0.00    -0.246 OA
ATOM     15  H1  L90 d   1      -7.897   2.945  47.502  0.00  0.00     0.173 HD
ATOM     16  H2  L90 d   1      -9.453   7.946  48.966  0.00  0.00     0.116 H 
ATOM     17  H12 L90 d   1      -8.599   4.487  53.104  0.00  0.00     0.186 HD
ENDROOT
BRANCH   7  18
ATOM     18  C10 L90 d   1     -10.086   9.599  51.443  0.00  0.00     0.013 A 
ATOM     19  C15 L90 d   1      -9.239  10.491  52.103  0.00  0.00     0.024 A 
ATOM     20  C29 L90 d   1      -7.916  10.303  52.599  0.00  0.00     0.009 A 
ATOM     21  C14 L90 d   1      -9.660  11.789  52.331  0.00  0.00     0.089 A 
ATOM     22  N28 L90 d   1      -7.577  11.503  53.127  0.00  0.00    -0.288 N 
ATOM     23  H16 L90 d   1      -7.313   9.397  52.562  0.00  0.00     0.115 H 
ATOM     24  N27 L90 d   1      -8.643  12.403  52.959  0.00  0.00    -0.175 NA
ATOM     25  H17 L90 d   1      -6.678  11.722  53.581  0.00  0.00     0.188 HD
ATOM     26  C13 L90 d   1     -10.917  12.219  51.934  0.00  0.00    -0.052 A 
ATOM     27  C12 L90 d   1     -11.764  11.329  51.295  0.00  0.00    -0.074 A 
ATOM     28  H18 L90 d   1     -11.233  13.239  52.121  0.00  0.00     0.087 H 
ATOM     29  C11 L90 d   1     -11.356  10.022  51.053  0.00  0.00    -0.048 A 
ATOM     30  H19 L90 d   1     -12.750  11.653  50.982  0.00  0.00     0.084 H 
BRANCH  29  31
ATOM     31  C26 L90 d   1     -12.321   9.103  50.346  0.00  0.00    -0.050 C 
ATOM     32  H20 L90 d   1     -11.862   8.111  50.227  0.00  0.00     0.033 H 
ATOM     33  H21 L90 d   1     -12.563   9.517  49.356  0.00  0.00     0.033 H 
ATOM     34  H22 L90 d   1     -13.242   9.011  50.940  0.00  0.00     0.033 H 
ENDBRANCH  29  31
ENDBRANCH   7  18
BRANCH   8  35
ATOM     35  C6  L90 d   1      -9.514   7.346  53.716  0.00  0.00     0.017 C 
ATOM     36  H3  L90 d   1      -9.621   6.312  54.077  0.00  0.00     0.065 H 
ATOM     37  H4  L90 d   1     -10.412   7.923  53.984  0.00  0.00     0.065 H 
BRANCH  35  38
ATOM     38  C7  L90 d   1      -8.314   7.975  54.408  0.00  0.00    -0.050 C 
ATOM     39  H5  L90 d   1      -8.374   7.749  55.483  0.00  0.00     0.035 H 
ATOM     40  H6  L90 d   1      -8.358   9.064  54.259  0.00  0.00     0.035 H 
BRANCH  38  41
ATOM     41  C8  L90 d   1      -6.977   7.472  53.885  0.00  0.00    -0.067 C 
ATOM     42  H7  L90 d   1      -7.010   7.413  52.787  0.00  0.00     0.032 H 
ATOM     43  H8  L90 d   1      -6.772   6.474  54.299  0.00  0.00     0.032 H 
BRANCH  41  44
ATOM     44  C9  L90 d   1      -5.883   8.430  54.308  0.00  0.00    -0.076 C 
ATOM     45  H9  L90 d   1      -4.914   8.070  53.932  0.00  0.00     0.027 H 
ATOM     46  H10 L90 d   1      -5.851   8.488  55.406  0.00  0.00     0.027 H 
ATOM     47  H11 L90 d   1      -6.089   9.428  53.894  0.00  0.00     0.027 H 
ENDBRANCH  41  44
ENDBRANCH  38  41
ENDBRANCH  35  38
ENDBRANCH   8  35
BRANCH  12  48
ATOM     48  C18 L90 d   1      -7.802   2.032  51.899  0.00  0.00    -0.008 C 
ATOM     49  H13 L90 d   1      -8.011   2.574  52.834  0.00  0.00     0.057 H 
ATOM     50  H14 L90 d   1      -6.757   1.688  51.900  0.00  0.00     0.057 H 
ATOM     51  H15 L90 d   1      -8.473   1.164  51.820  0.00  0.00     0.057 H 
ENDBRANCH  12  48
TORSDOF 7
