REMARK  18 active torsions:
REMARK  status: ('A' for Active; 'I' for Inactive)
REMARK    1  A    between atoms: C_1  and  C1_3 
REMARK       I    between atoms: C_1  and  N_14 
REMARK    2  A    between atoms: C2_4  and  C3_5 
REMARK    3  A    between atoms: C4_6  and  C5_7 
REMARK    4  A    between atoms: C5_7  and  C6_8 
REMARK    5  A    between atoms: C6_8  and  C7_9 
REMARK    6  A    between atoms: C7_9  and  C8_10 
REMARK    7  A    between atoms: C8_10  and  C9_11 
REMARK    8  A    between atoms: C9_11  and  C10_12 
REMARK    9  A    between atoms: C10_12  and  C11_13 
REMARK   10  A    between atoms: N_14  and  CA_15 
REMARK   11  A    between atoms: CA_15  and  C_16 
REMARK   12  A    between atoms: CA_15  and  CB_18 
REMARK       I    between atoms: C_16  and  N_21 
REMARK   13  A    between atoms: CB_18  and  OG1_19 
REMARK   14  A    between atoms: CB_18  and  CG2_20 
REMARK   15  A    between atoms: N_21  and  CA_22 
REMARK   16  A    between atoms: C18_31  and  C19_32 
REMARK   17  A    between atoms: C19_32  and  C21_33 
REMARK   18  A    between atoms: C19_32  and  C20_34 
ROOT
ATOM      1  CA  THR d   1      61.371-135.417  35.574  0.00  0.00     0.114 C 
ATOM      2  H   THR d   1      61.424-136.411  35.130  0.00  0.00     0.091 H 
ENDROOT
BRANCH   1   3
ATOM      3  N   THR d   1      60.201-134.739  34.894  0.00  0.00    -0.342 N 
ATOM      4  C   MH9 d   1      58.977-135.412  35.017  0.00  0.00     0.241 C 
ATOM      5  O   MH9 d   1      58.897-136.471  35.637  0.00  0.00    -0.269 OA
ATOM      6  H   THR d   1      60.296-133.860  34.385  0.00  0.00     0.163 HD
BRANCH   4   7
ATOM      7  C1  MH9 d   1      57.673-134.989  34.427  0.00  0.00    -0.018 C 
ATOM      8  C2  MH9 d   1      57.081-133.797  34.418  0.00  0.00    -0.078 C 
ATOM      9  H   MH9 d   1      57.546-132.911  34.849  0.00  0.00     0.083 H 
ATOM     10  H   MH9 d   1      57.118-135.781  33.924  0.00  0.00     0.091 H 
BRANCH   8  11
ATOM     11  C3  MH9 d   1      55.736-133.761  33.776  0.00  0.00    -0.086 C 
ATOM     12  C4  MH9 d   1      54.609-133.640  34.487  0.00  0.00    -0.103 C 
ATOM     13  H   MH9 d   1      54.686-133.526  35.568  0.00  0.00     0.076 H 
ATOM     14  H   MH9 d   1      55.668-133.836  32.691  0.00  0.00     0.083 H 
BRANCH  12  15
ATOM     15  C5  MH9 d   1      53.220-133.654  33.852  0.00  0.00    -0.050 C 
ATOM     16  H   MH9 d   1      52.666-134.417  34.398  0.00  0.00     0.038 H 
ATOM     17  H   MH9 d   1      53.397-133.799  32.786  0.00  0.00     0.038 H 
BRANCH  15  18
ATOM     18  C6  MH9 d   1      52.346-132.375  33.946  0.00  0.00    -0.062 C 
ATOM     19  H   MH9 d   1      52.833-131.535  33.451  0.00  0.00     0.033 H 
ATOM     20  H   MH9 d   1      52.196-132.083  34.985  0.00  0.00     0.033 H 
BRANCH  18  21
ATOM     21  C7  MH9 d   1      50.961-132.716  33.249  0.00  0.00    -0.065 C 
ATOM     22  H   MH9 d   1      50.540-133.547  33.815  0.00  0.00     0.033 H 
ATOM     23  H   MH9 d   1      51.193-132.899  32.200  0.00  0.00     0.033 H 
BRANCH  21  24
ATOM     24  C8  MH9 d   1      49.874-131.604  33.255  0.00  0.00    -0.065 C 
ATOM     25  H   MH9 d   1      50.229-130.739  32.694  0.00  0.00     0.033 H 
ATOM     26  H   MH9 d   1      49.665-131.300  34.281  0.00  0.00     0.033 H 
BRANCH  24  27
ATOM     27  C9  MH9 d   1      48.557-132.169  32.587  0.00  0.00    -0.065 C 
ATOM     28  H   MH9 d   1      48.232-133.041  33.154  0.00  0.00     0.033 H 
ATOM     29  H   MH9 d   1      48.779-132.421  31.550  0.00  0.00     0.033 H 
BRANCH  27  30
ATOM     30  C10 MH9 d   1      47.393-131.107  32.600  0.00  0.00    -0.069 C 
ATOM     31  H   MH9 d   1      47.712-130.249  32.009  0.00  0.00     0.032 H 
ATOM     32  H   MH9 d   1      47.189-130.842  33.637  0.00  0.00     0.032 H 
BRANCH  30  33
ATOM     33  C11 MH9 d   1      46.072-131.666  31.972  0.00  0.00    -0.077 C 
ATOM     34  H   MH9 d   1      46.257-131.953  30.937  0.00  0.00     0.027 H 
ATOM     35  H   MH9 d   1      45.742-132.537  32.539  0.00  0.00     0.027 H 
ATOM     36  H   MH9 d   1      45.301-130.896  32.005  0.00  0.00     0.027 H 
ENDBRANCH  30  33
ENDBRANCH  27  30
ENDBRANCH  24  27
ENDBRANCH  21  24
ENDBRANCH  18  21
ENDBRANCH  15  18
ENDBRANCH  12  15
ENDBRANCH   8  11
ENDBRANCH   4   7
ENDBRANCH   1   3
BRANCH   1  37
ATOM     37  C   THR d   1      61.140-135.457  37.105  0.00  0.00     0.243 C 
ATOM     38  O   THR d   1      60.139-134.896  37.561  0.00  0.00    -0.271 OA
ATOM     39  N   LYH d   1      62.033-136.104  37.931  0.00  0.00    -0.343 N 
ATOM     40  H   LYH d   1      62.849-136.580  37.547  0.00  0.00     0.163 HD
BRANCH  39  41
ATOM     41  CA  LYH d   1      61.781-136.092  39.377  0.00  0.00     0.106 C 
ATOM     42  C   LYH d   1      63.018-136.270  40.229  0.00  0.00     0.244 C 
ATOM     43  O   LYH d   1      64.110-136.486  39.688  0.00  0.00    -0.271 OA
ATOM     44  N22 0JT d   1      62.802-136.180  41.569  0.00  0.00    -0.354 N 
ATOM     45  C18 0JT d   1      63.875-136.308  42.557  0.00  0.00     0.015 C 
ATOM     46  H   0JT d   1      61.851-136.016  41.900  0.00  0.00     0.162 HD
ATOM     47  C17 0JT d   1      63.418-137.309  43.660  0.00  0.00    -0.038 C 
ATOM     48  H   0JT d   1      64.784-136.718  42.118  0.00  0.00     0.073 H 
ATOM     49  C16 0JT d   1      62.574-138.403  42.971  0.00  0.00     0.011 C 
ATOM     50  H   0JT d   1      62.830-136.796  44.421  0.00  0.00     0.036 H 
ATOM     51  H   0JT d   1      64.282-137.750  44.157  0.00  0.00     0.036 H 
ATOM     52  C14 0JT d   1      61.145-138.561  43.471  0.00  0.00     0.217 C 
ATOM     53  H   0JT d   1      63.075-139.349  43.175  0.00  0.00     0.047 H 
ATOM     54  H   0JT d   1      62.500-138.116  41.922  0.00  0.00     0.047 H 
ATOM     55  NZ  LYH d   1      60.224-139.408  42.906  0.00  0.00    -0.361 N 
ATOM     56  O15 0JT d   1      60.831-137.914  44.449  0.00  0.00    -0.274 OA
ATOM     57  CE  LYH d   1      60.450-140.261  41.708  0.00  0.00    -0.002 C 
ATOM     58  H   LYH d   1      59.305-139.457  43.346  0.00  0.00     0.162 HD
ATOM     59  CD  LYH d   1      59.917-139.447  40.449  0.00  0.00    -0.035 C 
ATOM     60  H   LYH d   1      61.509-140.495  41.596  0.00  0.00     0.064 H 
ATOM     61  H   LYH d   1      59.922-141.210  41.805  0.00  0.00     0.064 H 
ATOM     62  CG  LYH d   1      60.967-138.449  40.007  0.00  0.00    -0.103 C 
ATOM     63  H   LYH d   1      59.709-140.138  39.633  0.00  0.00     0.041 H 
ATOM     64  H   LYH d   1      59.005-138.916  40.721  0.00  0.00     0.041 H 
ATOM     65  CB  LYH d   1      60.719-137.150  39.772  0.00  0.00    -0.076 C 
ATOM     66  H   LYH d   1      61.987-138.807  39.871  0.00  0.00     0.076 H 
ATOM     67  H   LYH d   1      59.687-136.812  39.867  0.00  0.00     0.080 H 
ATOM     68  H   LYH d   1      61.404-135.090  39.584  0.00  0.00     0.094 H 
BRANCH  45  69
ATOM     69  C19 0JT d   1      64.264-134.888  43.094  0.00  0.00    -0.042 C 
ATOM     70  H   0JT d   1      64.709-135.061  44.074  0.00  0.00     0.042 H 
BRANCH  69  71
ATOM     71  C21 0JT d   1      63.053-133.914  43.306  0.00  0.00    -0.071 C 
ATOM     72  H   0JT d   1      62.539-133.763  42.357  0.00  0.00     0.028 H 
ATOM     73  H   0JT d   1      62.362-134.347  44.029  0.00  0.00     0.028 H 
ATOM     74  H   0JT d   1      63.419-132.957  43.679  0.00  0.00     0.028 H 
ENDBRANCH  69  71
BRANCH  69  75
ATOM     75  C20 0JT d   1      65.257-134.210  42.100  0.00  0.00    -0.071 C 
ATOM     76  H   0JT d   1      66.154-134.823  42.009  0.00  0.00     0.028 H 
ATOM     77  H   0JT d   1      64.782-134.112  41.124  0.00  0.00     0.028 H 
ATOM     78  H   0JT d   1      65.527-133.223  42.475  0.00  0.00     0.028 H 
ENDBRANCH  69  75
ENDBRANCH  45  69
ENDBRANCH  39  41
ENDBRANCH   1  37
BRANCH   1  79
ATOM     79  CB  THR d   1      62.775-134.676  35.343  0.00  0.00     0.060 C 
ATOM     80  H   THR d   1      63.492-135.497  35.310  0.00  0.00     0.086 H 
BRANCH  79  81
ATOM     81  OG1 THR d   1      63.123-133.782  36.397  0.00  0.00    -0.393 OA
ATOM     82  H   THR d   1      63.969-133.372  36.201  0.00  0.00     0.210 HD
ENDBRANCH  79  81
BRANCH  79  83
ATOM     83  CG2 THR d   1      62.831-133.885  34.030  0.00  0.00    -0.050 C 
ATOM     84  H   THR d   1      62.674-134.564  33.192  0.00  0.00     0.031 H 
ATOM     85  H   THR d   1      62.052-133.123  34.033  0.00  0.00     0.031 H 
ATOM     86  H   THR d   1      63.807-133.409  33.936  0.00  0.00     0.031 H 
ENDBRANCH  79  83
ENDBRANCH   1  79
TORSDOF 18
