REMARK  10 active torsions:
REMARK  status: ('A' for Active; 'I' for Inactive)
REMARK    1  A    between atoms: C1_1  and  C16_16 
REMARK    2  A    between atoms: C1_1  and  C17_17 
REMARK    3  A    between atoms: C5_5  and  C18_18 
REMARK    4  A    between atoms: C6_6  and  C7_7 
REMARK    5  A    between atoms: C8_8  and  C9_9 
REMARK    6  A    between atoms: C9_9  and  C19_19 
REMARK    7  A    between atoms: C10_10  and  C11_11 
REMARK    8  A    between atoms: C12_12  and  C13_13 
REMARK    9  A    between atoms: C13_13  and  C20_20 
REMARK   10  A    between atoms: C14_14  and  C15_15 
ROOT
ATOM      1  C7  RET d   1       7.279   3.468  10.353  0.00  0.00    -0.075 C 
ATOM      2  C8  RET d   1       6.530   2.441  10.806  0.00  0.00    -0.077 C 
ATOM      3  H   RET d   1       7.532   4.261  11.057  0.00  0.00     0.084 H 
ATOM      4  H   RET d   1       6.261   1.642  10.115  0.00  0.00     0.084 H 
ENDROOT
BRANCH   1   5
ATOM      5  C6  RET d   1       7.788   3.593   8.946  0.00  0.00    -0.048 C 
ATOM      6  C1  RET d   1       7.980   2.379   8.021  0.00  0.00    -0.020 C 
ATOM      7  C2  RET d   1       8.913   2.770   6.841  0.00  0.00    -0.054 C 
ATOM      8  C3  RET d   1       8.453   4.059   6.198  0.00  0.00    -0.061 C 
ATOM      9  H   RET d   1       8.888   1.976   6.095  0.00  0.00     0.034 H 
ATOM     10  H   RET d   1       9.924   2.909   7.223  0.00  0.00     0.034 H 
ATOM     11  C4  RET d   1       8.679   5.152   7.189  0.00  0.00    -0.044 C 
ATOM     12  H   RET d   1       7.399   3.998   5.928  0.00  0.00     0.033 H 
ATOM     13  H   RET d   1       9.011   4.251   5.281  0.00  0.00     0.033 H 
ATOM     14  C5  RET d   1       8.103   4.831   8.553  0.00  0.00    -0.077 C 
ATOM     15  H   RET d   1       8.182   6.049   6.818  0.00  0.00     0.039 H 
ATOM     16  H   RET d   1       9.755   5.285   7.302  0.00  0.00     0.039 H 
BRANCH   6  17
ATOM     17  C16 RET d   1       8.675   1.214   8.671  0.00  0.00    -0.065 C 
ATOM     18  H   RET d   1       8.059   0.833   9.485  0.00  0.00     0.028 H 
ATOM     19  H   RET d   1       8.830   0.427   7.933  0.00  0.00     0.028 H 
ATOM     20  H   RET d   1       9.638   1.540   9.064  0.00  0.00     0.028 H 
ENDBRANCH   6  17
BRANCH   6  21
ATOM     21  C17 RET d   1       6.644   1.950   7.469  0.00  0.00    -0.065 C 
ATOM     22  H   RET d   1       6.794   1.165   6.727  0.00  0.00     0.028 H 
ATOM     23  H   RET d   1       6.022   1.571   8.280  0.00  0.00     0.028 H 
ATOM     24  H   RET d   1       6.154   2.804   7.002  0.00  0.00     0.028 H 
ENDBRANCH   6  21
BRANCH  14  25
ATOM     25  C18 RET d   1       7.969   6.080   9.414  0.00  0.00    -0.054 C 
ATOM     26  H   RET d   1       6.927   6.207   9.708  0.00  0.00     0.033 H 
ATOM     27  H   RET d   1       8.588   5.974  10.305  0.00  0.00     0.033 H 
ATOM     28  H   RET d   1       8.296   6.950   8.844  0.00  0.00     0.033 H 
ENDBRANCH  14  25
ENDBRANCH   1   5
BRANCH   2  29
ATOM     29  C9  RET d   1       6.058   2.359  12.216  0.00  0.00    -0.062 C 
ATOM     30  C10 RET d   1       5.288   1.327  12.564  0.00  0.00    -0.077 C 
ATOM     31  H   RET d   1       5.060   0.618  11.768  0.00  0.00     0.084 H 
BRANCH  30  32
ATOM     32  C11 RET d   1       4.707   1.020  13.878  0.00  0.00    -0.082 C 
ATOM     33  C12 RET d   1       3.757   0.115  14.071  0.00  0.00    -0.077 C 
ATOM     34  H   RET d   1       3.342  -0.406  13.208  0.00  0.00     0.084 H 
ATOM     35  H   RET d   1       5.078   1.568  14.744  0.00  0.00     0.083 H 
BRANCH  33  36
ATOM     36  C13 RET d   1       3.239  -0.213  15.426  0.00  0.00    -0.066 C 
ATOM     37  C14 RET d   1       2.278  -1.126  15.520  0.00  0.00    -0.101 C 
ATOM     38  H   RET d   1       1.893  -1.512  14.576  0.00  0.00     0.077 H 
BRANCH  37  39
ATOM     39  C15 RET d   1       1.678  -1.673  16.718  0.00  0.00    -0.059 C 
ATOM     40  H   RET d   1       2.447  -2.158  17.319  0.00  0.00     0.032 H 
ATOM     41  H   RET d   1       1.219  -0.869  17.293  0.00  0.00     0.032 H 
ATOM     42  H   RET d   1       0.917  -2.403  16.441  0.00  0.00     0.032 H 
ENDBRANCH  37  39
BRANCH  36  43
ATOM     43  C20 RET d   1       3.831   0.467  16.636  0.00  0.00    -0.051 C 
ATOM     44  H   RET d   1       3.046   1.000  17.172  0.00  0.00     0.033 H 
ATOM     45  H   RET d   1       4.276  -0.282  17.291  0.00  0.00     0.033 H 
ATOM     46  H   RET d   1       4.598   1.173  16.316  0.00  0.00     0.033 H 
ENDBRANCH  36  43
ENDBRANCH  33  36
ENDBRANCH  30  32
BRANCH  29  47
ATOM     47  C19 RET d   1       6.457   3.401  13.271  0.00  0.00    -0.051 C 
ATOM     48  H   RET d   1       5.559   3.864  13.680  0.00  0.00     0.033 H 
ATOM     49  H   RET d   1       7.012   2.912  14.071  0.00  0.00     0.033 H 
ATOM     50  H   RET d   1       7.082   4.164  12.808  0.00  0.00     0.033 H 
ENDBRANCH  29  47
ENDBRANCH   2  29
TORSDOF 10
