REMARK WARNING: 32 MAX_TORS EXCEEDED!!!
REMARK  46 active torsions:
REMARK  status: ('A' for Active; 'I' for Inactive)
REMARK    1  A    between atoms: N_1  and  CA_2 
REMARK    2  A    between atoms: CA_2  and  C_3 
REMARK    3  A    between atoms: CA_2  and  CB_5 
REMARK       I    between atoms: C_3  and  N_10 
REMARK    4  A    between atoms: CB_5  and  CG_6 
REMARK    5  A    between atoms: CG_6  and  CD_7 
REMARK    6  A    between atoms: CD_7  and  CE_8 
REMARK    7  A    between atoms: CE_8  and  NZ_9 
REMARK    8  A    between atoms: N_10  and  CA_11 
REMARK    9  A    between atoms: CA_11  and  C_12 
REMARK   10  A    between atoms: CA_11  and  CB_14 
REMARK       I    between atoms: C_12  and  N_17 
REMARK   11  A    between atoms: CB_14  and  CG1_15 
REMARK   12  A    between atoms: CB_14  and  CG2_16 
REMARK   13  A    between atoms: N_17  and  CA_18 
REMARK   14  A    between atoms: CA_18  and  C_19 
REMARK   15  A    between atoms: CA_18  and  CB_21 
REMARK       I    between atoms: C_19  and  N_22 
REMARK   16  A    between atoms: N_22  and  CA_23 
REMARK   17  A    between atoms: CA_23  and  C_24 
REMARK   18  A    between atoms: CA_23  and  CB_26 
REMARK       I    between atoms: C_24  and  N_29 
REMARK   19  A    between atoms: CB_26  and  CG1_27 
REMARK   20  A    between atoms: CB_26  and  CG2_28 
REMARK   21  A    between atoms: N_29  and  CA_30 
REMARK   22  A    between atoms: CA_30  and  C_31 
REMARK   23  A    between atoms: CA_30  and  CB_33 
REMARK       I    between atoms: C_31  and  N_36 
REMARK   24  A    between atoms: CB_33  and  CG1_34 
REMARK   25  A    between atoms: CB_33  and  CG2_35 
REMARK   26  A    between atoms: N_36  and  CA_37 
REMARK   27  A    between atoms: CA_37  and  C_38 
REMARK   28  A    between atoms: CA_37  and  CB_40 
REMARK       I    between atoms: C_38  and  N_47 
REMARK   29  A    between atoms: CB_40  and  CG_41 
REMARK   30  A    between atoms: CG_41  and  CD_42 
REMARK   31  A    between atoms: CD_42  and  NE_43 
REMARK       I    between atoms: NE_43  and  CZ_44 
REMARK       I    between atoms: CZ_44  and  NH1_45 
REMARK   32  A    between atoms: N_47  and  CA_48 
REMARK   33  A    between atoms: CA_48  and  CB_49 
REMARK   34  A    between atoms: CA_48  and  C_56 
REMARK   35  A    between atoms: CB_49  and  CG2_50 
REMARK   36  A    between atoms: CB_49  and  OG1_51 
REMARK   37  A    between atoms: OG1_51  and  P_52 
REMARK       I    between atoms: C_56  and  N_58 
REMARK   38  A    between atoms: CA_59  and  C_60 
REMARK       I    between atoms: C_60  and  N_65 
REMARK   39  A    between atoms: CA_66  and  C_67 
REMARK       I    between atoms: C_67  and  N_72 
REMARK   40  A    between atoms: N_72  and  CA_73 
REMARK   41  A    between atoms: CA_73  and  C_74 
REMARK   42  A    between atoms: CA_73  and  CB_76 
REMARK   43  A    between atoms: CB_76  and  CG_77 
REMARK   44  A    between atoms: CG_77  and  CD_78 
REMARK   45  A    between atoms: CD_78  and  CE_79 
REMARK   46  A    between atoms: CE_79  and  NZ_80 
ROOT
ATOM      1  CA  ARG d   1     -22.444  95.662 -37.141  0.00  0.00     0.089 C 
ATOM      2  H49 ARG d   1     -22.780  94.618 -37.220  0.00  0.00     0.087 H 
ENDROOT
BRANCH   1   3
ATOM      3  N   ARG d   1     -21.345  95.706 -36.179  0.00  0.00    -0.346 N 
ATOM      4  C   VAL d   1     -21.336  95.157 -34.960  0.00  0.00     0.241 C 
ATOM      5  O   VAL d   1     -22.322  94.603 -34.445  0.00  0.00    -0.271 OA
ATOM      6  H48 ARG d   1     -20.519  96.195 -36.460  0.00  0.00     0.163 HD
BRANCH   4   7
ATOM      7  CA  VAL d   1     -20.025  95.290 -34.197  0.00  0.00     0.092 C 
ATOM      8  H40 VAL d   1     -19.527  96.203 -34.555  0.00  0.00     0.088 H 
BRANCH   7   9
ATOM      9  N   VAL d   1     -20.285  95.451 -32.776  0.00  0.00    -0.346 N 
ATOM     10  C   VAL d   1     -19.463  96.087 -31.924  0.00  0.00     0.241 C 
ATOM     11  O   VAL d   1     -18.390  96.589 -32.270  0.00  0.00    -0.271 OA
ATOM     12  H39 VAL d   1     -21.130  95.063 -32.408  0.00  0.00     0.163 HD
BRANCH  10  13
ATOM     13  CA  VAL d   1     -19.867  96.094 -30.455  0.00  0.00     0.092 C 
ATOM     14  H31 VAL d   1     -19.798  97.137 -30.113  0.00  0.00     0.088 H 
BRANCH  13  15
ATOM     15  N   VAL d   1     -21.269  95.683 -30.255  0.00  0.00    -0.346 N 
ATOM     16  C   ALA d   1     -22.312  96.422 -30.648  0.00  0.00     0.240 C 
ATOM     17  O   ALA d   1     -22.178  97.515 -31.195  0.00  0.00    -0.271 OA
ATOM     18  H30 VAL d   1     -21.449  94.809 -29.803  0.00  0.00     0.163 HD
BRANCH  16  19
ATOM     19  CA  ALA d   1     -23.708  95.874 -30.356  0.00  0.00     0.086 C 
ATOM     20  H26 ALA d   1     -23.622  95.101 -29.578  0.00  0.00     0.086 H 
BRANCH  19  21
ATOM     21  N   ALA d   1     -24.593  96.941 -29.855  0.00  0.00    -0.346 N 
ATOM     22  C   VAL d   1     -24.330  97.672 -28.743  0.00  0.00     0.241 C 
ATOM     23  O   VAL d   1     -23.321  97.505 -28.043  0.00  0.00    -0.271 OA
ATOM     24  H25 ALA d   1     -25.432  97.136 -30.362  0.00  0.00     0.163 HD
BRANCH  22  25
ATOM     25  CA  VAL d   1     -25.332  98.788 -28.378  0.00  0.00     0.092 C 
ATOM     26  H17 VAL d   1     -26.203  98.681 -29.041  0.00  0.00     0.088 H 
BRANCH  25  27
ATOM     27  N   VAL d   1     -25.805  98.619 -26.999  0.00  0.00    -0.346 N 
ATOM     28  C   LYS d   1     -27.090  98.370 -26.700  0.00  0.00     0.249 C 
ATOM     29  O   LYS d   1     -27.967  98.259 -27.556  0.00  0.00    -0.271 OA
ATOM     30  H16 VAL d   1     -25.144  98.692 -26.252  0.00  0.00     0.163 HD
BRANCH  28  31
ATOM     31  CA  LYS d   1     -27.443  98.200 -25.228  0.00  0.00     0.176 C 
ATOM     32  H4  LYS d   1     -26.671  98.700 -24.625  0.00  0.00     0.099 H 
BRANCH  31  33
ATOM     33  N   LYS d   1     -28.730  98.816 -24.926  0.00  0.00    -0.067 N 
ATOM     34  H1  LYS d   1     -28.941  98.691 -23.948  0.00  0.00     0.275 HD
ATOM     35  H2  LYS d   1     -29.449  98.382 -25.483  0.00  0.00     0.275 HD
ATOM     36  H3  LYS d   1     -28.689  99.801 -25.137  0.00  0.00     0.275 HD
ENDBRANCH  31  33
BRANCH  31  37
ATOM     37  CB  LYS d   1     -27.457  96.708 -24.863  0.00  0.00    -0.030 C 
ATOM     38  H5  LYS d   1     -27.879  96.146 -25.709  0.00  0.00     0.036 H 
ATOM     39  H6  LYS d   1     -28.094  96.571 -23.977  0.00  0.00     0.036 H 
BRANCH  37  40
ATOM     40  CG  LYS d   1     -26.074  96.150 -24.554  0.00  0.00    -0.061 C 
ATOM     41  H7  LYS d   1     -25.839  96.349 -23.498  0.00  0.00     0.033 H 
ATOM     42  H8  LYS d   1     -25.336  96.654 -25.195  0.00  0.00     0.033 H 
BRANCH  40  43
ATOM     43  CD  LYS d   1     -25.995  94.647 -24.801  0.00  0.00    -0.043 C 
ATOM     44  H9  LYS d   1     -26.529  94.412 -25.734  0.00  0.00     0.035 H 
ATOM     45  H10 LYS d   1     -26.476  94.124 -23.961  0.00  0.00     0.035 H 
BRANCH  43  46
ATOM     46  CE  LYS d   1     -24.569  94.165 -24.922  0.00  0.00     0.080 C 
ATOM     47  H11 LYS d   1     -24.577  93.091 -25.161  0.00  0.00     0.075 H 
ATOM     48  H12 LYS d   1     -24.059  94.322 -23.960  0.00  0.00     0.075 H 
BRANCH  46  49
ATOM     49  NZ  LYS d   1     -23.815  94.890 -25.990  0.00  0.00    -0.079 N 
ATOM     50  H13 LYS d   1     -22.872  94.537 -26.035  0.00  0.00     0.274 HD
ATOM     51  H14 LYS d   1     -23.795  95.875 -25.777  0.00  0.00     0.274 HD
ATOM     52  H15 LYS d   1     -24.270  94.747 -26.878  0.00  0.00     0.274 HD
ENDBRANCH  46  49
ENDBRANCH  43  46
ENDBRANCH  40  43
ENDBRANCH  37  40
ENDBRANCH  31  37
ENDBRANCH  28  31
ENDBRANCH  25  27
BRANCH  25  53
ATOM     53  CB  VAL d   1     -24.734 100.208 -28.629  0.00  0.00    -0.033 C 
ATOM     54  H18 VAL d   1     -23.857 100.321 -27.975  0.00  0.00     0.042 H 
BRANCH  53  55
ATOM     55  CG1 VAL d   1     -24.268 100.367 -30.073  0.00  0.00    -0.071 C 
ATOM     56  H19 VAL d   1     -23.853 101.376 -30.215  0.00  0.00     0.028 H 
ATOM     57  H20 VAL d   1     -25.121 100.222 -30.752  0.00  0.00     0.028 H 
ATOM     58  H21 VAL d   1     -23.493  99.618 -30.293  0.00  0.00     0.028 H 
ENDBRANCH  53  55
BRANCH  53  59
ATOM     59  CG2 VAL d   1     -25.736 101.314 -28.270  0.00  0.00    -0.071 C 
ATOM     60  H22 VAL d   1     -26.064 101.188 -27.227  0.00  0.00     0.028 H 
ATOM     61  H23 VAL d   1     -26.607 101.250 -28.938  0.00  0.00     0.028 H 
ATOM     62  H24 VAL d   1     -25.255 102.296 -28.387  0.00  0.00     0.028 H 
ENDBRANCH  53  59
ENDBRANCH  25  53
ENDBRANCH  22  25
ENDBRANCH  19  21
BRANCH  19  63
ATOM     63  CB  ALA d   1     -24.300  95.237 -31.606  0.00  0.00    -0.049 C 
ATOM     64  H27 ALA d   1     -23.628  94.444 -31.967  0.00  0.00     0.030 H 
ATOM     65  H28 ALA d   1     -24.416  96.002 -32.388  0.00  0.00     0.030 H 
ATOM     66  H29 ALA d   1     -25.283  94.805 -31.367  0.00  0.00     0.030 H 
ENDBRANCH  19  63
ENDBRANCH  16  19
ENDBRANCH  13  15
BRANCH  13  67
ATOM     67  CB  VAL d   1     -18.870  95.279 -29.594  0.00  0.00    -0.033 C 
ATOM     68  H32 VAL d   1     -17.868  95.695 -29.772  0.00  0.00     0.042 H 
BRANCH  67  69
ATOM     69  CG1 VAL d   1     -19.164  95.425 -28.108  0.00  0.00    -0.071 C 
ATOM     70  H33 VAL d   1     -18.438  94.834 -27.531  0.00  0.00     0.028 H 
ATOM     71  H34 VAL d   1     -20.181  95.062 -27.898  0.00  0.00     0.028 H 
ATOM     72  H35 VAL d   1     -19.086  96.484 -27.821  0.00  0.00     0.028 H 
ENDBRANCH  67  69
BRANCH  67  73
ATOM     73  CG2 VAL d   1     -18.833  93.801 -30.015  0.00  0.00    -0.071 C 
ATOM     74  H36 VAL d   1     -18.619  93.732 -31.092  0.00  0.00     0.028 H 
ATOM     75  H37 VAL d   1     -19.807  93.335 -29.804  0.00  0.00     0.028 H 
ATOM     76  H38 VAL d   1     -18.047  93.278 -29.450  0.00  0.00     0.028 H 
ENDBRANCH  67  73
ENDBRANCH  13  67
ENDBRANCH  10  13
ENDBRANCH   7   9
BRANCH   7  77
ATOM     77  CB  VAL d   1     -19.043  94.092 -34.450  0.00  0.00    -0.033 C 
ATOM     78  H41 VAL d   1     -18.153  94.269 -33.828  0.00  0.00     0.042 H 
BRANCH  77  79
ATOM     79  CG1 VAL d   1     -19.651  92.758 -34.002  0.00  0.00    -0.071 C 
ATOM     80  H42 VAL d   1     -18.935  91.945 -34.195  0.00  0.00     0.028 H 
ATOM     81  H43 VAL d   1     -20.578  92.571 -34.563  0.00  0.00     0.028 H 
ATOM     82  H44 VAL d   1     -19.876  92.800 -32.926  0.00  0.00     0.028 H 
ENDBRANCH  77  79
BRANCH  77  83
ATOM     83  CG2 VAL d   1     -18.568  94.025 -35.908  0.00  0.00    -0.071 C 
ATOM     84  H45 VAL d   1     -18.138  94.995 -36.198  0.00  0.00     0.028 H 
ATOM     85  H46 VAL d   1     -19.422  93.792 -36.561  0.00  0.00     0.028 H 
ATOM     86  H47 VAL d   1     -17.804  93.240 -36.009  0.00  0.00     0.028 H 
ENDBRANCH  77  83
ENDBRANCH   7  77
ENDBRANCH   4   7
ENDBRANCH   1   3
BRANCH   1  87
ATOM     87  C   ARG d   1     -21.908  96.081 -38.487  0.00  0.00     0.241 C 
ATOM     88  O   ARG d   1     -20.776  96.561 -38.560  0.00  0.00    -0.271 OA
ATOM     89  N   TPO d   1     -22.671  95.854 -39.560  0.00  0.00    -0.344 N 
ATOM     90  H61 TPO d   1     -23.563  95.415 -39.453  0.00  0.00     0.163 HD
BRANCH  89  91
ATOM     91  CA  TPO d   1     -22.207  96.244 -40.887  0.00  0.00     0.114 C 
ATOM     92  H62 TPO d   1     -21.229  95.785 -41.096  0.00  0.00     0.091 H 
BRANCH  91  93
ATOM     93  CB  TPO d   1     -23.215  95.793 -41.930  0.00  0.00     0.076 C 
ATOM     94  H63 TPO d   1     -24.182  96.298 -41.786  0.00  0.00     0.087 H 
BRANCH  93  95
ATOM     95  CG2 TPO d   1     -22.642  96.084 -43.322  0.00  0.00    -0.049 C 
ATOM     96  H64 TPO d   1     -23.362  95.762 -44.089  0.00  0.00     0.031 H 
ATOM     97  H65 TPO d   1     -21.698  95.535 -43.452  0.00  0.00     0.031 H 
ATOM     98  H66 TPO d   1     -22.456  97.163 -43.423  0.00  0.00     0.031 H 
ENDBRANCH  93  95
BRANCH  93  99
ATOM     99  OG1 TPO d   1     -23.353  94.352 -41.822  0.00  0.00    -0.275 OA
BRANCH  99 100
ATOM    100  P   TPO d   1     -24.784  93.844 -41.450  0.00  0.00     0.422 P 
ATOM    101  O1P TPO d   1     -25.126  94.240 -40.046  0.00  0.00    -0.617 OA
ATOM    102  O2P TPO d   1     -25.758  94.455 -42.472  0.00  0.00    -0.617 OA
ATOM    103  O3P TPO d   1     -24.664  92.271 -41.694  0.00  0.00    -0.617 OA
ENDBRANCH  99 100
ENDBRANCH  93  99
ENDBRANCH  91  93
BRANCH  91 104
ATOM    104  C   TPO d   1     -22.082  97.784 -40.903  0.00  0.00     0.246 C 
ATOM    105  O   TPO d   1     -22.987  98.459 -40.402  0.00  0.00    -0.271 OA
ATOM    106  N   PRO d   1     -20.940  98.346 -41.372  0.00  0.00    -0.337 N 
ATOM    107  CA  PRO d   1     -20.805  99.820 -41.405  0.00  0.00     0.092 C 
ATOM    108  CD  PRO d   1     -19.768  97.684 -41.975  0.00  0.00    -0.001 C 
ATOM    109  CB  PRO d   1     -19.405 100.043 -41.997  0.00  0.00    -0.036 C 
ATOM    110  H67 PRO d   1     -20.870 100.242 -40.391  0.00  0.00     0.087 H 
ATOM    111  CG  PRO d   1     -18.694  98.717 -41.835  0.00  0.00    -0.048 C 
ATOM    112  H68 PRO d   1     -18.875 100.835 -41.448  0.00  0.00     0.036 H 
ATOM    113  H69 PRO d   1     -19.474 100.317 -43.060  0.00  0.00     0.036 H 
ATOM    114  H70 PRO d   1     -18.220  98.650 -40.845  0.00  0.00     0.035 H 
ATOM    115  H71 PRO d   1     -17.930  98.589 -42.616  0.00  0.00     0.035 H 
ATOM    116  H72 PRO d   1     -19.950  97.443 -43.033  0.00  0.00     0.064 H 
ATOM    117  H73 PRO d   1     -19.508  96.765 -41.429  0.00  0.00     0.064 H 
BRANCH 107 118
ATOM    118  C   PRO d   1     -21.892 100.447 -42.286  0.00  0.00     0.243 C 
ATOM    119  O   PRO d   1     -22.226  99.848 -43.315  0.00  0.00    -0.271 OA
ATOM    120  N   PRO d   1     -22.515 101.587 -41.891  0.00  0.00    -0.337 N 
ATOM    121  CA  PRO d   1     -23.559 102.179 -42.749  0.00  0.00     0.091 C 
ATOM    122  CD  PRO d   1     -22.265 102.434 -40.710  0.00  0.00    -0.001 C 
ATOM    123  CB  PRO d   1     -24.216 103.247 -41.857  0.00  0.00    -0.036 C 
ATOM    124  H74 PRO d   1     -24.298 101.417 -43.038  0.00  0.00     0.087 H 
ATOM    125  CG  PRO d   1     -23.589 103.102 -40.502  0.00  0.00    -0.048 C 
ATOM    126  H75 PRO d   1     -25.301 103.078 -41.795  0.00  0.00     0.036 H 
ATOM    127  H76 PRO d   1     -24.024 104.252 -42.261  0.00  0.00     0.036 H 
ATOM    128  H77 PRO d   1     -24.227 102.484 -39.853  0.00  0.00     0.035 H 
ATOM    129  H78 PRO d   1     -23.447 104.091 -40.042  0.00  0.00     0.035 H 
ATOM    130  H79 PRO d   1     -21.475 103.172 -40.911  0.00  0.00     0.064 H 
ATOM    131  H80 PRO d   1     -21.985 101.826 -39.837  0.00  0.00     0.064 H 
BRANCH 121 132
ATOM    132  C   PRO d   1     -22.950 102.778 -44.008  0.00  0.00     0.241 C 
ATOM    133  O   PRO d   1     -21.971 103.529 -43.916  0.00  0.00    -0.271 OA
ATOM    134  N   LYS d   1     -23.486 102.381 -45.182  0.00  0.00    -0.345 N 
ATOM    135  H81 LYS d   1     -24.252 101.740 -45.146  0.00  0.00     0.163 HD
BRANCH 134 136
ATOM    136  CA  LYS d   1     -23.031 102.818 -46.506  0.00  0.00     0.096 C 
ATOM    137  H82 LYS d   1     -22.754 103.881 -46.449  0.00  0.00     0.089 H 
BRANCH 136 138
ATOM    138  C   LYS d   1     -24.155 102.659 -47.527  0.00  0.00     0.196 C 
ATOM    139  O   LYS d   1     -24.915 101.655 -47.485  0.00  0.00    -0.646 OA
ATOM    140  O   LYS d   1     -24.323 103.536 -48.416  0.00  0.00    -0.646 OA
ENDBRANCH 136 138
BRANCH 136 141
ATOM    141  CB  LYS d   1     -21.795 102.010 -46.950  0.00  0.00    -0.037 C 
ATOM    142  H83 LYS d   1     -22.142 101.130 -47.512  0.00  0.00     0.036 H 
ATOM    143  H84 LYS d   1     -21.256 101.681 -46.049  0.00  0.00     0.036 H 
BRANCH 141 144
ATOM    144  CG  LYS d   1     -20.823 102.788 -47.831  0.00  0.00    -0.061 C 
ATOM    145  H85 LYS d   1     -21.372 103.593 -48.342  0.00  0.00     0.033 H 
ATOM    146  H86 LYS d   1     -20.396 102.104 -48.579  0.00  0.00     0.033 H 
BRANCH 144 147
ATOM    147  CD  LYS d   1     -19.686 103.405 -47.021  0.00  0.00    -0.043 C 
ATOM    148  H87 LYS d   1     -19.156 102.603 -46.486  0.00  0.00     0.035 H 
ATOM    149  H88 LYS d   1     -20.112 104.112 -46.294  0.00  0.00     0.035 H 
BRANCH 147 150
ATOM    150  CE  LYS d   1     -18.700 104.141 -47.893  0.00  0.00     0.080 C 
ATOM    151  H89 LYS d   1     -19.227 104.945 -48.428  0.00  0.00     0.075 H 
ATOM    152  H90 LYS d   1     -18.272 103.436 -48.620  0.00  0.00     0.075 H 
BRANCH 150 153
ATOM    153  NZ  LYS d   1     -17.598 104.737 -47.093  0.00  0.00    -0.079 N 
ATOM    154  H91 LYS d   1     -16.960 105.219 -47.707  0.00  0.00     0.274 HD
ATOM    155  H92 LYS d   1     -17.105 104.007 -46.603  0.00  0.00     0.274 HD
ATOM    156  H93 LYS d   1     -17.981 105.389 -46.427  0.00  0.00     0.274 HD
ENDBRANCH 150 153
ENDBRANCH 147 150
ENDBRANCH 144 147
ENDBRANCH 141 144
ENDBRANCH 136 141
ENDBRANCH 134 136
ENDBRANCH 121 132
ENDBRANCH 107 118
ENDBRANCH  91 104
ENDBRANCH  89  91
ENDBRANCH   1  87
BRANCH   1 157
ATOM    157  CB  ARG d   1     -23.674  96.502 -36.705  0.00  0.00    -0.036 C 
ATOM    158  H50 ARG d   1     -24.005  96.132 -35.723  0.00  0.00     0.036 H 
ATOM    159  H51 ARG d   1     -24.472  96.342 -37.445  0.00  0.00     0.036 H 
BRANCH 157 160
ATOM    160  CG  ARG d   1     -23.442  98.011 -36.584  0.00  0.00    -0.048 C 
ATOM    161  H52 ARG d   1     -23.154  98.414 -37.566  0.00  0.00     0.035 H 
ATOM    162  H53 ARG d   1     -22.635  98.198 -35.860  0.00  0.00     0.035 H 
BRANCH 160 163
ATOM    163  CD  ARG d   1     -24.707  98.700 -36.112  0.00  0.00     0.009 C 
ATOM    164  H54 ARG d   1     -24.487  99.763 -35.934  0.00  0.00     0.064 H 
ATOM    165  H55 ARG d   1     -25.037  98.232 -35.173  0.00  0.00     0.064 H 
BRANCH 163 166
ATOM    166  NE  ARG d   1     -25.788  98.599 -37.095  0.00  0.00    -0.227 N 
ATOM    167  CZ  ARG d   1     -27.077  98.737 -36.806  0.00  0.00     0.665 C 
ATOM    168  NH1 ARG d   1     -27.463  98.972 -35.559  0.00  0.00    -0.235 N 
ATOM    169  NH2 ARG d   1     -27.990  98.641 -37.762  0.00  0.00    -0.235 N 
ATOM    170  H57 ARG d   1     -28.464  99.078 -35.341  0.00  0.00     0.174 HD
ATOM    171  H58 ARG d   1     -26.762  99.048 -34.809  0.00  0.00     0.174 HD
ATOM    172  H59 ARG d   1     -27.701  98.459 -38.734  0.00  0.00     0.174 HD
ATOM    173  H60 ARG d   1     -28.988  98.749 -37.533  0.00  0.00     0.174 HD
ATOM    174  H56 ARG d   1     -25.532  98.409 -38.074  0.00  0.00     0.177 HD
ENDBRANCH 163 166
ENDBRANCH 160 163
ENDBRANCH 157 160
ENDBRANCH   1 157
TORSDOF 46
