REMARK  5 active torsions:
REMARK  status: ('A' for Active; 'I' for Inactive)
REMARK    1  A    between atoms: C5_1  and  C8_3 
REMARK    2  A    between atoms: C11_5  and  N14_8 
REMARK    3  A    between atoms: C12_6  and  N15_15 
REMARK    4  A    between atoms: C2_11  and  O1_12 
REMARK    5  A    between atoms: O1_12  and  C3_13 
ROOT
ATOM      1  C5  0XT d   1     -10.434  -3.204 -20.756  0.00  0.00     0.084 A 
ATOM      2  C6  0XT d   1     -12.948  -2.224 -20.289  0.00  0.00     0.203 A 
ATOM      3  C10 0XT d   1     -12.082  -1.645 -21.210  0.00  0.00     0.151 A 
ATOM      4  C11 0XT d   1     -14.552  -0.598 -20.728  0.00  0.00     0.724 A 
ATOM      5  C12 0XT d   1     -12.527  -0.581 -21.880  0.00  0.00     0.173 A 
ATOM      6  N4  0XT d   1     -12.553  -3.324 -19.630  0.00  0.00    -0.200 NA
ATOM      7  N13 0XT d   1     -13.727  -0.082 -21.658  0.00  0.00    -0.043 NA
ATOM      8  N9  0XT d   1     -14.148  -1.687 -20.049  0.00  0.00    -0.041 NA
ATOM      9  C2  0XT d   1     -11.294  -3.800 -19.810  0.00  0.00     0.191 A 
ATOM     10  N7  0XT d   1     -10.845  -2.134 -21.454  0.00  0.00    -0.241 NA
ENDROOT
BRANCH   9  11
ATOM     11  O1  0XT d   1     -10.889  -4.902 -19.073  0.00  0.00    -0.338 OA
BRANCH  11  12
ATOM     12  C3  0XT d   1     -11.856  -5.607 -18.326  0.00  0.00     0.012 C 
ATOM     13  H   0XT d   1     -12.310  -4.936 -17.597  0.00  0.00     0.067 H 
ATOM     14  H   0XT d   1     -12.625  -5.989 -18.998  0.00  0.00     0.067 H 
ATOM     15  H   0XT d   1     -11.378  -6.439 -17.808  0.00  0.00     0.067 H 
ENDBRANCH  11  12
ENDBRANCH   9  11
BRANCH   1  16
ATOM     16  C8  0XT d   1      -9.090  -3.782 -21.024  0.00  0.00    -0.031 C 
ATOM     17  H   0XT d   1      -8.505  -3.780 -20.104  0.00  0.00     0.035 H 
ATOM     18  H   0XT d   1      -9.201  -4.805 -21.383  0.00  0.00     0.035 H 
ATOM     19  H   0XT d   1      -8.583  -3.183 -21.780  0.00  0.00     0.035 H 
ENDBRANCH   1  16
BRANCH   5  20
ATOM     20  N15 0XT d   1     -11.700  -0.036 -22.791  0.00  0.00    -0.381 N 
ATOM     21  H   0XT d   1     -11.997   0.780 -23.326  0.00  0.00     0.157 HD
ATOM     22  H   0XT d   1     -10.776  -0.439 -22.946  0.00  0.00     0.157 HD
ENDBRANCH   5  20
BRANCH   4  23
ATOM     23  N14 0XT d   1     -15.799  -0.058 -20.542  0.00  0.00    -0.231 N 
ATOM     24  H   0XT d   1     -16.445  -0.483 -19.876  0.00  0.00     0.174 HD
ATOM     25  H   0XT d   1     -16.081   0.768 -21.070  0.00  0.00     0.174 HD
ENDBRANCH   4  23
TORSDOF 5
