REMARK  3 active torsions:
REMARK  status: ('A' for Active; 'I' for Inactive)
REMARK    1  A    between atoms: C3_16  and  C6_2 
REMARK    2  A    between atoms: C14_6  and  C16_9 
REMARK    3  A    between atoms: C15_7  and  N17_13 
REMARK       I    between atoms: C16_9  and  N19_10 
ROOT
ATOM      1  C4  0XS d   1      27.317   5.116   6.892  0.00  0.00    -0.050 A 
ATOM      2  C7  0XS d   1      26.797   4.539   5.739  0.00  0.00     0.014 A 
ATOM      3  C8  0XS d   1      27.624   3.906   4.831  0.00  0.00     0.162 A 
ATOM      4  C12 0XS d   1      25.464   4.594   5.491  0.00  0.00    -0.050 A 
ATOM      5  C14 0XS d   1      25.011   4.011   4.331  0.00  0.00     0.078 A 
ATOM      6  C15 0XS d   1      25.876   3.347   3.433  0.00  0.00     0.139 A 
ATOM      7  C2  0XS d   1      28.681   5.071   7.140  0.00  0.00     0.045 A 
ATOM      8 BR1  0XS d   1      29.511   5.895   8.676  0.00  0.00    -0.049 Br
ATOM      9  N13 0XS d   1      27.171   3.318   3.719  0.00  0.00    -0.210 NA
ATOM     10  N5  0XS d   1      28.940   3.901   5.061  0.00  0.00    -0.222 NA
ATOM     11  C3  0XS d   1      29.481   4.446   6.186  0.00  0.00     0.160 A 
ATOM     12  H   0XS d   1      26.651   5.605   7.603  0.00  0.00     0.087 H 
ATOM     13  H   0XS d   1      24.779   5.082   6.184  0.00  0.00     0.086 H 
ENDROOT
BRANCH   5  14
ATOM     14  C16 0XS d   1      23.549   4.068   4.206  0.00  0.00     0.253 C 
ATOM     15  O18 0XS d   1      23.034   3.252   3.455  0.00  0.00    -0.268 OA
ATOM     16  N19 0XS d   1      22.858   4.865   5.042  0.00  0.00    -0.366 N 
ATOM     17  H   0XS d   1      21.840   4.809   5.075  0.00  0.00     0.159 HD
ATOM     18  H   0XS d   1      23.352   5.525   5.643  0.00  0.00     0.159 HD
ENDBRANCH   5  14
BRANCH   6  19
ATOM     19  N17 0XS d   1      25.494   2.753   2.267  0.00  0.00    -0.383 N 
ATOM     20  H   0XS d   1      26.192   2.316   1.665  0.00  0.00     0.157 HD
ATOM     21  H   0XS d   1      24.511   2.745   1.997  0.00  0.00     0.157 HD
ENDBRANCH   6  19
BRANCH  11  22
ATOM     22  C6  0XS d   1      30.962   4.321   6.373  0.00  0.00     0.436 C 
ATOM     23  F9  0XS d   1      31.545   5.398   6.876  0.00  0.00    -0.165 F 
ATOM     24  F10 0XS d   1      31.139   3.308   7.228  0.00  0.00    -0.165 F 
ATOM     25  F11 0XS d   1      31.475   4.006   5.188  0.00  0.00    -0.165 F 
ENDBRANCH  11  22
TORSDOF 3
