REMARK  27 active torsions:
REMARK  status: ('A' for Active; 'I' for Inactive)
REMARK    1  A    between atoms: N_1  and  CA_2 
REMARK    2  A    between atoms: CA_14  and  CB_17 
REMARK    3  A    between atoms: CB_17  and  CG_18 
REMARK    4  A    between atoms: CG_18  and  CD1_19 
REMARK    5  A    between atoms: CG_18  and  CD2_20 
REMARK    6  A    between atoms: CA_26  and  CB_29 
REMARK    7  A    between atoms: CB_29  and  CG_30 
REMARK    8  A    between atoms: CG_30  and  CD_31 
REMARK    9  A    between atoms: CD_31  and  NE_32 
REMARK       I    between atoms: NE_32  and  CZ_33 
REMARK       I    between atoms: CZ_33  and  NH1_34 
REMARK       I    between atoms: CZ_33  and  NH2_35 
REMARK   10  A    between atoms: CA_47  and  CB_50 
REMARK   11  A    between atoms: CB_50  and  CG_51 
REMARK   12  A    between atoms: CG_51  and  CD_52 
REMARK   13  A    between atoms: CA_56  and  CB_59 
REMARK   14  A    between atoms: CB_59  and  CG_60 
REMARK       I    between atoms: CG_60  and  ND2_62 
REMARK   15  A    between atoms: CA_64  and  CB_67 
REMARK   16  A    between atoms: CB_67  and  CG_68 
REMARK   17  A    between atoms: CA_74  and  CB_77 
REMARK   18  A    between atoms: CB_77  and  CG_78 
REMARK   19  A    between atoms: CG_78  and  CD_79 
REMARK   20  A    between atoms: CD_79  and  NE_80 
REMARK       I    between atoms: NE_80  and  CZ_81 
REMARK       I    between atoms: CZ_81  and  NH1_82 
REMARK   21  A    between atoms: CA_85  and  C_86 
REMARK       I    between atoms: C_86  and  N_90 
REMARK   22  A    between atoms: N_90  and  CA_91 
REMARK   23  A    between atoms: CA_91  and  C_92 
REMARK   24  A    between atoms: CA_91  and  CB_94 
REMARK       I    between atoms: C_92  and  N_98 
REMARK   25  A    between atoms: CB_94  and  CG_95 
REMARK   26  A    between atoms: CG_95  and  CD1_96 
REMARK   27  A    between atoms: CG_95  and  CD2_97 
ROOT
ATOM      1  CA  CYS d   1     -26.013   5.393  10.900  0.00  0.00     0.184 C 
ATOM      2  C   CYS d   1     -26.707   6.714  11.372  0.00  0.00     0.249 C 
ATOM      3  O   CYS d   1     -27.668   7.182  10.716  0.00  0.00    -0.271 OA
ATOM      4  CB  CYS d   1     -24.614   5.605  10.316  0.00  0.00     0.021 C 
ATOM      5  SG  CYS d   1     -23.685   4.134   9.739  0.00  0.00    -0.095 SA
ATOM      6  N   CYS d   1     -26.208   7.324  12.456  0.00  0.00    -0.345 N 
ATOM      7  CA  CYS d   1     -26.972   8.321  13.205  0.00  0.00     0.098 C 
ATOM      8  C   CYS d   1     -27.212   9.609  12.333  0.00  0.00     0.241 C 
ATOM      9  O   CYS d   1     -26.266  10.133  11.749  0.00  0.00    -0.271 OA
ATOM     10  CB  CYS d   1     -26.261   8.592  14.549  0.00  0.00     0.013 C 
ATOM     11  SG  CYS d   1     -27.244   9.672  15.585  0.00  0.00    -0.095 SA
ATOM     12  N   CYS d   1     -25.997  12.938  17.612  0.00  0.00    -0.346 N 
ATOM     13  CA  CYS d   1     -25.143  11.830  17.139  0.00  0.00     0.098 C 
ATOM     14  C   CYS d   1     -23.677  11.965  17.588  0.00  0.00     0.241 C 
ATOM     15  O   CYS d   1     -22.759  11.482  16.901  0.00  0.00    -0.271 OA
ATOM     16  CB  CYS d   1     -25.166  11.879  15.614  0.00  0.00     0.013 C 
ATOM     17  SG  CYS d   1     -26.831  11.612  14.925  0.00  0.00    -0.095 SA
ATOM     18  N   CYS d   1     -19.949   5.590  13.580  0.00  0.00    -0.345 N 
ATOM     19  CA  CYS d   1     -20.170   5.735  12.091  0.00  0.00     0.098 C 
ATOM     20  CB  CYS d   1     -21.183   4.678  11.490  0.00  0.00     0.013 C 
ATOM     21  SG  CYS d   1     -21.707   4.714   9.731  0.00  0.00    -0.095 SA
ATOM     22  H4  CYS d   1     -25.911   4.740  11.779  0.00  0.00     0.100 H 
ATOM     23  H5  CYS d   1     -24.006   6.090  11.094  0.00  0.00     0.054 H 
ATOM     24  H6  CYS d   1     -24.719   6.283   9.456  0.00  0.00     0.054 H 
ATOM     25  H7  CYS d   1     -25.285   7.090  12.762  0.00  0.00     0.163 HD
ATOM     26  H8  CYS d   1     -27.960   7.895  13.434  0.00  0.00     0.088 H 
ATOM     27  H9  CYS d   1     -25.289   9.068  14.353  0.00  0.00     0.053 H 
ATOM     28  H10 CYS d   1     -26.103   7.637  15.072  0.00  0.00     0.053 H 
ATOM     29  H41 CYS d   1     -25.685  13.883  17.515  0.00  0.00     0.163 HD
ATOM     30  H42 CYS d   1     -25.548  10.874  17.502  0.00  0.00     0.088 H 
ATOM     31  H43 CYS d   1     -24.496  11.097  15.227  0.00  0.00     0.053 H 
ATOM     32  H44 CYS d   1     -24.805  12.866  15.288  0.00  0.00     0.053 H 
ATOM     33  H77 CYS d   1     -20.725   5.538  14.208  0.00  0.00     0.163 HD
ATOM     34  H78 CYS d   1     -19.213   5.426  11.645  0.00  0.00     0.088 H 
ATOM     35  H79 CYS d   1     -22.104   4.762  12.086  0.00  0.00     0.053 H 
ATOM     36  H80 CYS d   1     -20.729   3.690  11.655  0.00  0.00     0.053 H 
ATOM     37  N   LEU d   1     -28.459  10.083  12.225  0.00  0.00    -0.346 N 
ATOM     38  CA  LEU d   1     -28.817  11.301  11.427  0.00  0.00     0.089 C 
ATOM     39  C   LEU d   1     -29.163  12.367  12.438  0.00  0.00     0.240 C 
ATOM     40  O   LEU d   1     -29.611  12.033  13.540  0.00  0.00    -0.271 OA
ATOM     41  H11 LEU d   1     -29.192   9.598  12.703  0.00  0.00     0.163 HD
ATOM     42  H12 LEU d   1     -27.979  11.606  10.784  0.00  0.00     0.087 H 
ATOM     43  N   GLY d   1     -29.025  13.623  12.055  0.00  0.00    -0.351 N 
ATOM     44  CA  GLY d   1     -29.493  14.765  12.830  0.00  0.00     0.069 C 
ATOM     45  C   GLY d   1     -28.499  15.173  13.898  0.00  0.00     0.236 C 
ATOM     46  O   GLY d   1     -27.326  14.800  13.875  0.00  0.00    -0.272 OA
ATOM     47  N   GLY d   1     -28.357  14.662  17.285  0.00  0.00    -0.351 N 
ATOM     48  CA  GLY d   1     -28.125  13.856  18.454  0.00  0.00     0.069 C 
ATOM     49  C   GLY d   1     -27.185  12.683  18.170  0.00  0.00     0.236 C 
ATOM     50  O   GLY d   1     -27.504  11.555  18.468  0.00  0.00    -0.272 OA
ATOM     51  H22 GLY d   1     -28.573  13.801  11.181  0.00  0.00     0.163 HD
ATOM     52  H23 GLY d   1     -30.445  14.500  13.314  0.00  0.00     0.078 H 
ATOM     53  H24 GLY d   1     -29.652  15.615  12.150  0.00  0.00     0.078 H 
ATOM     54  H38 GLY d   1     -29.072  14.395  16.639  0.00  0.00     0.163 HD
ATOM     55  H39 GLY d   1     -29.088  13.460  18.808  0.00  0.00     0.078 H 
ATOM     56  H40 GLY d   1     -27.678  14.487  19.236  0.00  0.00     0.078 H 
ATOM     57  N   ARG d   1     -28.978  15.925  14.869  0.00  0.00    -0.346 N 
ATOM     58  CA  ARG d   1     -28.050  16.594  15.857  0.00  0.00     0.089 C 
ATOM     59  C   ARG d   1     -27.639  15.756  17.047  0.00  0.00     0.240 C 
ATOM     60  O   ARG d   1     -26.677  16.081  17.721  0.00  0.00    -0.271 OA
ATOM     61  N   ARG d   1     -19.475   5.869  16.342  0.00  0.00    -0.346 N 
ATOM     62  CA  ARG d   1     -18.465   5.185  15.540  0.00  0.00     0.089 C 
ATOM     63  C   ARG d   1     -18.706   5.533  14.036  0.00  0.00     0.241 C 
ATOM     64  O   ARG d   1     -17.750   5.795  13.280  0.00  0.00    -0.271 OA
ATOM     65  H25 ARG d   1     -29.966  16.054  14.953  0.00  0.00     0.163 HD
ATOM     66  H26 ARG d   1     -27.131  16.849  15.308  0.00  0.00     0.087 H 
ATOM     67  H64 ARG d   1     -20.166   5.317  16.808  0.00  0.00     0.163 HD
ATOM     68  H65 ARG d   1     -17.458   5.526  15.823  0.00  0.00     0.087 H 
ATOM     69  N   GLU d   1     -23.457  12.663  18.706  0.00  0.00    -0.346 N 
ATOM     70  CA  GLU d   1     -22.129  12.817  19.207  0.00  0.00     0.090 C 
ATOM     71  C   GLU d   1     -21.496  11.452  19.522  0.00  0.00     0.241 C 
ATOM     72  O   GLU d   1     -22.190  10.477  19.897  0.00  0.00    -0.271 OA
ATOM     73  H45 GLU d   1     -24.225  13.079  19.193  0.00  0.00     0.163 HD
ATOM     74  H46 GLU d   1     -21.524  13.323  18.440  0.00  0.00     0.087 H 
ATOM     75  N   ASN d   1     -20.158  11.431  19.418  0.00  0.00    -0.346 N 
ATOM     76  CA  ASN d   1     -19.380  10.286  19.932  0.00  0.00     0.097 C 
ATOM     77  C   ASN d   1     -19.878   8.940  19.365  0.00  0.00     0.241 C 
ATOM     78  O   ASN d   1     -19.950   7.937  20.056  0.00  0.00    -0.271 OA
ATOM     79  H51 ASN d   1     -19.683  12.199  18.988  0.00  0.00     0.163 HD
ATOM     80  H52 ASN d   1     -18.335  10.415  19.614  0.00  0.00     0.088 H 
ATOM     81  N   HIS d   1     -20.231   8.958  18.080  0.00  0.00    -0.346 N 
ATOM     82  CA  HIS d   1     -20.657   7.764  17.350  0.00  0.00     0.094 C 
ATOM     83  C   HIS d   1     -19.520   7.201  16.483  0.00  0.00     0.241 C 
ATOM     84  O   HIS d   1     -18.746   7.983  15.928  0.00  0.00    -0.271 OA
ATOM     85  H57 HIS d   1     -20.203   9.830  17.591  0.00  0.00     0.163 HD
ATOM     86  H58 HIS d   1     -20.934   6.994  18.084  0.00  0.00     0.088 H 
ENDROOT
BRANCH  19  87
ATOM     87  C   CYS d   1     -20.275   7.243  11.685  0.00  0.00     0.241 C 
ATOM     88  O   CYS d   1     -19.274   7.908  11.876  0.00  0.00    -0.271 OA
ATOM     89  N   LEU d   1     -21.377   7.889  11.233  0.00  0.00    -0.346 N 
ATOM     90  H81 LEU d   1     -21.213   8.553  10.504  0.00  0.00     0.163 HD
BRANCH  89  91
ATOM     91  CA  LEU d   1     -22.781   7.756  11.659  0.00  0.00     0.089 C 
ATOM     92  H82 LEU d   1     -23.027   8.715  12.139  0.00  0.00     0.087 H 
BRANCH  91  93
ATOM     93  C   LEU d   1     -23.028   6.703  12.757  0.00  0.00     0.238 C 
ATOM     94  O   LEU d   1     -23.950   6.851  13.597  0.00  0.00    -0.271 OA
ATOM     95  N   NH2 d   1     -22.354   5.646  12.837  0.00  0.00    -0.368 N 
ATOM     96  H92 NH2 d   1     -22.544   4.986  13.564  0.00  0.00     0.159 HD
ATOM     97  H93 NH2 d   1     -21.628   5.465  12.174  0.00  0.00     0.159 HD
ENDBRANCH  91  93
BRANCH  91  98
ATOM     98  CB  LEU d   1     -23.730   7.659  10.444  0.00  0.00    -0.035 C 
ATOM     99  H83 LEU d   1     -24.742   7.468  10.831  0.00  0.00     0.037 H 
ATOM    100  H84 LEU d   1     -23.402   6.802   9.837  0.00  0.00     0.037 H 
BRANCH  98 101
ATOM    101  CG  LEU d   1     -23.817   8.895   9.498  0.00  0.00    -0.059 C 
ATOM    102  H85 LEU d   1     -23.457   9.746  10.095  0.00  0.00     0.038 H 
BRANCH 101 103
ATOM    103  CD1 LEU d   1     -22.910   8.842   8.258  0.00  0.00    -0.073 C 
ATOM    104  H86 LEU d   1     -23.049   9.757   7.663  0.00  0.00     0.028 H 
ATOM    105  H87 LEU d   1     -23.173   7.965   7.649  0.00  0.00     0.028 H 
ATOM    106  H88 LEU d   1     -21.859   8.767   8.575  0.00  0.00     0.028 H 
ENDBRANCH 101 103
BRANCH 101 107
ATOM    107  CD2 LEU d   1     -25.250   9.227   9.101  0.00  0.00    -0.073 C 
ATOM    108  H89 LEU d   1     -25.881   9.260  10.001  0.00  0.00     0.028 H 
ATOM    109  H90 LEU d   1     -25.629   8.455   8.415  0.00  0.00     0.028 H 
ATOM    110  H91 LEU d   1     -25.274  10.206   8.600  0.00  0.00     0.028 H 
ENDBRANCH 101 107
ENDBRANCH  98 101
ENDBRANCH  91  98
ENDBRANCH  89  91
ENDBRANCH  19  87
BRANCH  62 111
ATOM    111  CB  ARG d   1     -18.602   3.675  15.871  0.00  0.00    -0.036 C 
ATOM    112  H66 ARG d   1     -19.571   3.344  15.470  0.00  0.00     0.036 H 
ATOM    113  H67 ARG d   1     -18.608   3.584  16.967  0.00  0.00     0.036 H 
BRANCH 111 114
ATOM    114  CG  ARG d   1     -17.550   2.709  15.350  0.00  0.00    -0.048 C 
ATOM    115  H68 ARG d   1     -16.562   3.024  15.717  0.00  0.00     0.035 H 
ATOM    116  H69 ARG d   1     -17.557   2.732  14.250  0.00  0.00     0.035 H 
BRANCH 114 117
ATOM    117  CD  ARG d   1     -17.822   1.277  15.819  0.00  0.00     0.009 C 
ATOM    118  H70 ARG d   1     -17.475   1.170  16.857  0.00  0.00     0.064 H 
ATOM    119  H71 ARG d   1     -17.268   0.580  15.174  0.00  0.00     0.064 H 
BRANCH 117 120
ATOM    120  NE  ARG d   1     -19.255   0.946  15.759  0.00  0.00    -0.227 N 
ATOM    121  CZ  ARG d   1     -20.070   0.818  16.811  0.00  0.00     0.665 C 
ATOM    122  NH1 ARG d   1     -19.615   0.963  18.068  0.00  0.00    -0.235 N 
ATOM    123  NH2 ARG d   1     -21.342   0.525  16.594  0.00  0.00    -0.235 N 
ATOM    124  H73 ARG d   1     -20.260   0.860  18.864  0.00  0.00     0.174 HD
ATOM    125  H74 ARG d   1     -18.621   1.177  18.235  0.00  0.00     0.174 HD
ATOM    126  H75 ARG d   1     -21.688   0.414  15.630  0.00  0.00     0.174 HD
ATOM    127  H76 ARG d   1     -21.986   0.407  17.389  0.00  0.00     0.174 HD
ATOM    128  H72 ARG d   1     -19.665   0.800  14.826  0.00  0.00     0.177 HD
ENDBRANCH 117 120
ENDBRANCH 114 117
ENDBRANCH 111 114
ENDBRANCH  62 111
BRANCH   1 129
ATOM    129  N   CYS d   1     -26.863   4.704   9.902  0.00  0.00    -0.066 N 
ATOM    130  H1  CYS d   1     -26.409   3.855   9.603  0.00  0.00     0.275 HD
ATOM    131  H2  CYS d   1     -27.004   5.307   9.107  0.00  0.00     0.275 HD
ATOM    132  H3  CYS d   1     -27.754   4.481  10.317  0.00  0.00     0.275 HD
ENDBRANCH   1 129
BRANCH  82 133
ATOM    133  CB  HIS d   1     -21.889   8.086  16.509  0.00  0.00     0.004 C 
ATOM    134  H59 HIS d   1     -21.889   7.440  15.619  0.00  0.00     0.046 H 
ATOM    135  H60 HIS d   1     -21.840   9.140  16.198  0.00  0.00     0.046 H 
BRANCH 133 136
ATOM    136  CG  HIS d   1     -23.197   7.860  17.283  0.00  0.00     0.053 A 
ATOM    137  ND1 HIS d   1     -23.490   8.544  18.461  0.00  0.00    -0.247 NA
ATOM    138  CE1 HIS d   1     -24.663   8.118  18.944  0.00  0.00     0.064 A 
ATOM    139  NE2 HIS d   1     -25.121   7.144  18.140  0.00  0.00    -0.359 N 
ATOM    140  H62 HIS d   1     -25.161   8.496  19.836  0.00  0.00     0.143 H 
ATOM    141  CD2 HIS d   1     -24.211   6.965  17.101  0.00  0.00     0.002 A 
ATOM    142  H63 HIS d   1     -25.997   6.618  18.270  0.00  0.00     0.166 HD
ATOM    143  H61 HIS d   1     -24.294   6.242  16.291  0.00  0.00     0.114 H 
ENDBRANCH 133 136
ENDBRANCH  82 133
BRANCH  76 144
ATOM    144  CB  ASN d   1     -19.417  10.293  21.454  0.00  0.00     0.036 C 
ATOM    145  H53 ASN d   1     -20.415   9.969  21.784  0.00  0.00     0.051 H 
ATOM    146  H54 ASN d   1     -19.228  11.318  21.807  0.00  0.00     0.051 H 
BRANCH 144 147
ATOM    147  CG  ASN d   1     -18.381   9.371  22.063  0.00  0.00     0.217 C 
ATOM    148  OD1 ASN d   1     -17.240   9.242  21.565  0.00  0.00    -0.274 OA
ATOM    149  ND2 ASN d   1     -18.760   8.740  23.142  0.00  0.00    -0.370 N 
ATOM    150  H55 ASN d   1     -18.131   8.113  23.602  0.00  0.00     0.159 HD
ATOM    151  H56 ASN d   1     -19.679   8.884  23.508  0.00  0.00     0.159 HD
ENDBRANCH 144 147
ENDBRANCH  76 144
BRANCH  38 152
ATOM    152  CB  LEU d   1     -30.065  11.068  10.602  0.00  0.00    -0.035 C 
ATOM    153  H13 LEU d   1     -30.216  11.939   9.948  0.00  0.00     0.037 H 
ATOM    154  H14 LEU d   1     -30.920  10.971  11.287  0.00  0.00     0.037 H 
BRANCH 152 155
ATOM    155  CG  LEU d   1     -30.002   9.826   9.737  0.00  0.00    -0.059 C 
ATOM    156  H15 LEU d   1     -29.523   9.021  10.313  0.00  0.00     0.038 H 
BRANCH 155 157
ATOM    157  CD1 LEU d   1     -31.406   9.338   9.345  0.00  0.00    -0.073 C 
ATOM    158  H16 LEU d   1     -31.320   8.437   8.719  0.00  0.00     0.028 H 
ATOM    159  H17 LEU d   1     -31.925  10.128   8.781  0.00  0.00     0.028 H 
ATOM    160  H18 LEU d   1     -31.978   9.100  10.254  0.00  0.00     0.028 H 
ENDBRANCH 155 157
BRANCH 155 161
ATOM    161  CD2 LEU d   1     -29.101  10.154   8.523  0.00  0.00    -0.073 C 
ATOM    162  H19 LEU d   1     -28.117  10.495   8.878  0.00  0.00     0.028 H 
ATOM    163  H20 LEU d   1     -29.570  10.948   7.923  0.00  0.00     0.028 H 
ATOM    164  H21 LEU d   1     -28.976   9.252   7.905  0.00  0.00     0.028 H 
ENDBRANCH 155 161
ENDBRANCH 152 155
ENDBRANCH  38 152
BRANCH  70 165
ATOM    165  CB  GLU d   1     -22.119  13.671  20.504  0.00  0.00    -0.029 C 
ATOM    166  H47 GLU d   1     -21.080  13.729  20.861  0.00  0.00     0.037 H 
ATOM    167  H48 GLU d   1     -22.736  13.153  21.253  0.00  0.00     0.037 H 
BRANCH 165 168
ATOM    168  CG  GLU d   1     -22.653  15.112  20.368  0.00  0.00     0.018 C 
ATOM    169  H49 GLU d   1     -22.363  15.502  19.381  0.00  0.00     0.049 H 
ATOM    170  H50 GLU d   1     -22.198  15.731  21.156  0.00  0.00     0.049 H 
BRANCH 168 171
ATOM    171  CD  GLU d   1     -24.172  15.196  20.498  0.00  0.00     0.172 C 
ATOM    172  OE1 GLU d   1     -24.858  14.126  20.480  0.00  0.00    -0.648 OA
ATOM    173  OE2 GLU d   1     -24.746  16.274  20.590  0.00  0.00    -0.648 OA
ENDBRANCH 168 171
ENDBRANCH 165 168
ENDBRANCH  70 165
BRANCH  58 174
ATOM    174  CB  ARG d   1     -28.665  17.864  16.357  0.00  0.00    -0.036 C 
ATOM    175  H27 ARG d   1     -29.023  18.434  15.487  0.00  0.00     0.036 H 
ATOM    176  H28 ARG d   1     -27.884  18.439  16.876  0.00  0.00     0.036 H 
BRANCH 174 177
ATOM    177  CG  ARG d   1     -29.839  17.685  17.321  0.00  0.00    -0.048 C 
ATOM    178  H29 ARG d   1     -29.475  17.226  18.252  0.00  0.00     0.035 H 
ATOM    179  H30 ARG d   1     -30.590  17.029  16.857  0.00  0.00     0.035 H 
BRANCH 177 180
ATOM    180  CD  ARG d   1     -30.484  19.038  17.646  0.00  0.00     0.009 C 
ATOM    181  H31 ARG d   1     -29.689  19.759  17.887  0.00  0.00     0.064 H 
ATOM    182  H32 ARG d   1     -31.144  18.915  18.517  0.00  0.00     0.064 H 
BRANCH 180 183
ATOM    183  NE  ARG d   1     -31.273  19.563  16.527  0.00  0.00    -0.227 N 
ATOM    184  CZ  ARG d   1     -32.234  20.428  16.686  0.00  0.00     0.665 C 
ATOM    185  NH1 ARG d   1     -32.471  20.909  17.933  0.00  0.00    -0.235 N 
ATOM    186  NH2 ARG d   1     -32.975  20.813  15.640  0.00  0.00    -0.235 N 
ATOM    187  H34 ARG d   1     -33.225  21.594  18.086  0.00  0.00     0.174 HD
ATOM    188  H35 ARG d   1     -31.897  20.589  18.726  0.00  0.00     0.174 HD
ATOM    189  H36 ARG d   1     -32.778  20.435  14.702  0.00  0.00     0.174 HD
ATOM    190  H37 ARG d   1     -33.742  21.487  15.773  0.00  0.00     0.174 HD
ATOM    191  H33 ARG d   1     -31.058  19.234  15.575  0.00  0.00     0.177 HD
ENDBRANCH 180 183
ENDBRANCH 177 180
ENDBRANCH 174 177
ENDBRANCH  58 174
TORSDOF 27
