REMARK  20 active torsions:
REMARK  status: ('A' for Active; 'I' for Inactive)
REMARK    1  A    between atoms: CA_2  and  CM_1 
REMARK    2  A    between atoms: CA_2  and  CB_3 
REMARK    3  A    between atoms: C_4  and  CA_2 
REMARK       I    between atoms: NAC_9  and  C_4 
REMARK    4  A    between atoms: CAE_7  and  CAD_6 
REMARK    5  A    between atoms: CAD_6  and  CAZ_8 
REMARK    6  A    between atoms: CAD_6  and  NAC_9 
REMARK    7  A    between atoms: CAD_6  and  CBA_11 
REMARK       I    between atoms: N_14  and  CAE_7 
REMARK    8  A    between atoms: CAZ_8  and  CBE_13 
REMARK    9  A    between atoms: CBA_11  and  CBD_12 
REMARK   10  A    between atoms: CA_15  and  N_14 
REMARK   11  A    between atoms: C_16  and  CA_15 
REMARK   12  A    between atoms: CA_15  and  CB_18 
REMARK       I    between atoms: N_25  and  C_16 
REMARK   13  A    between atoms: CB_18  and  CG_19 
REMARK   14  A    between atoms: CG_19  and  CD_20 
REMARK   15  A    between atoms: CD_20  and  NE_21 
REMARK       I    between atoms: NE_21  and  CZ_22 
REMARK       I    between atoms: CZ_22  and  NH2_24 
REMARK   16  A    between atoms: CA_27  and  N_25 
REMARK   17  A    between atoms: CA_27  and  C_28 
REMARK       I    between atoms: C_28  and  NAV_33 
REMARK   18  A    between atoms: NAV_33  and  CBF_34 
REMARK   19  A    between atoms: CBF_34  and  CBG_35 
REMARK   20  A    between atoms: CBF_34  and  CBH_36 
ROOT
ATOM      1  CA  ARG d   1       9.550  14.066 -47.905  0.00  0.00     0.089 C 
ATOM      2  H20 ARG d   1      10.399  13.455 -48.244  0.00  0.00     0.087 H 
ENDROOT
BRANCH   1   3
ATOM      3  N   ARG d   1       9.351  15.195 -48.905  0.00  0.00    -0.346 N 
ATOM      4  CAE 0XL d   1       8.503  15.236 -50.022  0.00  0.00     0.246 C 
ATOM      5  OAG 0XL d   1       7.790  14.268 -50.235  0.00  0.00    -0.271 OA
ATOM      6  H19 ARG d   1       9.897  16.017 -48.745  0.00  0.00     0.163 HD
BRANCH   4   7
ATOM      7  CAD 0XL d   1       8.363  16.546 -51.025  0.00  0.00     0.113 C 
BRANCH   7   8
ATOM      8  CAZ 0XL d   1       8.216  16.019 -52.505  0.00  0.00    -0.036 C 
ATOM      9  H8  0XL d   1       8.622  16.805 -53.159  0.00  0.00     0.036 H 
ATOM     10  H9  0XL d   1       7.138  15.906 -52.692  0.00  0.00     0.036 H 
BRANCH   8  11
ATOM     11  CBE 0XL d   1       8.876  14.702 -52.941  0.00  0.00    -0.074 C 
ATOM     12  H16 0XL d   1       8.655  14.515 -54.002  0.00  0.00     0.027 H 
ATOM     13  H17 0XL d   1       8.481  13.875 -52.333  0.00  0.00     0.027 H 
ATOM     14  H18 0XL d   1       9.965  14.773 -52.800  0.00  0.00     0.027 H 
ENDBRANCH   8  11
ENDBRANCH   7   8
BRANCH   7  15
ATOM     15  NAC 0XL d   1       7.166  17.357 -50.514  0.00  0.00    -0.343 N 
ATOM     16  C   ALQ d   1       6.447  17.107 -49.325  0.00  0.00     0.222 C 
ATOM     17  O   ALQ d   1       6.721  16.178 -48.588  0.00  0.00    -0.273 OA
ATOM     18  H10 0XL d   1       6.868  18.131 -51.072  0.00  0.00     0.163 HD
BRANCH  16  19
ATOM     19  CA  ALQ d   1       5.250  17.952 -48.826  0.00  0.00     0.017 C 
ATOM     20  H4  ALQ d   1       4.373  17.703 -49.442  0.00  0.00     0.053 H 
BRANCH  19  21
ATOM     21  CM  ALQ d   1       4.969  17.593 -47.351  0.00  0.00    -0.065 C 
ATOM     22  H1  ALQ d   1       4.119  18.188 -46.984  0.00  0.00     0.028 H 
ATOM     23  H2  ALQ d   1       5.860  17.813 -46.744  0.00  0.00     0.028 H 
ATOM     24  H3  ALQ d   1       4.728  16.523 -47.274  0.00  0.00     0.028 H 
ENDBRANCH  19  21
BRANCH  19  25
ATOM     25  CB  ALQ d   1       5.467  19.434 -48.884  0.00  0.00    -0.065 C 
ATOM     26  H5  ALQ d   1       5.671  19.734 -49.922  0.00  0.00     0.028 H 
ATOM     27  H6  ALQ d   1       6.323  19.704 -48.249  0.00  0.00     0.028 H 
ATOM     28  H7  ALQ d   1       4.565  19.951 -48.524  0.00  0.00     0.028 H 
ENDBRANCH  19  25
ENDBRANCH  16  19
ENDBRANCH   7  15
BRANCH   7  29
ATOM     29  CBA 0XL d   1       9.656  17.328 -50.788  0.00  0.00    -0.036 C 
ATOM     30  H11 0XL d   1      10.341  16.681 -50.220  0.00  0.00     0.036 H 
ATOM     31  H12 0XL d   1       9.407  18.215 -50.188  0.00  0.00     0.036 H 
BRANCH  29  32
ATOM     32  CBD 0XL d   1      10.379  17.794 -52.015  0.00  0.00    -0.074 C 
ATOM     33  H13 0XL d   1      11.287  18.340 -51.720  0.00  0.00     0.027 H 
ATOM     34  H14 0XL d   1       9.723  18.459 -52.596  0.00  0.00     0.027 H 
ATOM     35  H15 0XL d   1      10.657  16.925 -52.629  0.00  0.00     0.027 H 
ENDBRANCH  29  32
ENDBRANCH   7  29
ENDBRANCH   4   7
ENDBRANCH   1   3
BRANCH   1  36
ATOM     36  C   ARG d   1       8.263  13.112 -47.696  0.00  0.00     0.241 C 
ATOM     37  O   ARG d   1       8.496  11.934 -47.433  0.00  0.00    -0.271 OA
ATOM     38  N   AC5 d   1       6.938  13.598 -47.802  0.00  0.00    -0.341 N 
ATOM     39  H32 AC5 d   1       6.859  14.573 -48.012  0.00  0.00     0.163 HD
BRANCH  38  40
ATOM     40  CA  AC5 d   1       5.624  12.866 -47.646  0.00  0.00     0.114 C 
ATOM     41  CB1 AC5 d   1       5.631  11.979 -46.419  0.00  0.00    -0.033 C 
ATOM     42  CG1 AC5 d   1       5.512  12.984 -45.276  0.00  0.00    -0.062 C 
ATOM     43  H33 AC5 d   1       6.568  11.408 -46.348  0.00  0.00     0.037 H 
ATOM     44  H34 AC5 d   1       4.778  11.285 -46.427  0.00  0.00     0.037 H 
ATOM     45  CG2 AC5 d   1       4.546  14.073 -45.789  0.00  0.00    -0.062 C 
ATOM     46  H37 AC5 d   1       6.495  13.420 -45.042  0.00  0.00     0.033 H 
ATOM     47  H38 AC5 d   1       5.103  12.499 -44.377  0.00  0.00     0.033 H 
ATOM     48  CB2 AC5 d   1       4.518  13.914 -47.304  0.00  0.00    -0.033 C 
ATOM     49  H39 AC5 d   1       3.541  13.924 -45.368  0.00  0.00     0.033 H 
ATOM     50  H40 AC5 d   1       4.914  15.073 -45.514  0.00  0.00     0.033 H 
ATOM     51  H35 AC5 d   1       3.533  13.551 -47.632  0.00  0.00     0.037 H 
ATOM     52  H36 AC5 d   1       4.737  14.874 -47.793  0.00  0.00     0.037 H 
BRANCH  40  53
ATOM     53  C   AC5 d   1       5.174  12.179 -48.989  0.00  0.00     0.246 C 
ATOM     54  O   AC5 d   1       4.230  11.388 -48.985  0.00  0.00    -0.271 OA
ATOM     55  NAV 0XM d   1       5.842  12.465 -50.169  0.00  0.00    -0.346 N 
ATOM     56  H41 0XM d   1       6.602  13.114 -50.137  0.00  0.00     0.163 HD
BRANCH  55  57
ATOM     57  CBF 0XM d   1       5.501  11.878 -51.437  0.00  0.00     0.063 C 
ATOM     58  H42 0XM d   1       4.611  11.348 -51.067  0.00  0.00     0.088 H 
BRANCH  57  59
ATOM     59  CBG 0XM d   1       4.774  12.778 -52.419  0.00  0.00    -0.031 A 
ATOM     60  CBN 0XM d   1       4.056  12.189 -53.461  0.00  0.00    -0.074 A 
ATOM     61  CBO 0XM d   1       3.370  12.972 -54.376  0.00  0.00    -0.082 A 
ATOM     62  H48 0XM d   1       4.035  11.109 -53.556  0.00  0.00     0.084 H 
ATOM     63  CBP 0XM d   1       3.380  14.354 -54.257  0.00  0.00    -0.083 A 
ATOM     64  H49 0XM d   1       2.824  12.503 -55.187  0.00  0.00     0.083 H 
ATOM     65  CBQ 0XM d   1       4.081  14.952 -53.224  0.00  0.00    -0.082 A 
ATOM     66  H50 0XM d   1       2.840  14.964 -54.972  0.00  0.00     0.083 H 
ATOM     67  CBR 0XM d   1       4.764  14.170 -52.304  0.00  0.00    -0.074 A 
ATOM     68  H51 0XM d   1       4.096  16.032 -53.134  0.00  0.00     0.083 H 
ATOM     69  H52 0XM d   1       5.296  14.644 -51.487  0.00  0.00     0.084 H 
ENDBRANCH  57  59
BRANCH  57  70
ATOM     70  CBH 0XM d   1       6.184  10.614 -52.016  0.00  0.00    -0.031 A 
ATOM     71  CBI 0XM d   1       5.468   9.453 -52.336  0.00  0.00    -0.074 A 
ATOM     72  CBJ 0XM d   1       6.107   8.318 -52.835  0.00  0.00    -0.082 A 
ATOM     73  H43 0XM d   1       4.394   9.436 -52.193  0.00  0.00     0.084 H 
ATOM     74  CBK 0XM d   1       7.491   8.303 -53.019  0.00  0.00    -0.083 A 
ATOM     75  H44 0XM d   1       5.523   7.439 -53.082  0.00  0.00     0.083 H 
ATOM     76  CBL 0XM d   1       8.235   9.447 -52.697  0.00  0.00    -0.082 A 
ATOM     77  H45 0XM d   1       7.984   7.418 -53.406  0.00  0.00     0.083 H 
ATOM     78  CBM 0XM d   1       7.592  10.584 -52.202  0.00  0.00    -0.074 A 
ATOM     79  H46 0XM d   1       9.310   9.449 -52.832  0.00  0.00     0.083 H 
ATOM     80  H47 0XM d   1       8.179  11.461 -51.955  0.00  0.00     0.084 H 
ENDBRANCH  57  70
ENDBRANCH  55  57
ENDBRANCH  40  53
ENDBRANCH  38  40
ENDBRANCH   1  36
BRANCH   1  81
ATOM     81  CB  ARG d   1       9.850  14.664 -46.465  0.00  0.00    -0.036 C 
ATOM     82  H21 ARG d   1       8.964  15.235 -46.151  0.00  0.00     0.036 H 
ATOM     83  H22 ARG d   1      10.710  15.343 -46.560  0.00  0.00     0.036 H 
BRANCH  81  84
ATOM     84  CG  ARG d   1      10.176  13.651 -45.340  0.00  0.00    -0.048 C 
ATOM     85  H23 ARG d   1      11.044  13.056 -45.660  0.00  0.00     0.035 H 
ATOM     86  H24 ARG d   1       9.305  12.991 -45.214  0.00  0.00     0.035 H 
BRANCH  84  87
ATOM     87  CD  ARG d   1      10.513  14.287 -43.934  0.00  0.00     0.009 C 
ATOM     88  H25 ARG d   1      10.566  13.478 -43.191  0.00  0.00     0.064 H 
ATOM     89  H26 ARG d   1       9.704  14.981 -43.664  0.00  0.00     0.064 H 
BRANCH  87  90
ATOM     90  NE  ARG d   1      11.779  15.021 -43.909  0.00  0.00    -0.227 N 
ATOM     91  CZ  ARG d   1      12.953  14.352 -44.340  0.00  0.00     0.665 C 
ATOM     92  NH1 ARG d   1      14.188  14.797 -44.420  0.00  0.00    -0.235 N 
ATOM     93  NH2 ARG d   1      12.740  13.009 -44.733  0.00  0.00    -0.235 N 
ATOM     94  H28 ARG d   1      14.938  14.177 -44.758  0.00  0.00     0.174 HD
ATOM     95  H29 ARG d   1      14.405  15.765 -44.145  0.00  0.00     0.174 HD
ATOM     96  H30 ARG d   1      11.794  12.604 -44.692  0.00  0.00     0.174 HD
ATOM     97  H31 ARG d   1      13.531  12.436 -45.060  0.00  0.00     0.174 HD
ATOM     98  H27 ARG d   1      11.816  15.998 -43.587  0.00  0.00     0.177 HD
ENDBRANCH  87  90
ENDBRANCH  84  87
ENDBRANCH  81  84
ENDBRANCH   1  81
TORSDOF 20
