REMARK  20 active torsions:
REMARK  status: ('A' for Active; 'I' for Inactive)
REMARK    1  A    between atoms: CA_2  and  CM_1 
REMARK    2  A    between atoms: CA_2  and  CB_3 
REMARK    3  A    between atoms: C_4  and  CA_2 
REMARK       I    between atoms: NAC_9  and  C_4 
REMARK    4  A    between atoms: CAE_7  and  CAD_6 
REMARK    5  A    between atoms: CAD_6  and  CAZ_8 
REMARK    6  A    between atoms: CAD_6  and  NAC_9 
REMARK    7  A    between atoms: CAD_6  and  CBA_11 
REMARK       I    between atoms: N_14  and  CAE_7 
REMARK    8  A    between atoms: CAZ_8  and  CBE_13 
REMARK    9  A    between atoms: CBA_11  and  CBD_12 
REMARK   10  A    between atoms: CA_15  and  N_14 
REMARK   11  A    between atoms: C_16  and  CA_15 
REMARK   12  A    between atoms: CA_15  and  CB_18 
REMARK       I    between atoms: N_25  and  C_16 
REMARK   13  A    between atoms: CB_18  and  CG_19 
REMARK   14  A    between atoms: CG_19  and  CD_20 
REMARK   15  A    between atoms: CD_20  and  NE_21 
REMARK       I    between atoms: NE_21  and  CZ_22 
REMARK       I    between atoms: CZ_22  and  NH1_23 
REMARK   16  A    between atoms: CA_27  and  N_25 
REMARK   17  A    between atoms: CA_27  and  C_28 
REMARK       I    between atoms: C_28  and  NAV_33 
REMARK   18  A    between atoms: NAV_33  and  CBF_34 
REMARK   19  A    between atoms: CBF_34  and  CBG_35 
REMARK   20  A    between atoms: CBF_34  and  CBH_36 
ROOT
ATOM      1  CA  ARG d   1      14.936 -12.825  35.318  0.00  0.00     0.076 C 
ATOM      2  H20 ARG d   1      15.719 -12.284  35.869  0.00  0.00     0.085 H 
ENDROOT
BRANCH   1   3
ATOM      3  N   ARG d   1      14.635 -14.069  36.099  0.00  0.00    -0.358 N 
ATOM      4  CAE 0XL d   1      14.132 -13.972  37.384  0.00  0.00     0.180 C 
ATOM      5  OAG 0XL d   1      13.748 -12.995  38.230  0.00  0.00    -0.175 OA
ATOM      6  H19 ARG d   1      14.798 -14.968  35.691  0.00  0.00     0.162 HD
BRANCH   4   7
ATOM      7  CAD 0XL d   1      13.972 -15.379  38.048  0.00  0.00     0.099 C 
BRANCH   7   8
ATOM      8  CAZ 0XL d   1      13.392 -15.097  39.391  0.00  0.00    -0.037 C 
ATOM      9  H8  0XL d   1      12.501 -14.467  39.253  0.00  0.00     0.036 H 
ATOM     10  H9  0XL d   1      14.142 -14.548  39.979  0.00  0.00     0.036 H 
BRANCH   8  11
ATOM     11  CBE 0XL d   1      12.984 -16.323  40.176  0.00  0.00    -0.074 C 
ATOM     12  H16 0XL d   1      12.570 -16.015  41.147  0.00  0.00     0.027 H 
ATOM     13  H17 0XL d   1      13.863 -16.964  40.339  0.00  0.00     0.027 H 
ATOM     14  H18 0XL d   1      12.222 -16.882  39.613  0.00  0.00     0.027 H 
ENDBRANCH   8  11
ENDBRANCH   7   8
BRANCH   7  15
ATOM     15  NAC 0XL d   1      12.997 -16.269  37.339  0.00  0.00    -0.355 N 
ATOM     16  C   ALQ d   1      11.975 -15.646  36.639  0.00  0.00     0.155 C 
ATOM     17  O   ALQ d   1      11.491 -14.407  36.473  0.00  0.00    -0.177 OA
ATOM     18  H10 0XL d   1      13.079 -17.265  37.369  0.00  0.00     0.162 HD
BRANCH  16  19
ATOM     19  CA  ALQ d   1      11.111 -16.602  35.781  0.00  0.00     0.004 C 
ATOM     20  H4  ALQ d   1      10.171 -16.067  35.578  0.00  0.00     0.051 H 
BRANCH  19  21
ATOM     21  CM  ALQ d   1      11.735 -16.873  34.445  0.00  0.00    -0.066 C 
ATOM     22  H1  ALQ d   1      11.090 -17.554  33.870  0.00  0.00     0.028 H 
ATOM     23  H2  ALQ d   1      12.722 -17.337  34.589  0.00  0.00     0.028 H 
ATOM     24  H3  ALQ d   1      11.851 -15.927  33.896  0.00  0.00     0.028 H 
ENDBRANCH  19  21
BRANCH  19  25
ATOM     25  CB  ALQ d   1      10.721 -17.869  36.517  0.00  0.00    -0.066 C 
ATOM     26  H5  ALQ d   1      10.271 -17.607  37.486  0.00  0.00     0.028 H 
ATOM     27  H6  ALQ d   1      11.616 -18.486  36.684  0.00  0.00     0.028 H 
ATOM     28  H7  ALQ d   1       9.993 -18.433  35.915  0.00  0.00     0.028 H 
ENDBRANCH  19  25
ENDBRANCH  16  19
ENDBRANCH   7  15
BRANCH   7  29
ATOM     29  CBA 0XL d   1      15.301 -16.068  38.131  0.00  0.00    -0.037 C 
ATOM     30  H11 0XL d   1      15.822 -15.991  37.166  0.00  0.00     0.036 H 
ATOM     31  H12 0XL d   1      15.156 -17.128  38.386  0.00  0.00     0.036 H 
BRANCH  29  32
ATOM     32  CBD 0XL d   1      16.112 -15.390  39.206  0.00  0.00    -0.074 C 
ATOM     33  H13 0XL d   1      17.094 -15.878  39.287  0.00  0.00     0.027 H 
ATOM     34  H14 0XL d   1      15.584 -15.467  40.168  0.00  0.00     0.027 H 
ATOM     35  H15 0XL d   1      16.250 -14.330  38.948  0.00  0.00     0.027 H 
ENDBRANCH  29  32
ENDBRANCH   7  29
ENDBRANCH   4   7
ENDBRANCH   1   3
BRANCH   1  36
ATOM     36  C   ARG d   1      13.758 -11.830  35.156  0.00  0.00     0.175 C 
ATOM     37  O   ARG d   1      14.224 -10.578  35.161  0.00  0.00    -0.175 OA
ATOM     38  N   AC5 d   1      12.547 -12.488  35.084  0.00  0.00    -0.353 N 
ATOM     39  H32 AC5 d   1      12.529 -13.487  35.112  0.00  0.00     0.162 HD
BRANCH  38  40
ATOM     40  CA  AC5 d   1      11.250 -11.726  34.963  0.00  0.00     0.099 C 
ATOM     41  CB1 AC5 d   1      11.340 -10.880  33.751  0.00  0.00    -0.034 C 
ATOM     42  CG1 AC5 d   1      11.106 -11.870  32.635  0.00  0.00    -0.062 C 
ATOM     43  H33 AC5 d   1      12.333 -10.414  33.666  0.00  0.00     0.037 H 
ATOM     44  H34 AC5 d   1      10.567 -10.098  33.755  0.00  0.00     0.037 H 
ATOM     45  CG2 AC5 d   1      10.616 -13.148  33.260  0.00  0.00    -0.062 C 
ATOM     46  H37 AC5 d   1      12.045 -12.053  32.092  0.00  0.00     0.033 H 
ATOM     47  H38 AC5 d   1      10.350 -11.479  31.938  0.00  0.00     0.033 H 
ATOM     48  CB2 AC5 d   1      10.233 -12.735  34.666  0.00  0.00    -0.034 C 
ATOM     49  H39 AC5 d   1       9.745 -13.542  32.716  0.00  0.00     0.033 H 
ATOM     50  H40 AC5 d   1      11.412 -13.907  33.277  0.00  0.00     0.033 H 
ATOM     51  H35 AC5 d   1       9.221 -12.306  34.697  0.00  0.00     0.037 H 
ATOM     52  H36 AC5 d   1      10.293 -13.583  35.364  0.00  0.00     0.037 H 
BRANCH  40  53
ATOM     53  C   AC5 d   1      10.855 -10.837  36.202  0.00  0.00     0.180 C 
ATOM     54  O   AC5 d   1       9.781 -10.089  35.901  0.00  0.00    -0.175 OA
ATOM     55  NAV 0XN d   1      11.668 -10.950  37.342  0.00  0.00    -0.357 N 
ATOM     56  H41 0XN d   1      12.508 -11.492  37.352  0.00  0.00     0.162 HD
BRANCH  55  57
ATOM     57  CBF 0XN d   1      11.185 -10.205  38.528  0.00  0.00     0.062 C 
ATOM     58  H42 0XN d   1      10.372  -9.534  38.215  0.00  0.00     0.088 H 
BRANCH  57  59
ATOM     59  CBG 0XN d   1      10.601 -11.282  39.418  0.00  0.00    -0.031 A 
ATOM     60  CBN 0XN d   1       9.451 -11.128  40.184  0.00  0.00    -0.072 A 
ATOM     61  CBO 0XN d   1       8.995 -12.230  40.936  0.00  0.00    -0.045 A 
ATOM     62  H47 0XN d   1       8.918 -10.184  40.203  0.00  0.00     0.084 H 
ATOM     63  CBP 0XN d   1       9.681 -13.457  40.890  0.00  0.00     0.116 A 
ATOM     64  H48 0XN d   1       8.110 -12.131  41.554  0.00  0.00     0.088 H 
ATOM     65  CBQ 0XN d   1      10.802 -13.594  40.105  0.00  0.00    -0.045 A 
ATOM     66  F02 0XN d   1       9.294 -14.520  41.589  0.00  0.00    -0.206 F 
ATOM     67  CBR 0XN d   1      11.258 -12.507  39.360  0.00  0.00    -0.072 A 
ATOM     68  H49 0XN d   1      11.328 -14.541  40.066  0.00  0.00     0.088 H 
ATOM     69  H50 0XN d   1      12.133 -12.617  38.730  0.00  0.00     0.084 H 
ENDBRANCH  57  59
BRANCH  57  70
ATOM     70  CBH 0XN d   1      12.253  -9.318  39.185  0.00  0.00    -0.031 A 
ATOM     71  CBI 0XN d   1      12.197  -7.928  38.942  0.00  0.00    -0.072 A 
ATOM     72  CBJ 0XN d   1      13.138  -7.053  39.504  0.00  0.00    -0.045 A 
ATOM     73  H43 0XN d   1      11.412  -7.530  38.309  0.00  0.00     0.084 H 
ATOM     74  CBK 0XN d   1      14.145  -7.578  40.311  0.00  0.00     0.116 A 
ATOM     75  H44 0XN d   1      13.083  -5.987  39.314  0.00  0.00     0.088 H 
ATOM     76  CBL 0XN d   1      14.217  -8.966  40.558  0.00  0.00    -0.045 A 
ATOM     77  F01 0XN d   1      15.038  -6.743  40.840  0.00  0.00    -0.206 F 
ATOM     78  CBM 0XN d   1      13.265  -9.844  39.991  0.00  0.00    -0.072 A 
ATOM     79  H45 0XN d   1      15.007  -9.361  41.186  0.00  0.00     0.088 H 
ATOM     80  H46 0XN d   1      13.320 -10.910  40.179  0.00  0.00     0.084 H 
ENDBRANCH  57  70
ENDBRANCH  55  57
ENDBRANCH  40  53
ENDBRANCH  38  40
ENDBRANCH   1  36
BRANCH   1  81
ATOM     81  CB  ARG d   1      15.514 -13.237  33.993  0.00  0.00    -0.037 C 
ATOM     82  H21 ARG d   1      14.696 -13.493  33.304  0.00  0.00     0.036 H 
ATOM     83  H22 ARG d   1      16.161 -14.115  34.137  0.00  0.00     0.036 H 
BRANCH  81  84
ATOM     84  CG  ARG d   1      16.322 -12.119  33.407  0.00  0.00    -0.048 C 
ATOM     85  H23 ARG d   1      17.376 -12.210  33.709  0.00  0.00     0.035 H 
ATOM     86  H24 ARG d   1      15.928 -11.148  33.740  0.00  0.00     0.035 H 
BRANCH  84  87
ATOM     87  CD  ARG d   1      16.191 -12.253  31.896  0.00  0.00     0.009 C 
ATOM     88  H25 ARG d   1      16.570 -11.341  31.411  0.00  0.00     0.064 H 
ATOM     89  H26 ARG d   1      15.134 -12.398  31.630  0.00  0.00     0.064 H 
BRANCH  87  90
ATOM     90  NE  ARG d   1      16.982 -13.422  31.441  0.00  0.00    -0.227 N 
ATOM     91  CZ  ARG d   1      18.358 -13.343  31.547  0.00  0.00     0.665 C 
ATOM     92  NH1 ARG d   1      18.957 -12.106  31.542  0.00  0.00    -0.235 N 
ATOM     93  NH2 ARG d   1      19.504 -14.055  31.482  0.00  0.00    -0.235 N 
ATOM     94  H28 ARG d   1      19.981 -12.029  31.620  0.00  0.00     0.174 HD
ATOM     95  H29 ARG d   1      18.382 -11.256  31.460  0.00  0.00     0.174 HD
ATOM     96  H30 ARG d   1      19.471 -15.084  31.465  0.00  0.00     0.174 HD
ATOM     97  H31 ARG d   1      20.411 -13.569  31.449  0.00  0.00     0.174 HD
ATOM     98  H27 ARG d   1      16.523 -14.262  31.060  0.00  0.00     0.177 HD
ENDBRANCH  87  90
ENDBRANCH  84  87
ENDBRANCH  81  84
ENDBRANCH   1  81
TORSDOF 20
