REMARK  7 active torsions:
REMARK  status: ('A' for Active; 'I' for Inactive)
REMARK    1  A    between atoms: C1_1  and  C21_21 
REMARK    2  A    between atoms: N7_7  and  C24_24 
REMARK    3  A    between atoms: C8_8  and  C16_16 
REMARK    4  A    between atoms: C9_9  and  C10_10 
REMARK       I    between atoms: C21_21  and  N23_23 
REMARK    5  A    between atoms: N23_23  and  S36_33 
REMARK    6  A    between atoms: C24_24  and  C25_25 
REMARK       I    between atoms: C25_25  and  N27_27 
REMARK    7  A    between atoms: S36_33  and  C39_36 
ROOT
ATOM      1  C1  1BI d   1     -23.739 -16.906 -30.458  0.00  0.00     0.035 A 
ATOM      2  C2  1BI d   1     -25.117 -16.400 -30.371  0.00  0.00    -0.041 A 
ATOM      3  C3  1BI d   1     -25.436 -15.233 -29.541  0.00  0.00     0.047 A 
ATOM      4  C4  1BI d   1     -24.371 -14.579 -28.802  0.00  0.00    -0.000 A 
ATOM      5  C5  1BI d   1     -22.984 -15.091 -28.891  0.00  0.00    -0.069 A 
ATOM      6  C6  1BI d   1     -22.679 -16.242 -29.717  0.00  0.00    -0.067 A 
ATOM      7  N7  1BI d   1     -26.668 -14.551 -29.271  0.00  0.00    -0.336 N 
ATOM      8  C8  1BI d   1     -26.392 -13.459 -28.361  0.00  0.00     0.055 A 
ATOM      9  C9  1BI d   1     -24.970 -13.467 -28.054  0.00  0.00    -0.014 A 
ATOM     10  H1  1BI d   1     -25.906 -16.895 -30.926  0.00  0.00     0.088 H 
ATOM     11  H2  1BI d   1     -22.192 -14.602 -28.335  0.00  0.00     0.085 H 
ATOM     12  H3  1BI d   1     -21.661 -16.608 -29.782  0.00  0.00     0.085 H 
ENDROOT
BRANCH   7  13
ATOM     13  C24 1BI d   1     -28.034 -14.901 -29.841  0.00  0.00     0.074 C 
ATOM     14  H19 1BI d   1     -28.770 -14.211 -29.402  0.00  0.00     0.079 H 
ATOM     15  H20 1BI d   1     -28.272 -15.932 -29.540  0.00  0.00     0.079 H 
BRANCH  13  16
ATOM     16  C25 1BI d   1     -28.164 -14.813 -31.412  0.00  0.00     0.238 C 
ATOM     17  O26 1BI d   1     -27.199 -14.368 -32.098  0.00  0.00    -0.272 OA
ATOM     18  N27 1BI d   1     -29.401 -15.250 -32.085  0.00  0.00    -0.347 N 
ATOM     19  C28 1BI d   1     -30.594 -15.792 -31.289  0.00  0.00     0.017 C 
ATOM     20  C32 1BI d   1     -29.508 -15.168 -33.585  0.00  0.00     0.017 C 
ATOM     21  C29 1BI d   1     -31.915 -15.064 -31.693  0.00  0.00     0.034 C 
ATOM     22  H21 1BI d   1     -30.411 -15.635 -30.216  0.00  0.00     0.067 H 
ATOM     23  H22 1BI d   1     -30.701 -16.868 -31.490  0.00  0.00     0.067 H 
ATOM     24  O30 1BI d   1     -32.085 -14.948 -33.258  0.00  0.00    -0.388 OA
ATOM     25  H23 1BI d   1     -31.906 -14.052 -31.263  0.00  0.00     0.076 H 
ATOM     26  H24 1BI d   1     -32.767 -15.628 -31.286  0.00  0.00     0.076 H 
ATOM     27  C31 1BI d   1     -30.804 -14.442 -34.030  0.00  0.00     0.034 C 
ATOM     28  H25 1BI d   1     -30.684 -13.364 -33.844  0.00  0.00     0.076 H 
ATOM     29  H26 1BI d   1     -30.951 -14.614 -35.106  0.00  0.00     0.076 H 
ATOM     30  H27 1BI d   1     -29.511 -16.187 -33.998  0.00  0.00     0.067 H 
ATOM     31  H28 1BI d   1     -28.639 -14.617 -33.974  0.00  0.00     0.067 H 
ENDBRANCH  13  16
ENDBRANCH   7  13
BRANCH   8  32
ATOM     32  C16 1BI d   1     -27.406 -12.522 -27.821  0.00  0.00     0.015 A 
ATOM     33  C17 1BI d   1     -28.303 -11.695 -28.560  0.00  0.00    -0.048 A 
ATOM     34  C18 1BI d   1     -29.054 -11.002 -27.622  0.00  0.00     0.019 A 
ATOM     35  H15 1BI d   1     -28.382 -11.622 -29.644  0.00  0.00     0.087 H 
ATOM     36  O19 1BI d   1     -28.670 -11.354 -26.347  0.00  0.00    -0.334 OA
ATOM     37  H16 1BI d   1     -29.836 -10.282 -27.860  0.00  0.00     0.123 H 
ATOM     38  C20 1BI d   1     -27.665 -12.281 -26.478  0.00  0.00     0.030 A 
ATOM     39  H17 1BI d   1     -27.146 -12.758 -25.648  0.00  0.00     0.124 H 
ENDBRANCH   8  32
BRANCH   9  40
ATOM     40  C10 1BI d   1     -24.197 -12.470 -27.105  0.00  0.00    -0.025 C 
ATOM     41  C11 1BI d   1     -23.628 -13.222 -25.840  0.00  0.00    -0.058 C 
ATOM     42  C12 1BI d   1     -22.828 -12.287 -24.890  0.00  0.00    -0.064 C 
ATOM     43  H5  1BI d   1     -22.962 -14.029 -26.181  0.00  0.00     0.034 H 
ATOM     44  H6  1BI d   1     -24.471 -13.654 -25.280  0.00  0.00     0.034 H 
ATOM     45  C13 1BI d   1     -21.707 -11.507 -25.638  0.00  0.00    -0.065 C 
ATOM     46  H7  1BI d   1     -22.368 -12.896 -24.098  0.00  0.00     0.033 H 
ATOM     47  H8  1BI d   1     -23.522 -11.563 -24.438  0.00  0.00     0.033 H 
ATOM     48  C14 1BI d   1     -22.199 -10.785 -26.934  0.00  0.00    -0.064 C 
ATOM     49  H9  1BI d   1     -20.916 -12.219 -25.916  0.00  0.00     0.033 H 
ATOM     50  H10 1BI d   1     -21.295 -10.750 -24.954  0.00  0.00     0.033 H 
ATOM     51  C15 1BI d   1     -23.031 -11.706 -27.875  0.00  0.00    -0.058 C 
ATOM     52  H11 1BI d   1     -21.320 -10.424 -27.488  0.00  0.00     0.033 H 
ATOM     53  H12 1BI d   1     -22.825  -9.929 -26.641  0.00  0.00     0.033 H 
ATOM     54  H13 1BI d   1     -23.477 -11.089 -28.668  0.00  0.00     0.034 H 
ATOM     55  H14 1BI d   1     -22.358 -12.451 -28.325  0.00  0.00     0.034 H 
ATOM     56  H4  1BI d   1     -24.917 -11.716 -26.755  0.00  0.00     0.047 H 
ENDBRANCH   9  40
BRANCH   1  57
ATOM     57  C21 1BI d   1     -23.412 -18.124 -31.329  0.00  0.00     0.265 C 
ATOM     58  O22 1BI d   1     -22.310 -18.734 -31.391  0.00  0.00    -0.267 OA
ATOM     59  N23 1BI d   1     -24.652 -18.437 -32.105  0.00  0.00    -0.246 N 
ATOM     60  H18 1BI d   1     -25.483 -17.895 -31.983  0.00  0.00     0.182 HD
BRANCH  59  61
ATOM     61  S36 1BI d   1     -24.616 -19.616 -33.098  0.00  0.00     0.265 S 
ATOM     62  O37 1BI d   1     -23.948 -20.683 -32.577  0.00  0.00    -0.200 OA
ATOM     63  O38 1BI d   1     -25.911 -19.961 -33.387  0.00  0.00    -0.200 OA
BRANCH  61  64
ATOM     64  C39 1BI d   1     -23.777 -19.035 -34.606  0.00  0.00     0.080 A 
ATOM     65  C40 1BI d   1     -22.363 -18.791 -34.577  0.00  0.00    -0.060 A 
ATOM     66  C41 1BI d   1     -21.683 -18.331 -35.747  0.00  0.00    -0.082 A 
ATOM     67  H29 1BI d   1     -21.807 -18.957 -33.661  0.00  0.00     0.085 H 
ATOM     68  C42 1BI d   1     -22.429 -18.114 -36.960  0.00  0.00    -0.083 A 
ATOM     69  H30 1BI d   1     -20.615 -18.147 -35.722  0.00  0.00     0.083 H 
ATOM     70  C43 1BI d   1     -23.852 -18.359 -36.996  0.00  0.00    -0.082 A 
ATOM     71  H31 1BI d   1     -21.919 -17.765 -37.851  0.00  0.00     0.083 H 
ATOM     72  C44 1BI d   1     -24.524 -18.818 -35.816  0.00  0.00    -0.060 A 
ATOM     73  H32 1BI d   1     -24.409 -18.197 -37.911  0.00  0.00     0.083 H 
ATOM     74  H33 1BI d   1     -25.592 -19.001 -35.835  0.00  0.00     0.085 H 
ENDBRANCH  61  64
ENDBRANCH  59  61
ENDBRANCH   1  57
TORSDOF 7
