REMARK  4 active torsions:
REMARK  status: ('A' for Active; 'I' for Inactive)
REMARK    1  A    between atoms: C8_5  and  C4_1 
REMARK    2  A    between atoms: N10_13  and  C11_4 
REMARK       I    between atoms: C8_5  and  N10_13 
REMARK    3  A    between atoms: C15_15  and  N17_17 
REMARK       I    between atoms: N17_17  and  C18_18 
REMARK    4  A    between atoms: C18_18  and  C20_20 
ROOT
ATOM      1  C11 0X5 d   1       9.348 -25.515   5.104  0.00  0.00     0.040 A 
ATOM      2  C12 0X5 d   1       9.914 -26.790   5.158  0.00  0.00    -0.040 A 
ATOM      3  C13 0X5 d   1       9.112 -27.907   5.274  0.00  0.00     0.007 A 
ATOM      4  N14 0X5 d   1       7.796 -27.779   5.327  0.00  0.00    -0.243 NA
ATOM      5  C15 0X5 d   1       7.209 -26.589   5.276  0.00  0.00     0.131 A 
ATOM      6  C16 0X5 d   1       7.972 -25.442   5.187  0.00  0.00    -0.013 A 
ATOM      7  H2  0X5 d   1      10.991 -26.903   5.109  0.00  0.00     0.089 H 
ATOM      8  H3  0X5 d   1       9.561 -28.892   5.322  0.00  0.00     0.114 H 
ATOM      9  H7  0X5 d   1       7.485 -24.473   5.182  0.00  0.00     0.092 H 
ENDROOT
BRANCH   1  10
ATOM     10  N10 0X5 d   1      10.046 -24.304   5.025  0.00  0.00    -0.323 N 
ATOM     11  C8  0X5 d   1      11.378 -24.144   4.918  0.00  0.00     0.259 C 
ATOM     12  O9  0X5 d   1      12.139 -25.094   4.857  0.00  0.00    -0.267 OA
ATOM     13  H6  0X5 d   1       9.496 -23.469   5.051  0.00  0.00     0.169 HD
BRANCH  11  14
ATOM     14  C4  0X5 d   1      11.925 -22.763   4.880  0.00  0.00     0.075 A 
ATOM     15  C5  0X5 d   1      11.707 -21.900   3.793  0.00  0.00     0.051 A 
ATOM     16  C6  0X5 d   1      12.237 -20.626   3.814  0.00  0.00    -0.061 A 
ATOM     17 CL1  0X5 d   1      10.784 -22.371   2.403  0.00  0.00    -0.083 Cl
ATOM     18  C1  0X5 d   1      12.974 -20.180   4.891  0.00  0.00    -0.080 A 
ATOM     19  H1  0X5 d   1      12.071 -19.965   2.971  0.00  0.00     0.086 H 
ATOM     20  C2  0X5 d   1      13.191 -21.012   5.969  0.00  0.00    -0.061 A 
ATOM     21  H4  0X5 d   1      13.383 -19.176   4.890  0.00  0.00     0.083 H 
ATOM     22  C3  0X5 d   1      12.670 -22.289   5.971  0.00  0.00     0.051 A 
ATOM     23  H5  0X5 d   1      13.771 -20.662   6.815  0.00  0.00     0.086 H 
ATOM     24 CL2  0X5 d   1      12.957 -23.298   7.352  0.00  0.00    -0.083 Cl
ENDBRANCH  11  14
ENDBRANCH   1  10
BRANCH   5  25
ATOM     25  N17 0X5 d   1       5.817 -26.489   5.346  0.00  0.00    -0.311 N 
ATOM     26  C18 0X5 d   1       5.106 -25.420   4.897  0.00  0.00     0.227 C 
ATOM     27  O19 0X5 d   1       5.592 -24.430   4.379  0.00  0.00    -0.273 OA
ATOM     28  H8  0X5 d   1       5.312 -27.251   5.752  0.00  0.00     0.170 HD
BRANCH  26  29
ATOM     29  C20 0X5 d   1       3.615 -25.425   5.016  0.00  0.00     0.024 A 
ATOM     30  C21 0X5 d   1       2.959 -24.066   5.262  0.00  0.00    -0.053 A 
ATOM     31  C22 0X5 d   1       2.897 -24.711   3.880  0.00  0.00    -0.053 A 
ATOM     32  H10 0X5 d   1       3.583 -23.175   5.426  0.00  0.00     0.034 H 
ATOM     33  H11 0X5 d   1       2.051 -23.997   5.878  0.00  0.00     0.034 H 
ATOM     34  H12 0X5 d   1       1.943 -25.105   3.500  0.00  0.00     0.034 H 
ATOM     35  H13 0X5 d   1       3.475 -24.283   3.048  0.00  0.00     0.034 H 
ATOM     36  H9  0X5 d   1       3.233 -26.350   5.472  0.00  0.00     0.054 H 
ENDBRANCH  26  29
ENDBRANCH   5  25
TORSDOF 4
