REMARK  31 active torsions:
REMARK  status: ('A' for Active; 'I' for Inactive)
REMARK    1  A    between atoms: N_1  and  CA_2 
REMARK    2  A    between atoms: CA_2  and  C_3 
REMARK    3  A    between atoms: CA_2  and  CB_5 
REMARK       I    between atoms: C_3  and  N_6 
REMARK    4  A    between atoms: N_6  and  CA_7 
REMARK    5  A    between atoms: CA_7  and  C_8 
REMARK    6  A    between atoms: CA_7  and  CB_10 
REMARK       I    between atoms: C_8  and  N_17 
REMARK    7  A    between atoms: CB_10  and  CG_11 
REMARK    8  A    between atoms: CG_11  and  CD_12 
REMARK    9  A    between atoms: CD_12  and  NE_13 
REMARK       I    between atoms: NE_13  and  CZ_14 
REMARK       I    between atoms: CZ_14  and  NH1_15 
REMARK   10  A    between atoms: N_17  and  CA_18 
REMARK   11  A    between atoms: CA_18  and  C_19 
REMARK   12  A    between atoms: CA_18  and  CB_21 
REMARK       I    between atoms: C_19  and  N_24 
REMARK   13  A    between atoms: CB_21  and  OG1_22 
REMARK   14  A    between atoms: CB_21  and  CG2_23 
REMARK   15  A    between atoms: N_24  and  CA_25 
REMARK   16  A    between atoms: CA_25  and  C_26 
REMARK   17  A    between atoms: CA_25  and  CB_28 
REMARK       I    between atoms: C_26  and  N_33 
REMARK   18  A    between atoms: CB_28  and  CG_29 
REMARK   19  A    between atoms: CG_29  and  CD_30 
REMARK   20  A    between atoms: CD_30  and  CE_31 
REMARK   21  A    between atoms: CE_31  and  NZ_32 
REMARK   22  A    between atoms: N_33  and  CA_34 
REMARK   23  A    between atoms: CA_34  and  C_35 
REMARK   24  A    between atoms: CA_34  and  CB_37 
REMARK       I    between atoms: C_35  and  N_42 
REMARK   25  A    between atoms: CB_37  and  CG_38 
REMARK   26  A    between atoms: CG_38  and  CD_39 
REMARK       I    between atoms: CD_39  and  NE2_41 
REMARK   27  A    between atoms: N_42  and  CA_43 
REMARK   28  A    between atoms: CA_43  and  C_44 
REMARK   29  A    between atoms: CA_43  and  CB_46 
REMARK   30  A    between atoms: CB_46  and  OG1_47 
REMARK   31  A    between atoms: CB_46  and  CG2_48 
ROOT
ATOM      1  C   THR d   1       9.407 -21.741  11.301  0.00  0.00     0.243 C 
ATOM      2  O   THR d   1      10.647 -21.770  11.243  0.00  0.00    -0.271 OA
ATOM      3  N   LYS d   1       8.711 -20.617  11.238  0.00  0.00    -0.346 N 
ATOM      4  H28 LYS d   1       7.720 -20.666  11.114  0.00  0.00     0.163 HD
ENDROOT
BRANCH   3   5
ATOM      5  CA  LYS d   1       9.342 -19.322  11.343  0.00  0.00     0.089 C 
ATOM      6  H29 LYS d   1      10.382 -19.449  11.677  0.00  0.00     0.087 H 
BRANCH   5   7
ATOM      7  C   LYS d   1       8.566 -18.524  12.387  0.00  0.00     0.241 C 
ATOM      8  O   LYS d   1       7.434 -18.882  12.749  0.00  0.00    -0.271 OA
ATOM      9  N   GLN d   1       9.183 -17.454  12.873  0.00  0.00    -0.346 N 
ATOM     10  H41 GLN d   1      10.093 -17.224  12.528  0.00  0.00     0.163 HD
BRANCH   9  11
ATOM     11  CA  GLN d   1       8.585 -16.608  13.885  0.00  0.00     0.090 C 
ATOM     12  H42 GLN d   1       7.566 -16.959  14.106  0.00  0.00     0.087 H 
BRANCH  11  13
ATOM     13  C   GLN d   1       8.534 -15.190  13.356  0.00  0.00     0.241 C 
ATOM     14  O   GLN d   1       9.536 -14.680  12.844  0.00  0.00    -0.271 OA
ATOM     15  N   THR d   1       7.367 -14.562  13.476  0.00  0.00    -0.343 N 
ATOM     16  H49 THR d   1       6.579 -15.068  13.826  0.00  0.00     0.163 HD
BRANCH  15  17
ATOM     17  CA  THR d   1       7.201 -13.153  13.112  0.00  0.00     0.120 C 
ATOM     18  H50 THR d   1       8.196 -12.750  12.873  0.00  0.00     0.093 H 
BRANCH  17  19
ATOM     19  C   THR d   1       6.617 -12.324  14.254  0.00  0.00     0.199 C 
ATOM     20  O   THR d   1       6.275 -12.864  15.340  0.00  0.00    -0.646 OA
ATOM     21  O   THR d   1       6.475 -11.081  14.108  0.00  0.00    -0.646 OA
ENDBRANCH  17  19
BRANCH  17  22
ATOM     22  CB  THR d   1       6.313 -13.005  11.873  0.00  0.00     0.061 C 
ATOM     23  H51 THR d   1       6.234 -11.942  11.600  0.00  0.00     0.086 H 
BRANCH  22  24
ATOM     24  OG1 THR d   1       5.007 -13.530  12.156  0.00  0.00    -0.393 OA
ATOM     25  H52 THR d   1       4.457 -13.438  11.387  0.00  0.00     0.210 HD
ENDBRANCH  22  24
BRANCH  22  26
ATOM     26  CG2 THR d   1       6.916 -13.780  10.730  0.00  0.00    -0.050 C 
ATOM     27  H53 THR d   1       6.279 -13.675   9.839  0.00  0.00     0.031 H 
ATOM     28  H54 THR d   1       6.989 -14.842  11.005  0.00  0.00     0.031 H 
ATOM     29  H55 THR d   1       7.920 -13.389  10.511  0.00  0.00     0.031 H 
ENDBRANCH  22  26
ENDBRANCH  17  22
ENDBRANCH  15  17
ENDBRANCH  11  13
BRANCH  11  30
ATOM     30  CB  GLN d   1       9.427 -16.651  15.164  0.00  0.00    -0.030 C 
ATOM     31  H43 GLN d   1      10.430 -16.260  14.936  0.00  0.00     0.037 H 
ATOM     32  H44 GLN d   1       9.508 -17.697  15.495  0.00  0.00     0.037 H 
BRANCH  30  33
ATOM     33  CG  GLN d   1       8.836 -15.832  16.295  0.00  0.00     0.011 C 
ATOM     34  H45 GLN d   1       8.700 -14.798  15.944  0.00  0.00     0.047 H 
ATOM     35  H46 GLN d   1       9.541 -15.843  17.139  0.00  0.00     0.047 H 
BRANCH  33  36
ATOM     36  CD  GLN d   1       7.499 -16.355  16.778  0.00  0.00     0.215 C 
ATOM     37  OE1 GLN d   1       6.557 -15.581  16.985  0.00  0.00    -0.274 OA
ATOM     38  NE2 GLN d   1       7.407 -17.668  16.971  0.00  0.00    -0.370 N 
ATOM     39  H47 GLN d   1       6.547 -18.067  17.290  0.00  0.00     0.159 HD
ATOM     40  H48 GLN d   1       8.197 -18.256  16.798  0.00  0.00     0.159 HD
ENDBRANCH  33  36
ENDBRANCH  30  33
ENDBRANCH  11  30
ENDBRANCH   9  11
ENDBRANCH   5   7
BRANCH   5  41
ATOM     41  CB  LYS d   1       9.345 -18.593   9.995  0.00  0.00    -0.038 C 
ATOM     42  H30 LYS d   1      10.036 -19.126   9.325  0.00  0.00     0.036 H 
ATOM     43  H31 LYS d   1       9.714 -17.571  10.165  0.00  0.00     0.036 H 
BRANCH  41  44
ATOM     44  CG  LYS d   1       8.004 -18.493   9.297  0.00  0.00    -0.061 C 
ATOM     45  H32 LYS d   1       7.280 -18.014   9.973  0.00  0.00     0.033 H 
ATOM     46  H33 LYS d   1       7.654 -19.504   9.042  0.00  0.00     0.033 H 
BRANCH  44  47
ATOM     47  CD  LYS d   1       8.119 -17.669   8.023  0.00  0.00    -0.043 C 
ATOM     48  H34 LYS d   1       7.208 -17.812   7.423  0.00  0.00     0.035 H 
ATOM     49  H35 LYS d   1       8.993 -18.016   7.452  0.00  0.00     0.035 H 
BRANCH  47  50
ATOM     50  CE  LYS d   1       8.283 -16.191   8.321  0.00  0.00     0.080 C 
ATOM     51  H36 LYS d   1       9.113 -16.060   9.031  0.00  0.00     0.075 H 
ATOM     52  H37 LYS d   1       7.353 -15.812   8.770  0.00  0.00     0.075 H 
BRANCH  50  53
ATOM     53  NZ  LYS d   1       8.576 -15.412   7.086  0.00  0.00    -0.079 N 
ATOM     54  H38 LYS d   1       8.679 -14.437   7.320  0.00  0.00     0.274 HD
ATOM     55  H39 LYS d   1       7.817 -15.522   6.431  0.00  0.00     0.274 HD
ATOM     56  H40 LYS d   1       9.430 -15.749   6.671  0.00  0.00     0.274 HD
ENDBRANCH  50  53
ENDBRANCH  47  50
ENDBRANCH  44  47
ENDBRANCH  41  44
ENDBRANCH   5  41
ENDBRANCH   3   5
BRANCH   1  57
ATOM     57  CA  THR d   1       8.562 -23.011  11.442  0.00  0.00     0.113 C 
ATOM     58  H22 THR d   1       7.691 -22.919  10.776  0.00  0.00     0.091 H 
BRANCH  57  59
ATOM     59  N   THR d   1       9.279 -24.213  11.049  0.00  0.00    -0.344 N 
ATOM     60  C   ARG d   1       8.858 -24.982  10.050  0.00  0.00     0.241 C 
ATOM     61  O   ARG d   1       7.793 -24.816   9.462  0.00  0.00    -0.271 OA
ATOM     62  H21 THR d   1      10.110 -24.468  11.543  0.00  0.00     0.163 HD
BRANCH  60  63
ATOM     63  CA  ARG d   1       9.819 -26.055   9.601  0.00  0.00     0.089 C 
ATOM     64  H9  ARG d   1      10.351 -26.452  10.478  0.00  0.00     0.087 H 
BRANCH  63  65
ATOM     65  N   ARG d   1       9.165 -27.160   8.912  0.00  0.00    -0.346 N 
ATOM     66  C   ALA d   1       8.867 -28.326   9.482  0.00  0.00     0.248 C 
ATOM     67  O   ALA d   1       8.973 -28.540  10.693  0.00  0.00    -0.271 OA
ATOM     68  H8  ARG d   1       8.925 -27.035   7.949  0.00  0.00     0.163 HD
BRANCH  66  69
ATOM     69  CA  ALA d   1       8.366 -29.418   8.540  0.00  0.00     0.172 C 
ATOM     70  H4  ALA d   1       8.847 -29.286   7.559  0.00  0.00     0.098 H 
BRANCH  69  71
ATOM     71  N   ALA d   1       8.730 -30.764   9.074  0.00  0.00    -0.067 N 
ATOM     72  H1  ALA d   1       8.395 -31.477   8.445  0.00  0.00     0.275 HD
ATOM     73  H2  ALA d   1       8.309 -30.891   9.981  0.00  0.00     0.275 HD
ATOM     74  H3  ALA d   1       9.732 -30.833   9.156  0.00  0.00     0.275 HD
ENDBRANCH  69  71
BRANCH  69  75
ATOM     75  CB  ALA d   1       6.865 -29.312   8.363  0.00  0.00    -0.042 C 
ATOM     76  H5  ALA d   1       6.612 -28.317   7.970  0.00  0.00     0.030 H 
ATOM     77  H6  ALA d   1       6.370 -29.459   9.334  0.00  0.00     0.030 H 
ATOM     78  H7  ALA d   1       6.524 -30.083   7.657  0.00  0.00     0.030 H 
ENDBRANCH  69  75
ENDBRANCH  66  69
ENDBRANCH  63  65
BRANCH  63  79
ATOM     79  CB  ARG d   1      10.805 -25.392   8.650  0.00  0.00    -0.036 C 
ATOM     80  H10 ARG d   1      11.297 -24.566   9.184  0.00  0.00     0.036 H 
ATOM     81  H11 ARG d   1      10.243 -24.992   7.793  0.00  0.00     0.036 H 
BRANCH  79  82
ATOM     82  CG  ARG d   1      11.877 -26.323   8.123  0.00  0.00    -0.048 C 
ATOM     83  H12 ARG d   1      11.441 -27.317   7.944  0.00  0.00     0.035 H 
ATOM     84  H13 ARG d   1      12.685 -26.405   8.864  0.00  0.00     0.035 H 
BRANCH  82  85
ATOM     85  CD  ARG d   1      12.443 -25.775   6.815  0.00  0.00     0.009 C 
ATOM     86  H14 ARG d   1      13.276 -26.413   6.485  0.00  0.00     0.064 H 
ATOM     87  H15 ARG d   1      12.808 -24.750   6.979  0.00  0.00     0.064 H 
BRANCH  85  88
ATOM     88  NE  ARG d   1      11.406 -25.759   5.779  0.00  0.00    -0.227 N 
ATOM     89  CZ  ARG d   1      11.379 -24.937   4.737  0.00  0.00     0.665 C 
ATOM     90  NH1 ARG d   1      12.361 -24.060   4.544  0.00  0.00    -0.235 N 
ATOM     91  NH2 ARG d   1      10.370 -25.009   3.874  0.00  0.00    -0.235 N 
ATOM     92  H17 ARG d   1      12.333 -23.425   3.733  0.00  0.00     0.174 HD
ATOM     93  H18 ARG d   1      13.149 -24.016   5.205  0.00  0.00     0.174 HD
ATOM     94  H19 ARG d   1       9.611 -25.688   4.025  0.00  0.00     0.174 HD
ATOM     95  H20 ARG d   1      10.348 -24.385   3.055  0.00  0.00     0.174 HD
ATOM     96  H16 ARG d   1      10.638 -26.439   5.867  0.00  0.00     0.177 HD
ENDBRANCH  85  88
ENDBRANCH  82  85
ENDBRANCH  79  82
ENDBRANCH  63  79
ENDBRANCH  60  63
ENDBRANCH  57  59
BRANCH  57  97
ATOM     97  CB  THR d   1       8.053 -23.072  12.894  0.00  0.00     0.060 C 
ATOM     98  H23 THR d   1       7.498 -22.148  13.111  0.00  0.00     0.086 H 
BRANCH  97  99
ATOM     99  OG1 THR d   1       9.169 -23.160  13.783  0.00  0.00    -0.393 OA
ATOM    100  H24 THR d   1       9.667 -23.945  13.587  0.00  0.00     0.210 HD
ENDBRANCH  97  99
BRANCH  97 101
ATOM    101  CG2 THR d   1       7.113 -24.262  13.102  0.00  0.00    -0.050 C 
ATOM    102  H25 THR d   1       6.767 -24.278  14.146  0.00  0.00     0.031 H 
ATOM    103  H26 THR d   1       7.649 -25.196  12.879  0.00  0.00     0.031 H 
ATOM    104  H27 THR d   1       6.247 -24.167  12.431  0.00  0.00     0.031 H 
ENDBRANCH  97 101
ENDBRANCH  57  97
ENDBRANCH   1  57
TORSDOF 31
