REMARK WARNING: 32 MAX_TORS EXCEEDED!!!
REMARK  47 active torsions:
REMARK  status: ('A' for Active; 'I' for Inactive)
REMARK    1  A    between atoms: N_1  and  CA_2 
REMARK    2  A    between atoms: CA_2  and  C_3 
REMARK    3  A    between atoms: CA_2  and  CB_5 
REMARK       I    between atoms: C_3  and  N_6 
REMARK    4  A    between atoms: N_6  and  CA_7 
REMARK    5  A    between atoms: CA_7  and  C_8 
REMARK    6  A    between atoms: CA_7  and  CB_10 
REMARK       I    between atoms: C_8  and  N_17 
REMARK    7  A    between atoms: CB_10  and  CG_11 
REMARK    8  A    between atoms: CG_11  and  CD_12 
REMARK    9  A    between atoms: CD_12  and  NE_13 
REMARK       I    between atoms: NE_13  and  CZ_14 
REMARK       I    between atoms: CZ_14  and  NH1_15 
REMARK       I    between atoms: CZ_14  and  NH2_16 
REMARK   10  A    between atoms: N_17  and  CA_18 
REMARK   11  A    between atoms: CA_18  and  C_19 
REMARK   12  A    between atoms: CA_18  and  CB_21 
REMARK       I    between atoms: C_19  and  N_24 
REMARK   13  A    between atoms: CB_21  and  OG1_22 
REMARK   14  A    between atoms: CB_21  and  CG2_23 
REMARK   15  A    between atoms: N_24  and  CA_25 
REMARK   16  A    between atoms: CA_25  and  C_26 
REMARK   17  A    between atoms: CA_25  and  CB_28 
REMARK       I    between atoms: C_26  and  N_33 
REMARK   18  A    between atoms: CB_28  and  CG_29 
REMARK   19  A    between atoms: CG_29  and  CD_30 
REMARK   20  A    between atoms: CD_30  and  CE_31 
REMARK   21  A    between atoms: CE_31  and  NZ_32 
REMARK   22  A    between atoms: N_33  and  CA_34 
REMARK   23  A    between atoms: CA_34  and  C_35 
REMARK   24  A    between atoms: CA_34  and  CB_37 
REMARK       I    between atoms: C_35  and  N_42 
REMARK   25  A    between atoms: CB_37  and  CG_38 
REMARK   26  A    between atoms: CG_38  and  CD_39 
REMARK       I    between atoms: CD_39  and  NE2_41 
REMARK   27  A    between atoms: N_42  and  CA_43 
REMARK   28  A    between atoms: CA_43  and  C_44 
REMARK   29  A    between atoms: CA_43  and  CB_46 
REMARK       I    between atoms: C_44  and  N_49 
REMARK   30  A    between atoms: CB_46  and  OG1_47 
REMARK   31  A    between atoms: CB_46  and  CG2_48 
REMARK   32  A    between atoms: N_49  and  CA_50 
REMARK   33  A    between atoms: CA_50  and  C_51 
REMARK   34  A    between atoms: CA_50  and  CB_53 
REMARK       I    between atoms: C_51  and  N_54 
REMARK   35  A    between atoms: N_54  and  CA_55 
REMARK   36  A    between atoms: CA_55  and  C_56 
REMARK   37  A    between atoms: CA_55  and  CB_58 
REMARK       I    between atoms: C_56  and  N_65 
REMARK   38  A    between atoms: CB_58  and  CG_59 
REMARK   39  A    between atoms: CG_59  and  CD_60 
REMARK   40  A    between atoms: CD_60  and  NE_61 
REMARK       I    between atoms: NE_61  and  CZ_62 
REMARK       I    between atoms: CZ_62  and  NH1_63 
REMARK   41  A    between atoms: N_65  and  CA_66 
REMARK   42  A    between atoms: CA_66  and  C_67 
REMARK   43  A    between atoms: CA_66  and  CB_69 
REMARK   44  A    between atoms: CB_69  and  CG_70 
REMARK   45  A    between atoms: CG_70  and  CD_71 
REMARK   46  A    between atoms: CD_71  and  CE_72 
REMARK   47  A    between atoms: CE_72  and  NZ_73 
ROOT
ATOM      1  CA  GLN d   1       6.508   1.712  29.549  0.00  0.00     0.090 C 
ATOM      2  H42 GLN d   1       6.572   2.393  28.687  0.00  0.00     0.087 H 
ENDROOT
BRANCH   1   3
ATOM      3  N   GLN d   1       7.153   0.455  29.218  0.00  0.00    -0.346 N 
ATOM      4  C   LYS d   1       7.664   0.236  28.009  0.00  0.00     0.241 C 
ATOM      5  O   LYS d   1       7.590   1.061  27.085  0.00  0.00    -0.271 OA
ATOM      6  H41 GLN d   1       7.215  -0.262  29.913  0.00  0.00     0.163 HD
BRANCH   4   7
ATOM      7  CA  LYS d   1       8.339  -1.122  27.783  0.00  0.00     0.089 C 
ATOM      8  H29 LYS d   1       7.667  -1.918  28.136  0.00  0.00     0.087 H 
BRANCH   7   9
ATOM      9  N   LYS d   1       8.553  -1.286  26.343  0.00  0.00    -0.346 N 
ATOM     10  C   THR d   1       8.457  -2.463  25.729  0.00  0.00     0.243 C 
ATOM     11  O   THR d   1       8.336  -3.534  26.315  0.00  0.00    -0.271 OA
ATOM     12  H28 LYS d   1       8.781  -0.479  25.798  0.00  0.00     0.163 HD
BRANCH  10  13
ATOM     13  CA  THR d   1       8.529  -2.419  24.214  0.00  0.00     0.113 C 
ATOM     14  H22 THR d   1       9.347  -1.745  23.920  0.00  0.00     0.091 H 
BRANCH  13  15
ATOM     15  N   THR d   1       8.825  -3.737  23.676  0.00  0.00    -0.344 N 
ATOM     16  C   ARG d   1       9.898  -3.946  22.915  0.00  0.00     0.241 C 
ATOM     17  O   ARG d   1      10.656  -3.042  22.564  0.00  0.00    -0.271 OA
ATOM     18  H21 THR d   1       8.212  -4.500  23.881  0.00  0.00     0.163 HD
BRANCH  16  19
ATOM     19  CA  ARG d   1      10.161  -5.390  22.487  0.00  0.00     0.089 C 
ATOM     20  H9  ARG d   1       9.199  -5.920  22.428  0.00  0.00     0.087 H 
BRANCH  19  21
ATOM     21  N   ARG d   1      10.795  -5.438  21.162  0.00  0.00    -0.346 N 
ATOM     22  C   ALA d   1      10.081  -5.480  20.035  0.00  0.00     0.248 C 
ATOM     23  O   ALA d   1       8.847  -5.451  20.014  0.00  0.00    -0.271 OA
ATOM     24  H8  ARG d   1      11.793  -5.439  21.103  0.00  0.00     0.163 HD
BRANCH  22  25
ATOM     25  CA  ALA d   1      10.864  -5.574  18.731  0.00  0.00     0.172 C 
ATOM     26  H4  ALA d   1      11.802  -6.113  18.931  0.00  0.00     0.098 H 
BRANCH  25  27
ATOM     27  N   ALA d   1      10.091  -6.339  17.699  0.00  0.00    -0.067 N 
ATOM     28  H1  ALA d   1      10.627  -6.389  16.846  0.00  0.00     0.275 HD
ATOM     29  H2  ALA d   1       9.216  -5.871  17.519  0.00  0.00     0.275 HD
ATOM     30  H3  ALA d   1       9.910  -7.271  18.037  0.00  0.00     0.275 HD
ENDBRANCH  25  27
BRANCH  25  31
ATOM     31  CB  ALA d   1      11.211  -4.190  18.207  0.00  0.00    -0.042 C 
ATOM     32  H5  ALA d   1      11.777  -3.639  18.973  0.00  0.00     0.030 H 
ATOM     33  H6  ALA d   1      10.285  -3.644  17.972  0.00  0.00     0.030 H 
ATOM     34  H7  ALA d   1      11.822  -4.285  17.297  0.00  0.00     0.030 H 
ENDBRANCH  25  31
ENDBRANCH  22  25
ENDBRANCH  19  21
BRANCH  19  35
ATOM     35  CB  ARG d   1      11.033  -6.077  23.545  0.00  0.00    -0.036 C 
ATOM     36  H10 ARG d   1      10.428  -6.201  24.456  0.00  0.00     0.036 H 
ATOM     37  H11 ARG d   1      11.888  -5.420  23.760  0.00  0.00     0.036 H 
BRANCH  35  38
ATOM     38  CG  ARG d   1      11.577  -7.443  23.152  0.00  0.00    -0.048 C 
ATOM     39  H12 ARG d   1      12.466  -7.309  22.518  0.00  0.00     0.035 H 
ATOM     40  H13 ARG d   1      10.806  -7.991  22.590  0.00  0.00     0.035 H 
BRANCH  38  41
ATOM     41  CD  ARG d   1      11.960  -8.245  24.385  0.00  0.00     0.009 C 
ATOM     42  H14 ARG d   1      11.165  -8.977  24.593  0.00  0.00     0.064 H 
ATOM     43  H15 ARG d   1      12.059  -7.558  25.238  0.00  0.00     0.064 H 
BRANCH  41  44
ATOM     44  NE  ARG d   1      13.225  -8.960  24.206  0.00  0.00    -0.227 N 
ATOM     45  CZ  ARG d   1      13.351 -10.180  23.686  0.00  0.00     0.665 C 
ATOM     46  NH1 ARG d   1      12.283 -10.855  23.275  0.00  0.00    -0.235 N 
ATOM     47  NH2 ARG d   1      14.555 -10.726  23.574  0.00  0.00    -0.235 N 
ATOM     48  H17 ARG d   1      12.392 -11.798  22.875  0.00  0.00     0.174 HD
ATOM     49  H18 ARG d   1      11.346 -10.436  23.357  0.00  0.00     0.174 HD
ATOM     50  H19 ARG d   1      15.387 -10.208  23.891  0.00  0.00     0.174 HD
ATOM     51  H20 ARG d   1      14.658 -11.668  23.170  0.00  0.00     0.174 HD
ATOM     52  H16 ARG d   1      14.086  -8.482  24.506  0.00  0.00     0.177 HD
ENDBRANCH  41  44
ENDBRANCH  38  41
ENDBRANCH  35  38
ENDBRANCH  19  35
ENDBRANCH  16  19
ENDBRANCH  13  15
BRANCH  13  53
ATOM     53  CB  THR d   1       7.202  -1.831  23.678  0.00  0.00     0.060 C 
ATOM     54  H23 THR d   1       7.047  -0.845  24.140  0.00  0.00     0.086 H 
BRANCH  53  55
ATOM     55  OG1 THR d   1       6.114  -2.688  24.036  0.00  0.00    -0.393 OA
ATOM     56  H24 THR d   1       6.067  -2.760  24.982  0.00  0.00     0.210 HD
ENDBRANCH  53  55
BRANCH  53  57
ATOM     57  CG2 THR d   1       7.229  -1.658  22.166  0.00  0.00    -0.050 C 
ATOM     58  H25 THR d   1       6.270  -1.239  21.828  0.00  0.00     0.031 H 
ATOM     59  H26 THR d   1       7.391  -2.635  21.688  0.00  0.00     0.031 H 
ATOM     60  H27 THR d   1       8.046  -0.975  21.890  0.00  0.00     0.031 H 
ENDBRANCH  53  57
ENDBRANCH  13  53
ENDBRANCH  10  13
ENDBRANCH   7   9
BRANCH   7  61
ATOM     61  CB  LYS d   1       9.656  -1.227  28.561  0.00  0.00    -0.038 C 
ATOM     62  H30 LYS d   1      10.057  -2.241  28.421  0.00  0.00     0.036 H 
ATOM     63  H31 LYS d   1       9.439  -1.063  29.627  0.00  0.00     0.036 H 
BRANCH  61  64
ATOM     64  CG  LYS d   1      10.727  -0.229  28.135  0.00  0.00    -0.061 C 
ATOM     65  H32 LYS d   1      10.343   0.794  28.264  0.00  0.00     0.033 H 
ATOM     66  H33 LYS d   1      10.979  -0.396  27.077  0.00  0.00     0.033 H 
BRANCH  64  67
ATOM     67  CD  LYS d   1      11.986  -0.408  28.990  0.00  0.00    -0.043 C 
ATOM     68  H34 LYS d   1      12.316  -1.455  28.917  0.00  0.00     0.035 H 
ATOM     69  H35 LYS d   1      11.738  -0.174  30.036  0.00  0.00     0.035 H 
BRANCH  67  70
ATOM     70  CE  LYS d   1      13.128   0.496  28.545  0.00  0.00     0.080 C 
ATOM     71  H36 LYS d   1      12.824   1.546  28.665  0.00  0.00     0.075 H 
ATOM     72  H37 LYS d   1      13.353   0.298  27.486  0.00  0.00     0.075 H 
BRANCH  70  73
ATOM     73  NZ  LYS d   1      14.357   0.245  29.362  0.00  0.00    -0.079 N 
ATOM     74  H38 LYS d   1      15.098   0.853  29.050  0.00  0.00     0.274 HD
ATOM     75  H39 LYS d   1      14.643  -0.716  29.253  0.00  0.00     0.274 HD
ATOM     76  H40 LYS d   1      14.158   0.428  30.333  0.00  0.00     0.274 HD
ENDBRANCH  70  73
ENDBRANCH  67  70
ENDBRANCH  64  67
ENDBRANCH  61  64
ENDBRANCH   7  61
ENDBRANCH   4   7
ENDBRANCH   1   3
BRANCH   1  77
ATOM     77  C   GLN d   1       7.228   2.323  30.738  0.00  0.00     0.241 C 
ATOM     78  O   GLN d   1       7.301   1.707  31.811  0.00  0.00    -0.271 OA
ATOM     79  N   THR d   1       7.745   3.533  30.542  0.00  0.00    -0.344 N 
ATOM     80  H49 THR d   1       7.617   3.975  29.654  0.00  0.00     0.163 HD
BRANCH  79  81
ATOM     81  CA  THR d   1       8.492   4.236  31.577  0.00  0.00     0.113 C 
ATOM     82  H50 THR d   1       8.488   3.623  32.490  0.00  0.00     0.091 H 
BRANCH  81  83
ATOM     83  C   THR d   1       7.814   5.576  31.872  0.00  0.00     0.243 C 
ATOM     84  O   THR d   1       6.934   6.028  31.119  0.00  0.00    -0.271 OA
ATOM     85  N   ALA d   1       8.203   6.187  32.988  0.00  0.00    -0.346 N 
ATOM     86  H56 ALA d   1       8.921   5.762  33.540  0.00  0.00     0.163 HD
BRANCH  85  87
ATOM     87  CA  ALA d   1       7.627   7.454  33.444  0.00  0.00     0.086 C 
ATOM     88  H57 ALA d   1       6.531   7.356  33.444  0.00  0.00     0.086 H 
BRANCH  87  89
ATOM     89  C   ALA d   1       8.003   8.594  32.506  0.00  0.00     0.240 C 
ATOM     90  O   ALA d   1       9.149   8.686  32.066  0.00  0.00    -0.271 OA
ATOM     91  N   ARG d   1       7.026   9.445  32.193  0.00  0.00    -0.346 N 
ATOM     92  H61 ARG d   1       6.133   9.334  32.629  0.00  0.00     0.163 HD
BRANCH  91  93
ATOM     93  CA  ARG d   1       7.212  10.537  31.233  0.00  0.00     0.089 C 
ATOM     94  H62 ARG d   1       8.115  10.307  30.648  0.00  0.00     0.087 H 
BRANCH  93  95
ATOM     95  C   ARG d   1       7.445  11.897  31.911  0.00  0.00     0.241 C 
ATOM     96  O   ARG d   1       6.501  12.519  32.405  0.00  0.00    -0.271 OA
ATOM     97  N   LYS d   1       8.711  12.335  31.912  0.00  0.00    -0.345 N 
ATOM     98  H74 LYS d   1       9.409  11.735  31.522  0.00  0.00     0.163 HD
BRANCH  97  99
ATOM     99  CA  LYS d   1       9.151  13.638  32.446  0.00  0.00     0.096 C 
ATOM    100  H75 LYS d   1       9.252  13.540  33.537  0.00  0.00     0.089 H 
BRANCH  99 101
ATOM    101  C   LYS d   1       8.164  14.760  32.151  0.00  0.00     0.196 C 
ATOM    102  O   LYS d   1       8.220  15.848  32.784  0.00  0.00    -0.646 OA
ATOM    103  O   LYS d   1       7.283  14.598  31.265  0.00  0.00    -0.646 OA
ENDBRANCH  99 101
BRANCH  99 104
ATOM    104  CB  LYS d   1      10.509  14.037  31.856  0.00  0.00    -0.037 C 
ATOM    105  H76 LYS d   1      10.746  15.048  32.219  0.00  0.00     0.036 H 
ATOM    106  H77 LYS d   1      10.405  14.056  30.761  0.00  0.00     0.036 H 
BRANCH 104 107
ATOM    107  CG  LYS d   1      11.688  13.139  32.191  0.00  0.00    -0.061 C 
ATOM    108  H78 LYS d   1      11.389  12.086  32.083  0.00  0.00     0.033 H 
ATOM    109  H79 LYS d   1      12.007  13.325  33.227  0.00  0.00     0.033 H 
BRANCH 107 110
ATOM    110  CD  LYS d   1      12.844  13.438  31.243  0.00  0.00    -0.043 C 
ATOM    111  H80 LYS d   1      12.808  14.502  30.966  0.00  0.00     0.035 H 
ATOM    112  H81 LYS d   1      12.729  12.820  30.340  0.00  0.00     0.035 H 
BRANCH 110 113
ATOM    113  CE  LYS d   1      14.200  13.141  31.870  0.00  0.00     0.080 C 
ATOM    114  H82 LYS d   1      14.157  12.154  32.353  0.00  0.00     0.075 H 
ATOM    115  H83 LYS d   1      14.416  13.910  32.626  0.00  0.00     0.075 H 
BRANCH 113 116
ATOM    116  NZ  LYS d   1      15.302  13.135  30.865  0.00  0.00    -0.079 N 
ATOM    117  H84 LYS d   1      16.176  12.935  31.326  0.00  0.00     0.274 HD
ATOM    118  H85 LYS d   1      15.356  14.038  30.420  0.00  0.00     0.274 HD
ATOM    119  H86 LYS d   1      15.119  12.428  30.170  0.00  0.00     0.274 HD
ENDBRANCH 113 116
ENDBRANCH 110 113
ENDBRANCH 107 110
ENDBRANCH 104 107
ENDBRANCH  99 104
ENDBRANCH  97  99
ENDBRANCH  93  95
BRANCH  93 120
ATOM    120  CB  ARG d   1       6.025  10.604  30.252  0.00  0.00    -0.036 C 
ATOM    121  H63 ARG d   1       5.140  10.955  30.802  0.00  0.00     0.036 H 
ATOM    122  H64 ARG d   1       5.838   9.592  29.865  0.00  0.00     0.036 H 
BRANCH 120 123
ATOM    123  CG  ARG d   1       6.255  11.534  29.071  0.00  0.00    -0.048 C 
ATOM    124  H65 ARG d   1       7.327  11.528  28.825  0.00  0.00     0.035 H 
ATOM    125  H66 ARG d   1       5.952  12.550  29.363  0.00  0.00     0.035 H 
BRANCH 123 126
ATOM    126  CD  ARG d   1       5.471  11.133  27.827  0.00  0.00     0.009 C 
ATOM    127  H67 ARG d   1       4.425  11.454  27.941  0.00  0.00     0.064 H 
ATOM    128  H68 ARG d   1       5.509  10.039  27.715  0.00  0.00     0.064 H 
BRANCH 126 129
ATOM    129  NE  ARG d   1       6.038  11.760  26.624  0.00  0.00    -0.227 N 
ATOM    130  CZ  ARG d   1       5.725  11.436  25.368  0.00  0.00     0.665 C 
ATOM    131  NH1 ARG d   1       4.834  10.477  25.113  0.00  0.00    -0.235 N 
ATOM    132  NH2 ARG d   1       6.312  12.076  24.357  0.00  0.00    -0.235 N 
ATOM    133  H70 ARG d   1       4.601  10.236  24.139  0.00  0.00     0.174 HD
ATOM    134  H71 ARG d   1       4.379   9.977  25.890  0.00  0.00     0.174 HD
ATOM    135  H72 ARG d   1       7.001  12.818  24.548  0.00  0.00     0.174 HD
ATOM    136  H73 ARG d   1       6.077  11.829  23.385  0.00  0.00     0.174 HD
ATOM    137  H69 ARG d   1       6.732  12.509  26.762  0.00  0.00     0.177 HD
ENDBRANCH 126 129
ENDBRANCH 123 126
ENDBRANCH 120 123
ENDBRANCH  93 120
ENDBRANCH  91  93
ENDBRANCH  87  89
BRANCH  87 138
ATOM    138  CB  ALA d   1       8.081   7.750  34.859  0.00  0.00    -0.049 C 
ATOM    139  H58 ALA d   1       7.644   8.703  35.193  0.00  0.00     0.030 H 
ATOM    140  H59 ALA d   1       9.178   7.821  34.885  0.00  0.00     0.030 H 
ATOM    141  H60 ALA d   1       7.750   6.941  35.527  0.00  0.00     0.030 H 
ENDBRANCH  87 138
ENDBRANCH  85  87
ENDBRANCH  81  83
BRANCH  81 142
ATOM    142  CB  THR d   1       9.951   4.482  31.158  0.00  0.00     0.060 C 
ATOM    143  H51 THR d   1      10.495   4.914  32.011  0.00  0.00     0.086 H 
BRANCH 142 144
ATOM    144  OG1 THR d   1       9.980   5.408  30.076  0.00  0.00    -0.393 OA
ATOM    145  H52 THR d   1      10.881   5.561  29.816  0.00  0.00     0.210 HD
ENDBRANCH 142 144
BRANCH 142 146
ATOM    146  CG2 THR d   1      10.637   3.169  30.756  0.00  0.00    -0.050 C 
ATOM    147  H53 THR d   1      11.677   3.374  30.462  0.00  0.00     0.031 H 
ATOM    148  H54 THR d   1      10.098   2.718  29.910  0.00  0.00     0.031 H 
ATOM    149  H55 THR d   1      10.627   2.474  31.609  0.00  0.00     0.031 H 
ENDBRANCH 142 146
ENDBRANCH  81 142
ENDBRANCH  79  81
ENDBRANCH   1  77
BRANCH   1 150
ATOM    150  CB  GLN d   1       5.028   1.490  29.911  0.00  0.00    -0.030 C 
ATOM    151  H43 GLN d   1       4.984   0.845  30.801  0.00  0.00     0.037 H 
ATOM    152  H44 GLN d   1       4.539   0.983  29.066  0.00  0.00     0.037 H 
BRANCH 150 153
ATOM    153  CG  GLN d   1       4.257   2.768  30.210  0.00  0.00     0.011 C 
ATOM    154  H45 GLN d   1       4.873   3.407  30.860  0.00  0.00     0.047 H 
ATOM    155  H46 GLN d   1       3.326   2.503  30.733  0.00  0.00     0.047 H 
BRANCH 153 156
ATOM    156  CD  GLN d   1       3.904   3.549  28.954  0.00  0.00     0.215 C 
ATOM    157  OE1 GLN d   1       3.661   2.965  27.893  0.00  0.00    -0.274 OA
ATOM    158  NE2 GLN d   1       3.872   4.876  29.066  0.00  0.00    -0.370 N 
ATOM    159  H47 GLN d   1       3.646   5.439  28.271  0.00  0.00     0.159 HD
ATOM    160  H48 GLN d   1       4.074   5.309  29.945  0.00  0.00     0.159 HD
ENDBRANCH 153 156
ENDBRANCH 150 153
ENDBRANCH   1 150
TORSDOF 47
