REMARK WARNING: 32 MAX_TORS EXCEEDED!!!
REMARK  54 active torsions:
REMARK  status: ('A' for Active; 'I' for Inactive)
REMARK    1  A    between atoms: N_1  and  CA_2 
REMARK    2  A    between atoms: CA_2  and  C_3 
REMARK    3  A    between atoms: CA_2  and  CB_5 
REMARK       I    between atoms: C_3  and  N_6 
REMARK    4  A    between atoms: N_6  and  CA_7 
REMARK    5  A    between atoms: CA_7  and  C_8 
REMARK    6  A    between atoms: CA_7  and  CB_10 
REMARK       I    between atoms: C_8  and  N_17 
REMARK    7  A    between atoms: CB_10  and  CG_11 
REMARK    8  A    between atoms: CG_11  and  CD_12 
REMARK    9  A    between atoms: CD_12  and  NE_13 
REMARK       I    between atoms: NE_13  and  CZ_14 
REMARK       I    between atoms: CZ_14  and  NH1_15 
REMARK       I    between atoms: CZ_14  and  NH2_16 
REMARK   10  A    between atoms: N_17  and  CA_18 
REMARK   11  A    between atoms: CA_18  and  C_19 
REMARK   12  A    between atoms: CA_18  and  CB_21 
REMARK       I    between atoms: C_19  and  N_24 
REMARK   13  A    between atoms: CB_21  and  OG1_22 
REMARK   14  A    between atoms: CB_21  and  CG2_23 
REMARK   15  A    between atoms: N_24  and  CA_25 
REMARK   16  A    between atoms: CA_25  and  C_26 
REMARK   17  A    between atoms: CA_25  and  CB_28 
REMARK       I    between atoms: C_26  and  N_33 
REMARK   18  A    between atoms: CB_28  and  CG_29 
REMARK   19  A    between atoms: CG_29  and  CD_30 
REMARK   20  A    between atoms: CD_30  and  CE_31 
REMARK   21  A    between atoms: CE_31  and  NZ_32 
REMARK   22  A    between atoms: N_33  and  CA_34 
REMARK   23  A    between atoms: CA_34  and  C_35 
REMARK   24  A    between atoms: CA_34  and  CB_37 
REMARK       I    between atoms: C_35  and  N_42 
REMARK   25  A    between atoms: CB_37  and  CG_38 
REMARK   26  A    between atoms: CG_38  and  CD_39 
REMARK       I    between atoms: CD_39  and  NE2_41 
REMARK   27  A    between atoms: N_42  and  CA_43 
REMARK   28  A    between atoms: CA_43  and  C_44 
REMARK   29  A    between atoms: CA_43  and  CB_46 
REMARK       I    between atoms: C_44  and  N_49 
REMARK   30  A    between atoms: CB_46  and  OG1_47 
REMARK   31  A    between atoms: CB_46  and  CG2_48 
REMARK   32  A    between atoms: N_49  and  CA_50 
REMARK   33  A    between atoms: CA_50  and  C_51 
REMARK   34  A    between atoms: CA_50  and  CB_53 
REMARK       I    between atoms: C_51  and  N_54 
REMARK   35  A    between atoms: N_54  and  CA_55 
REMARK   36  A    between atoms: CA_55  and  C_56 
REMARK   37  A    between atoms: CA_55  and  CB_58 
REMARK       I    between atoms: C_56  and  N_65 
REMARK   38  A    between atoms: CB_58  and  CG_59 
REMARK   39  A    between atoms: CG_59  and  CD_60 
REMARK   40  A    between atoms: CD_60  and  NE_61 
REMARK       I    between atoms: NE_61  and  CZ_62 
REMARK       I    between atoms: CZ_62  and  NH1_63 
REMARK   41  A    between atoms: N_65  and  CA_66 
REMARK   42  A    between atoms: CA_66  and  CB_67 
REMARK   43  A    between atoms: CA_66  and  C_72 
REMARK   44  A    between atoms: CB_67  and  CG_68 
REMARK   45  A    between atoms: CG_68  and  CD_69 
REMARK   46  A    between atoms: CD_69  and  CE_70 
REMARK   47  A    between atoms: CE_70  and  NZ_71 
REMARK   48  A    between atoms: NZ_71  and  CM1_74 
REMARK   49  A    between atoms: NZ_71  and  CM2_75 
REMARK   50  A    between atoms: NZ_71  and  CM3_76 
REMARK       I    between atoms: C_72  and  N_77 
REMARK   51  A    between atoms: N_77  and  CA_78 
REMARK   52  A    between atoms: CA_78  and  C_79 
REMARK   53  A    between atoms: CA_78  and  CB_81 
REMARK   54  A    between atoms: CB_81  and  OG_82 
ROOT
ATOM      1  N   THR d   1      19.741   6.981  34.457  0.00  0.00    -0.344 N 
ATOM      2  H49 THR d   1      18.767   7.197  34.395  0.00  0.00     0.163 HD
ATOM      3  C   GLN d   1      20.123   5.734  34.679  0.00  0.00     0.241 C 
ATOM      4  O   GLN d   1      21.306   5.407  34.729  0.00  0.00    -0.271 OA
ENDROOT
BRANCH   1   5
ATOM      5  CA  THR d   1      20.732   8.049  34.301  0.00  0.00     0.113 C 
ATOM      6  H50 THR d   1      21.722   7.626  34.528  0.00  0.00     0.091 H 
BRANCH   5   7
ATOM      7  C   THR d   1      20.453   9.178  35.273  0.00  0.00     0.243 C 
ATOM      8  O   THR d   1      19.359   9.249  35.844  0.00  0.00    -0.271 OA
ATOM      9  N   ALA d   1      21.427  10.075  35.431  0.00  0.00    -0.346 N 
ATOM     10  H56 ALA d   1      22.263   9.976  34.891  0.00  0.00     0.163 HD
BRANCH   9  11
ATOM     11  CA  ALA d   1      21.321  11.200  36.365  0.00  0.00     0.086 C 
ATOM     12  H57 ALA d   1      20.930  10.812  37.317  0.00  0.00     0.086 H 
BRANCH  11  13
ATOM     13  C   ALA d   1      20.365  12.289  35.874  0.00  0.00     0.240 C 
ATOM     14  O   ALA d   1      20.354  12.632  34.698  0.00  0.00    -0.271 OA
ATOM     15  N   ARG d   1      19.560  12.839  36.776  0.00  0.00    -0.346 N 
ATOM     16  H61 ARG d   1      19.522  12.464  37.702  0.00  0.00     0.163 HD
BRANCH  15  17
ATOM     17  CA  ARG d   1      18.729  13.988  36.424  0.00  0.00     0.089 C 
ATOM     18  H62 ARG d   1      18.349  13.846  35.401  0.00  0.00     0.087 H 
BRANCH  17  19
ATOM     19  C   ARG d   1      19.541  15.266  36.473  0.00  0.00     0.241 C 
ATOM     20  O   ARG d   1      20.552  15.319  37.159  0.00  0.00    -0.271 OA
ATOM     21  N   M3L d   1      19.078  16.300  35.773  0.00  0.00    -0.346 N 
ATOM     22  H74 M3L d   1      18.221  16.197  35.267  0.00  0.00     0.163 HD
BRANCH  21  23
ATOM     23  CA  M3L d   1      19.784  17.587  35.719  0.00  0.00     0.089 C 
ATOM     24  H75 M3L d   1      20.842  17.422  35.971  0.00  0.00     0.087 H 
BRANCH  23  25
ATOM     25  CB  M3L d   1      19.687  18.121  34.289  0.00  0.00    -0.038 C 
ATOM     26  H76 M3L d   1      19.804  19.215  34.306  0.00  0.00     0.036 H 
ATOM     27  H77 M3L d   1      18.700  17.864  33.877  0.00  0.00     0.036 H 
BRANCH  25  28
ATOM     28  CG  M3L d   1      20.773  17.518  33.396  0.00  0.00    -0.061 C 
ATOM     29  H78 M3L d   1      20.340  16.683  32.826  0.00  0.00     0.033 H 
ATOM     30  H79 M3L d   1      21.588  17.143  34.033  0.00  0.00     0.033 H 
BRANCH  28  31
ATOM     31  CD  M3L d   1      21.346  18.541  32.413  0.00  0.00    -0.042 C 
ATOM     32  H80 M3L d   1      22.435  18.399  32.346  0.00  0.00     0.035 H 
ATOM     33  H81 M3L d   1      21.131  19.553  32.787  0.00  0.00     0.035 H 
BRANCH  31  34
ATOM     34  CE  M3L d   1      20.738  18.389  31.013  0.00  0.00     0.084 C 
ATOM     35  H82 M3L d   1      19.771  18.913  31.004  0.00  0.00     0.076 H 
ATOM     36  H83 M3L d   1      20.575  17.317  30.828  0.00  0.00     0.076 H 
BRANCH  34  37
ATOM     37  NZ  M3L d   1      21.559  18.925  29.901  0.00  0.00    -0.079 N 
BRANCH  37  38
ATOM     38  CM1 M3L d   1      20.942  18.491  28.638  0.00  0.00     0.067 C 
ATOM     39  H84 M3L d   1      21.531  18.875  27.792  0.00  0.00     0.068 H 
ATOM     40  H85 M3L d   1      19.916  18.882  28.578  0.00  0.00     0.068 H 
ATOM     41  H86 M3L d   1      20.919  17.392  28.600  0.00  0.00     0.068 H 
ENDBRANCH  37  38
BRANCH  37  42
ATOM     42  CM2 M3L d   1      22.942  18.421  29.940  0.00  0.00     0.067 C 
ATOM     43  H87 M3L d   1      23.421  18.736  30.879  0.00  0.00     0.068 H 
ATOM     44  H88 M3L d   1      23.505  18.828  29.087  0.00  0.00     0.068 H 
ATOM     45  H89 M3L d   1      22.934  17.323  29.883  0.00  0.00     0.068 H 
ENDBRANCH  37  42
BRANCH  37  46
ATOM     46  CM3 M3L d   1      21.569  20.398  29.914  0.00  0.00     0.067 C 
ATOM     47  H90 M3L d   1      20.535  20.772  29.885  0.00  0.00     0.068 H 
ATOM     48  H91 M3L d   1      22.118  20.769  29.036  0.00  0.00     0.068 H 
ATOM     49  H92 M3L d   1      22.062  20.753  30.831  0.00  0.00     0.068 H 
ENDBRANCH  37  46
ENDBRANCH  34  37
ENDBRANCH  31  34
ENDBRANCH  28  31
ENDBRANCH  25  28
ENDBRANCH  23  25
BRANCH  23  50
ATOM     50  C   M3L d   1      19.213  18.590  36.697  0.00  0.00     0.241 C 
ATOM     51  O   M3L d   1      18.128  18.378  37.247  0.00  0.00    -0.271 OA
ATOM     52  N   SER d   1      19.944  19.694  36.907  0.00  0.00    -0.343 N 
ATOM     53  H93 SER d   1      20.822  19.770  36.434  0.00  0.00     0.163 HD
BRANCH  52  54
ATOM     54  CA  SER d   1      19.536  20.810  37.794  0.00  0.00     0.116 C 
ATOM     55  H94 SER d   1      20.351  21.548  37.762  0.00  0.00     0.093 H 
BRANCH  54  56
ATOM     56  C   SER d   1      19.366  20.407  39.262  0.00  0.00     0.198 C 
ATOM     57  O   SER d   1      20.365  20.165  39.991  0.00  0.00    -0.646 OA
ATOM     58  O   SER d   1      18.207  20.316  39.749  0.00  0.00    -0.646 OA
ENDBRANCH  54  56
BRANCH  54  59
ATOM     59  CB  SER d   1      18.269  21.513  37.277  0.00  0.00     0.045 C 
ATOM     60  H95 SER d   1      17.673  20.792  36.698  0.00  0.00     0.077 H 
ATOM     61  H96 SER d   1      18.566  22.350  36.627  0.00  0.00     0.077 H 
BRANCH  59  62
ATOM     62  OG  SER d   1      17.472  22.018  38.344  0.00  0.00    -0.398 OA
ATOM     63  H97 SER d   1      17.207  21.300  38.907  0.00  0.00     0.209 HD
ENDBRANCH  59  62
ENDBRANCH  54  59
ENDBRANCH  52  54
ENDBRANCH  23  50
ENDBRANCH  21  23
ENDBRANCH  17  19
BRANCH  17  64
ATOM     64  CB  ARG d   1      17.549  14.112  37.373  0.00  0.00    -0.036 C 
ATOM     65  H63 ARG d   1      16.985  15.020  37.113  0.00  0.00     0.036 H 
ATOM     66  H64 ARG d   1      17.934  14.201  38.400  0.00  0.00     0.036 H 
BRANCH  64  67
ATOM     67  CG  ARG d   1      16.611  12.931  37.313  0.00  0.00    -0.048 C 
ATOM     68  H65 ARG d   1      16.731  12.315  38.217  0.00  0.00     0.035 H 
ATOM     69  H66 ARG d   1      16.835  12.324  36.423  0.00  0.00     0.035 H 
BRANCH  67  70
ATOM     70  CD  ARG d   1      15.203  13.446  37.234  0.00  0.00     0.009 C 
ATOM     71  H67 ARG d   1      15.140  14.189  36.426  0.00  0.00     0.064 H 
ATOM     72  H68 ARG d   1      14.943  13.922  38.191  0.00  0.00     0.064 H 
BRANCH  70  73
ATOM     73  NE  ARG d   1      14.256  12.379  36.967  0.00  0.00    -0.227 N 
ATOM     74  CZ  ARG d   1      13.206  12.508  36.160  0.00  0.00     0.665 C 
ATOM     75  NH1 ARG d   1      12.999  13.656  35.524  0.00  0.00    -0.235 N 
ATOM     76  NH2 ARG d   1      12.388  11.477  35.975  0.00  0.00    -0.235 N 
ATOM     77  H70 ARG d   1      12.187  13.759  34.899  0.00  0.00     0.174 HD
ATOM     78  H71 ARG d   1      13.650  14.443  35.656  0.00  0.00     0.174 HD
ATOM     79  H72 ARG d   1      12.556  10.591  36.472  0.00  0.00     0.174 HD
ATOM     80  H73 ARG d   1      11.586  11.564  35.334  0.00  0.00     0.174 HD
ATOM     81  H69 ARG d   1      14.405  11.470  37.428  0.00  0.00     0.177 HD
ENDBRANCH  70  73
ENDBRANCH  67  70
ENDBRANCH  64  67
ENDBRANCH  17  64
ENDBRANCH  15  17
ENDBRANCH  11  13
BRANCH  11  82
ATOM     82  CB  ALA d   1      22.702  11.802  36.620  0.00  0.00    -0.049 C 
ATOM     83  H58 ALA d   1      22.611  12.644  37.321  0.00  0.00     0.030 H 
ATOM     84  H59 ALA d   1      23.127  12.160  35.671  0.00  0.00     0.030 H 
ATOM     85  H60 ALA d   1      23.362  11.035  37.052  0.00  0.00     0.030 H 
ENDBRANCH  11  82
ENDBRANCH   9  11
ENDBRANCH   5   7
BRANCH   5  86
ATOM     86  CB  THR d   1      20.772   8.628  32.870  0.00  0.00     0.060 C 
ATOM     87  H51 THR d   1      21.611   9.336  32.801  0.00  0.00     0.086 H 
BRANCH  86  88
ATOM     88  OG1 THR d   1      19.553   9.328  32.602  0.00  0.00    -0.393 OA
ATOM     89  H52 THR d   1      19.580   9.683  31.721  0.00  0.00     0.210 HD
ENDBRANCH  86  88
BRANCH  86  90
ATOM     90  CG2 THR d   1      20.981   7.530  31.837  0.00  0.00    -0.050 C 
ATOM     91  H53 THR d   1      21.005   7.973  30.831  0.00  0.00     0.031 H 
ATOM     92  H54 THR d   1      20.155   6.806  31.899  0.00  0.00     0.031 H 
ATOM     93  H55 THR d   1      21.934   7.017  32.035  0.00  0.00     0.031 H 
ENDBRANCH  86  90
ENDBRANCH   5  86
ENDBRANCH   1   5
BRANCH   3  94
ATOM     94  CA  GLN d   1      19.037   4.696  34.863  0.00  0.00     0.090 C 
ATOM     95  H42 GLN d   1      18.049   5.173  34.778  0.00  0.00     0.087 H 
BRANCH  94  96
ATOM     96  N   GLN d   1      19.184   3.680  33.848  0.00  0.00    -0.346 N 
ATOM     97  C   LYS d   1      18.266   3.467  32.909  0.00  0.00     0.241 C 
ATOM     98  O   LYS d   1      17.246   4.151  32.784  0.00  0.00    -0.271 OA
ATOM     99  H41 GLN d   1      20.008   3.114  33.851  0.00  0.00     0.163 HD
BRANCH  97 100
ATOM    100  CA  LYS d   1      18.559   2.319  31.955  0.00  0.00     0.089 C 
ATOM    101  H29 LYS d   1      18.857   1.444  32.551  0.00  0.00     0.087 H 
BRANCH 100 102
ATOM    102  N   LYS d   1      17.363   1.977  31.216  0.00  0.00    -0.346 N 
ATOM    103  C   THR d   1      17.016   0.719  30.989  0.00  0.00     0.243 C 
ATOM    104  O   THR d   1      17.768  -0.248  31.181  0.00  0.00    -0.271 OA
ATOM    105  H28 LYS d   1      16.782   2.712  30.866  0.00  0.00     0.163 HD
BRANCH 103 106
ATOM    106  CA  THR d   1      15.617   0.518  30.448  0.00  0.00     0.113 C 
ATOM    107  H22 THR d   1      15.419   1.258  29.659  0.00  0.00     0.091 H 
BRANCH 106 108
ATOM    108  N   THR d   1      15.529  -0.810  29.862  0.00  0.00    -0.344 N 
ATOM    109  C   ARG d   1      15.289  -0.957  28.561  0.00  0.00     0.241 C 
ATOM    110  O   ARG d   1      14.920  -0.013  27.848  0.00  0.00    -0.271 OA
ATOM    111  H21 THR d   1      15.649  -1.617  30.440  0.00  0.00     0.163 HD
BRANCH 109 112
ATOM    112  CA  ARG d   1      15.443  -2.369  27.978  0.00  0.00     0.089 C 
ATOM    113  H9  ARG d   1      15.187  -3.099  28.760  0.00  0.00     0.087 H 
BRANCH 112 114
ATOM    114  N   ARG d   1      14.529  -2.553  26.852  0.00  0.00    -0.346 N 
ATOM    115  C   ALA d   1      13.274  -2.943  27.031  0.00  0.00     0.248 C 
ATOM    116  O   ALA d   1      12.781  -3.155  28.135  0.00  0.00    -0.271 OA
ATOM    117  H8  ARG d   1      14.858  -2.381  25.924  0.00  0.00     0.163 HD
BRANCH 115 118
ATOM    118  CA  ALA d   1      12.439  -3.106  25.780  0.00  0.00     0.172 C 
ATOM    119  H4  ALA d   1      13.105  -3.379  24.948  0.00  0.00     0.098 H 
BRANCH 118 120
ATOM    120  N   ALA d   1      11.431  -4.196  25.946  0.00  0.00    -0.067 N 
ATOM    121  H1  ALA d   1      10.889  -4.284  25.101  0.00  0.00     0.275 HD
ATOM    122  H2  ALA d   1      10.819  -3.974  26.716  0.00  0.00     0.275 HD
ATOM    123  H3  ALA d   1      11.905  -5.066  26.134  0.00  0.00     0.275 HD
ENDBRANCH 118 120
BRANCH 118 124
ATOM    124  CB  ALA d   1      11.767  -1.782  25.446  0.00  0.00    -0.042 C 
ATOM    125  H5  ALA d   1      12.533  -1.001  25.330  0.00  0.00     0.030 H 
ATOM    126  H6  ALA d   1      11.080  -1.504  26.259  0.00  0.00     0.030 H 
ATOM    127  H7  ALA d   1      11.202  -1.884  24.508  0.00  0.00     0.030 H 
ENDBRANCH 118 124
ENDBRANCH 115 118
ENDBRANCH 112 114
BRANCH 112 128
ATOM    128  CB  ARG d   1      16.893  -2.618  27.537  0.00  0.00    -0.036 C 
ATOM    129  H10 ARG d   1      17.538  -2.539  28.424  0.00  0.00     0.036 H 
ATOM    130  H11 ARG d   1      17.168  -1.837  26.812  0.00  0.00     0.036 H 
BRANCH 128 131
ATOM    131  CG  ARG d   1      17.144  -3.975  26.889  0.00  0.00    -0.048 C 
ATOM    132  H12 ARG d   1      16.248  -4.269  26.323  0.00  0.00     0.035 H 
ATOM    133  H13 ARG d   1      17.338  -4.715  27.680  0.00  0.00     0.035 H 
BRANCH 131 134
ATOM    134  CD  ARG d   1      18.340  -3.947  25.937  0.00  0.00     0.009 C 
ATOM    135  H14 ARG d   1      18.692  -4.977  25.780  0.00  0.00     0.064 H 
ATOM    136  H15 ARG d   1      19.143  -3.351  26.395  0.00  0.00     0.064 H 
BRANCH 134 137
ATOM    137  NE  ARG d   1      18.001  -3.360  24.634  0.00  0.00    -0.227 N 
ATOM    138  CZ  ARG d   1      18.626  -2.325  24.069  0.00  0.00     0.665 C 
ATOM    139  NH1 ARG d   1      19.651  -1.741  24.682  0.00  0.00    -0.235 N 
ATOM    140  NH2 ARG d   1      18.234  -1.876  22.877  0.00  0.00    -0.235 N 
ATOM    141  H17 ARG d   1      20.128  -0.943  24.240  0.00  0.00     0.174 HD
ATOM    142  H18 ARG d   1      19.968  -2.087  25.599  0.00  0.00     0.174 HD
ATOM    143  H19 ARG d   1      17.441  -2.322  22.394  0.00  0.00     0.174 HD
ATOM    144  H20 ARG d   1      18.724  -1.083  22.439  0.00  0.00     0.174 HD
ATOM    145  H16 ARG d   1      17.218  -3.781  24.114  0.00  0.00     0.177 HD
ENDBRANCH 134 137
ENDBRANCH 131 134
ENDBRANCH 128 131
ENDBRANCH 112 128
ENDBRANCH 109 112
ENDBRANCH 106 108
BRANCH 106 146
ATOM    146  CB  THR d   1      14.620   0.754  31.603  0.00  0.00     0.060 C 
ATOM    147  H23 THR d   1      14.802   1.754  32.024  0.00  0.00     0.086 H 
BRANCH 146 148
ATOM    148  OG1 THR d   1      14.828  -0.226  32.625  0.00  0.00    -0.393 OA
ATOM    149  H24 THR d   1      15.716  -0.155  32.955  0.00  0.00     0.210 HD
ENDBRANCH 146 148
BRANCH 146 150
ATOM    150  CG2 THR d   1      13.192   0.689  31.122  0.00  0.00    -0.050 C 
ATOM    151  H25 THR d   1      12.512   0.861  31.969  0.00  0.00     0.031 H 
ATOM    152  H26 THR d   1      12.995  -0.303  30.690  0.00  0.00     0.031 H 
ATOM    153  H27 THR d   1      13.027   1.462  30.357  0.00  0.00     0.031 H 
ENDBRANCH 146 150
ENDBRANCH 106 146
ENDBRANCH 103 106
ENDBRANCH 100 102
BRANCH 100 154
ATOM    154  CB  LYS d   1      19.712   2.661  31.014  0.00  0.00    -0.038 C 
ATOM    155  H30 LYS d   1      19.891   1.789  30.367  0.00  0.00     0.036 H 
ATOM    156  H31 LYS d   1      20.605   2.852  31.628  0.00  0.00     0.036 H 
BRANCH 154 157
ATOM    157  CG  LYS d   1      19.494   3.868  30.120  0.00  0.00    -0.061 C 
ATOM    158  H32 LYS d   1      19.081   4.701  30.708  0.00  0.00     0.033 H 
ATOM    159  H33 LYS d   1      18.799   3.613  29.307  0.00  0.00     0.033 H 
BRANCH 157 160
ATOM    160  CD  LYS d   1      20.845   4.259  29.544  0.00  0.00    -0.043 C 
ATOM    161  H34 LYS d   1      21.253   3.400  28.991  0.00  0.00     0.035 H 
ATOM    162  H35 LYS d   1      21.520   4.515  30.374  0.00  0.00     0.035 H 
BRANCH 160 163
ATOM    163  CE  LYS d   1      20.762   5.438  28.610  0.00  0.00     0.080 C 
ATOM    164  H36 LYS d   1      20.449   6.334  29.166  0.00  0.00     0.075 H 
ATOM    165  H37 LYS d   1      20.036   5.231  27.810  0.00  0.00     0.075 H 
BRANCH 163 166
ATOM    166  NZ  LYS d   1      22.118   5.653  28.022  0.00  0.00    -0.079 N 
ATOM    167  H38 LYS d   1      22.090   6.439  27.391  0.00  0.00     0.274 HD
ATOM    168  H39 LYS d   1      22.400   4.827  27.518  0.00  0.00     0.274 HD
ATOM    169  H40 LYS d   1      22.779   5.838  28.760  0.00  0.00     0.274 HD
ENDBRANCH 163 166
ENDBRANCH 160 163
ENDBRANCH 157 160
ENDBRANCH 154 157
ENDBRANCH 100 154
ENDBRANCH  97 100
ENDBRANCH  94  96
BRANCH  94 170
ATOM    170  CB  GLN d   1      19.178   4.035  36.235  0.00  0.00    -0.030 C 
ATOM    171  H43 GLN d   1      20.240   4.061  36.522  0.00  0.00     0.037 H 
ATOM    172  H44 GLN d   1      18.847   2.990  36.148  0.00  0.00     0.037 H 
BRANCH 170 173
ATOM    173  CG  GLN d   1      18.378   4.693  37.331  0.00  0.00     0.011 C 
ATOM    174  H45 GLN d   1      18.651   5.758  37.375  0.00  0.00     0.047 H 
ATOM    175  H46 GLN d   1      18.628   4.211  38.287  0.00  0.00     0.047 H 
BRANCH 173 176
ATOM    176  CD  GLN d   1      16.883   4.584  37.110  0.00  0.00     0.215 C 
ATOM    177  OE1 GLN d   1      16.181   5.566  37.205  0.00  0.00    -0.274 OA
ATOM    178  NE2 GLN d   1      16.396   3.380  36.808  0.00  0.00    -0.370 N 
ATOM    179  H47 GLN d   1      15.415   3.262  36.654  0.00  0.00     0.159 HD
ATOM    180  H48 GLN d   1      17.012   2.595  36.736  0.00  0.00     0.159 HD
ENDBRANCH 173 176
ENDBRANCH 170 173
ENDBRANCH  94 170
ENDBRANCH   3  94
TORSDOF 54
