REMARK WARNING: 32 MAX_TORS EXCEEDED!!!
REMARK  33 active torsions:
REMARK  status: ('A' for Active; 'I' for Inactive)
REMARK    1  A    between atoms: N_1  and  CA_2 
REMARK    2  A    between atoms: CA_2  and  C_3 
REMARK    3  A    between atoms: CA_2  and  CB_5 
REMARK       I    between atoms: C_3  and  N_7 
REMARK    4  A    between atoms: CB_5  and  OG_6 
REMARK    5  A    between atoms: N_7  and  CA_8 
REMARK    6  A    between atoms: CA_8  and  C_9 
REMARK    7  A    between atoms: CA_8  and  CB_11 
REMARK       I    between atoms: C_9  and  N_13 
REMARK    8  A    between atoms: CB_11  and  OG_12 
REMARK    9  A    between atoms: N_13  and  CA_14 
REMARK   10  A    between atoms: CA_14  and  C_15 
REMARK   11  A    between atoms: CA_14  and  CB_17 
REMARK       I    between atoms: C_15  and  N_22 
REMARK   12  A    between atoms: CB_17  and  CG_18 
REMARK   13  A    between atoms: CG_18  and  CD_19 
REMARK   14  A    between atoms: CD_19  and  CE_20 
REMARK   15  A    between atoms: CE_20  and  NZ_21 
REMARK   16  A    between atoms: CA_23  and  C_24 
REMARK       I    between atoms: C_24  and  N_29 
REMARK   17  A    between atoms: N_29  and  CA_30 
REMARK   18  A    between atoms: CA_30  and  C_31 
REMARK   19  A    between atoms: CA_30  and  CB_33 
REMARK       I    between atoms: C_31  and  N_37 
REMARK   20  A    between atoms: CB_33  and  CG_34 
REMARK   21  A    between atoms: N_37  and  CA_38 
REMARK   22  A    between atoms: CA_38  and  C_39 
REMARK   23  A    between atoms: CA_38  and  CB_41 
REMARK       I    between atoms: C_39  and  N_45 
REMARK   24  A    between atoms: CB_41  and  CG1_42 
REMARK   25  A    between atoms: CB_41  and  CG2_43 
REMARK   26  A    between atoms: CG1_42  and  CD1_44 
REMARK   27  A    between atoms: N_45  and  CA_46 
REMARK   28  A    between atoms: CA_46  and  C_47 
REMARK   29  A    between atoms: CA_46  and  CB_49 
REMARK       I    between atoms: C_47  and  N_52 
REMARK   30  A    between atoms: CB_49  and  CG1_50 
REMARK   31  A    between atoms: CB_49  and  CG2_51 
REMARK   32  A    between atoms: N_52  and  CA_53 
REMARK   33  A    between atoms: CA_53  and  C_54 
ROOT
ATOM      1  C   LYS d   1      88.716 -68.147  67.653  0.00  0.00     0.243 C 
ATOM      2  O   LYS d   1      87.568 -68.436  67.988  0.00  0.00    -0.271 OA
ATOM      3  N   PRO d   1      89.795 -68.515  68.361  0.00  0.00    -0.337 N 
ATOM      4  CA  PRO d   1      89.713 -69.344  69.569  0.00  0.00     0.091 C 
ATOM      5  CB  PRO d   1      91.174 -69.450  70.020  0.00  0.00    -0.036 C 
ATOM      6  CG  PRO d   1      91.965 -69.230  68.783  0.00  0.00    -0.048 C 
ATOM      7  CD  PRO d   1      91.191 -68.222  67.993  0.00  0.00    -0.001 C 
ATOM      8  H26 PRO d   1      89.297 -70.334  69.330  0.00  0.00     0.087 H 
ATOM      9  H27 PRO d   1      91.379 -70.446  70.440  0.00  0.00     0.036 H 
ATOM     10  H28 PRO d   1      91.405 -68.680  70.771  0.00  0.00     0.036 H 
ATOM     11  H29 PRO d   1      92.065 -70.168  68.218  0.00  0.00     0.035 H 
ATOM     12  H30 PRO d   1      92.964 -68.842  69.029  0.00  0.00     0.035 H 
ATOM     13  H31 PRO d   1      91.469 -67.197  68.280  0.00  0.00     0.064 H 
ATOM     14  H32 PRO d   1      91.352 -68.357  66.913  0.00  0.00     0.064 H 
ENDROOT
BRANCH   4  15
ATOM     15  C   PRO d   1      88.880 -68.701  70.672  0.00  0.00     0.241 C 
ATOM     16  O   PRO d   1      88.542 -67.521  70.594  0.00  0.00    -0.271 OA
ATOM     17  N   ASP d   1      88.556 -69.488  71.691  0.00  0.00    -0.346 N 
ATOM     18  H33 ASP d   1      88.865 -70.439  71.684  0.00  0.00     0.163 HD
BRANCH  17  19
ATOM     19  CA  ASP d   1      87.766 -69.013  72.817  0.00  0.00     0.098 C 
ATOM     20  H34 ASP d   1      86.990 -68.328  72.445  0.00  0.00     0.088 H 
BRANCH  19  21
ATOM     21  C   ASP d   1      88.660 -68.259  73.799  0.00  0.00     0.241 C 
ATOM     22  O   ASP d   1      89.885 -68.344  73.721  0.00  0.00    -0.271 OA
ATOM     23  N   ILE d   1      88.043 -67.523  74.719  0.00  0.00    -0.346 N 
ATOM     24  H37 ILE d   1      87.043 -67.523  74.746  0.00  0.00     0.163 HD
BRANCH  23  25
ATOM     25  CA  ILE d   1      88.774 -66.714  75.693  0.00  0.00     0.092 C 
ATOM     26  H38 ILE d   1      89.551 -66.154  75.153  0.00  0.00     0.088 H 
BRANCH  25  27
ATOM     27  C   ILE d   1      89.444 -67.562  76.767  0.00  0.00     0.241 C 
ATOM     28  O   ILE d   1      89.379 -68.791  76.739  0.00  0.00    -0.271 OA
ATOM     29  N   VAL d   1      90.087 -66.894  77.719  0.00  0.00    -0.346 N 
ATOM     30  H48 VAL d   1      90.158 -65.899  77.651  0.00  0.00     0.163 HD
BRANCH  29  31
ATOM     31  CA  VAL d   1      90.693 -67.573  78.863  0.00  0.00     0.092 C 
ATOM     32  H49 VAL d   1      90.925 -68.608  78.572  0.00  0.00     0.088 H 
BRANCH  31  33
ATOM     33  C   VAL d   1      89.710 -67.595  80.030  0.00  0.00     0.241 C 
ATOM     34  O   VAL d   1      89.300 -66.546  80.529  0.00  0.00    -0.271 OA
ATOM     35  N   GLY d   1      89.320 -68.793  80.452  0.00  0.00    -0.349 N 
ATOM     36  H57 GLY d   1      89.691 -69.610  80.011  0.00  0.00     0.163 HD
BRANCH  35  37
ATOM     37  CA  GLY d   1      88.368 -68.946  81.538  0.00  0.00     0.075 C 
ATOM     38  H58 GLY d   1      87.816 -68.002  81.657  0.00  0.00     0.080 H 
ATOM     39  H59 GLY d   1      88.922 -69.165  82.463  0.00  0.00     0.080 H 
BRANCH  37  40
ATOM     40  C   GLY d   1      87.368 -70.067  81.293  0.00  0.00     0.191 C 
ATOM     41  O   GLY d   1      86.550 -69.997  80.377  0.00  0.00    -0.647 OA
ATOM     42  OXT GLY d   1      87.361 -71.076  82.000  0.00  0.00    -0.647 OA
ENDBRANCH  37  40
ENDBRANCH  35  37
ENDBRANCH  31  33
BRANCH  31  43
ATOM     43  CB  VAL d   1      91.999 -66.883  79.309  0.00  0.00    -0.033 C 
ATOM     44  H50 VAL d   1      91.768 -65.837  79.561  0.00  0.00     0.042 H 
BRANCH  43  45
ATOM     45  CG1 VAL d   1      92.563 -67.561  80.550  0.00  0.00    -0.071 C 
ATOM     46  H51 VAL d   1      93.492 -67.057  80.853  0.00  0.00     0.028 H 
ATOM     47  H52 VAL d   1      92.775 -68.617  80.327  0.00  0.00     0.028 H 
ATOM     48  H53 VAL d   1      91.829 -67.499  81.367  0.00  0.00     0.028 H 
ENDBRANCH  43  45
BRANCH  43  49
ATOM     49  CG2 VAL d   1      93.018 -66.887  78.190  0.00  0.00    -0.071 C 
ATOM     50  H54 VAL d   1      92.592 -66.394  77.304  0.00  0.00     0.028 H 
ATOM     51  H55 VAL d   1      93.283 -67.925  77.939  0.00  0.00     0.028 H 
ATOM     52  H56 VAL d   1      93.919 -66.346  78.513  0.00  0.00     0.028 H 
ENDBRANCH  43  49
ENDBRANCH  31  43
ENDBRANCH  29  31
ENDBRANCH  25  27
BRANCH  25  53
ATOM     53  CB  ILE d   1      87.843 -65.718  76.395  0.00  0.00    -0.030 C 
ATOM     54  H39 ILE d   1      88.441 -65.118  77.096  0.00  0.00     0.043 H 
BRANCH  53  55
ATOM     55  CG1 ILE d   1      86.777 -66.470  77.194  0.00  0.00    -0.063 C 
ATOM     56  H40 ILE d   1      87.284 -67.088  77.950  0.00  0.00     0.033 H 
ATOM     57  H41 ILE d   1      86.221 -67.120  76.502  0.00  0.00     0.033 H 
BRANCH  55  58
ATOM     58  CD1 ILE d   1      85.787 -65.573  77.901  0.00  0.00    -0.076 C 
ATOM     59  H45 ILE d   1      85.059 -66.190  78.449  0.00  0.00     0.027 H 
ATOM     60  H46 ILE d   1      85.259 -64.954  77.160  0.00  0.00     0.027 H 
ATOM     61  H47 ILE d   1      86.322 -64.922  78.608  0.00  0.00     0.027 H 
ENDBRANCH  55  58
ENDBRANCH  53  55
BRANCH  53  62
ATOM     62  CG2 ILE d   1      87.206 -64.774  75.383  0.00  0.00    -0.071 C 
ATOM     63  H42 ILE d   1      87.995 -64.248  74.825  0.00  0.00     0.028 H 
ATOM     64  H43 ILE d   1      86.579 -64.040  75.910  0.00  0.00     0.028 H 
ATOM     65  H44 ILE d   1      86.585 -65.352  74.683  0.00  0.00     0.028 H 
ENDBRANCH  53  62
ENDBRANCH  25  53
ENDBRANCH  23  25
ENDBRANCH  19  21
BRANCH  19  66
ATOM     66  CB  ASP d   1      87.088 -70.197  73.511  0.00  0.00     0.043 C 
ATOM     67  H35 ASP d   1      87.835 -70.718  74.127  0.00  0.00     0.052 H 
ATOM     68  H36 ASP d   1      86.705 -70.883  72.741  0.00  0.00     0.052 H 
BRANCH  66  69
ATOM     69  CG  ASP d   1      85.938 -69.776  74.399  0.00  0.00     0.175 C 
ATOM     70  OD1 ASP d   1      85.259 -68.780  74.068  0.00  0.00    -0.648 OA
ATOM     71  OD2 ASP d   1      85.710 -70.448  75.425  0.00  0.00    -0.648 OA
ENDBRANCH  66  69
ENDBRANCH  19  66
ENDBRANCH  17  19
ENDBRANCH   4  15
BRANCH   1  72
ATOM     72  CA  LYS d   1      88.964 -67.338  66.388  0.00  0.00     0.089 C 
ATOM     73  H14 LYS d   1      89.996 -67.513  66.050  0.00  0.00     0.087 H 
BRANCH  72  74
ATOM     74  N   LYS d   1      88.047 -67.767  65.340  0.00  0.00    -0.346 N 
ATOM     75  C   SER d   1      88.484 -68.310  64.208  0.00  0.00     0.243 C 
ATOM     76  O   SER d   1      89.674 -68.508  63.973  0.00  0.00    -0.271 OA
ATOM     77  H13 LYS d   1      87.063 -67.650  65.476  0.00  0.00     0.163 HD
BRANCH  75  78
ATOM     78  CA  SER d   1      87.419 -68.687  63.187  0.00  0.00     0.109 C 
ATOM     79  H9  SER d   1      86.437 -68.393  63.587  0.00  0.00     0.090 H 
BRANCH  78  80
ATOM     80  N   SER d   1      87.631 -67.982  61.932  0.00  0.00    -0.344 N 
ATOM     81  C   SER d   1      86.798 -67.034  61.520  0.00  0.00     0.251 C 
ATOM     82  O   SER d   1      85.803 -66.697  62.157  0.00  0.00    -0.271 OA
ATOM     83  H8  SER d   1      88.422 -68.217  61.367  0.00  0.00     0.163 HD
BRANCH  81  84
ATOM     84  CA  SER d   1      87.139 -66.365  60.192  0.00  0.00     0.195 C 
ATOM     85  H4  SER d   1      87.344 -67.150  59.449  0.00  0.00     0.102 H 
BRANCH  84  86
ATOM     86  N   SER d   1      86.024 -65.557  59.712  0.00  0.00    -0.064 N 
ATOM     87  H1  SER d   1      86.274 -65.127  58.835  0.00  0.00     0.275 HD
ATOM     88  H2  SER d   1      85.812 -64.841  60.389  0.00  0.00     0.275 HD
ATOM     89  H3  SER d   1      85.216 -66.145  59.580  0.00  0.00     0.275 HD
ENDBRANCH  84  86
BRANCH  84  90
ATOM     90  CB  SER d   1      88.393 -65.504  60.349  0.00  0.00     0.051 C 
ATOM     91  H5  SER d   1      89.225 -65.980  59.810  0.00  0.00     0.077 H 
ATOM     92  H6  SER d   1      88.644 -65.427  61.417  0.00  0.00     0.077 H 
BRANCH  90  93
ATOM     93  OG  SER d   1      88.189 -64.205  59.828  0.00  0.00    -0.398 OA
ATOM     94  H7  SER d   1      88.981 -63.693  59.938  0.00  0.00     0.209 HD
ENDBRANCH  90  93
ENDBRANCH  84  90
ENDBRANCH  81  84
ENDBRANCH  78  80
BRANCH  78  95
ATOM     95  CB  SER d   1      87.413 -70.197  62.955  0.00  0.00     0.044 C 
ATOM     96  H10 SER d   1      87.267 -70.708  63.918  0.00  0.00     0.077 H 
ATOM     97  H11 SER d   1      88.379 -70.498  62.523  0.00  0.00     0.077 H 
BRANCH  95  98
ATOM     98  OG  SER d   1      86.377 -70.571  62.073  0.00  0.00    -0.398 OA
ATOM     99  H12 SER d   1      86.395 -71.512  61.946  0.00  0.00     0.209 HD
ENDBRANCH  95  98
ENDBRANCH  78  95
ENDBRANCH  75  78
ENDBRANCH  72  74
BRANCH  72 100
ATOM    100  CB  LYS d   1      88.787 -65.848  66.678  0.00  0.00    -0.038 C 
ATOM    101  H15 LYS d   1      89.763 -65.355  66.556  0.00  0.00     0.036 H 
ATOM    102  H16 LYS d   1      88.448 -65.738  67.719  0.00  0.00     0.036 H 
BRANCH 100 103
ATOM    103  CG  LYS d   1      87.784 -65.148  65.775  0.00  0.00    -0.061 C 
ATOM    104  H17 LYS d   1      87.394 -64.263  66.299  0.00  0.00     0.033 H 
ATOM    105  H18 LYS d   1      86.957 -65.841  65.561  0.00  0.00     0.033 H 
BRANCH 103 106
ATOM    106  CD  LYS d   1      88.404 -64.704  64.458  0.00  0.00    -0.043 C 
ATOM    107  H19 LYS d   1      88.886 -65.567  63.974  0.00  0.00     0.035 H 
ATOM    108  H20 LYS d   1      89.157 -63.927  64.655  0.00  0.00     0.035 H 
BRANCH 106 109
ATOM    109  CE  LYS d   1      87.333 -64.143  63.533  0.00  0.00     0.080 C 
ATOM    110  H21 LYS d   1      86.617 -64.943  63.294  0.00  0.00     0.075 H 
ATOM    111  H22 LYS d   1      87.813 -63.792  62.608  0.00  0.00     0.075 H 
BRANCH 109 112
ATOM    112  NZ  LYS d   1      86.589 -63.001  64.152  0.00  0.00    -0.079 N 
ATOM    113  H23 LYS d   1      85.893 -62.664  63.505  0.00  0.00     0.274 HD
ATOM    114  H24 LYS d   1      87.234 -62.258  64.369  0.00  0.00     0.274 HD
ATOM    115  H25 LYS d   1      86.138 -63.313  64.998  0.00  0.00     0.274 HD
ENDBRANCH 109 112
ENDBRANCH 106 109
ENDBRANCH 103 106
ENDBRANCH 100 103
ENDBRANCH  72 100
ENDBRANCH   1  72
TORSDOF 33
