REMARK  19 active torsions:
REMARK  status: ('A' for Active; 'I' for Inactive)
REMARK    1  A    between atoms: C_1  and  CH3_3 
REMARK       I    between atoms: C_1  and  N_4 
REMARK    2  A    between atoms: N_4  and  CA_5 
REMARK    3  A    between atoms: CA_5  and  C_6 
REMARK    4  A    between atoms: CA_5  and  CB_8 
REMARK       I    between atoms: C_6  and  N_20 
REMARK    5  A    between atoms: CB_8  and  CG_9 
REMARK    6  A    between atoms: CZ_14  and  OH_15 
REMARK    7  A    between atoms: OH_15  and  P_16 
REMARK    8  A    between atoms: N_20  and  CA_21 
REMARK    9  A    between atoms: CA_21  and  C_22 
REMARK   10  A    between atoms: CA_21  and  CB_24 
REMARK       I    between atoms: C_22  and  N_27 
REMARK   11  A    between atoms: CB_24  and  OG1_25 
REMARK   12  A    between atoms: CB_24  and  CG2_26 
REMARK   13  A    between atoms: CA_28  and  C_29 
REMARK       I    between atoms: C_29  and  N_34 
REMARK   14  A    between atoms: N_34  and  CA_35 
REMARK   15  A    between atoms: CA_35  and  C_36 
REMARK   16  A    between atoms: CA_35  and  CB_38 
REMARK       I    between atoms: C_36  and  N_43 
REMARK   17  A    between atoms: CB_38  and  CG_39 
REMARK   18  A    between atoms: CG_39  and  CD_40 
REMARK   19  A    between atoms: CA_44  and  C_45 
REMARK       I    between atoms: C_45  and  N_50 
ROOT
ATOM      1  C   THR d   1      59.163 -39.902 -11.052  0.00  0.00     0.245 C 
ATOM      2  O   THR d   1      57.988 -40.157 -11.281  0.00  0.00    -0.271 OA
ATOM      3  N   PRO d   1      59.939 -39.202 -11.903  0.00  0.00    -0.337 N 
ATOM      4  CA  PRO d   1      59.501 -38.688 -13.221  0.00  0.00     0.091 C 
ATOM      5  CB  PRO d   1      60.817 -38.263 -13.863  0.00  0.00    -0.036 C 
ATOM      6  CG  PRO d   1      61.642 -37.804 -12.712  0.00  0.00    -0.048 C 
ATOM      7  CD  PRO d   1      61.301 -38.739 -11.568  0.00  0.00    -0.001 C 
ATOM      8  H19 PRO d   1      58.815 -37.837 -13.096  0.00  0.00     0.087 H 
ATOM      9  H20 PRO d   1      60.657 -37.445 -14.581  0.00  0.00     0.036 H 
ATOM     10  H21 PRO d   1      61.295 -39.111 -14.374  0.00  0.00     0.036 H 
ATOM     11  H22 PRO d   1      61.390 -36.766 -12.448  0.00  0.00     0.035 H 
ATOM     12  H23 PRO d   1      62.712 -37.870 -12.956  0.00  0.00     0.035 H 
ATOM     13  H24 PRO d   1      62.005 -39.583 -11.526  0.00  0.00     0.064 H 
ATOM     14  H25 PRO d   1      61.310 -38.205 -10.606  0.00  0.00     0.064 H 
ENDROOT
BRANCH   1  15
ATOM     15  CA  THR d   1      59.793 -40.367  -9.741  0.00  0.00     0.114 C 
ATOM     16  H13 THR d   1      60.404 -39.553  -9.323  0.00  0.00     0.091 H 
BRANCH  15  17
ATOM     17  N   THR d   1      58.694 -40.655  -8.831  0.00  0.00    -0.344 N 
ATOM     18  C   PTR d   1      58.776 -40.304  -7.565  0.00  0.00     0.241 C 
ATOM     19  O   PTR d   1      59.720 -39.644  -7.145  0.00  0.00    -0.271 OA
ATOM     20  H12 THR d   1      57.876 -41.120  -9.168  0.00  0.00     0.163 HD
BRANCH  18  21
ATOM     21  CA  PTR d   1      57.670 -40.753  -6.650  0.00  0.00     0.093 C 
ATOM     22  H5  PTR d   1      57.380 -41.777  -6.928  0.00  0.00     0.088 H 
BRANCH  21  23
ATOM     23  N   PTR d   1      58.187 -40.771  -5.234  0.00  0.00    -0.348 N 
ATOM     24  C   ACE d   1      58.704 -41.920  -4.794  0.00  0.00     0.214 C 
ATOM     25  O   ACE d   1      58.636 -42.902  -5.529  0.00  0.00    -0.274 OA
ATOM     26  H4  PTR d   1      58.145 -39.959  -4.651  0.00  0.00     0.163 HD
BRANCH  24  27
ATOM     27  CH3 ACE d   1      58.844 -42.095  -3.294  0.00  0.00    -0.003 C 
ATOM     28  H1  ACE d   1      58.888 -41.107  -2.812  0.00  0.00     0.040 H 
ATOM     29  H2  ACE d   1      59.767 -42.652  -3.074  0.00  0.00     0.040 H 
ATOM     30  H3  ACE d   1      57.978 -42.653  -2.908  0.00  0.00     0.040 H 
ENDBRANCH  24  27
ENDBRANCH  21  23
BRANCH  21  31
ATOM     31  CB  PTR d   1      56.435 -39.859  -6.787  0.00  0.00    -0.014 C 
ATOM     32  H6  PTR d   1      56.097 -39.858  -7.834  0.00  0.00     0.043 H 
ATOM     33  H7  PTR d   1      56.689 -38.833  -6.483  0.00  0.00     0.043 H 
BRANCH  31  34
ATOM     34  CG  PTR d   1      55.326 -40.392  -5.896  0.00  0.00    -0.056 A 
ATOM     35  CD1 PTR d   1      54.470 -41.382  -6.359  0.00  0.00    -0.074 A 
ATOM     36  CE1 PTR d   1      53.461 -41.864  -5.542  0.00  0.00    -0.050 A 
ATOM     37  H8  PTR d   1      54.592 -41.778  -7.361  0.00  0.00     0.084 H 
ATOM     38  CZ  PTR d   1      53.280 -41.401  -4.245  0.00  0.00     0.082 A 
ATOM     39  H10 PTR d   1      52.792 -42.626  -5.926  0.00  0.00     0.087 H 
ATOM     40  CE2 PTR d   1      54.141 -40.424  -3.775  0.00  0.00    -0.050 A 
ATOM     41  CD2 PTR d   1      55.148 -39.917  -4.601  0.00  0.00    -0.074 A 
ATOM     42  H11 PTR d   1      54.034 -40.051  -2.763  0.00  0.00     0.087 H 
ATOM     43  H9  PTR d   1      55.803 -39.139  -4.225  0.00  0.00     0.084 H 
BRANCH  38  44
ATOM     44  OH  PTR d   1      52.263 -41.970  -3.490  0.00  0.00    -0.240 OA
BRANCH  44  45
ATOM     45  P   PTR d   1      51.692 -41.561  -2.030  0.00  0.00     0.427 P 
ATOM     46  O1P PTR d   1      52.800 -41.693  -1.008  0.00  0.00    -0.617 OA
ATOM     47  O2P PTR d   1      50.617 -42.582  -1.830  0.00  0.00    -0.617 OA
ATOM     48  O3P PTR d   1      51.173 -40.160  -2.285  0.00  0.00    -0.617 OA
ENDBRANCH  44  45
ENDBRANCH  38  44
ENDBRANCH  31  34
ENDBRANCH  21  31
ENDBRANCH  18  21
ENDBRANCH  15  17
BRANCH  15  49
ATOM     49  CB  THR d   1      60.723 -41.617  -9.960  0.00  0.00     0.060 C 
ATOM     50  H14 THR d   1      61.484 -41.358 -10.711  0.00  0.00     0.086 H 
BRANCH  49  51
ATOM     51  OG1 THR d   1      59.944 -42.719 -10.424  0.00  0.00    -0.393 OA
ATOM     52  H15 THR d   1      59.279 -42.929  -9.779  0.00  0.00     0.210 HD
ENDBRANCH  49  51
BRANCH  49  53
ATOM     53  CG2 THR d   1      61.407 -42.068  -8.707  0.00  0.00    -0.050 C 
ATOM     54  H16 THR d   1      62.039 -42.941  -8.928  0.00  0.00     0.031 H 
ATOM     55  H17 THR d   1      60.652 -42.343  -7.956  0.00  0.00     0.031 H 
ATOM     56  H18 THR d   1      62.033 -41.252  -8.317  0.00  0.00     0.031 H 
ENDBRANCH  49  53
ENDBRANCH  15  49
ENDBRANCH   1  15
BRANCH   4  57
ATOM     57  C   PRO d   1      58.849 -39.739 -14.107  0.00  0.00     0.241 C 
ATOM     58  O   PRO d   1      59.269 -40.876 -14.078  0.00  0.00    -0.271 OA
ATOM     59  N   GLU d   1      57.834 -39.367 -14.889  0.00  0.00    -0.346 N 
ATOM     60  H26 GLU d   1      57.499 -38.427 -14.827  0.00  0.00     0.163 HD
BRANCH  59  61
ATOM     61  CA  GLU d   1      57.185 -40.291 -15.844  0.00  0.00     0.090 C 
ATOM     62  H27 GLU d   1      56.665 -41.081 -15.281  0.00  0.00     0.087 H 
BRANCH  61  63
ATOM     63  C   GLU d   1      58.210 -40.933 -16.795  0.00  0.00     0.243 C 
ATOM     64  O   GLU d   1      59.142 -40.265 -17.170  0.00  0.00    -0.271 OA
ATOM     65  N   PRO d   1      58.036 -42.208 -17.210  0.00  0.00    -0.337 N 
ATOM     66  CA  PRO d   1      59.031 -42.893 -18.066  0.00  0.00     0.091 C 
ATOM     67  CD  PRO d   1      56.991 -43.139 -16.773  0.00  0.00    -0.001 C 
ATOM     68  CB  PRO d   1      58.457 -44.295 -18.242  0.00  0.00    -0.036 C 
ATOM     69  H32 PRO d   1      59.998 -42.930 -17.544  0.00  0.00     0.087 H 
ATOM     70  CG  PRO d   1      57.603 -44.474 -17.068  0.00  0.00    -0.048 C 
ATOM     71  H33 PRO d   1      59.259 -45.047 -18.261  0.00  0.00     0.036 H 
ATOM     72  H34 PRO d   1      57.868 -44.364 -19.169  0.00  0.00     0.036 H 
ATOM     73  H35 PRO d   1      58.203 -44.813 -16.211  0.00  0.00     0.035 H 
ATOM     74  H36 PRO d   1      56.816 -45.213 -17.281  0.00  0.00     0.035 H 
ATOM     75  H37 PRO d   1      56.063 -42.992 -17.345  0.00  0.00     0.064 H 
ATOM     76  H38 PRO d   1      56.782 -43.026 -15.699  0.00  0.00     0.064 H 
BRANCH  66  77
ATOM     77  C   PRO d   1      59.250 -42.272 -19.446  0.00  0.00     0.238 C 
ATOM     78  O   PRO d   1      58.322 -42.225 -20.245  0.00  0.00    -0.271 OA
ATOM     79  N   NH2 d   1      60.500 -42.487 -19.590  0.00  0.00    -0.368 N 
ATOM     80  H39 NH2 d   1      60.966 -42.188 -20.423  0.00  0.00     0.159 HD
ATOM     81  H40 NH2 d   1      61.013 -42.954 -18.870  0.00  0.00     0.159 HD
ENDBRANCH  66  77
ENDBRANCH  61  63
BRANCH  61  82
ATOM     82  CB  GLU d   1      56.186 -39.522 -16.693  0.00  0.00    -0.029 C 
ATOM     83  H28 GLU d   1      55.652 -40.249 -17.322  0.00  0.00     0.037 H 
ATOM     84  H29 GLU d   1      56.753 -38.830 -17.333  0.00  0.00     0.037 H 
BRANCH  82  85
ATOM     85  CG  GLU d   1      55.153 -38.715 -15.946  0.00  0.00     0.018 C 
ATOM     86  H30 GLU d   1      55.542 -37.701 -15.770  0.00  0.00     0.049 H 
ATOM     87  H31 GLU d   1      54.943 -39.200 -14.981  0.00  0.00     0.049 H 
BRANCH  85  88
ATOM     88  CD  GLU d   1      53.873 -38.625 -16.748  0.00  0.00     0.172 C 
ATOM     89  OE1 GLU d   1      53.382 -39.714 -17.109  0.00  0.00    -0.648 OA
ATOM     90  OE2 GLU d   1      53.362 -37.505 -17.032  0.00  0.00    -0.648 OA
ENDBRANCH  85  88
ENDBRANCH  82  85
ENDBRANCH  61  82
ENDBRANCH  59  61
ENDBRANCH   4  57
TORSDOF 19
