REMARK WARNING: 32 MAX_TORS EXCEEDED!!!
REMARK  45 active torsions:
REMARK  status: ('A' for Active; 'I' for Inactive)
REMARK    1  A    between atoms: N_1  and  CA_2 
REMARK    2  A    between atoms: CA_2  and  C_3 
REMARK    3  A    between atoms: CA_2  and  CB_5 
REMARK       I    between atoms: C_3  and  N_7 
REMARK    4  A    between atoms: CB_5  and  OG_6 
REMARK    5  A    between atoms: N_7  and  CA_8 
REMARK    6  A    between atoms: CA_8  and  C_9 
REMARK    7  A    between atoms: CA_8  and  CB_11 
REMARK       I    between atoms: C_9  and  N_12 
REMARK    8  A    between atoms: N_12  and  CA_13 
REMARK    9  A    between atoms: CA_13  and  C_14 
REMARK   10  A    between atoms: CA_13  and  CB_16 
REMARK       I    between atoms: C_14  and  N_23 
REMARK   11  A    between atoms: CB_16  and  CG_17 
REMARK   12  A    between atoms: CG_17  and  CD_18 
REMARK   13  A    between atoms: CD_18  and  NE_19 
REMARK       I    between atoms: NE_19  and  CZ_20 
REMARK       I    between atoms: CZ_20  and  NH1_21 
REMARK       I    between atoms: CZ_20  and  NH2_22 
REMARK   14  A    between atoms: N_23  and  CA_24 
REMARK   15  A    between atoms: CA_24  and  C_25 
REMARK   16  A    between atoms: CA_24  and  CB_27 
REMARK       I    between atoms: C_25  and  N_37 
REMARK   17  A    between atoms: CB_27  and  CG_28 
REMARK   18  A    between atoms: N_37  and  CA_38 
REMARK   19  A    between atoms: CA_38  and  C_39 
REMARK   20  A    between atoms: CA_38  and  CB_41 
REMARK       I    between atoms: C_39  and  N_48 
REMARK   21  A    between atoms: CB_41  and  CG_42 
REMARK   22  A    between atoms: CG_42  and  CD_43 
REMARK   23  A    between atoms: CD_43  and  NE_44 
REMARK       I    between atoms: NE_44  and  CZ_45 
REMARK       I    between atoms: CZ_45  and  NH1_46 
REMARK       I    between atoms: CZ_45  and  NH2_47 
REMARK   24  A    between atoms: N_48  and  CA_49 
REMARK   25  A    between atoms: CA_49  and  C_50 
REMARK   26  A    between atoms: CA_49  and  CB_52 
REMARK       I    between atoms: C_50  and  N_59 
REMARK   27  A    between atoms: CB_52  and  CG_53 
REMARK   28  A    between atoms: CA_60  and  C_61 
REMARK       I    between atoms: C_61  and  N_66 
REMARK   29  A    between atoms: N_66  and  CA_67 
REMARK   30  A    between atoms: CA_67  and  C_68 
REMARK   31  A    between atoms: CA_67  and  CB_70 
REMARK       I    between atoms: C_68  and  N_71 
REMARK   32  A    between atoms: N_71  and  CA_72 
REMARK   33  A    between atoms: CA_72  and  C_73 
REMARK   34  A    between atoms: CA_72  and  CB_75 
REMARK       I    between atoms: C_73  and  N_82 
REMARK   35  A    between atoms: CB_75  and  CG_76 
REMARK   36  A    between atoms: CG_76  and  CD_77 
REMARK   37  A    between atoms: CD_77  and  NE_78 
REMARK       I    between atoms: NE_78  and  CZ_79 
REMARK       I    between atoms: CZ_79  and  NH1_80 
REMARK       I    between atoms: CZ_79  and  NH2_81 
REMARK   38  A    between atoms: CA_83  and  C_84 
REMARK       I    between atoms: C_84  and  N_89 
REMARK   39  A    between atoms: N_89  and  CA_90 
REMARK   40  A    between atoms: CA_90  and  C_91 
REMARK       I    between atoms: C_91  and  N_93 
REMARK   41  A    between atoms: N_93  and  CA_94 
REMARK   42  A    between atoms: CA_94  and  C_95 
REMARK   43  A    between atoms: CA_94  and  CB_97 
REMARK   44  A    between atoms: CB_97  and  OG1_98 
REMARK   45  A    between atoms: CB_97  and  CG2_99 
ROOT
ATOM      1  CA  PHE d   1      -7.867  11.165   8.927  0.00  0.00     0.093 C 
ATOM      2  H50 PHE d   1      -7.203  10.380   8.536  0.00  0.00     0.088 H 
ENDROOT
BRANCH   1   3
ATOM      3  N   PHE d   1      -7.737  12.350   8.094  0.00  0.00    -0.346 N 
ATOM      4  C   ARG d   1      -8.120  12.335   6.820  0.00  0.00     0.241 C 
ATOM      5  O   ARG d   1      -8.626  11.370   6.271  0.00  0.00    -0.271 OA
ATOM      6  H49 PHE d   1      -7.354  13.188   8.484  0.00  0.00     0.163 HD
BRANCH   4   7
ATOM      7  CA  ARG d   1      -7.925  13.579   6.052  0.00  0.00     0.089 C 
ATOM      8  H37 ARG d   1      -7.029  14.097   6.425  0.00  0.00     0.087 H 
BRANCH   7   9
ATOM      9  N   ARG d   1      -7.689  13.262   4.610  0.00  0.00    -0.346 N 
ATOM     10  C   TRP d   1      -6.729  13.875   3.892  0.00  0.00     0.241 C 
ATOM     11  O   TRP d   1      -6.106  14.853   4.334  0.00  0.00    -0.271 OA
ATOM     12  H36 ARG d   1      -8.262  12.573   4.165  0.00  0.00     0.163 HD
BRANCH  10  13
ATOM     13  CA  TRP d   1      -6.288  13.196   2.615  0.00  0.00     0.093 C 
ATOM     14  H27 TRP d   1      -7.023  12.426   2.338  0.00  0.00     0.088 H 
BRANCH  13  15
ATOM     15  N   TRP d   1      -6.061  14.091   1.462  0.00  0.00    -0.346 N 
ATOM     16  C   ARG d   1      -7.039  14.723   0.851  0.00  0.00     0.241 C 
ATOM     17  O   ARG d   1      -8.210  14.464   1.047  0.00  0.00    -0.271 OA
ATOM     18  H26 TRP d   1      -5.126  14.222   1.133  0.00  0.00     0.163 HD
BRANCH  16  19
ATOM     19  CA  ARG d   1      -6.601  15.862  -0.089  0.00  0.00     0.089 C 
ATOM     20  H14 ARG d   1      -5.740  15.507  -0.674  0.00  0.00     0.087 H 
BRANCH  19  21
ATOM     21  N   ARG d   1      -7.648  16.246  -1.064  0.00  0.00    -0.346 N 
ATOM     22  C   ALA d   1      -7.384  16.192  -2.363  0.00  0.00     0.240 C 
ATOM     23  O   ALA d   1      -6.266  15.873  -2.762  0.00  0.00    -0.271 OA
ATOM     24  H13 ARG d   1      -8.548  16.544  -0.745  0.00  0.00     0.163 HD
BRANCH  22  25
ATOM     25  CA  ALA d   1      -8.520  16.576  -3.373  0.00  0.00     0.086 C 
ATOM     26  H9  ALA d   1      -9.213  17.250  -2.849  0.00  0.00     0.086 H 
BRANCH  25  27
ATOM     27  N   ALA d   1      -7.985  17.295  -4.542  0.00  0.00    -0.346 N 
ATOM     28  C   SER d   1      -7.347  18.467  -4.436  0.00  0.00     0.251 C 
ATOM     29  O   SER d   1      -7.170  19.056  -3.354  0.00  0.00    -0.271 OA
ATOM     30  H8  ALA d   1      -8.103  16.892  -5.450  0.00  0.00     0.163 HD
BRANCH  28  31
ATOM     31  CA  SER d   1      -6.824  19.063  -5.753  0.00  0.00     0.195 C 
ATOM     32  H4  SER d   1      -7.377  18.590  -6.577  0.00  0.00     0.102 H 
BRANCH  31  33
ATOM     33  N   SER d   1      -7.075  20.564  -5.848  0.00  0.00    -0.064 N 
ATOM     34  H1  SER d   1      -6.717  20.910  -6.724  0.00  0.00     0.275 HD
ATOM     35  H2  SER d   1      -6.609  21.032  -5.087  0.00  0.00     0.275 HD
ATOM     36  H3  SER d   1      -8.066  20.743  -5.796  0.00  0.00     0.275 HD
ENDBRANCH  31  33
BRANCH  31  37
ATOM     37  CB  SER d   1      -5.333  18.703  -5.922  0.00  0.00     0.051 C 
ATOM     38  H5  SER d   1      -5.188  17.650  -5.640  0.00  0.00     0.077 H 
ATOM     39  H6  SER d   1      -4.736  19.346  -5.259  0.00  0.00     0.077 H 
BRANCH  37  40
ATOM     40  OG  SER d   1      -4.884  18.886  -7.270  0.00  0.00    -0.398 OA
ATOM     41  H7  SER d   1      -3.965  18.654  -7.331  0.00  0.00     0.209 HD
ENDBRANCH  37  40
ENDBRANCH  31  37
ENDBRANCH  28  31
ENDBRANCH  25  27
BRANCH  25  42
ATOM     42  CB  ALA d   1      -9.317  15.353  -3.836  0.00  0.00    -0.049 C 
ATOM     43  H10 ALA d   1      -9.714  14.820  -2.959  0.00  0.00     0.030 H 
ATOM     44  H11 ALA d   1      -8.659  14.681  -4.406  0.00  0.00     0.030 H 
ATOM     45  H12 ALA d   1     -10.151  15.679  -4.475  0.00  0.00     0.030 H 
ENDBRANCH  25  42
ENDBRANCH  22  25
ENDBRANCH  19  21
BRANCH  19  46
ATOM     46  CB  ARG d   1      -6.124  17.021   0.790  0.00  0.00    -0.036 C 
ATOM     47  H15 ARG d   1      -5.037  16.910   0.918  0.00  0.00     0.036 H 
ATOM     48  H16 ARG d   1      -6.620  16.918   1.766  0.00  0.00     0.036 H 
BRANCH  46  49
ATOM     49  CG  ARG d   1      -6.377  18.425   0.304  0.00  0.00    -0.048 C 
ATOM     50  H17 ARG d   1      -7.281  18.434  -0.322  0.00  0.00     0.035 H 
ATOM     51  H18 ARG d   1      -5.516  18.764  -0.290  0.00  0.00     0.035 H 
BRANCH  49  52
ATOM     52  CD  ARG d   1      -6.574  19.367   1.483  0.00  0.00     0.009 C 
ATOM     53  H19 ARG d   1      -5.600  19.563   1.955  0.00  0.00     0.064 H 
ATOM     54  H20 ARG d   1      -7.247  18.895   2.214  0.00  0.00     0.064 H 
BRANCH  52  55
ATOM     55  NE  ARG d   1      -7.161  20.641   1.040  0.00  0.00    -0.227 N 
ATOM     56  CZ  ARG d   1      -6.677  21.858   1.287  0.00  0.00     0.665 C 
ATOM     57  NH1 ARG d   1      -5.586  22.032   2.029  0.00  0.00    -0.235 N 
ATOM     58  NH2 ARG d   1      -7.311  22.926   0.805  0.00  0.00    -0.235 N 
ATOM     59  H22 ARG d   1      -5.230  22.982   2.207  0.00  0.00     0.174 HD
ATOM     60  H23 ARG d   1      -5.098  21.217   2.426  0.00  0.00     0.174 HD
ATOM     61  H24 ARG d   1      -8.157  22.807   0.229  0.00  0.00     0.174 HD
ATOM     62  H25 ARG d   1      -6.955  23.871   1.008  0.00  0.00     0.174 HD
ATOM     63  H21 ARG d   1      -8.028  20.587   0.487  0.00  0.00     0.177 HD
ENDBRANCH  52  55
ENDBRANCH  49  52
ENDBRANCH  46  49
ENDBRANCH  19  46
ENDBRANCH  16  19
ENDBRANCH  13  15
BRANCH  13  64
ATOM     64  CB  TRP d   1      -4.928  12.578   2.940  0.00  0.00    -0.012 C 
ATOM     65  H28 TRP d   1      -4.227  13.379   3.217  0.00  0.00     0.044 H 
ATOM     66  H29 TRP d   1      -4.551  12.052   2.050  0.00  0.00     0.044 H 
BRANCH  64  67
ATOM     67  CG  TRP d   1      -5.030  11.628   4.049  0.00  0.00    -0.028 A 
ATOM     68  CD1 TRP d   1      -5.777  10.456   4.047  0.00  0.00    -0.015 A 
ATOM     69  NE1 TRP d   1      -5.714   9.821   5.268  0.00  0.00    -0.365 N 
ATOM     70  H30 TRP d   1      -6.340  10.087   3.191  0.00  0.00     0.112 H 
ATOM     71  CE2 TRP d   1      -4.929  10.544   6.124  0.00  0.00     0.042 A 
ATOM     72  H31 TRP d   1      -6.186   8.936   5.501  0.00  0.00     0.165 HD
ATOM     73  CD2 TRP d   1      -4.508  11.763   5.412  0.00  0.00    -0.002 A 
ATOM     74  CZ2 TRP d   1      -4.644  10.325   7.453  0.00  0.00    -0.056 A 
ATOM     75  CE3 TRP d   1      -3.759  12.709   6.076  0.00  0.00    -0.070 A 
ATOM     76  CZ3 TRP d   1      -3.421  12.448   7.419  0.00  0.00    -0.082 A 
ATOM     77  H32 TRP d   1      -3.441  13.621   5.584  0.00  0.00     0.084 H 
ATOM     78  CH2 TRP d   1      -3.853  11.288   8.091  0.00  0.00    -0.081 A 
ATOM     79  H34 TRP d   1      -2.808  13.165   7.953  0.00  0.00     0.083 H 
ATOM     80  H35 TRP d   1      -3.567  11.137   9.126  0.00  0.00     0.083 H 
ATOM     81  H33 TRP d   1      -5.013   9.452   7.979  0.00  0.00     0.086 H 
ENDBRANCH  64  67
ENDBRANCH  13  64
ENDBRANCH  10  13
ENDBRANCH   7   9
BRANCH   7  82
ATOM     82  CB  ARG d   1      -9.143  14.464   6.345  0.00  0.00    -0.036 C 
ATOM     83  H38 ARG d   1      -9.754  14.024   7.147  0.00  0.00     0.036 H 
ATOM     84  H39 ARG d   1      -9.757  14.585   5.440  0.00  0.00     0.036 H 
BRANCH  82  85
ATOM     85  CG  ARG d   1      -8.574  15.811   6.787  0.00  0.00    -0.048 C 
ATOM     86  H40 ARG d   1      -7.575  15.926   6.341  0.00  0.00     0.035 H 
ATOM     87  H41 ARG d   1      -8.488  15.805   7.884  0.00  0.00     0.035 H 
BRANCH  85  88
ATOM     88  CD  ARG d   1      -9.404  16.993   6.388  0.00  0.00     0.009 C 
ATOM     89  H42 ARG d   1      -9.943  16.759   5.458  0.00  0.00     0.064 H 
ATOM     90  H43 ARG d   1      -8.745  17.858   6.222  0.00  0.00     0.064 H 
BRANCH  88  91
ATOM     91  NE  ARG d   1     -10.370  17.319   7.434  0.00  0.00    -0.227 N 
ATOM     92  CZ  ARG d   1     -10.188  18.202   8.407  0.00  0.00     0.665 C 
ATOM     93  NH1 ARG d   1      -9.050  18.878   8.525  0.00  0.00    -0.235 N 
ATOM     94  NH2 ARG d   1     -11.174  18.441   9.245  0.00  0.00    -0.235 N 
ATOM     95  H45 ARG d   1      -8.932  19.559   9.289  0.00  0.00     0.174 HD
ATOM     96  H46 ARG d   1      -8.286  18.721   7.852  0.00  0.00     0.174 HD
ATOM     97  H47 ARG d   1     -12.059  17.921   9.160  0.00  0.00     0.174 HD
ATOM     98  H48 ARG d   1     -11.060  19.148   9.986  0.00  0.00     0.174 HD
ATOM     99  H44 ARG d   1     -11.271  16.820   7.414  0.00  0.00     0.177 HD
ENDBRANCH  88  91
ENDBRANCH  85  88
ENDBRANCH  82  85
ENDBRANCH   7  82
ENDBRANCH   4   7
ENDBRANCH   1   3
BRANCH   1 100
ATOM    100  C   PHE d   1      -9.295  10.683   8.876  0.00  0.00     0.243 C 
ATOM    101  O   PHE d   1     -10.235  11.459   8.986  0.00  0.00    -0.271 OA
ATOM    102  N   PRO d   1      -9.521   9.358   8.756  0.00  0.00    -0.337 N 
ATOM    103  CA  PRO d   1     -10.893   8.914   8.526  0.00  0.00     0.091 C 
ATOM    104  CD  PRO d   1      -8.535   8.313   8.410  0.00  0.00    -0.001 C 
ATOM    105  CB  PRO d   1     -10.754   7.385   8.474  0.00  0.00    -0.036 C 
ATOM    106  H58 PRO d   1     -11.265   9.308   7.569  0.00  0.00     0.087 H 
ATOM    107  CG  PRO d   1      -9.394   7.221   7.768  0.00  0.00    -0.048 C 
ATOM    108  H59 PRO d   1     -11.567   6.928   7.891  0.00  0.00     0.036 H 
ATOM    109  H60 PRO d   1     -10.737   6.949   9.484  0.00  0.00     0.036 H 
ATOM    110  H61 PRO d   1      -9.490   7.381   6.684  0.00  0.00     0.035 H 
ATOM    111  H62 PRO d   1      -8.970   6.224   7.955  0.00  0.00     0.035 H 
ATOM    112  H63 PRO d   1      -8.027   7.937   9.310  0.00  0.00     0.064 H 
ATOM    113  H64 PRO d   1      -7.787   8.696   7.699  0.00  0.00     0.064 H 
BRANCH 103 114
ATOM    114  C   PRO d   1     -11.867   9.320   9.641  0.00  0.00     0.241 C 
ATOM    115  O   PRO d   1     -11.579   9.099  10.781  0.00  0.00    -0.271 OA
ATOM    116  N   ALA d   1     -12.971   9.908   9.201  0.00  0.00    -0.346 N 
ATOM    117  H65 ALA d   1     -13.057  10.081   8.220  0.00  0.00     0.163 HD
BRANCH 116 118
ATOM    118  CA  ALA d   1     -14.084  10.323  10.088  0.00  0.00     0.086 C 
ATOM    119  H66 ALA d   1     -14.880  10.708   9.434  0.00  0.00     0.086 H 
BRANCH 118 120
ATOM    120  C   ALA d   1     -13.681  11.480  11.033  0.00  0.00     0.240 C 
ATOM    121  O   ALA d   1     -14.437  11.746  11.946  0.00  0.00    -0.271 OA
ATOM    122  N   ARG d   1     -12.617  12.191  10.722  0.00  0.00    -0.346 N 
ATOM    123  H70 ARG d   1     -11.983  11.867  10.019  0.00  0.00     0.163 HD
BRANCH 122 124
ATOM    124  CA  ARG d   1     -12.365  13.468  11.416  0.00  0.00     0.089 C 
ATOM    125  H71 ARG d   1     -12.426  13.328  12.505  0.00  0.00     0.087 H 
BRANCH 124 126
ATOM    126  C   ARG d   1     -13.460  14.452  10.971  0.00  0.00     0.243 C 
ATOM    127  O   ARG d   1     -13.791  14.525   9.771  0.00  0.00    -0.271 OA
ATOM    128  N   PRO d   1     -14.030  15.206  11.897  0.00  0.00    -0.337 N 
ATOM    129  CA  PRO d   1     -15.092  16.132  11.488  0.00  0.00     0.091 C 
ATOM    130  CD  PRO d   1     -13.820  15.194  13.348  0.00  0.00    -0.001 C 
ATOM    131  CB  PRO d   1     -15.684  16.610  12.831  0.00  0.00    -0.036 C 
ATOM    132  H83 PRO d   1     -15.852  15.601  10.896  0.00  0.00     0.087 H 
ATOM    133  CG  PRO d   1     -14.502  16.457  13.792  0.00  0.00    -0.048 C 
ATOM    134  H84 PRO d   1     -16.530  15.978  13.139  0.00  0.00     0.036 H 
ATOM    135  H85 PRO d   1     -16.012  17.658  12.769  0.00  0.00     0.036 H 
ATOM    136  H86 PRO d   1     -14.854  16.365  14.830  0.00  0.00     0.035 H 
ATOM    137  H87 PRO d   1     -13.820  17.317  13.711  0.00  0.00     0.035 H 
ATOM    138  H88 PRO d   1     -12.748  15.215  13.594  0.00  0.00     0.064 H 
ATOM    139  H89 PRO d   1     -14.285  14.310  13.809  0.00  0.00     0.064 H 
BRANCH 129 140
ATOM    140  C   PRO d   1     -14.574  17.311  10.675  0.00  0.00     0.241 C 
ATOM    141  O   PRO d   1     -13.395  17.576  10.704  0.00  0.00    -0.271 OA
ATOM    142  N   GLY d   1     -15.462  18.032  10.005  0.00  0.00    -0.351 N 
ATOM    143  H90 GLY d   1     -16.413  17.729   9.951  0.00  0.00     0.163 HD
BRANCH 142 144
ATOM    144  CA  GLY d   1     -15.038  19.313   9.322  0.00  0.00     0.069 C 
ATOM    145  H91 GLY d   1     -14.299  19.829   9.953  0.00  0.00     0.078 H 
ATOM    146  H92 GLY d   1     -15.919  19.957   9.188  0.00  0.00     0.078 H 
BRANCH 144 147
ATOM    147  C   GLY d   1     -14.428  19.032   7.983  0.00  0.00     0.236 C 
ATOM    148  O   GLY d   1     -14.332  17.861   7.571  0.00  0.00    -0.272 OA
ATOM    149  N   THR d   1     -13.964  20.076   7.298  0.00  0.00    -0.343 N 
ATOM    150  H93 THR d   1     -13.942  20.976   7.733  0.00  0.00     0.163 HD
BRANCH 149 151
ATOM    151  CA  THR d   1     -13.480  19.931   5.906  0.00  0.00     0.120 C 
ATOM    152  H94 THR d   1     -13.454  18.861   5.651  0.00  0.00     0.093 H 
BRANCH 151 153
ATOM    153  C   THR d   1     -12.065  20.489   5.804  0.00  0.00     0.199 C 
ATOM    154  O   THR d   1     -11.539  21.020   6.818  0.00  0.00    -0.646 OA
ATOM    155  O   THR d   1     -11.429  20.419   4.718  0.00  0.00    -0.646 OA
ENDBRANCH 151 153
BRANCH 151 156
ATOM    156  CB  THR d   1     -14.438  20.642   4.922  0.00  0.00     0.061 C 
ATOM    157  H95 THR d   1     -15.449  20.232   5.065  0.00  0.00     0.086 H 
BRANCH 156 158
ATOM    158  OG1 THR d   1     -14.034  20.388   3.565  0.00  0.00    -0.393 OA
ATOM    159  H96 THR d   1     -13.152  20.715   3.432  0.00  0.00     0.210 HD
ENDBRANCH 156 158
BRANCH 156 160
ATOM    160  CG2 THR d   1     -14.487  22.157   5.204  0.00  0.00    -0.050 C 
ATOM    161  H97 THR d   1     -15.173  22.640   4.493  0.00  0.00     0.031 H 
ATOM    162  H98 THR d   1     -13.480  22.584   5.089  0.00  0.00     0.031 H 
ATOM    163  H99 THR d   1     -14.843  22.328   6.231  0.00  0.00     0.031 H 
ENDBRANCH 156 160
ENDBRANCH 151 156
ENDBRANCH 149 151
ENDBRANCH 144 147
ENDBRANCH 142 144
ENDBRANCH 129 140
ENDBRANCH 124 126
BRANCH 124 164
ATOM    164  CB  ARG d   1     -10.984  13.919  11.058  0.00  0.00    -0.036 C 
ATOM    165  H72 ARG d   1     -10.907  13.928   9.961  0.00  0.00     0.036 H 
ATOM    166  H73 ARG d   1     -10.274  13.186  11.469  0.00  0.00     0.036 H 
BRANCH 164 167
ATOM    167  CG  ARG d   1     -10.588  15.259  11.551  0.00  0.00    -0.048 C 
ATOM    168  H74 ARG d   1     -10.463  15.222  12.643  0.00  0.00     0.035 H 
ATOM    169  H75 ARG d   1     -11.373  15.986  11.296  0.00  0.00     0.035 H 
BRANCH 167 170
ATOM    170  CD  ARG d   1      -9.299  15.684  10.921  0.00  0.00     0.009 C 
ATOM    171  H76 ARG d   1      -9.434  15.824   9.838  0.00  0.00     0.064 H 
ATOM    172  H77 ARG d   1      -8.522  14.926  11.099  0.00  0.00     0.064 H 
BRANCH 170 173
ATOM    173  NE  ARG d   1      -8.926  16.933  11.541  0.00  0.00    -0.227 N 
ATOM    174  CZ  ARG d   1      -7.717  17.411  11.519  0.00  0.00     0.665 C 
ATOM    175  NH1 ARG d   1      -6.806  16.799  10.823  0.00  0.00    -0.235 N 
ATOM    176  NH2 ARG d   1      -7.446  18.577  12.116  0.00  0.00    -0.235 N 
ATOM    177  H79 ARG d   1      -5.844  17.167  10.797  0.00  0.00     0.174 HD
ATOM    178  H80 ARG d   1      -7.046  15.946  10.298  0.00  0.00     0.174 HD
ATOM    179  H81 ARG d   1      -8.174  19.055  12.666  0.00  0.00     0.174 HD
ATOM    180  H82 ARG d   1      -6.510  18.996  12.026  0.00  0.00     0.174 HD
ATOM    181  H78 ARG d   1      -9.656  17.474  12.026  0.00  0.00     0.177 HD
ENDBRANCH 170 173
ENDBRANCH 167 170
ENDBRANCH 164 167
ENDBRANCH 124 164
ENDBRANCH 122 124
ENDBRANCH 118 120
BRANCH 118 182
ATOM    182  CB  ALA d   1     -14.680   9.159  10.868  0.00  0.00    -0.049 C 
ATOM    183  H67 ALA d   1     -15.498   9.526  11.506  0.00  0.00     0.030 H 
ATOM    184  H68 ALA d   1     -13.902   8.702  11.496  0.00  0.00     0.030 H 
ATOM    185  H69 ALA d   1     -15.072   8.409  10.165  0.00  0.00     0.030 H 
ENDBRANCH 118 182
ENDBRANCH 116 118
ENDBRANCH 103 114
ENDBRANCH   1 100
BRANCH   1 186
ATOM    186  CB  PHE d   1      -7.480  11.462  10.393  0.00  0.00    -0.014 C 
ATOM    187  H51 PHE d   1      -8.268  12.089  10.835  0.00  0.00     0.043 H 
ATOM    188  H52 PHE d   1      -6.529  12.015  10.391  0.00  0.00     0.043 H 
BRANCH 186 189
ATOM    189  CG  PHE d   1      -7.310  10.233  11.264  0.00  0.00    -0.056 A 
ATOM    190  CD1 PHE d   1      -8.341   9.749  12.016  0.00  0.00    -0.077 A 
ATOM    191  CE1 PHE d   1      -8.191   8.643  12.807  0.00  0.00    -0.082 A 
ATOM    192  H53 PHE d   1      -9.300  10.252  11.986  0.00  0.00     0.084 H 
ATOM    193  CZ  PHE d   1      -7.049   7.919  12.815  0.00  0.00    -0.083 A 
ATOM    194  H55 PHE d   1      -9.012   8.338  13.446  0.00  0.00     0.083 H 
ATOM    195  CE2 PHE d   1      -6.005   8.367  12.026  0.00  0.00    -0.082 A 
ATOM    196  H57 PHE d   1      -6.955   7.022  13.416  0.00  0.00     0.083 H 
ATOM    197  CD2 PHE d   1      -6.164   9.498  11.245  0.00  0.00    -0.077 A 
ATOM    198  H56 PHE d   1      -5.062   7.832  12.020  0.00  0.00     0.083 H 
ATOM    199  H54 PHE d   1      -5.351   9.808  10.598  0.00  0.00     0.084 H 
ENDBRANCH 186 189
ENDBRANCH   1 186
TORSDOF 45
