REMARK  7 active torsions:
REMARK  status: ('A' for Active; 'I' for Inactive)
REMARK    1  A    between atoms: C11_3  and  O46_23 
REMARK    2  A    between atoms: C15_5  and  O48_24 
REMARK    3  A    between atoms: C24_11  and  O42_21 
REMARK    4  A    between atoms: C31_13  and  C62_26 
REMARK    5  A    between atoms: C39_16  and  O44_22 
REMARK    6  A    between atoms: C40_17  and  O40_18 
REMARK    7  A    between atoms: O48_24  and  C59_25 
ROOT
ATOM      1  C2  1FM d   1      15.009  18.577  55.355  0.00  0.00     0.083 A 
ATOM      2  C3  1FM d   1      14.402  17.637  54.481  0.00  0.00    -0.015 A 
ATOM      3  C11 1FM d   1      14.244  19.672  55.809  0.00  0.00     0.085 A 
ATOM      4  C14 1FM d   1      13.092  17.848  54.077  0.00  0.00    -0.040 A 
ATOM      5  C15 1FM d   1      12.362  18.937  54.525  0.00  0.00     0.071 A 
ATOM      6  O15 1FM d   1      17.129  17.440  55.321  0.00  0.00    -0.312 OA
ATOM      7  C16 1FM d   1      12.945  19.840  55.392  0.00  0.00    -0.018 A 
ATOM      8  C17 1FM d   1      14.718  15.576  53.113  0.00  0.00    -0.100 C 
ATOM      9  C18 1FM d   1      19.333  16.529  54.566  0.00  0.00    -0.041 C 
ATOM     10  C23 1FM d   1      15.163  16.492  53.969  0.00  0.00    -0.075 C 
ATOM     11  C24 1FM d   1      16.396  14.949  51.414  0.00  0.00     0.065 C 
ATOM     12  C26 1FM d   1      16.419  18.502  55.853  0.00  0.00     0.297 C 
ATOM     13  C31 1FM d   1      18.578  17.370  55.582  0.00  0.00     0.045 C 
ATOM     14  C34 1FM d   1      15.529  14.480  52.558  0.00  0.00    -0.023 C 
ATOM     15  O38 1FM d   1      16.891  19.347  56.620  0.00  0.00    -0.259 OA
ATOM     16  C39 1FM d   1      17.768  14.285  51.232  0.00  0.00     0.085 C 
ATOM     17  C40 1FM d   1      18.784  14.765  52.238  0.00  0.00     0.062 C 
ATOM     18  C41 1FM d   1      19.231  16.019  52.181  0.00  0.00    -0.038 C 
ATOM     19  C42 1FM d   1      19.454  16.898  53.297  0.00  0.00    -0.060 C 
ATOM     20  H1  1FM d   1      12.629  17.145  53.395  0.00  0.00     0.089 H 
ATOM     21  H2  1FM d   1      12.373  20.689  55.747  0.00  0.00     0.092 H 
ATOM     22  H3  1FM d   1      13.677  15.642  52.800  0.00  0.00     0.076 H 
ATOM     23  H4  1FM d   1      18.841  15.545  54.555  0.00  0.00     0.036 H 
ATOM     24  H5  1FM d   1      20.357  16.423  54.954  0.00  0.00     0.036 H 
ATOM     25  H6  1FM d   1      16.187  16.382  54.322  0.00  0.00     0.084 H 
ATOM     26  H7  1FM d   1      16.604  16.009  51.620  0.00  0.00     0.087 H 
ATOM     27  H8  1FM d   1      18.981  18.392  55.519  0.00  0.00     0.083 H 
ATOM     28  H9  1FM d   1      14.857  13.688  52.194  0.00  0.00     0.042 H 
ATOM     29  H10 1FM d   1      16.175  14.077  53.352  0.00  0.00     0.042 H 
ATOM     30  H11 1FM d   1      18.135  14.597  50.243  0.00  0.00     0.090 H 
ATOM     31  H12 1FM d   1      17.990  15.103  52.920  0.00  0.00     0.086 H 
ATOM     32  H14 1FM d   1      18.514  16.550  51.538  0.00  0.00     0.036 H 
ATOM     33  H15 1FM d   1      20.203  15.953  51.670  0.00  0.00     0.036 H 
ATOM     34  H16 1FM d   1      20.486  17.262  53.189  0.00  0.00     0.033 H 
ATOM     35  H17 1FM d   1      18.754  17.736  53.162  0.00  0.00     0.033 H 
ENDROOT
BRANCH   5  36
ATOM     36  O48 1FM d   1      11.027  19.198  54.165  0.00  0.00    -0.356 OA
BRANCH  36  37
ATOM     37  C59 1FM d   1      10.349  18.253  53.344  0.00  0.00     0.010 C 
ATOM     38  H21 1FM d   1       9.323  18.601  53.155  0.00  0.00     0.066 H 
ATOM     39  H22 1FM d   1      10.317  17.279  53.855  0.00  0.00     0.066 H 
ATOM     40  H23 1FM d   1      10.883  18.148  52.388  0.00  0.00     0.066 H 
ENDBRANCH  36  37
ENDBRANCH   5  36
BRANCH   3  41
ATOM     41  O46 1FM d   1      14.794  20.607  56.669  0.00  0.00    -0.360 OA
ATOM     42  H20 1FM d   1      15.690  20.363  56.869  0.00  0.00     0.217 HD
ENDBRANCH   3  41
BRANCH  13  43
ATOM     43  C62 1FM d   1      18.782  16.875  56.987  0.00  0.00    -0.052 C 
ATOM     44  H24 1FM d   1      19.859  16.816  57.202  0.00  0.00     0.030 H 
ATOM     45  H25 1FM d   1      18.331  15.877  57.093  0.00  0.00     0.030 H 
ATOM     46  H26 1FM d   1      18.305  17.570  57.694  0.00  0.00     0.030 H 
ENDBRANCH  13  43
BRANCH  11  47
ATOM     47  O42 1FM d   1      15.686  14.894  50.196  0.00  0.00    -0.393 OA
ATOM     48  H18 1FM d   1      16.176  15.354  49.524  0.00  0.00     0.210 HD
ENDBRANCH  11  47
BRANCH  16  49
ATOM     49  O44 1FM d   1      17.683  12.868  51.204  0.00  0.00    -0.390 OA
ATOM     50  H19 1FM d   1      18.529  12.506  50.970  0.00  0.00     0.210 HD
ENDBRANCH  16  49
BRANCH  17  51
ATOM     51  O40 1FM d   1      19.147  13.834  53.119  0.00  0.00    -0.393 OA
ATOM     52  H13 1FM d   1      19.785  14.200  53.720  0.00  0.00     0.210 HD
ENDBRANCH  17  51
TORSDOF 7
