REMARK  13 active torsions:
REMARK  status: ('A' for Active; 'I' for Inactive)
REMARK       I    between atoms: C13_3  and  N12_2 
REMARK    1  A    between atoms: N12_2  and  C05_15 
REMARK    2  A    between atoms: C15_4  and  C13_3 
REMARK    3  A    between atoms: N16_22  and  C15_4 
REMARK    4  A    between atoms: C17_5  and  N16_22 
REMARK    5  A    between atoms: C18_26  and  C17_5 
REMARK    6  A    between atoms: C19_27  and  C20_6 
REMARK    7  A    between atoms: N16_22  and  C26_10 
REMARK    8  A    between atoms: C26_10  and  C27_23 
REMARK       I    between atoms: C03_12  and  N02_13 
REMARK    9  A    between atoms: C05_15  and  C03_12 
REMARK   10  A    between atoms: N02_13  and  C01_14 
REMARK   11  A    between atoms: C05_15  and  C06_16 
REMARK   12  A    between atoms: C06_16  and  C07_17 
REMARK   13  A    between atoms: C18_26  and  C19_27 
ROOT
ATOM      1  C15 MGJ d   1    -113.119  55.372  26.951  0.00  0.00     0.156 C 
ATOM      2  H   MGJ d   1    -112.724  55.695  27.925  0.00  0.00     0.090 H 
ATOM      3  H   MGJ d   1    -112.283  55.141  26.274  0.00  0.00     0.090 H 
ENDROOT
BRANCH   1   4
ATOM      4  C13 MGJ d   1    -113.904  56.543  26.349  0.00  0.00     0.244 C 
ATOM      5  N12 MGJ d   1    -114.811  57.259  27.060  0.00  0.00    -0.346 N 
ATOM      6  H   MGJ d   1    -115.114  56.857  27.924  0.00  0.00     0.163 HD
ATOM      7  O14 MGJ d   1    -113.661  56.817  25.196  0.00  0.00    -0.272 OA
BRANCH   5   8
ATOM      8  C05 MGJ d   1    -115.409  58.580  26.699  0.00  0.00     0.094 C 
ATOM      9  H   MGJ d   1    -115.400  59.148  27.641  0.00  0.00     0.088 H 
BRANCH   8  10
ATOM     10  C03 MGJ d   1    -116.896  58.547  26.263  0.00  0.00     0.240 C 
ATOM     11  O04 MGJ d   1    -117.428  59.524  25.762  0.00  0.00    -0.271 OA
ATOM     12  N02 MGJ d   1    -117.664  57.457  26.433  0.00  0.00    -0.364 N 
ATOM     13  H   MGJ d   1    -117.690  57.024  27.334  0.00  0.00     0.161 HD
BRANCH  12  14
ATOM     14  C01 MGJ d   1    -118.463  56.879  25.353  0.00  0.00    -0.018 C 
ATOM     15  H   MGJ d   1    -119.004  55.998  25.728  0.00  0.00     0.056 H 
ATOM     16  H   MGJ d   1    -117.801  56.578  24.527  0.00  0.00     0.056 H 
ATOM     17  H   MGJ d   1    -119.185  57.626  24.991  0.00  0.00     0.056 H 
ENDBRANCH  12  14
ENDBRANCH   8  10
BRANCH   8  18
ATOM     18  C06 MGJ d   1    -114.567  59.423  25.705  0.00  0.00     0.002 C 
ATOM     19  H   MGJ d   1    -115.211  60.239  25.345  0.00  0.00     0.046 H 
ATOM     20  H   MGJ d   1    -114.304  58.765  24.863  0.00  0.00     0.046 H 
BRANCH  18  21
ATOM     21  C07 MGJ d   1    -113.273  60.057  26.202  0.00  0.00     0.030 A 
ATOM     22  C08 MGJ d   1    -112.333  60.685  25.374  0.00  0.00     0.025 A 
ATOM     23  N09 MGJ d   1    -111.334  61.134  26.164  0.00  0.00    -0.254 NA
ATOM     24  H   MGJ d   1    -112.396  60.791  24.292  0.00  0.00     0.117 H 
ATOM     25  C10 MGJ d   1    -111.619  60.799  27.441  0.00  0.00     0.063 A 
ATOM     26  N11 MGJ d   1    -112.800  60.133  27.476  0.00  0.00    -0.353 N 
ATOM     27  H   MGJ d   1    -110.998  61.028  28.306  0.00  0.00     0.143 H 
ATOM     28  H   MGJ d   1    -113.257  59.753  28.317  0.00  0.00     0.166 HD
ENDBRANCH  18  21
ENDBRANCH   8  18
ENDBRANCH   5   8
ENDBRANCH   1   4
BRANCH   1  29
ATOM     29  N16 MGJ d   1    -113.886  54.135  27.161  0.00  0.00    -0.053 N 
ATOM     30  H   MGJ d   1    -114.421  54.328  27.993  0.00  0.00     0.281 HD
BRANCH  29  31
ATOM     31  C17 MGJ d   1    -113.036  52.942  27.570  0.00  0.00     0.085 C 
ATOM     32  H   MGJ d   1    -113.741  52.155  27.877  0.00  0.00     0.076 H 
ATOM     33  H   MGJ d   1    -112.449  53.269  28.441  0.00  0.00     0.076 H 
BRANCH  31  34
ATOM     34  C18 MGJ d   1    -112.029  52.265  26.599  0.00  0.00    -0.039 C 
ATOM     35  H   MGJ d   1    -111.047  52.739  26.741  0.00  0.00     0.035 H 
ATOM     36  H   MGJ d   1    -112.376  52.441  25.570  0.00  0.00     0.035 H 
BRANCH  34  37
ATOM     37  C19 MGJ d   1    -111.857  50.734  26.793  0.00  0.00    -0.040 C 
ATOM     38  H   MGJ d   1    -111.634  50.554  27.855  0.00  0.00     0.040 H 
ATOM     39  H   MGJ d   1    -112.812  50.255  26.532  0.00  0.00     0.040 H 
BRANCH  37  40
ATOM     40  C20 MGJ d   1    -110.746  50.054  25.958  0.00  0.00    -0.058 C 
ATOM     41  C21 MGJ d   1    -110.970  49.703  24.643  0.00  0.00    -0.077 C 
ATOM     42  C22 MGJ d   1    -110.017  48.854  23.783  0.00  0.00    -0.082 C 
ATOM     43  H   MGJ d   1    -111.886  50.051  24.180  0.00  0.00     0.084 H 
ATOM     44  C23 MGJ d   1    -108.629  48.706  24.411  0.00  0.00    -0.083 C 
ATOM     45  H   MGJ d   1    -110.298  48.409  22.835  0.00  0.00     0.083 H 
ATOM     46  C24 MGJ d   1    -108.351  49.115  25.671  0.00  0.00    -0.082 C 
ATOM     47  H   MGJ d   1    -107.837  48.256  23.823  0.00  0.00     0.083 H 
ATOM     48  C25 MGJ d   1    -109.384  49.750  26.616  0.00  0.00    -0.077 C 
ATOM     49  H   MGJ d   1    -107.338  48.987  26.036  0.00  0.00     0.083 H 
ATOM     50  H   MGJ d   1    -109.173  49.966  27.657  0.00  0.00     0.084 H 
ENDBRANCH  37  40
ENDBRANCH  34  37
ENDBRANCH  31  34
ENDBRANCH  29  31
BRANCH  29  51
ATOM     51  C26 MGJ d   1    -114.949  53.890  26.127  0.00  0.00     0.162 C 
ATOM     52  H   MGJ d   1    -115.684  54.698  26.255  0.00  0.00     0.093 H 
ATOM     53  H   MGJ d   1    -115.411  52.928  26.393  0.00  0.00     0.093 H 
BRANCH  51  54
ATOM     54  C27 MGJ d   1    -114.665  53.816  24.616  0.00  0.00     0.199 C 
ATOM     55  O28 MGJ d   1    -113.630  53.275  24.109  0.00  0.00    -0.647 OA
ATOM     56  O29 MGJ d   1    -115.570  54.293  23.889  0.00  0.00    -0.647 OA
ENDBRANCH  51  54
ENDBRANCH  29  51
ENDBRANCH   1  29
TORSDOF 13
