REMARK  3 active torsions:
REMARK  status: ('A' for Active; 'I' for Inactive)
REMARK    1  A    between atoms: CAO_7  and  NAN_8 
REMARK    2  A    between atoms: NAN_8  and  CAM_9 
REMARK    3  A    between atoms: CAL_10  and  NAT_11 
ROOT
ATOM      1  CAM MOL d   1      12.462 -41.332  10.516  0.00  0.00     0.068 A 
ATOM      2  CAL MOL d   1      11.205 -40.932  10.923  0.00  0.00     0.162 A 
ATOM      3  CAF MOL d   1      12.700 -41.569   9.114  0.00  0.00    -0.052 A 
ATOM      4  CAE MOL d   1      11.737 -41.451   8.161  0.00  0.00    -0.048 A 
ATOM      5  CAD MOL d   1      10.421 -41.037   8.555  0.00  0.00     0.120 A 
ATOM      6  CAK MOL d   1      10.148 -40.774   9.958  0.00  0.00     0.152 A 
ATOM      7  NAC MOL d   1       9.267 -40.800   7.871  0.00  0.00    -0.103 NA
ATOM      8  OAB MOL d   1       8.366 -40.432   8.780  0.00  0.00    -0.106 OA
ATOM      9  NAJ MOL d   1       8.844 -40.389  10.025  0.00  0.00    -0.100 NA
ATOM     10  H6  MOL d   1      13.698 -41.856   8.803  0.00  0.00     0.087 H 
ATOM     11  H7  MOL d   1      11.960 -41.666   7.122  0.00  0.00     0.087 H 
ENDROOT
BRANCH   1  12
ATOM     12  NAN MOL d   1      13.523 -41.507  11.370  0.00  0.00    -0.354 N 
ATOM     13  H5  MOL d   1      13.370 -41.340  12.375  0.00  0.00     0.166 HD
BRANCH  12  14
ATOM     14  CAO MOL d   1      14.792 -41.897  10.958  0.00  0.00     0.035 A 
ATOM     15  CAG MOL d   1      15.277 -43.151  11.262  0.00  0.00    -0.057 A 
ATOM     16  CAH MOL d   1      16.563 -43.516  10.867  0.00  0.00    -0.078 A 
ATOM     17  H2  MOL d   1      14.658 -43.853  11.808  0.00  0.00     0.086 H 
ATOM     18  CAI MOL d   1      17.375 -42.642  10.156  0.00  0.00    -0.046 A 
ATOM     19  H1  MOL d   1      16.937 -44.502  11.120  0.00  0.00     0.083 H 
ATOM     20  CAQ MOL d   1      16.864 -41.378   9.865  0.00  0.00     0.118 A 
ATOM     21  H3  MOL d   1      18.370 -42.932   9.839  0.00  0.00     0.088 H 
ATOM     22  FAR MOL d   1      17.605 -40.515   9.189  0.00  0.00    -0.206 F 
ATOM     23  CAP MOL d   1      15.589 -40.998  10.267  0.00  0.00    -0.020 A 
ATOM     24  H4  MOL d   1      15.220 -40.004  10.041  0.00  0.00     0.091 H 
ENDBRANCH  12  14
ENDBRANCH   1  12
BRANCH   2  25
ATOM     25  NAT MOL d   1      10.906 -40.654  12.357  0.00  0.00    -0.111 N 
ATOM     26  OAS MOL d   1       9.795 -40.309  12.680  0.00  0.00    -0.532 OA
ATOM     27  OAU MOL d   1      11.795 -40.781  13.152  0.00  0.00    -0.532 OA
ENDBRANCH   2  25
TORSDOF 3
