REMARK  13 active torsions:
REMARK  status: ('A' for Active; 'I' for Inactive)
REMARK       I    between atoms: C13_3  and  N12_2 
REMARK    1  A    between atoms: N12_2  and  C05_15 
REMARK    2  A    between atoms: C15_4  and  C13_3 
REMARK    3  A    between atoms: N16_22  and  C15_4 
REMARK    4  A    between atoms: C17_5  and  N16_22 
REMARK    5  A    between atoms: C18_26  and  C17_5 
REMARK    6  A    between atoms: C25_23  and  C26_10 
REMARK    7  A    between atoms: C03_12  and  O02_13 
REMARK    8  A    between atoms: C05_15  and  C03_12 
REMARK    9  A    between atoms: O02_13  and  C01_14 
REMARK   10  A    between atoms: C05_15  and  C06_16 
REMARK   11  A    between atoms: C06_16  and  C07_17 
REMARK   12  A    between atoms: N16_22  and  C25_23 
REMARK   13  A    between atoms: C18_26  and  C19_27 
ROOT
ATOM      1  C15 MGW d   1     114.314 -55.224  11.414  0.00  0.00     0.156 C 
ATOM      2  H   MGW d   1     115.339 -54.832  11.486  0.00  0.00     0.090 H 
ATOM      3  H   MGW d   1     113.913 -55.388  12.425  0.00  0.00     0.090 H 
ENDROOT
BRANCH   1   4
ATOM      4  C13 MGW d   1     114.356 -56.566  10.683  0.00  0.00     0.244 C 
ATOM      5  N12 MGW d   1     115.170 -57.470  11.249  0.00  0.00    -0.345 N 
ATOM      6  H   MGW d   1     115.639 -57.152  12.073  0.00  0.00     0.163 HD
ATOM      7  O14 MGW d   1     113.696 -56.810   9.682  0.00  0.00    -0.272 OA
BRANCH   5   8
ATOM      8  C05 MGW d   1     115.486 -58.857  10.855  0.00  0.00     0.101 C 
ATOM      9  H   MGW d   1     115.439 -59.488  11.755  0.00  0.00     0.089 H 
BRANCH   8  10
ATOM     10  C03 MGW d   1     116.911 -58.947  10.318  0.00  0.00     0.281 C 
ATOM     11  O04 MGW d   1     117.278 -59.934   9.690  0.00  0.00    -0.263 OA
BRANCH  10  12
ATOM     12  O02 MGW d   1     117.910 -57.890  10.559  0.00  0.00    -0.325 OA
BRANCH  12  13
ATOM     13  C01 MGW d   1     118.344 -56.952   9.564  0.00  0.00     0.013 C 
ATOM     14  H   MGW d   1     119.091 -56.273  10.001  0.00  0.00     0.067 H 
ATOM     15  H   MGW d   1     117.482 -56.368   9.209  0.00  0.00     0.067 H 
ATOM     16  H   MGW d   1     118.792 -57.495   8.719  0.00  0.00     0.067 H 
ENDBRANCH  12  13
ENDBRANCH  10  12
ENDBRANCH   8  10
BRANCH   8  17
ATOM     17  C06 MGW d   1     114.406 -59.364   9.883  0.00  0.00     0.002 C 
ATOM     18  H   MGW d   1     114.867 -60.106   9.215  0.00  0.00     0.046 H 
ATOM     19  H   MGW d   1     114.049 -58.509   9.290  0.00  0.00     0.046 H 
BRANCH  17  20
ATOM     20  C07 MGW d   1     113.198 -60.014  10.556  0.00  0.00     0.030 A 
ATOM     21  C08 MGW d   1     112.653 -59.695  11.796  0.00  0.00     0.025 A 
ATOM     22  N09 MGW d   1     111.604 -60.525  11.980  0.00  0.00    -0.254 NA
ATOM     23  H   MGW d   1     113.004 -58.927  12.483  0.00  0.00     0.117 H 
ATOM     24  C10 MGW d   1     111.469 -61.341  10.915  0.00  0.00     0.063 A 
ATOM     25  N11 MGW d   1     112.434 -61.024  10.030  0.00  0.00    -0.353 N 
ATOM     26  H   MGW d   1     110.715 -62.117  10.792  0.00  0.00     0.143 H 
ATOM     27  H   MGW d   1     112.575 -61.467   9.111  0.00  0.00     0.166 HD
ENDBRANCH  17  20
ENDBRANCH   8  17
ENDBRANCH   5   8
ENDBRANCH   1   4
BRANCH   1  28
ATOM     28  N16 MGW d   1     113.474 -54.222  10.732  0.00  0.00    -0.053 N 
ATOM     29  H   MGW d   1     112.759 -54.701  10.207  0.00  0.00     0.281 HD
BRANCH  28  30
ATOM     30  C17 MGW d   1     112.772 -53.361  11.741  0.00  0.00     0.088 C 
ATOM     31  H   MGW d   1     113.249 -53.534  12.717  0.00  0.00     0.076 H 
ATOM     32  H   MGW d   1     111.722 -53.686  11.783  0.00  0.00     0.076 H 
BRANCH  30  33
ATOM     33  C18 MGW d   1     112.781 -51.842  11.480  0.00  0.00    -0.018 C 
ATOM     34  H   MGW d   1     113.192 -51.695  10.470  0.00  0.00     0.042 H 
ATOM     35  H   MGW d   1     113.461 -51.396  12.221  0.00  0.00     0.042 H 
BRANCH  33  36
ATOM     36  C19 MGW d   1     111.468 -51.047  11.546  0.00  0.00    -0.057 A 
ATOM     37  C20 MGW d   1     110.237 -51.597  11.981  0.00  0.00    -0.077 A 
ATOM     38  C21 MGW d   1     109.065 -50.806  12.032  0.00  0.00    -0.082 A 
ATOM     39  H   MGW d   1     110.192 -52.638  12.279  0.00  0.00     0.084 H 
ATOM     40  C22 MGW d   1     109.117 -49.454  11.642  0.00  0.00    -0.083 A 
ATOM     41  H   MGW d   1     108.131 -51.239  12.370  0.00  0.00     0.083 H 
ATOM     42  C23 MGW d   1     110.334 -48.891  11.199  0.00  0.00    -0.082 A 
ATOM     43  H   MGW d   1     108.222 -48.844  11.682  0.00  0.00     0.083 H 
ATOM     44  C24 MGW d   1     111.495 -49.682  11.156  0.00  0.00    -0.077 A 
ATOM     45  H   MGW d   1     110.373 -47.852  10.893  0.00  0.00     0.083 H 
ATOM     46  H   MGW d   1     112.427 -49.242  10.819  0.00  0.00     0.084 H 
ENDBRANCH  33  36
ENDBRANCH  30  33
ENDBRANCH  28  30
BRANCH  28  47
ATOM     47  C25 MGW d   1     114.351 -53.518   9.756  0.00  0.00     0.162 C 
ATOM     48  H   MGW d   1     114.648 -52.561  10.210  0.00  0.00     0.093 H 
ATOM     49  H   MGW d   1     115.243 -54.144   9.603  0.00  0.00     0.093 H 
BRANCH  47  50
ATOM     50  C26 MGW d   1     113.764 -53.208   8.372  0.00  0.00     0.199 C 
ATOM     51  O27 MGW d   1     112.571 -52.852   8.209  0.00  0.00    -0.647 OA
ATOM     52  O28 MGW d   1     114.536 -53.296   7.399  0.00  0.00    -0.647 OA
ENDBRANCH  47  50
ENDBRANCH  28  47
ENDBRANCH   1  28
TORSDOF 13
