REMARK  8 active torsions:
REMARK  status: ('A' for Active; 'I' for Inactive)
REMARK    1  A    between atoms: C20_8  and  C34_17 
REMARK    2  A    between atoms: C16_24  and  C17_9 
REMARK    3  A    between atoms: C28_10  and  C30_25 
REMARK    4  A    between atoms: O23_33  and  C24_11 
REMARK    5  A    between atoms: C21_12  and  O23_33 
REMARK    6  A    between atoms: C2_14  and  C1_23 
REMARK    7  A    between atoms: C10_22  and  N4_27 
REMARK    8  A    between atoms: C16_24  and  N14_28 
ROOT
ATOM      1  C16 0Y5 d   1       6.464   3.061  28.995  0.00  0.00     0.137 C 
ATOM      2  H   0Y5 d   1       6.896   3.670  28.201  0.00  0.00     0.087 H 
ATOM      3  H   0Y5 d   1       5.953   3.561  29.818  0.00  0.00     0.087 H 
ENDROOT
BRANCH   1   4
ATOM      4  C17 0Y5 d   1       7.627   2.363  29.626  0.00  0.00    -0.027 A 
ATOM      5  C18 0Y5 d   1       7.545   1.970  30.952  0.00  0.00    -0.074 A 
ATOM      6  C19 0Y5 d   1       8.593   1.312  31.547  0.00  0.00    -0.063 A 
ATOM      7  H   0Y5 d   1       6.644   2.184  31.526  0.00  0.00     0.084 H 
ATOM      8  C20 0Y5 d   1       9.744   1.076  30.828  0.00  0.00     0.074 A 
ATOM      9  H   0Y5 d   1       8.515   0.979  32.582  0.00  0.00     0.085 H 
ATOM     10  C21 0Y5 d   1       9.845   1.495  29.507  0.00  0.00     0.093 A 
ATOM     11  C22 0Y5 d   1       8.788   2.143  28.904  0.00  0.00    -0.041 A 
ATOM     12  H   0Y5 d   1       8.865   2.479  27.870  0.00  0.00     0.088 H 
BRANCH   8  13
ATOM     13  C34 0Y5 d   1      10.830   0.444  31.579  0.00  0.00     0.212 C 
ATOM     14  O35 0Y5 d   1      11.256   0.912  32.625  0.00  0.00    -0.644 OA
ATOM     15  O36 0Y5 d   1      11.271  -0.693  30.991  0.00  0.00    -0.644 OA
ENDBRANCH   8  13
BRANCH  10  16
ATOM     16  O23 0Y5 d   1      11.009   1.336  28.776  0.00  0.00    -0.310 OA
BRANCH  16  17
ATOM     17  C24 0Y5 d   1      11.099   0.268  27.895  0.00  0.00     0.076 A 
ATOM     18  C25 0Y5 d   1      10.262  -0.836  27.907  0.00  0.00    -0.050 A 
ATOM     19  C26 0Y5 d   1      10.436  -1.849  26.976  0.00  0.00    -0.080 A 
ATOM     20  H   0Y5 d   1       9.466  -0.908  28.648  0.00  0.00     0.087 H 
ATOM     21  C27 0Y5 d   1      11.458  -1.733  26.056  0.00  0.00    -0.068 A 
ATOM     22  H   0Y5 d   1       9.779  -2.719  26.971  0.00  0.00     0.083 H 
ATOM     23  C28 0Y5 d   1      12.299  -0.631  26.046  0.00  0.00     0.050 A 
ATOM     24  H   0Y5 d   1      11.607  -2.525  25.322  0.00  0.00     0.084 H 
ATOM     25  C29 0Y5 d   1      12.116   0.376  26.980  0.00  0.00    -0.036 A 
ATOM     26  H   0Y5 d   1      12.773   1.245  26.988  0.00  0.00     0.089 H 
BRANCH  23  27
ATOM     27  C30 0Y5 d   1      13.378  -0.488  25.029  0.00  0.00     0.417 C 
ATOM     28  F31 0Y5 d   1      12.985  -0.836  23.773  0.00  0.00    -0.166 F 
ATOM     29  F32 0Y5 d   1      13.817   0.783  24.862  0.00  0.00    -0.166 F 
ATOM     30  F33 0Y5 d   1      14.468  -1.226  25.320  0.00  0.00    -0.166 F 
ENDBRANCH  23  27
ENDBRANCH  16  17
ENDBRANCH  10  16
ENDBRANCH   1   4
BRANCH   1  31
ATOM     31  N14 0Y5 d   1       5.432   2.255  28.339  0.00  0.00     0.094 N 
ATOM     32  C13 0Y5 d   1       4.724   1.361  29.275  0.00  0.00     0.114 C 
ATOM     33  C12 0Y5 d   1       3.558   0.692  28.570  0.00  0.00    -0.038 C 
ATOM     34  H   0Y5 d   1       5.414   0.597  29.633  0.00  0.00     0.079 H 
ATOM     35  H   0Y5 d   1       4.348   1.945  30.115  0.00  0.00     0.079 H 
ATOM     36  C11 0Y5 d   1       4.037  -0.050  27.324  0.00  0.00    -0.042 C 
ATOM     37  H   0Y5 d   1       3.097  -0.023  29.251  0.00  0.00     0.035 H 
ATOM     38  H   0Y5 d   1       2.840   1.456  28.272  0.00  0.00     0.035 H 
ATOM     39  C10 0Y5 d   1       4.960   0.810  26.449  0.00  0.00     0.046 C 
ATOM     40  H   0Y5 d   1       3.161  -0.315  26.732  0.00  0.00     0.036 H 
ATOM     41  H   0Y5 d   1       4.599  -0.925  27.648  0.00  0.00     0.036 H 
ATOM     42  C15 0Y5 d   1       6.052   1.477  27.255  0.00  0.00     0.133 C 
ATOM     43  H   0Y5 d   1       4.313   1.589  26.046  0.00  0.00     0.076 H 
ATOM     44  H   0Y5 d   1       6.635   2.137  26.613  0.00  0.00     0.083 H 
ATOM     45  H   0Y5 d   1       6.716   0.721  27.675  0.00  0.00     0.083 H 
BRANCH  39  46
ATOM     46  N4  0Y5 d   1       5.503   0.118  25.303  0.00  0.00    -0.303 N 
ATOM     47  C3  0Y5 d   1       6.044  -1.157  25.422  0.00  0.00    -0.004 A 
ATOM     48  C2  0Y5 d   1       6.521  -1.892  24.406  0.00  0.00     0.022 A 
ATOM     49  H   0Y5 d   1       6.084  -1.594  26.420  0.00  0.00     0.112 H 
ATOM     50  C8  0Y5 d   1       6.417  -1.284  23.052  0.00  0.00     0.256 A 
ATOM     51  N7  0Y5 d   1       5.860  -0.009  23.008  0.00  0.00    -0.275 N 
ATOM     52  O9  0Y5 d   1       6.810  -1.880  22.062  0.00  0.00    -0.267 OA
ATOM     53  C5  0Y5 d   1       5.429   0.753  24.069  0.00  0.00     0.329 A 
ATOM     54  H   0Y5 d   1       5.760   0.408  22.083  0.00  0.00     0.173 HD
ATOM     55  O6  0Y5 d   1       5.037   1.913  23.920  0.00  0.00    -0.246 OA
BRANCH  48  56
ATOM     56  C1  0Y5 d   1       7.103  -3.262  24.552  0.00  0.00    -0.045 C 
ATOM     57  H   0Y5 d   1       7.967  -3.220  25.216  0.00  0.00     0.033 H 
ATOM     58  H   0Y5 d   1       6.353  -3.931  24.973  0.00  0.00     0.033 H 
ATOM     59  H   0Y5 d   1       7.412  -3.630  23.574  0.00  0.00     0.033 H 
ENDBRANCH  48  56
ENDBRANCH  39  46
ENDBRANCH   1  31
TORSDOF 8
