REMARK  17 active torsions:
REMARK  status: ('A' for Active; 'I' for Inactive)
REMARK    1  A    between atoms: CAA_1  and  CAV_2 
REMARK    2  A    between atoms: CAV_2  and  CAW_3 
REMARK    3  A    between atoms: CAW_3  and  CAX_4 
REMARK    4  A    between atoms: CAX_4  and  CAY_5 
REMARK    5  A    between atoms: CAY_5  and  CAZ_6 
REMARK    6  A    between atoms: CAZ_6  and  NBF_7 
REMARK       I    between atoms: NBF_7  and  CBI_8 
REMARK    7  A    between atoms: CBI_8  and  OBH_10 
REMARK    8  A    between atoms: OBH_10  and  CBM_11 
REMARK    9  A    between atoms: CBK_16  and  CBA_17 
REMARK   10  A    between atoms: CBA_17  and  CBR_18 
REMARK   11  A    between atoms: NBS_20  and  CBC_21 
REMARK   12  A    between atoms: CBC_21  and  CBP_22 
REMARK   13  A    between atoms: NBU_26  and  CAC_27 
REMARK   14  A    between atoms: NBT_37  and  SBV_38 
REMARK   15  A    between atoms: SBV_38  and  CBO_41 
REMARK   16  A    between atoms: CBL_44  and  OBG_45 
REMARK   17  A    between atoms: OBG_45  and  CAB_46 
ROOT
ATOM      1  CBR 7TM d   1      53.354 -50.424   3.072  0.00  0.00     0.042 C 
ATOM      2  CBD 7TM d   1      52.768 -49.958   4.400  0.00  0.00     0.015 C 
ATOM      3  NBS 7TM d   1      51.529 -50.570   4.901  0.00  0.00    -0.373 N 
ATOM      4  CBQ 7TM d   1      51.431 -51.840   5.327  0.00  0.00     0.038 A 
ATOM      5  CAR 7TM d   1      50.472 -52.089   6.330  0.00  0.00    -0.055 A 
ATOM      6  CAI 7TM d   1      50.332 -53.361   6.871  0.00  0.00    -0.061 A 
ATOM      7  CBJ 7TM d   1      51.150 -54.401   6.426  0.00  0.00     0.045 A 
ATOM      8  CAH 7TM d   1      51.050 -55.741   6.949  0.00  0.00     0.099 C 
ATOM      9  NAD 7TM d   1      51.034 -56.815   7.339  0.00  0.00    -0.191 NA
ATOM     10  CAU 7TM d   1      52.097 -54.152   5.439  0.00  0.00    -0.053 A 
ATOM     11  CBN 7TM d   1      52.250 -52.880   4.899  0.00  0.00    -0.012 A 
ATOM     12  CBB 7TM d   1      53.377 -52.839   3.851  0.00  0.00     0.032 C 
ATOM     13  NBT 7TM d   1      53.247 -51.880   2.730  0.00  0.00    -0.296 N 
ATOM     14  H   7TM d   1      52.796 -49.959   2.259  0.00  0.00     0.076 H 
ATOM     15  H   7TM d   1      52.512 -48.911   4.237  0.00  0.00     0.067 H 
ATOM     16  H   7TM d   1      53.524 -50.218   5.141  0.00  0.00     0.067 H 
ATOM     17  H   7TM d   1      49.836 -51.278   6.684  0.00  0.00     0.087 H 
ATOM     18  H   7TM d   1      49.584 -53.547   7.642  0.00  0.00     0.085 H 
ATOM     19  H   7TM d   1      52.729 -54.966   5.083  0.00  0.00     0.086 H 
ATOM     20  H   7TM d   1      53.379 -53.826   3.389  0.00  0.00     0.072 H 
ATOM     21  H   7TM d   1      54.268 -52.529   4.396  0.00  0.00     0.072 H 
ENDROOT
BRANCH   3  22
ATOM     22  CBC 7TM d   1      50.493 -49.568   5.070  0.00  0.00     0.035 C 
ATOM     23  H   7TM d   1      49.514 -50.032   5.187  0.00  0.00     0.073 H 
ATOM     24  H   7TM d   1      50.423 -48.925   4.193  0.00  0.00     0.073 H 
BRANCH  22  25
ATOM     25  CBP 7TM d   1      50.877 -48.755   6.327  0.00  0.00     0.047 A 
ATOM     26  CAS 7TM d   1      51.955 -48.883   7.105  0.00  0.00     0.027 A 
ATOM     27  NBE 7TM d   1      51.873 -47.990   8.102  0.00  0.00    -0.254 NA
ATOM     28  H   7TM d   1      52.767 -49.595   6.955  0.00  0.00     0.117 H 
ATOM     29  CAT 7TM d   1      50.756 -47.290   7.946  0.00  0.00     0.065 A 
ATOM     30  NBU 7TM d   1      50.158 -47.775   6.859  0.00  0.00    -0.347 N 
ATOM     31  H   7TM d   1      50.399 -46.479   8.581  0.00  0.00     0.143 H 
BRANCH  30  32
ATOM     32  CAC 7TM d   1      48.863 -47.307   6.305  0.00  0.00    -0.013 C 
ATOM     33  H   7TM d   1      49.013 -46.950   5.286  0.00  0.00     0.057 H 
ATOM     34  H   7TM d   1      48.151 -48.133   6.301  0.00  0.00     0.057 H 
ATOM     35  H   7TM d   1      48.477 -46.496   6.923  0.00  0.00     0.057 H 
ENDBRANCH  30  32
ENDBRANCH  22  25
ENDBRANCH   3  22
BRANCH  13  36
ATOM     36  SBV 7TM d   1      52.059 -52.229   1.562  0.00  0.00     0.261 S 
ATOM     37  OAF 7TM d   1      52.083 -51.151   0.505  0.00  0.00    -0.200 OA
ATOM     38  OAG 7TM d   1      52.404 -53.564   0.936  0.00  0.00    -0.200 OA
BRANCH  36  39
ATOM     39  CBO 7TM d   1      50.392 -52.285   2.211  0.00  0.00     0.079 A 
ATOM     40  CAP 7TM d   1      49.621 -51.129   2.226  0.00  0.00    -0.058 A 
ATOM     41  CAN 7TM d   1      48.335 -51.167   2.757  0.00  0.00    -0.049 A 
ATOM     42  H   7TM d   1      50.021 -50.198   1.824  0.00  0.00     0.086 H 
ATOM     43  CBL 7TM d   1      47.802 -52.346   3.270  0.00  0.00     0.068 A 
ATOM     44  H   7TM d   1      47.735 -50.257   2.771  0.00  0.00     0.087 H 
ATOM     45  CAO 7TM d   1      48.560 -53.509   3.258  0.00  0.00    -0.049 A 
ATOM     46  CAQ 7TM d   1      49.847 -53.468   2.721  0.00  0.00    -0.058 A 
ATOM     47  H   7TM d   1      48.157 -54.438   3.661  0.00  0.00     0.087 H 
ATOM     48  H   7TM d   1      50.443 -54.381   2.698  0.00  0.00     0.086 H 
BRANCH  43  49
ATOM     49  OBG 7TM d   1      46.532 -52.348   3.768  0.00  0.00    -0.356 OA
BRANCH  49  50
ATOM     50  CAB 7TM d   1      46.517 -52.624   5.173  0.00  0.00     0.010 C 
ATOM     51  H   7TM d   1      46.960 -53.603   5.354  0.00  0.00     0.066 H 
ATOM     52  H   7TM d   1      47.092 -51.861   5.698  0.00  0.00     0.066 H 
ATOM     53  H   7TM d   1      45.488 -52.617   5.532  0.00  0.00     0.066 H 
ENDBRANCH  49  50
ENDBRANCH  43  49
ENDBRANCH  36  39
ENDBRANCH  13  36
BRANCH   1  54
ATOM     54  CBA 7TM d   1      54.844 -50.053   3.226  0.00  0.00    -0.020 C 
ATOM     55  H   7TM d   1      54.912 -48.966   3.270  0.00  0.00     0.043 H 
ATOM     56  H   7TM d   1      55.215 -50.541   4.127  0.00  0.00     0.043 H 
BRANCH  54  57
ATOM     57  CBK 7TM d   1      55.691 -50.518   2.071  0.00  0.00    -0.056 A 
ATOM     58  CAK 7TM d   1      55.683 -49.783   0.892  0.00  0.00    -0.074 A 
ATOM     59  CAM 7TM d   1      56.459 -50.198  -0.186  0.00  0.00    -0.050 A 
ATOM     60  H   7TM d   1      55.071 -48.885   0.812  0.00  0.00     0.084 H 
ATOM     61  CBM 7TM d   1      57.231 -51.349  -0.061  0.00  0.00     0.081 A 
ATOM     62  H   7TM d   1      56.462 -49.629  -1.116  0.00  0.00     0.087 H 
ATOM     63  CAL 7TM d   1      57.215 -52.094   1.133  0.00  0.00    -0.050 A 
ATOM     64  CAJ 7TM d   1      56.451 -51.668   2.210  0.00  0.00    -0.074 A 
ATOM     65  H   7TM d   1      57.804 -53.008   1.212  0.00  0.00     0.087 H 
ATOM     66  H   7TM d   1      56.449 -52.227   3.146  0.00  0.00     0.084 H 
BRANCH  61  67
ATOM     67  OBH 7TM d   1      57.985 -51.763  -1.125  0.00  0.00    -0.262 OA
BRANCH  67  68
ATOM     68  CBI 7TM d   1      57.702 -53.091  -1.282  0.00  0.00     0.365 C 
ATOM     69  NBF 7TM d   1      56.457 -53.442  -1.677  0.00  0.00    -0.337 N 
ATOM     70  H   7TM d   1      55.796 -52.685  -1.851  0.00  0.00     0.164 HD
ATOM     71  OAE 7TM d   1      58.619 -53.873  -1.014  0.00  0.00    -0.238 OA
BRANCH  69  72
ATOM     72  CAZ 7TM d   1      55.970 -54.811  -1.878  0.00  0.00    -0.003 C 
ATOM     73  H   7TM d   1      56.469 -55.474  -1.172  0.00  0.00     0.064 H 
ATOM     74  H   7TM d   1      54.892 -54.833  -1.718  0.00  0.00     0.064 H 
BRANCH  72  75
ATOM     75  CAY 7TM d   1      56.276 -55.279  -3.311  0.00  0.00    -0.050 C 
ATOM     76  H   7TM d   1      55.627 -54.730  -3.994  0.00  0.00     0.035 H 
ATOM     77  H   7TM d   1      57.331 -55.094  -3.511  0.00  0.00     0.035 H 
BRANCH  75  78
ATOM     78  CAX 7TM d   1      56.007 -56.790  -3.500  0.00  0.00    -0.064 C 
ATOM     79  H   7TM d   1      54.938 -56.957  -3.628  0.00  0.00     0.033 H 
ATOM     80  H   7TM d   1      56.535 -57.147  -4.384  0.00  0.00     0.033 H 
BRANCH  78  81
ATOM     81  CAW 7TM d   1      56.499 -57.547  -2.270  0.00  0.00    -0.065 C 
ATOM     82  H   7TM d   1      57.460 -57.112  -1.996  0.00  0.00     0.033 H 
ATOM     83  H   7TM d   1      55.721 -57.456  -1.512  0.00  0.00     0.033 H 
BRANCH  81  84
ATOM     84  CAV 7TM d   1      56.732 -59.025  -2.483  0.00  0.00    -0.069 C 
ATOM     85  H   7TM d   1      55.772 -59.526  -2.607  0.00  0.00     0.032 H 
ATOM     86  H   7TM d   1      57.343 -59.167  -3.374  0.00  0.00     0.032 H 
BRANCH  84  87
ATOM     87  CAA 7TM d   1      57.468 -59.627  -1.257  0.00  0.00    -0.077 C 
ATOM     88  H   7TM d   1      58.428 -59.126  -1.129  0.00  0.00     0.027 H 
ATOM     89  H   7TM d   1      56.860 -59.484  -0.364  0.00  0.00     0.027 H 
ATOM     90  H   7TM d   1      57.631 -60.692  -1.420  0.00  0.00     0.027 H 
ENDBRANCH  84  87
ENDBRANCH  81  84
ENDBRANCH  78  81
ENDBRANCH  75  78
ENDBRANCH  72  75
ENDBRANCH  69  72
ENDBRANCH  67  68
ENDBRANCH  61  67
ENDBRANCH  54  57
ENDBRANCH   1  54
TORSDOF 17
