REMARK  12 active torsions:
REMARK  status: ('A' for Active; 'I' for Inactive)
REMARK    1  A    between atoms: CAA_1  and  OBD_2 
REMARK    2  A    between atoms: OBD_2  and  CBH_3 
REMARK    3  A    between atoms: CBK_8  and  SBT_9 
REMARK    4  A    between atoms: SBT_9  and  NBP_12 
REMARK    5  A    between atoms: NBO_22  and  CBA_23 
REMARK    6  A    between atoms: CBA_23  and  CBL_24 
REMARK    7  A    between atoms: NBQ_28  and  CAB_29 
REMARK    8  A    between atoms: CBN_31  and  CAY_32 
REMARK    9  A    between atoms: CAY_32  and  CBG_33 
REMARK   10  A    between atoms: CBI_38  and  OBE_39 
REMARK   11  A    between atoms: OBE_39  and  SBS_40 
REMARK   12  A    between atoms: SBS_40  and  CBR_43 
ROOT
ATOM      1  NBP 7TO d   1     -17.706  72.236   5.189  0.00  0.00    -0.296 N 
ATOM      2  CAZ 7TO d   1     -18.383  72.856   4.024  0.00  0.00     0.032 C 
ATOM      3  CBJ 7TO d   1     -18.878  71.865   2.983  0.00  0.00    -0.012 A 
ATOM      4  CAX 7TO d   1     -20.135  72.210   2.488  0.00  0.00    -0.053 A 
ATOM      5  CBF 7TO d   1     -20.703  71.419   1.512  0.00  0.00     0.045 A 
ATOM      6  CAK 7TO d   1     -21.984  71.716   0.970  0.00  0.00     0.099 C 
ATOM      7  NAC 7TO d   1     -23.001  71.930   0.515  0.00  0.00    -0.191 NA
ATOM      8  CAL 7TO d   1     -20.046  70.290   1.045  0.00  0.00    -0.061 A 
ATOM      9  CAU 7TO d   1     -18.804  69.936   1.544  0.00  0.00    -0.055 A 
ATOM     10  CBM 7TO d   1     -18.207  70.734   2.522  0.00  0.00     0.038 A 
ATOM     11  NBO 7TO d   1     -16.991  70.331   2.917  0.00  0.00    -0.373 N 
ATOM     12  CBB 7TO d   1     -16.004  71.265   3.496  0.00  0.00     0.015 C 
ATOM     13  CBN 7TO d   1     -16.342  71.685   4.950  0.00  0.00     0.042 C 
ATOM     14  H   7TO d   1     -17.651  73.496   3.533  0.00  0.00     0.072 H 
ATOM     15  H   7TO d   1     -19.258  73.382   4.406  0.00  0.00     0.072 H 
ATOM     16  H   7TO d   1     -20.659  73.088   2.865  0.00  0.00     0.086 H 
ATOM     17  H   7TO d   1     -20.513  69.674   0.276  0.00  0.00     0.085 H 
ATOM     18  H   7TO d   1     -18.297  69.043   1.177  0.00  0.00     0.087 H 
ATOM     19  H   7TO d   1     -16.003  72.166   2.883  0.00  0.00     0.067 H 
ATOM     20  H   7TO d   1     -15.040  70.758   3.514  0.00  0.00     0.067 H 
ATOM     21  H   7TO d   1     -16.336  70.730   5.474  0.00  0.00     0.076 H 
ENDROOT
BRANCH   1  22
ATOM     22  SBT 7TO d   1     -18.673  71.238   6.180  0.00  0.00     0.261 S 
ATOM     23  OAF 7TO d   1     -17.822  70.840   7.351  0.00  0.00    -0.200 OA
ATOM     24  OAG 7TO d   1     -19.801  72.094   6.675  0.00  0.00    -0.200 OA
BRANCH  22  25
ATOM     25  CBK 7TO d   1     -19.397  69.807   5.436  0.00  0.00     0.079 A 
ATOM     26  CAT 7TO d   1     -20.687  69.930   4.923  0.00  0.00    -0.058 A 
ATOM     27  CAR 7TO d   1     -21.318  68.853   4.320  0.00  0.00    -0.049 A 
ATOM     28  H   7TO d   1     -21.206  70.885   4.997  0.00  0.00     0.086 H 
ATOM     29  CBH 7TO d   1     -20.665  67.625   4.238  0.00  0.00     0.068 A 
ATOM     30  H   7TO d   1     -22.322  68.967   3.911  0.00  0.00     0.087 H 
ATOM     31  CAQ 7TO d   1     -19.378  67.488   4.764  0.00  0.00    -0.049 A 
ATOM     32  CAS 7TO d   1     -18.743  68.574   5.372  0.00  0.00    -0.058 A 
ATOM     33  H   7TO d   1     -18.866  66.528   4.700  0.00  0.00     0.087 H 
ATOM     34  H   7TO d   1     -17.744  68.460   5.793  0.00  0.00     0.086 H 
BRANCH  29  35
ATOM     35  OBD 7TO d   1     -21.282  66.561   3.650  0.00  0.00    -0.356 OA
BRANCH  35  36
ATOM     36  CAA 7TO d   1     -22.513  66.958   3.017  0.00  0.00     0.010 C 
ATOM     37  H   7TO d   1     -23.184  67.381   3.764  0.00  0.00     0.066 H 
ATOM     38  H   7TO d   1     -22.302  67.705   2.252  0.00  0.00     0.066 H 
ATOM     39  H   7TO d   1     -22.981  66.087   2.557  0.00  0.00     0.066 H 
ENDBRANCH  35  36
ENDBRANCH  29  35
ENDBRANCH  22  25
ENDBRANCH   1  22
BRANCH  11  40
ATOM     40  CBA 7TO d   1     -16.554  68.926   2.716  0.00  0.00     0.035 C 
ATOM     41  H   7TO d   1     -17.431  68.279   2.692  0.00  0.00     0.073 H 
ATOM     42  H   7TO d   1     -15.896  68.635   3.535  0.00  0.00     0.073 H 
BRANCH  40  43
ATOM     43  CBL 7TO d   1     -15.793  68.794   1.387  0.00  0.00     0.047 A 
ATOM     44  CAV 7TO d   1     -15.788  69.657   0.364  0.00  0.00     0.027 A 
ATOM     45  NBC 7TO d   1     -15.014  69.159  -0.599  0.00  0.00    -0.254 NA
ATOM     46  H   7TO d   1     -16.325  70.605   0.326  0.00  0.00     0.117 H 
ATOM     47  CAW 7TO d   1     -14.529  67.983  -0.180  0.00  0.00     0.065 A 
ATOM     48  NBQ 7TO d   1     -15.012  67.775   1.036  0.00  0.00    -0.347 N 
ATOM     49  H   7TO d   1     -13.863  67.322  -0.735  0.00  0.00     0.143 H 
BRANCH  48  50
ATOM     50  CAB 7TO d   1     -14.722  66.568   1.886  0.00  0.00    -0.013 C 
ATOM     51  H   7TO d   1     -14.249  66.885   2.815  0.00  0.00     0.057 H 
ATOM     52  H   7TO d   1     -15.655  66.050   2.110  0.00  0.00     0.057 H 
ATOM     53  H   7TO d   1     -14.053  65.897   1.346  0.00  0.00     0.057 H 
ENDBRANCH  48  50
ENDBRANCH  40  43
ENDBRANCH  11  40
BRANCH  13  54
ATOM     54  CAY 7TO d   1     -15.264  72.628   5.557  0.00  0.00    -0.020 C 
ATOM     55  H   7TO d   1     -14.326  72.262   5.140  0.00  0.00     0.043 H 
ATOM     56  H   7TO d   1     -15.451  72.589   6.630  0.00  0.00     0.043 H 
BRANCH  54  57
ATOM     57  CBG 7TO d   1     -15.259  74.144   5.228  0.00  0.00    -0.056 A 
ATOM     58  CAN 7TO d   1     -15.968  75.086   5.985  0.00  0.00    -0.074 A 
ATOM     59  CAP 7TO d   1     -15.902  76.459   5.669  0.00  0.00    -0.049 A 
ATOM     60  H   7TO d   1     -16.576  74.754   6.826  0.00  0.00     0.084 H 
ATOM     61  CBI 7TO d   1     -15.104  76.936   4.613  0.00  0.00     0.089 A 
ATOM     62  H   7TO d   1     -16.484  77.168   6.258  0.00  0.00     0.087 H 
ATOM     63  CAO 7TO d   1     -14.399  75.981   3.872  0.00  0.00    -0.049 A 
ATOM     64  CAM 7TO d   1     -14.461  74.613   4.184  0.00  0.00    -0.074 A 
ATOM     65  H   7TO d   1     -13.786  76.307   3.031  0.00  0.00     0.087 H 
ATOM     66  H   7TO d   1     -13.874  73.904   3.599  0.00  0.00     0.084 H 
BRANCH  61  67
ATOM     67  OBE 7TO d   1     -15.044  78.295   4.286  0.00  0.00    -0.226 OA
BRANCH  67  68
ATOM     68  SBS 7TO d   1     -13.810  79.124   4.553  0.00  0.00     0.374 S 
ATOM     69  OAD 7TO d   1     -13.797  80.327   3.663  0.00  0.00    -0.189 OA
ATOM     70  OAE 7TO d   1     -12.516  78.401   4.339  0.00  0.00    -0.189 OA
BRANCH  68  71
ATOM     71  CBR 7TO d   1     -13.856  79.778   6.259  0.00  0.00     0.524 C 
ATOM     72  FAI 7TO d   1     -14.078  78.776   7.120  0.00  0.00    -0.155 F 
ATOM     73  FAJ 7TO d   1     -12.698  80.395   6.505  0.00  0.00    -0.155 F 
ATOM     74  FAH 7TO d   1     -14.841  80.668   6.358  0.00  0.00    -0.155 F 
ENDBRANCH  68  71
ENDBRANCH  67  68
ENDBRANCH  61  67
ENDBRANCH  54  57
ENDBRANCH  13  54
TORSDOF 12
