REMARK  13 active torsions:
REMARK  status: ('A' for Active; 'I' for Inactive)
REMARK    1  A    between atoms: CAA_1  and  OBB_2 
REMARK    2  A    between atoms: OBB_2  and  CBG_3 
REMARK    3  A    between atoms: CBJ_8  and  SBR_9 
REMARK    4  A    between atoms: SBR_9  and  NBP_12 
REMARK    5  A    between atoms: CBH_16  and  CBL_17 
REMARK    6  A    between atoms: CBF_21  and  CAG_22 
REMARK    7  A    between atoms: CAG_22  and  OAC_23 
REMARK    8  A    between atoms: NBO_27  and  CAY_28 
REMARK    9  A    between atoms: CAY_28  and  CBK_29 
REMARK   10  A    between atoms: NBQ_33  and  CAB_34 
REMARK   11  A    between atoms: CBN_36  and  CAW_37 
REMARK   12  A    between atoms: CAW_37  and  CBE_38 
REMARK   13  A    between atoms: CBD_41  and  OAF_42 
ROOT
ATOM      1  NBP 7TP d   1      52.952  51.672  -2.775  0.00  0.00    -0.296 N 
ATOM      2  CAX 7TP d   1      52.919  52.557  -3.927  0.00  0.00     0.032 C 
ATOM      3  CBI 7TP d   1      51.721  52.369  -4.812  0.00  0.00    -0.012 A 
ATOM      4  CAV 7TP d   1      51.382  53.580  -5.285  0.00  0.00    -0.060 A 
ATOM      5  CBH 7TP d   1      50.315  53.606  -6.139  0.00  0.00    -0.002 A 
ATOM      6  CAO 7TP d   1      49.574  52.508  -6.505  0.00  0.00    -0.068 A 
ATOM      7  CAS 7TP d   1      49.911  51.294  -6.014  0.00  0.00    -0.056 A 
ATOM      8  CBM 7TP d   1      50.995  51.243  -5.159  0.00  0.00     0.038 A 
ATOM      9  NBO 7TP d   1      51.289  50.023  -4.789  0.00  0.00    -0.373 N 
ATOM     10  CAZ 7TP d   1      52.674  49.681  -4.419  0.00  0.00     0.015 C 
ATOM     11  CBN 7TP d   1      53.238  50.252  -3.103  0.00  0.00     0.042 C 
ATOM     12  H   7TP d   1      53.801  52.336  -4.528  0.00  0.00     0.072 H 
ATOM     13  H   7TP d   1      52.882  53.578  -3.548  0.00  0.00     0.072 H 
ATOM     14  H   7TP d   1      51.923  54.484  -5.006  0.00  0.00     0.086 H 
ATOM     15  H   7TP d   1      48.726  52.614  -7.182  0.00  0.00     0.085 H 
ATOM     16  H   7TP d   1      49.353  50.397  -6.281  0.00  0.00     0.087 H 
ATOM     17  H   7TP d   1      53.296  50.106  -5.207  0.00  0.00     0.067 H 
ATOM     18  H   7TP d   1      52.678  48.599  -4.288  0.00  0.00     0.067 H 
ATOM     19  H   7TP d   1      52.731  49.697  -2.314  0.00  0.00     0.076 H 
ENDROOT
BRANCH   1  20
ATOM     20  SBR 7TP d   1      51.777  52.038  -1.639  0.00  0.00     0.261 S 
ATOM     21  OAD 7TP d   1      51.788  50.971  -0.622  0.00  0.00    -0.200 OA
ATOM     22  OAE 7TP d   1      52.352  53.367  -1.079  0.00  0.00    -0.200 OA
BRANCH  20  23
ATOM     23  CBJ 7TP d   1      50.081  52.090  -2.251  0.00  0.00     0.079 A 
ATOM     24  CAQ 7TP d   1      49.466  53.255  -2.706  0.00  0.00    -0.058 A 
ATOM     25  CAN 7TP d   1      48.164  53.228  -3.224  0.00  0.00    -0.049 A 
ATOM     26  H   7TP d   1      50.005  54.201  -2.658  0.00  0.00     0.086 H 
ATOM     27  CBG 7TP d   1      47.425  52.055  -3.299  0.00  0.00     0.068 A 
ATOM     28  H   7TP d   1      47.718  54.157  -3.579  0.00  0.00     0.087 H 
ATOM     29  CAM 7TP d   1      48.030  50.885  -2.835  0.00  0.00    -0.049 A 
ATOM     30  CAP 7TP d   1      49.337  50.900  -2.323  0.00  0.00    -0.058 A 
ATOM     31  H   7TP d   1      47.479  49.945  -2.871  0.00  0.00     0.087 H 
ATOM     32  H   7TP d   1      49.784  49.969  -1.974  0.00  0.00     0.086 H 
BRANCH  27  33
ATOM     33  OBB 7TP d   1      46.132  52.079  -3.824  0.00  0.00    -0.356 OA
BRANCH  33  34
ATOM     34  CAA 7TP d   1      45.541  50.756  -4.133  0.00  0.00     0.010 C 
ATOM     35  H   7TP d   1      46.162  50.245  -4.869  0.00  0.00     0.066 H 
ATOM     36  H   7TP d   1      45.491  50.160  -3.222  0.00  0.00     0.066 H 
ATOM     37  H   7TP d   1      44.537  50.893  -4.535  0.00  0.00     0.066 H 
ENDBRANCH  33  34
ENDBRANCH  27  33
ENDBRANCH  20  23
ENDBRANCH   1  20
BRANCH  11  38
ATOM     38  CAW 7TP d   1      54.797  50.080  -3.171  0.00  0.00    -0.020 C 
ATOM     39  H   7TP d   1      55.163  50.685  -4.001  0.00  0.00     0.043 H 
ATOM     40  H   7TP d   1      55.010  49.018  -3.294  0.00  0.00     0.043 H 
BRANCH  38  41
ATOM     41  CBE 7TP d   1      55.498  50.550  -1.910  0.00  0.00    -0.056 A 
ATOM     42  CAJ 7TP d   1      55.692  49.685  -0.835  0.00  0.00    -0.074 A 
ATOM     43  CAH 7TP d   1      56.302  50.111   0.347  0.00  0.00    -0.051 A 
ATOM     44  H   7TP d   1      55.359  48.650  -0.919  0.00  0.00     0.084 H 
ATOM     45  CBD 7TP d   1      56.711  51.444   0.424  0.00  0.00     0.065 A 
ATOM     46  H   7TP d   1      56.454  49.426   1.181  0.00  0.00     0.087 H 
ATOM     47  CAI 7TP d   1      56.508  52.304  -0.670  0.00  0.00    -0.051 A 
ATOM     48  CAK 7TP d   1      55.893  51.861  -1.837  0.00  0.00    -0.074 A 
ATOM     49  H   7TP d   1      56.840  53.340  -0.602  0.00  0.00     0.087 H 
ATOM     50  H   7TP d   1      55.729  52.540  -2.674  0.00  0.00     0.084 H 
BRANCH  45  51
ATOM     51  OAF 7TP d   1      57.331  51.939   1.549  0.00  0.00    -0.361 OA
ATOM     52  H   7TP d   1      57.537  52.867   1.417  0.00  0.00     0.217 HD
ENDBRANCH  45  51
ENDBRANCH  38  41
ENDBRANCH  11  38
BRANCH   9  53
ATOM     53  CAY 7TP d   1      50.294  48.945  -4.902  0.00  0.00     0.035 C 
ATOM     54  H   7TP d   1      49.279  49.342  -4.921  0.00  0.00     0.073 H 
ATOM     55  H   7TP d   1      50.335  48.276  -4.043  0.00  0.00     0.073 H 
BRANCH  53  56
ATOM     56  CBK 7TP d   1      50.624  48.210  -6.192  0.00  0.00     0.047 A 
ATOM     57  CAT 7TP d   1      51.605  48.555  -7.052  0.00  0.00     0.027 A 
ATOM     58  NBA 7TP d   1      51.593  47.698  -8.068  0.00  0.00    -0.254 NA
ATOM     59  H   7TP d   1      52.291  49.394  -6.934  0.00  0.00     0.117 H 
ATOM     60  CAU 7TP d   1      50.604  46.821  -7.847  0.00  0.00     0.065 A 
ATOM     61  NBQ 7TP d   1      49.996  47.143  -6.690  0.00  0.00    -0.347 N 
ATOM     62  H   7TP d   1      50.337  45.987  -8.495  0.00  0.00     0.143 H 
BRANCH  61  63
ATOM     63  CAB 7TP d   1      48.802  46.405  -6.097  0.00  0.00    -0.013 C 
ATOM     64  H   7TP d   1      49.066  46.022  -5.111  0.00  0.00     0.057 H 
ATOM     65  H   7TP d   1      47.960  47.091  -6.008  0.00  0.00     0.057 H 
ATOM     66  H   7TP d   1      48.529  45.576  -6.749  0.00  0.00     0.057 H 
ENDBRANCH  61  63
ENDBRANCH  53  56
ENDBRANCH   9  53
BRANCH   5  67
ATOM     67  CBL 7TP d   1      49.925  54.834  -6.549  0.00  0.00     0.086 A 
ATOM     68  OBC 7TP d   1      50.783  55.800  -6.889  0.00  0.00    -0.312 OA
ATOM     69  CBF 7TP d   1      49.970  56.817  -7.119  0.00  0.00     0.077 A 
ATOM     70  CAL 7TP d   1      48.681  56.508  -6.919  0.00  0.00    -0.049 A 
ATOM     71  CAR 7TP d   1      48.666  55.248  -6.521  0.00  0.00    -0.047 A 
ATOM     72  H   7TP d   1      47.821  57.163  -7.057  0.00  0.00     0.087 H 
ATOM     73  H   7TP d   1      47.793  54.665  -6.228  0.00  0.00     0.087 H 
BRANCH  69  74
ATOM     74  CAG 7TP d   1      50.395  58.145  -7.655  0.00  0.00     0.061 C 
ATOM     75  H   7TP d   1      51.479  58.110  -7.766  0.00  0.00     0.084 H 
ATOM     76  H   7TP d   1      50.033  58.900  -6.957  0.00  0.00     0.084 H 
BRANCH  74  77
ATOM     77  OAC 7TP d   1      49.924  58.430  -8.774  0.00  0.00    -0.394 OA
ATOM     78  H   7TP d   1      48.965  58.445  -8.722  0.00  0.00     0.209 HD
ENDBRANCH  74  77
ENDBRANCH  69  74
ENDBRANCH   5  67
TORSDOF 13
