REMARK  13 active torsions:
REMARK  status: ('A' for Active; 'I' for Inactive)
REMARK    1  A    between atoms: CAA_1  and  OBG_2 
REMARK    2  A    between atoms: OBG_2  and  CBM_3 
REMARK    3  A    between atoms: CBP_8  and  SBW_9 
REMARK    4  A    between atoms: SBW_9  and  NBU_12 
REMARK    5  A    between atoms: NBT_22  and  CBC_23 
REMARK    6  A    between atoms: CBC_23  and  CBQ_24 
REMARK    7  A    between atoms: NBV_28  and  CAB_29 
REMARK    8  A    between atoms: CBS_31  and  CBA_32 
REMARK    9  A    between atoms: CBA_32  and  CBL_33 
REMARK   10  A    between atoms: CBN_38  and  OBH_39 
REMARK   11  A    between atoms: OBH_39  and  CBI_40 
REMARK       I    between atoms: CBI_40  and  NBF_42 
REMARK   12  A    between atoms: NBF_42  and  CAZ_43 
REMARK   13  A    between atoms: CAZ_43  and  CBK_44 
ROOT
ATOM      1  NBU 7TQ d   1     -18.261  71.696   4.388  0.00  0.00    -0.296 N 
ATOM      2  CBB 7TQ d   1     -19.136  72.185   3.307  0.00  0.00     0.032 C 
ATOM      3  CBO 7TQ d   1     -19.615  71.281   2.364  0.00  0.00    -0.012 A 
ATOM      4  CAY 7TQ d   1     -20.784  71.771   1.768  0.00  0.00    -0.053 A 
ATOM      5  CBJ 7TQ d   1     -21.436  71.049   0.769  0.00  0.00     0.045 A 
ATOM      6  CAG 7TQ d   1     -22.632  71.622   0.193  0.00  0.00     0.099 C 
ATOM      7  NAC 7TQ d   1     -23.449  72.067  -0.169  0.00  0.00    -0.191 NA
ATOM      8  CAM 7TQ d   1     -20.900  69.842   0.319  0.00  0.00    -0.061 A 
ATOM      9  CAV 7TQ d   1     -19.751  69.348   0.918  0.00  0.00    -0.055 A 
ATOM     10  CBR 7TQ d   1     -19.090  70.049   1.965  0.00  0.00     0.038 A 
ATOM     11  NBT 7TQ d   1     -17.911  69.511   2.405  0.00  0.00    -0.373 N 
ATOM     12  CBD 7TQ d   1     -16.769  70.347   2.772  0.00  0.00     0.015 C 
ATOM     13  CBS 7TQ d   1     -16.902  71.162   4.069  0.00  0.00     0.042 C 
ATOM     14  H   7TQ d   1     -18.518  72.881   2.740  0.00  0.00     0.072 H 
ATOM     15  H   7TQ d   1     -20.026  72.559   3.814  0.00  0.00     0.072 H 
ATOM     16  H   7TQ d   1     -21.190  72.730   2.090  0.00  0.00     0.086 H 
ATOM     17  H   7TQ d   1     -21.378  69.294  -0.493  0.00  0.00     0.085 H 
ATOM     18  H   7TQ d   1     -19.343  68.396   0.577  0.00  0.00     0.087 H 
ATOM     19  H   7TQ d   1     -16.658  71.075   1.969  0.00  0.00     0.067 H 
ATOM     20  H   7TQ d   1     -15.934  69.664   2.929  0.00  0.00     0.067 H 
ATOM     21  H   7TQ d   1     -16.771  70.519   4.939  0.00  0.00     0.076 H 
ENDROOT
BRANCH   1  22
ATOM     22  SBW 7TQ d   1     -19.226  70.811   5.603  0.00  0.00     0.261 S 
ATOM     23  OAE 7TQ d   1     -18.230  70.355   6.672  0.00  0.00    -0.200 OA
ATOM     24  OAF 7TQ d   1     -20.208  71.827   6.226  0.00  0.00    -0.200 OA
BRANCH  22  25
ATOM     25  CBP 7TQ d   1     -20.157  69.280   4.887  0.00  0.00     0.079 A 
ATOM     26  CAU 7TQ d   1     -21.473  69.306   4.389  0.00  0.00    -0.058 A 
ATOM     27  CAS 7TQ d   1     -22.072  68.155   3.843  0.00  0.00    -0.049 A 
ATOM     28  H   7TQ d   1     -22.040  70.236   4.427  0.00  0.00     0.086 H 
ATOM     29  CBM 7TQ d   1     -21.355  66.958   3.806  0.00  0.00     0.068 A 
ATOM     30  H   7TQ d   1     -23.088  68.198   3.452  0.00  0.00     0.087 H 
ATOM     31  CAR 7TQ d   1     -20.059  66.936   4.320  0.00  0.00    -0.049 A 
ATOM     32  CAT 7TQ d   1     -19.471  68.078   4.848  0.00  0.00    -0.058 A 
ATOM     33  H   7TQ d   1     -19.496  66.003   4.307  0.00  0.00     0.087 H 
ATOM     34  H   7TQ d   1     -18.454  68.027   5.237  0.00  0.00     0.086 H 
BRANCH  29  35
ATOM     35  OBG 7TQ d   1     -21.918  65.814   3.295  0.00  0.00    -0.356 OA
BRANCH  35  36
ATOM     36  CAA 7TQ d   1     -21.198  64.594   3.646  0.00  0.00     0.010 C 
ATOM     37  H   7TQ d   1     -20.179  64.652   3.263  0.00  0.00     0.066 H 
ATOM     38  H   7TQ d   1     -21.175  64.487   4.731  0.00  0.00     0.066 H 
ATOM     39  H   7TQ d   1     -21.704  63.735   3.205  0.00  0.00     0.066 H 
ENDBRANCH  35  36
ENDBRANCH  29  35
ENDBRANCH  22  25
ENDBRANCH   1  22
BRANCH  11  40
ATOM     40  CBC 7TQ d   1     -17.590  68.086   2.267  0.00  0.00     0.035 C 
ATOM     41  H   7TQ d   1     -18.491  67.473   2.250  0.00  0.00     0.073 H 
ATOM     42  H   7TQ d   1     -17.007  67.724   3.114  0.00  0.00     0.073 H 
BRANCH  40  43
ATOM     43  CBQ 7TQ d   1     -16.789  67.965   0.926  0.00  0.00     0.047 A 
ATOM     44  CAW 7TQ d   1     -16.421  68.971   0.106  0.00  0.00     0.027 A 
ATOM     45  NBE 7TQ d   1     -15.735  68.446  -0.914  0.00  0.00    -0.254 NA
ATOM     46  H   7TQ d   1     -16.644  70.028   0.250  0.00  0.00     0.117 H 
ATOM     47  CAX 7TQ d   1     -15.682  67.139  -0.734  0.00  0.00     0.065 A 
ATOM     48  NBV 7TQ d   1     -16.334  66.827   0.412  0.00  0.00    -0.347 N 
ATOM     49  H   7TQ d   1     -15.193  66.427  -1.399  0.00  0.00     0.143 H 
BRANCH  48  50
ATOM     50  CAB 7TQ d   1     -16.464  65.429   0.925  0.00  0.00    -0.013 C 
ATOM     51  H   7TQ d   1     -16.003  65.361   1.910  0.00  0.00     0.057 H 
ATOM     52  H   7TQ d   1     -17.520  65.167   0.997  0.00  0.00     0.057 H 
ATOM     53  H   7TQ d   1     -15.964  64.744   0.240  0.00  0.00     0.057 H 
ENDBRANCH  48  50
ENDBRANCH  40  43
ENDBRANCH  11  40
BRANCH  13  54
ATOM     54  CBA 7TQ d   1     -15.792  72.237   3.954  0.00  0.00    -0.020 C 
ATOM     55  H   7TQ d   1     -15.850  72.690   2.964  0.00  0.00     0.043 H 
ATOM     56  H   7TQ d   1     -14.827  71.757   4.115  0.00  0.00     0.043 H 
BRANCH  54  57
ATOM     57  CBL 7TQ d   1     -15.953  73.234   4.906  0.00  0.00    -0.056 A 
ATOM     58  CAO 7TQ d   1     -16.718  74.364   4.595  0.00  0.00    -0.074 A 
ATOM     59  CAQ 7TQ d   1     -16.886  75.375   5.535  0.00  0.00    -0.050 A 
ATOM     60  H   7TQ d   1     -17.183  74.452   3.613  0.00  0.00     0.084 H 
ATOM     61  CBN 7TQ d   1     -16.269  75.261   6.795  0.00  0.00     0.081 A 
ATOM     62  H   7TQ d   1     -17.491  76.250   5.298  0.00  0.00     0.087 H 
ATOM     63  CAP 7TQ d   1     -15.500  74.130   7.117  0.00  0.00    -0.050 A 
ATOM     64  CAN 7TQ d   1     -15.335  73.125   6.160  0.00  0.00    -0.074 A 
ATOM     65  H   7TQ d   1     -15.038  74.038   8.100  0.00  0.00     0.087 H 
ATOM     66  H   7TQ d   1     -14.723  72.252   6.389  0.00  0.00     0.084 H 
BRANCH  61  67
ATOM     67  OBH 7TQ d   1     -16.471  76.256   7.719  0.00  0.00    -0.262 OA
BRANCH  67  68
ATOM     68  CBI 7TQ d   1     -17.426  75.762   8.604  0.00  0.00     0.366 C 
ATOM     69  OAD 7TQ d   1     -17.277  75.940   9.820  0.00  0.00    -0.238 OA
ATOM     70  NBF 7TQ d   1     -18.511  75.075   8.140  0.00  0.00    -0.332 N 
ATOM     71  H   7TQ d   1     -18.618  74.986   7.130  0.00  0.00     0.165 HD
BRANCH  70  72
ATOM     72  CAZ 7TQ d   1     -19.516  74.467   8.976  0.00  0.00     0.021 C 
ATOM     73  H   7TQ d   1     -19.015  73.854   9.726  0.00  0.00     0.071 H 
ATOM     74  H   7TQ d   1     -20.175  73.871   8.344  0.00  0.00     0.071 H 
BRANCH  72  75
ATOM     75  CBK 7TQ d   1     -20.279  75.417   9.628  0.00  0.00    -0.040 A 
ATOM     76  CAK 7TQ d   1     -20.370  75.418  11.012  0.00  0.00    -0.075 A 
ATOM     77  CAI 7TQ d   1     -21.175  76.352  11.647  0.00  0.00    -0.082 A 
ATOM     78  H   7TQ d   1     -19.811  74.688  11.598  0.00  0.00     0.084 H 
ATOM     79  CAH 7TQ d   1     -21.894  77.285  10.909  0.00  0.00    -0.083 A 
ATOM     80  H   7TQ d   1     -21.244  76.354  12.735  0.00  0.00     0.083 H 
ATOM     81  CAJ 7TQ d   1     -21.808  77.285   9.528  0.00  0.00    -0.082 A 
ATOM     82  H   7TQ d   1     -22.524  78.015  11.417  0.00  0.00     0.083 H 
ATOM     83  CAL 7TQ d   1     -20.999  76.341   8.899  0.00  0.00    -0.075 A 
ATOM     84  H   7TQ d   1     -22.366  78.014   8.940  0.00  0.00     0.083 H 
ATOM     85  H   7TQ d   1     -20.934  76.332   7.811  0.00  0.00     0.084 H 
ENDBRANCH  72  75
ENDBRANCH  70  72
ENDBRANCH  67  68
ENDBRANCH  61  67
ENDBRANCH  54  57
ENDBRANCH  13  54
TORSDOF 13
