REMARK  15 active torsions:
REMARK  status: ('A' for Active; 'I' for Inactive)
REMARK    1  A    between atoms: CAA_1  and  CAW_2 
REMARK    2  A    between atoms: CAW_2  and  NBP_3 
REMARK    3  A    between atoms: NBP_3  and  CAX_4 
REMARK       I    between atoms: NBP_3  and  CBF_6 
REMARK    4  A    between atoms: CAX_4  and  CAB_5 
REMARK    5  A    between atoms: CBF_6  and  OBE_8 
REMARK    6  A    between atoms: OBE_8  and  CBJ_9 
REMARK    7  A    between atoms: CBH_14  and  CAY_15 
REMARK    8  A    between atoms: CAY_15  and  CBO_16 
REMARK    9  A    between atoms: NBQ_18  and  CBA_19 
REMARK   10  A    between atoms: CBA_19  and  CBM_20 
REMARK   11  A    between atoms: NBS_24  and  CAD_25 
REMARK   12  A    between atoms: NBR_35  and  SBT_36 
REMARK   13  A    between atoms: SBT_36  and  CBL_39 
REMARK   14  A    between atoms: CBI_42  and  OBD_43 
REMARK   15  A    between atoms: OBD_43  and  CAC_44 
ROOT
ATOM      1  CBO 7TR d   1     -69.725 -20.143   3.373  0.00  0.00     0.042 C 
ATOM      2  CBB 7TR d   1     -69.213 -20.319   4.819  0.00  0.00     0.015 C 
ATOM      3  NBQ 7TR d   1     -69.063 -19.009   5.512  0.00  0.00    -0.373 N 
ATOM      4  CBN 7TR d   1     -70.114 -18.272   5.961  0.00  0.00     0.038 A 
ATOM      5  CAS 7TR d   1     -69.833 -17.401   7.045  0.00  0.00    -0.055 A 
ATOM      6  CAJ 7TR d   1     -70.855 -16.622   7.596  0.00  0.00    -0.061 A 
ATOM      7  CBG 7TR d   1     -72.170 -16.713   7.078  0.00  0.00     0.045 A 
ATOM      8  CAI 7TR d   1     -73.265 -15.943   7.629  0.00  0.00     0.099 C 
ATOM      9  NAE 7TR d   1     -74.161 -15.367   8.032  0.00  0.00    -0.191 NA
ATOM     10  CAV 7TR d   1     -72.460 -17.580   6.018  0.00  0.00    -0.053 A 
ATOM     11  CBK 7TR d   1     -71.430 -18.342   5.474  0.00  0.00    -0.012 A 
ATOM     12  CAZ 7TR d   1     -71.967 -19.192   4.340  0.00  0.00     0.032 C 
ATOM     13  NBR 7TR d   1     -71.014 -19.399   3.213  0.00  0.00    -0.296 N 
ATOM     14  H   7TR d   1     -68.955 -19.522   2.915  0.00  0.00     0.076 H 
ATOM     15  H   7TR d   1     -68.237 -20.802   4.782  0.00  0.00     0.067 H 
ATOM     16  H   7TR d   1     -69.938 -20.919   5.370  0.00  0.00     0.067 H 
ATOM     17  H   7TR d   1     -68.822 -17.339   7.448  0.00  0.00     0.087 H 
ATOM     18  H   7TR d   1     -70.640 -15.945   8.423  0.00  0.00     0.085 H 
ATOM     19  H   7TR d   1     -73.474 -17.657   5.626  0.00  0.00     0.086 H 
ATOM     20  H   7TR d   1     -72.832 -18.668   3.933  0.00  0.00     0.072 H 
ATOM     21  H   7TR d   1     -72.185 -20.175   4.756  0.00  0.00     0.072 H 
ENDROOT
BRANCH   3  22
ATOM     22  CBA 7TR d   1     -67.674 -18.601   5.766  0.00  0.00     0.035 C 
ATOM     23  H   7TR d   1     -67.628 -17.525   5.932  0.00  0.00     0.073 H 
ATOM     24  H   7TR d   1     -67.052 -18.848   4.906  0.00  0.00     0.073 H 
BRANCH  22  25
ATOM     25  CBM 7TR d   1     -67.163 -19.345   7.012  0.00  0.00     0.047 A 
ATOM     26  CAT 7TR d   1     -67.848 -20.196   7.771  0.00  0.00     0.027 A 
ATOM     27  NBC 7TR d   1     -67.055 -20.629   8.762  0.00  0.00    -0.254 NA
ATOM     28  H   7TR d   1     -68.885 -20.493   7.613  0.00  0.00     0.117 H 
ATOM     29  CAU 7TR d   1     -65.863 -20.040   8.643  0.00  0.00     0.065 A 
ATOM     30  NBS 7TR d   1     -65.943 -19.253   7.565  0.00  0.00    -0.347 N 
ATOM     31  H   7TR d   1     -64.999 -20.174   9.293  0.00  0.00     0.143 H 
BRANCH  30  32
ATOM     32  CAD 7TR d   1     -64.826 -18.410   7.060  0.00  0.00    -0.013 C 
ATOM     33  H   7TR d   1     -64.572 -18.716   6.045  0.00  0.00     0.057 H 
ATOM     34  H   7TR d   1     -65.133 -17.364   7.059  0.00  0.00     0.057 H 
ATOM     35  H   7TR d   1     -63.958 -18.534   7.707  0.00  0.00     0.057 H 
ENDBRANCH  30  32
ENDBRANCH  22  25
ENDBRANCH   3  22
BRANCH  13  36
ATOM     36  SBT 7TR d   1     -70.782 -18.096   2.207  0.00  0.00     0.261 S 
ATOM     37  OAG 7TR d   1     -69.976 -18.585   1.020  0.00  0.00    -0.200 OA
ATOM     38  OAH 7TR d   1     -72.109 -17.619   1.701  0.00  0.00    -0.200 OA
BRANCH  36  39
ATOM     39  CBL 7TR d   1     -69.967 -16.693   2.969  0.00  0.00     0.079 A 
ATOM     40  CAQ 7TR d   1     -70.738 -15.648   3.506  0.00  0.00    -0.058 A 
ATOM     41  CAO 7TR d   1     -70.127 -14.573   4.131  0.00  0.00    -0.049 A 
ATOM     42  H   7TR d   1     -71.825 -15.684   3.430  0.00  0.00     0.086 H 
ATOM     43  CBI 7TR d   1     -68.738 -14.556   4.193  0.00  0.00     0.068 A 
ATOM     44  H   7TR d   1     -70.718 -13.764   4.561  0.00  0.00     0.087 H 
ATOM     45  CAP 7TR d   1     -67.968 -15.596   3.664  0.00  0.00    -0.049 A 
ATOM     46  CAR 7TR d   1     -68.575 -16.657   3.035  0.00  0.00    -0.058 A 
ATOM     47  H   7TR d   1     -66.882 -15.566   3.751  0.00  0.00     0.087 H 
ATOM     48  H   7TR d   1     -67.978 -17.456   2.595  0.00  0.00     0.086 H 
BRANCH  43  49
ATOM     49  OBD 7TR d   1     -68.106 -13.511   4.786  0.00  0.00    -0.356 OA
BRANCH  49  50
ATOM     50  CAC 7TR d   1     -67.803 -13.911   6.138  0.00  0.00     0.010 C 
ATOM     51  H   7TR d   1     -68.729 -14.148   6.662  0.00  0.00     0.066 H 
ATOM     52  H   7TR d   1     -67.159 -14.790   6.120  0.00  0.00     0.066 H 
ATOM     53  H   7TR d   1     -67.293 -13.096   6.651  0.00  0.00     0.066 H 
ENDBRANCH  49  50
ENDBRANCH  43  49
ENDBRANCH  36  39
ENDBRANCH  13  36
BRANCH   1  54
ATOM     54  CAY 7TR d   1     -69.864 -21.510   2.659  0.00  0.00    -0.020 C 
ATOM     55  H   7TR d   1     -69.884 -21.296   1.590  0.00  0.00     0.043 H 
ATOM     56  H   7TR d   1     -69.034 -22.124   3.009  0.00  0.00     0.043 H 
BRANCH  54  57
ATOM     57  CBH 7TR d   1     -71.151 -22.307   2.965  0.00  0.00    -0.056 A 
ATOM     58  CAL 7TR d   1     -71.109 -23.358   3.875  0.00  0.00    -0.074 A 
ATOM     59  CAN 7TR d   1     -72.267 -24.054   4.156  0.00  0.00    -0.050 A 
ATOM     60  H   7TR d   1     -70.172 -23.629   4.361  0.00  0.00     0.084 H 
ATOM     61  CBJ 7TR d   1     -73.468 -23.738   3.529  0.00  0.00     0.081 A 
ATOM     62  H   7TR d   1     -72.240 -24.866   4.883  0.00  0.00     0.087 H 
ATOM     63  CAM 7TR d   1     -73.511 -22.700   2.607  0.00  0.00    -0.050 A 
ATOM     64  CAK 7TR d   1     -72.344 -22.002   2.329  0.00  0.00    -0.074 A 
ATOM     65  H   7TR d   1     -74.445 -22.438   2.110  0.00  0.00     0.087 H 
ATOM     66  H   7TR d   1     -72.366 -21.197   1.595  0.00  0.00     0.084 H 
BRANCH  61  67
ATOM     67  OBE 7TR d   1     -74.572 -24.489   3.829  0.00  0.00    -0.261 OA
BRANCH  67  68
ATOM     68  CBF 7TR d   1     -75.704 -23.981   4.433  0.00  0.00     0.368 C 
ATOM     69  NBP 7TR d   1     -76.842 -24.637   4.157  0.00  0.00    -0.328 N 
ATOM     70  OAF 7TR d   1     -75.632 -22.986   5.166  0.00  0.00    -0.238 OA
BRANCH  69  71
ATOM     71  CAW 7TR d   1     -76.785 -25.807   3.254  0.00  0.00    -0.004 C 
ATOM     72  H   7TR d   1     -75.817 -26.304   3.325  0.00  0.00     0.064 H 
ATOM     73  H   7TR d   1     -77.539 -26.545   3.528  0.00  0.00     0.064 H 
BRANCH  71  74
ATOM     74  CAA 7TR d   1     -77.028 -25.280   1.823  0.00  0.00    -0.061 C 
ATOM     75  H   7TR d   1     -78.006 -24.801   1.775  0.00  0.00     0.029 H 
ATOM     76  H   7TR d   1     -76.254 -24.556   1.568  0.00  0.00     0.029 H 
ATOM     77  H   7TR d   1     -76.995 -26.112   1.120  0.00  0.00     0.029 H 
ENDBRANCH  71  74
ENDBRANCH  69  71
BRANCH  69  78
ATOM     78  CAX 7TR d   1     -78.170 -24.233   4.712  0.00  0.00    -0.004 C 
ATOM     79  H   7TR d   1     -78.045 -24.057   5.780  0.00  0.00     0.064 H 
ATOM     80  H   7TR d   1     -78.879 -25.032   4.495  0.00  0.00     0.064 H 
BRANCH  78  81
ATOM     81  CAB 7TR d   1     -78.722 -22.915   4.070  0.00  0.00    -0.061 C 
ATOM     82  H   7TR d   1     -78.022 -22.101   4.256  0.00  0.00     0.029 H 
ATOM     83  H   7TR d   1     -78.839 -23.057   2.996  0.00  0.00     0.029 H 
ATOM     84  H   7TR d   1     -79.688 -22.673   4.513  0.00  0.00     0.029 H 
ENDBRANCH  78  81
ENDBRANCH  69  78
ENDBRANCH  67  68
ENDBRANCH  61  67
ENDBRANCH  54  57
ENDBRANCH   1  54
TORSDOF 15
