REMARK  12 active torsions:
REMARK  status: ('A' for Active; 'I' for Inactive)
REMARK    1  A    between atoms: CAA_1  and  OBB_2 
REMARK    2  A    between atoms: OBB_2  and  CBG_3 
REMARK    3  A    between atoms: CBJ_8  and  SBR_9 
REMARK    4  A    between atoms: SBR_9  and  NBP_12 
REMARK    5  A    between atoms: CBH_16  and  CBL_17 
REMARK    6  A    between atoms: CBF_21  and  CAG_22 
REMARK    7  A    between atoms: NBO_27  and  CAY_28 
REMARK    8  A    between atoms: CAY_28  and  CBK_29 
REMARK    9  A    between atoms: NBQ_33  and  CAB_34 
REMARK   10  A    between atoms: CBN_36  and  CAW_37 
REMARK   11  A    between atoms: CAW_37  and  CBE_38 
REMARK   12  A    between atoms: CBD_41  and  OAF_42 
ROOT
ATOM      1  NBP 7TP d   1       5.939  21.430  27.073  0.00  0.00    -0.296 N 
ATOM      2  CAX 7TP d   1       4.617  22.125  26.997  0.00  0.00     0.032 C 
ATOM      3  CBI 7TP d   1       3.466  21.346  27.650  0.00  0.00    -0.012 A 
ATOM      4  CAV 7TP d   1       2.691  22.148  28.485  0.00  0.00    -0.060 A 
ATOM      5  CBH 7TP d   1       1.585  21.611  29.167  0.00  0.00    -0.002 A 
ATOM      6  CAO 7TP d   1       1.283  20.246  29.015  0.00  0.00    -0.068 A 
ATOM      7  CAS 7TP d   1       2.065  19.443  28.168  0.00  0.00    -0.056 A 
ATOM      8  CBM 7TP d   1       3.167  19.999  27.481  0.00  0.00     0.038 A 
ATOM      9  NBO 7TP d   1       3.885  19.178  26.693  0.00  0.00    -0.373 N 
ATOM     10  CAZ 7TP d   1       4.725  19.693  25.592  0.00  0.00     0.015 C 
ATOM     11  CBN 7TP d   1       6.067  20.294  26.111  0.00  0.00     0.042 C 
ATOM     12  H   7TP d   1       4.372  22.241  25.941  0.00  0.00     0.072 H 
ATOM     13  H   7TP d   1       4.715  23.069  27.534  0.00  0.00     0.072 H 
ATOM     14  H   7TP d   1       2.944  23.201  28.611  0.00  0.00     0.086 H 
ATOM     15  H   7TP d   1       0.442  19.811  29.555  0.00  0.00     0.085 H 
ATOM     16  H   7TP d   1       1.821  18.388  28.041  0.00  0.00     0.087 H 
ATOM     17  H   7TP d   1       4.173  20.483  25.083  0.00  0.00     0.067 H 
ATOM     18  H   7TP d   1       4.959  18.863  24.926  0.00  0.00     0.067 H 
ATOM     19  H   7TP d   1       6.530  19.489  26.682  0.00  0.00     0.076 H 
ENDROOT
BRANCH   1  20
ATOM     20  SBR 7TP d   1       6.614  21.099  28.676  0.00  0.00     0.261 S 
ATOM     21  OAD 7TP d   1       8.023  20.595  28.481  0.00  0.00    -0.200 OA
ATOM     22  OAE 7TP d   1       6.695  22.412  29.410  0.00  0.00    -0.200 OA
BRANCH  20  23
ATOM     23  CBJ 7TP d   1       5.676  19.908  29.645  0.00  0.00     0.079 A 
ATOM     24  CAQ 7TP d   1       4.614  20.393  30.422  0.00  0.00    -0.058 A 
ATOM     25  CAN 7TP d   1       3.836  19.529  31.194  0.00  0.00    -0.049 A 
ATOM     26  H   7TP d   1       4.393  21.460  30.423  0.00  0.00     0.086 H 
ATOM     27  CBG 7TP d   1       4.098  18.156  31.236  0.00  0.00     0.068 A 
ATOM     28  H   7TP d   1       3.007  19.933  31.776  0.00  0.00     0.087 H 
ATOM     29  CAM 7TP d   1       5.176  17.662  30.469  0.00  0.00    -0.049 A 
ATOM     30  CAP 7TP d   1       5.960  18.524  29.680  0.00  0.00    -0.058 A 
ATOM     31  H   7TP d   1       5.404  16.596  30.488  0.00  0.00     0.087 H 
ATOM     32  H   7TP d   1       6.788  18.123  29.095  0.00  0.00     0.086 H 
BRANCH  27  33
ATOM     33  OBB 7TP d   1       3.284  17.343  32.018  0.00  0.00    -0.356 OA
BRANCH  33  34
ATOM     34  CAA 7TP d   1       1.877  17.824  32.116  0.00  0.00     0.010 C 
ATOM     35  H   7TP d   1       1.865  18.820  32.559  0.00  0.00     0.066 H 
ATOM     36  H   7TP d   1       1.437  17.863  31.119  0.00  0.00     0.066 H 
ATOM     37  H   7TP d   1       1.303  17.140  32.741  0.00  0.00     0.066 H 
ENDBRANCH  33  34
ENDBRANCH  27  33
ENDBRANCH  20  23
ENDBRANCH   1  20
BRANCH  11  38
ATOM     38  CAW 7TP d   1       6.952  20.720  24.917  0.00  0.00    -0.020 C 
ATOM     39  H   7TP d   1       6.723  20.051  24.087  0.00  0.00     0.043 H 
ATOM     40  H   7TP d   1       7.990  20.671  25.247  0.00  0.00     0.043 H 
BRANCH  38  41
ATOM     41  CBE 7TP d   1       6.691  22.160  24.433  0.00  0.00    -0.056 A 
ATOM     42  CAJ 7TP d   1       7.330  23.226  25.072  0.00  0.00    -0.074 A 
ATOM     43  CAH 7TP d   1       7.106  24.526  24.645  0.00  0.00    -0.051 A 
ATOM     44  H   7TP d   1       8.005  23.035  25.907  0.00  0.00     0.084 H 
ATOM     45  CBD 7TP d   1       6.249  24.776  23.566  0.00  0.00     0.065 A 
ATOM     46  H   7TP d   1       7.599  25.356  25.151  0.00  0.00     0.087 H 
ATOM     47  CAI 7TP d   1       5.611  23.701  22.926  0.00  0.00    -0.051 A 
ATOM     48  CAK 7TP d   1       5.833  22.390  23.352  0.00  0.00    -0.074 A 
ATOM     49  H   7TP d   1       4.938  23.892  22.090  0.00  0.00     0.087 H 
ATOM     50  H   7TP d   1       5.344  21.556  22.849  0.00  0.00     0.084 H 
BRANCH  45  51
ATOM     51  OAF 7TP d   1       6.027  26.063  23.138  0.00  0.00    -0.361 OA
ATOM     52  H   7TP d   1       5.648  26.577  23.855  0.00  0.00     0.217 HD
ENDBRANCH  45  51
ENDBRANCH  38  41
ENDBRANCH  11  38
BRANCH   9  53
ATOM     53  CAY 7TP d   1       3.887  17.709  26.906  0.00  0.00     0.035 C 
ATOM     54  H   7TP d   1       3.699  17.498  27.959  0.00  0.00     0.073 H 
ATOM     55  H   7TP d   1       4.856  17.304  26.614  0.00  0.00     0.073 H 
BRANCH  53  56
ATOM     56  CBK 7TP d   1       2.784  17.055  26.051  0.00  0.00     0.047 A 
ATOM     57  CAT 7TP d   1       1.799  17.719  25.441  0.00  0.00     0.027 A 
ATOM     58  NBA 7TP d   1       1.025  16.841  24.812  0.00  0.00    -0.254 NA
ATOM     59  H   7TP d   1       1.654  18.799  25.456  0.00  0.00     0.117 H 
ATOM     60  CAU 7TP d   1       1.516  15.618  25.010  0.00  0.00     0.065 A 
ATOM     61  NBQ 7TP d   1       2.596  15.749  25.781  0.00  0.00    -0.347 N 
ATOM     62  H   7TP d   1       1.111  14.686  24.616  0.00  0.00     0.143 H 
BRANCH  61  63
ATOM     63  CAB 7TP d   1       3.446  14.572  26.229  0.00  0.00    -0.013 C 
ATOM     64  H   7TP d   1       4.461  14.693  25.850  0.00  0.00     0.057 H 
ATOM     65  H   7TP d   1       3.465  14.533  27.318  0.00  0.00     0.057 H 
ATOM     66  H   7TP d   1       3.019  13.648  25.839  0.00  0.00     0.057 H 
ENDBRANCH  61  63
ENDBRANCH  53  56
ENDBRANCH   9  53
BRANCH   5  67
ATOM     67  CBL 7TP d   1       0.875  22.469  30.027  0.00  0.00     0.086 A 
ATOM     68  OBC 7TP d   1       0.601  23.764  29.688  0.00  0.00    -0.307 OA
ATOM     69  CBF 7TP d   1      -0.020  24.314  30.760  0.00  0.00     0.113 A 
ATOM     70  CAL 7TP d   1      -0.129  23.404  31.733  0.00  0.00    -0.045 A 
ATOM     71  CAR 7TP d   1       0.439  22.270  31.284  0.00  0.00    -0.047 A 
ATOM     72  H   7TP d   1      -0.592  23.553  32.709  0.00  0.00     0.088 H 
ATOM     73  H   7TP d   1       0.531  21.341  31.847  0.00  0.00     0.087 H 
BRANCH  69  74
ATOM     74  CAG 7TP d   1      -0.526  25.764  30.783  0.00  0.00     0.141 C 
ATOM     75  OAC 7TP d   1       0.243  26.727  30.848  0.00  0.00    -0.299 OA
ATOM     76  H   7TP d   1      -1.599  25.948  30.741  0.00  0.00     0.154 H 
ENDBRANCH  69  74
ENDBRANCH   5  67
TORSDOF 12
