REMARK  13 active torsions:
REMARK  status: ('A' for Active; 'I' for Inactive)
REMARK    1  A    between atoms: CAA_1  and  OBG_2 
REMARK    2  A    between atoms: OBG_2  and  CBM_3 
REMARK    3  A    between atoms: CBP_8  and  SBW_9 
REMARK    4  A    between atoms: SBW_9  and  NBU_12 
REMARK    5  A    between atoms: NBT_22  and  CBC_23 
REMARK    6  A    between atoms: CBC_23  and  CBQ_24 
REMARK    7  A    between atoms: NBV_28  and  CAB_29 
REMARK    8  A    between atoms: CBS_31  and  CBA_32 
REMARK    9  A    between atoms: CBA_32  and  CBL_33 
REMARK   10  A    between atoms: CBN_38  and  OBH_39 
REMARK   11  A    between atoms: OBH_39  and  CBI_40 
REMARK       I    between atoms: CBI_40  and  NBF_42 
REMARK   12  A    between atoms: NBF_42  and  CAZ_43 
REMARK   13  A    between atoms: CAZ_43  and  CBK_44 
ROOT
ATOM      1  NBU 7TQ d   1       5.803  21.236  27.324  0.00  0.00    -0.296 N 
ATOM      2  CBB 7TQ d   1       4.645  22.095  27.643  0.00  0.00     0.032 C 
ATOM      3  CBO 7TQ d   1       3.445  21.426  27.843  0.00  0.00    -0.012 A 
ATOM      4  CAY 7TQ d   1       2.541  22.365  28.342  0.00  0.00    -0.053 A 
ATOM      5  CBJ 7TQ d   1       1.243  22.014  28.656  0.00  0.00     0.045 A 
ATOM      6  CAG 7TQ d   1       0.340  23.013  29.173  0.00  0.00     0.099 C 
ATOM      7  NAC 7TQ d   1      -0.382  23.826  29.585  0.00  0.00    -0.191 NA
ATOM      8  CAM 7TQ d   1       0.847  20.699  28.461  0.00  0.00    -0.061 A 
ATOM      9  CAV 7TQ d   1       1.744  19.753  27.959  0.00  0.00    -0.055 A 
ATOM     10  CBR 7TQ d   1       3.074  20.087  27.622  0.00  0.00     0.038 A 
ATOM     11  NBT 7TQ d   1       3.845  19.039  27.172  0.00  0.00    -0.373 N 
ATOM     12  CBD 7TQ d   1       5.101  19.006  26.420  0.00  0.00     0.015 C 
ATOM     13  CBS 7TQ d   1       5.671  20.387  26.095  0.00  0.00     0.042 C 
ATOM     14  H   7TQ d   1       4.497  22.750  26.784  0.00  0.00     0.072 H 
ATOM     15  H   7TQ d   1       4.880  22.599  28.580  0.00  0.00     0.072 H 
ATOM     16  H   7TQ d   1       2.866  23.395  28.487  0.00  0.00     0.086 H 
ATOM     17  H   7TQ d   1      -0.173  20.401  28.702  0.00  0.00     0.085 H 
ATOM     18  H   7TQ d   1       1.407  18.725  27.823  0.00  0.00     0.087 H 
ATOM     19  H   7TQ d   1       4.896  18.511  25.471  0.00  0.00     0.067 H 
ATOM     20  H   7TQ d   1       5.835  18.492  27.041  0.00  0.00     0.067 H 
ATOM     21  H   7TQ d   1       6.706  20.349  25.754  0.00  0.00     0.076 H 
ENDROOT
BRANCH   1  22
ATOM     22  SBW 7TQ d   1       6.573  20.477  28.981  0.00  0.00     0.261 S 
ATOM     23  OAE 7TQ d   1       7.648  19.448  28.614  0.00  0.00    -0.200 OA
ATOM     24  OAF 7TQ d   1       7.225  21.631  29.751  0.00  0.00    -0.200 OA
BRANCH  22  25
ATOM     25  CBP 7TQ d   1       5.317  19.702  30.032  0.00  0.00     0.079 A 
ATOM     26  CAU 7TQ d   1       4.391  20.494  30.715  0.00  0.00    -0.058 A 
ATOM     27  CAS 7TQ d   1       3.421  19.907  31.525  0.00  0.00    -0.049 A 
ATOM     28  H   7TQ d   1       4.428  21.579  30.614  0.00  0.00     0.086 H 
ATOM     29  CBM 7TQ d   1       3.364  18.517  31.662  0.00  0.00     0.068 A 
ATOM     30  H   7TQ d   1       2.704  20.534  32.054  0.00  0.00     0.087 H 
ATOM     31  CAR 7TQ d   1       4.294  17.725  30.987  0.00  0.00    -0.049 A 
ATOM     32  CAT 7TQ d   1       5.269  18.313  30.178  0.00  0.00    -0.058 A 
ATOM     33  H   7TQ d   1       4.259  16.641  31.092  0.00  0.00     0.087 H 
ATOM     34  H   7TQ d   1       5.995  17.687  29.659  0.00  0.00     0.086 H 
BRANCH  29  35
ATOM     35  OBG 7TQ d   1       2.422  17.924  32.458  0.00  0.00    -0.356 OA
BRANCH  35  36
ATOM     36  CAA 7TQ d   1       1.094  18.432  32.256  0.00  0.00     0.010 C 
ATOM     37  H   7TQ d   1       1.078  19.500  32.473  0.00  0.00     0.066 H 
ATOM     38  H   7TQ d   1       0.796  18.266  31.221  0.00  0.00     0.066 H 
ATOM     39  H   7TQ d   1       0.403  17.914  32.921  0.00  0.00     0.066 H 
ENDBRANCH  35  36
ENDBRANCH  29  35
ENDBRANCH  22  25
ENDBRANCH   1  22
BRANCH  11  40
ATOM     40  CBC 7TQ d   1       3.493  17.666  27.571  0.00  0.00     0.035 C 
ATOM     41  H   7TQ d   1       2.820  17.698  28.428  0.00  0.00     0.073 H 
ATOM     42  H   7TQ d   1       4.399  17.122  27.840  0.00  0.00     0.073 H 
BRANCH  40  43
ATOM     43  CBQ 7TQ d   1       2.795  16.952  26.397  0.00  0.00     0.047 A 
ATOM     44  CAW 7TQ d   1       2.113  17.548  25.424  0.00  0.00     0.027 A 
ATOM     45  NBE 7TQ d   1       1.673  16.581  24.620  0.00  0.00    -0.254 NA
ATOM     46  H   7TQ d   1       1.946  18.619  25.307  0.00  0.00     0.117 H 
ATOM     47  CAX 7TQ d   1       2.083  15.405  25.097  0.00  0.00     0.065 A 
ATOM     48  NBV 7TQ d   1       2.784  15.633  26.207  0.00  0.00    -0.347 N 
ATOM     49  H   7TQ d   1       1.880  14.429  24.656  0.00  0.00     0.143 H 
BRANCH  48  50
ATOM     50  CAB 7TQ d   1       3.419  14.586  27.052  0.00  0.00    -0.013 C 
ATOM     51  H   7TQ d   1       4.495  14.758  27.094  0.00  0.00     0.057 H 
ATOM     52  H   7TQ d   1       3.003  14.631  28.058  0.00  0.00     0.057 H 
ATOM     53  H   7TQ d   1       3.223  13.604  26.620  0.00  0.00     0.057 H 
ENDBRANCH  48  50
ENDBRANCH  40  43
ENDBRANCH  11  40
BRANCH  13  54
ATOM     54  CBA 7TQ d   1       4.861  20.947  24.931  0.00  0.00    -0.020 C 
ATOM     55  H   7TQ d   1       3.886  21.249  25.315  0.00  0.00     0.043 H 
ATOM     56  H   7TQ d   1       4.790  20.171  24.168  0.00  0.00     0.043 H 
BRANCH  54  57
ATOM     57  CBL 7TQ d   1       5.468  22.084  24.341  0.00  0.00    -0.056 A 
ATOM     58  CAO 7TQ d   1       5.119  22.374  23.015  0.00  0.00    -0.074 A 
ATOM     59  CAQ 7TQ d   1       5.670  23.460  22.341  0.00  0.00    -0.050 A 
ATOM     60  H   7TQ d   1       4.401  21.735  22.501  0.00  0.00     0.084 H 
ATOM     61  CBN 7TQ d   1       6.601  24.271  22.995  0.00  0.00     0.081 A 
ATOM     62  H   7TQ d   1       5.378  23.676  21.313  0.00  0.00     0.087 H 
ATOM     63  CAP 7TQ d   1       6.953  23.992  24.310  0.00  0.00    -0.050 A 
ATOM     64  CAN 7TQ d   1       6.405  22.910  24.981  0.00  0.00    -0.074 A 
ATOM     65  H   7TQ d   1       7.671  24.634  24.821  0.00  0.00     0.087 H 
ATOM     66  H   7TQ d   1       6.702  22.700  26.008  0.00  0.00     0.084 H 
BRANCH  61  67
ATOM     67  OBH 7TQ d   1       7.198  25.355  22.421  0.00  0.00    -0.262 OA
BRANCH  67  68
ATOM     68  CBI 7TQ d   1       7.536  25.355  21.100  0.00  0.00     0.366 C 
ATOM     69  OAD 7TQ d   1       7.747  24.318  20.469  0.00  0.00    -0.238 OA
ATOM     70  NBF 7TQ d   1       7.643  26.546  20.520  0.00  0.00    -0.332 N 
ATOM     71  H   7TQ d   1       7.482  27.369  21.100  0.00  0.00     0.165 HD
BRANCH  70  72
ATOM     72  CAZ 7TQ d   1       7.970  26.763  19.128  0.00  0.00     0.021 C 
ATOM     73  H   7TQ d   1       8.191  25.826  18.617  0.00  0.00     0.071 H 
ATOM     74  H   7TQ d   1       8.868  27.370  19.017  0.00  0.00     0.071 H 
BRANCH  72  75
ATOM     75  CBK 7TQ d   1       6.842  27.400  18.577  0.00  0.00    -0.040 A 
ATOM     76  CAK 7TQ d   1       6.415  27.067  17.303  0.00  0.00    -0.075 A 
ATOM     77  CAI 7TQ d   1       5.311  27.706  16.752  0.00  0.00    -0.082 A 
ATOM     78  H   7TQ d   1       6.944  26.304  16.732  0.00  0.00     0.084 H 
ATOM     79  CAH 7TQ d   1       4.605  28.682  17.453  0.00  0.00    -0.083 A 
ATOM     80  H   7TQ d   1       4.989  27.437  15.746  0.00  0.00     0.083 H 
ATOM     81  CAJ 7TQ d   1       5.017  29.015  18.727  0.00  0.00    -0.082 A 
ATOM     82  H   7TQ d   1       3.743  29.174  17.003  0.00  0.00     0.083 H 
ATOM     83  CAL 7TQ d   1       6.126  28.379  19.273  0.00  0.00    -0.075 A 
ATOM     84  H   7TQ d   1       4.478  29.770  19.300  0.00  0.00     0.083 H 
ATOM     85  H   7TQ d   1       6.448  28.653  20.278  0.00  0.00     0.084 H 
ENDBRANCH  72  75
ENDBRANCH  70  72
ENDBRANCH  67  68
ENDBRANCH  61  67
ENDBRANCH  54  57
ENDBRANCH  13  54
TORSDOF 13
