REMARK  15 active torsions:
REMARK  status: ('A' for Active; 'I' for Inactive)
REMARK    1  A    between atoms: CAA_1  and  CAW_2 
REMARK    2  A    between atoms: CAW_2  and  NBP_3 
REMARK    3  A    between atoms: NBP_3  and  CAX_4 
REMARK       I    between atoms: NBP_3  and  CBF_6 
REMARK    4  A    between atoms: CAX_4  and  CAB_5 
REMARK    5  A    between atoms: CBF_6  and  OBE_8 
REMARK    6  A    between atoms: OBE_8  and  CBJ_9 
REMARK    7  A    between atoms: CBH_14  and  CAY_15 
REMARK    8  A    between atoms: CAY_15  and  CBO_16 
REMARK    9  A    between atoms: NBQ_18  and  CBA_19 
REMARK   10  A    between atoms: CBA_19  and  CBM_20 
REMARK   11  A    between atoms: NBS_24  and  CAD_25 
REMARK   12  A    between atoms: NBR_35  and  SBT_36 
REMARK   13  A    between atoms: SBT_36  and  CBL_39 
REMARK   14  A    between atoms: CBI_42  and  OBD_43 
REMARK   15  A    between atoms: OBD_43  and  CAC_44 
ROOT
ATOM      1  CBO 7TR d   1       6.072  19.558  27.075  0.00  0.00     0.029 C 
ATOM      2  CBB 7TR d   1       4.775  19.113  26.370  0.00  0.00     0.011 C 
ATOM      3  NBQ 7TR d   1       3.751  18.853  27.385  0.00  0.00    -0.373 N 
ATOM      4  CBN 7TR d   1       3.031  19.830  27.923  0.00  0.00     0.038 A 
ATOM      5  CAS 7TR d   1       1.792  19.458  28.465  0.00  0.00    -0.055 A 
ATOM      6  CAJ 7TR d   1       0.957  20.429  29.042  0.00  0.00    -0.061 A 
ATOM      7  CBG 7TR d   1       1.372  21.761  29.079  0.00  0.00     0.045 A 
ATOM      8  CAI 7TR d   1       0.552  22.778  29.662  0.00  0.00     0.099 C 
ATOM      9  NAE 7TR d   1      -0.082  23.599  30.125  0.00  0.00    -0.191 NA
ATOM     10  CAV 7TR d   1       2.608  22.118  28.543  0.00  0.00    -0.053 A 
ATOM     11  CBK 7TR d   1       3.437  21.152  27.969  0.00  0.00    -0.016 A 
ATOM     12  CAZ 7TR d   1       4.754  21.730  27.428  0.00  0.00     0.020 C 
ATOM     13  NBR 7TR d   1       5.995  20.922  27.672  0.00  0.00    -0.196 NA
ATOM     14  H   7TR d   1       6.210  18.840  27.883  0.00  0.00     0.068 H 
ATOM     15  H   7TR d   1       4.961  18.207  25.792  0.00  0.00     0.066 H 
ATOM     16  H   7TR d   1       4.434  19.897  25.694  0.00  0.00     0.066 H 
ATOM     17  H   7TR d   1       1.477  18.415  28.438  0.00  0.00     0.087 H 
ATOM     18  H   7TR d   1      -0.009  20.144  29.458  0.00  0.00     0.085 H 
ATOM     19  H   7TR d   1       2.930  23.159  28.572  0.00  0.00     0.086 H 
ATOM     20  H   7TR d   1       4.904  22.675  27.950  0.00  0.00     0.064 H 
ATOM     21  H   7TR d   1       4.637  21.782  26.346  0.00  0.00     0.064 H 
ENDROOT
BRANCH   3  22
ATOM     22  CBA 7TR d   1       3.528  17.458  27.790  0.00  0.00     0.035 C 
ATOM     23  H   7TR d   1       3.113  17.440  28.798  0.00  0.00     0.073 H 
ATOM     24  H   7TR d   1       4.477  16.922  27.767  0.00  0.00     0.073 H 
BRANCH  22  25
ATOM     25  CBM 7TR d   1       2.541  16.779  26.825  0.00  0.00     0.047 A 
ATOM     26  CAT 7TR d   1       1.920  17.315  25.775  0.00  0.00     0.027 A 
ATOM     27  NBC 7TR d   1       1.146  16.378  25.216  0.00  0.00    -0.254 NA
ATOM     28  H   7TR d   1       2.025  18.343  25.430  0.00  0.00     0.117 H 
ATOM     29  CAU 7TR d   1       1.281  15.252  25.914  0.00  0.00     0.065 A 
ATOM     30  NBS 7TR d   1       2.134  15.517  26.900  0.00  0.00    -0.347 N 
ATOM     31  H   7TR d   1       0.789  14.300  25.716  0.00  0.00     0.143 H 
BRANCH  30  32
ATOM     32  CAD 7TR d   1       2.576  14.548  27.934  0.00  0.00    -0.013 C 
ATOM     33  H   7TR d   1       3.657  14.424  27.876  0.00  0.00     0.057 H 
ATOM     34  H   7TR d   1       2.305  14.923  28.921  0.00  0.00     0.057 H 
ATOM     35  H   7TR d   1       2.089  13.588  27.762  0.00  0.00     0.057 H 
ENDBRANCH  30  32
ENDBRANCH  22  25
ENDBRANCH   3  22
BRANCH  13  36
ATOM     36  SBT 7TR d   1       6.557  20.896  29.266  0.00  0.00     0.244 S 
ATOM     37  OAG 7TR d   1       7.914  20.266  29.310  0.00  0.00    -0.206 OA
ATOM     38  OAH 7TR d   1       6.685  22.305  29.751  0.00  0.00    -0.206 OA
BRANCH  36  39
ATOM     39  CBL 7TR d   1       5.488  20.009  30.333  0.00  0.00     0.074 A 
ATOM     40  CAQ 7TR d   1       4.479  20.690  31.008  0.00  0.00    -0.058 A 
ATOM     41  CAO 7TR d   1       3.620  20.003  31.858  0.00  0.00    -0.049 A 
ATOM     42  H   7TR d   1       4.362  21.765  30.870  0.00  0.00     0.086 H 
ATOM     43  CBI 7TR d   1       3.765  18.625  32.034  0.00  0.00     0.068 A 
ATOM     44  H   7TR d   1       2.833  20.540  32.387  0.00  0.00     0.087 H 
ATOM     45  CAP 7TR d   1       4.777  17.946  31.359  0.00  0.00    -0.049 A 
ATOM     46  CAR 7TR d   1       5.640  18.635  30.510  0.00  0.00    -0.058 A 
ATOM     47  H   7TR d   1       4.894  16.871  31.496  0.00  0.00     0.087 H 
ATOM     48  H   7TR d   1       6.432  18.101  29.985  0.00  0.00     0.086 H 
BRANCH  43  49
ATOM     49  OBD 7TR d   1       2.930  17.942  32.871  0.00  0.00    -0.356 OA
BRANCH  49  50
ATOM     50  CAC 7TR d   1       1.547  18.290  32.647  0.00  0.00     0.010 C 
ATOM     51  H   7TR d   1       1.410  19.357  32.820  0.00  0.00     0.066 H 
ATOM     52  H   7TR d   1       1.275  18.050  31.619  0.00  0.00     0.066 H 
ATOM     53  H   7TR d   1       0.916  17.725  33.333  0.00  0.00     0.066 H 
ENDBRANCH  49  50
ENDBRANCH  43  49
ENDBRANCH  36  39
ENDBRANCH  13  36
BRANCH   1  54
ATOM     54  CAY 7TR d   1       7.268  19.534  26.103  0.00  0.00    -0.024 C 
ATOM     55  H   7TR d   1       8.157  19.867  26.638  0.00  0.00     0.042 H 
ATOM     56  H   7TR d   1       7.390  18.518  25.727  0.00  0.00     0.042 H 
BRANCH  54  57
ATOM     57  CBH 7TR d   1       7.037  20.467  24.916  0.00  0.00    -0.056 A 
ATOM     58  CAL 7TR d   1       6.778  19.930  23.659  0.00  0.00    -0.074 A 
ATOM     59  CAN 7TR d   1       6.556  20.772  22.574  0.00  0.00    -0.050 A 
ATOM     60  H   7TR d   1       6.749  18.849  23.524  0.00  0.00     0.084 H 
ATOM     61  CBJ 7TR d   1       6.600  22.153  22.734  0.00  0.00     0.081 A 
ATOM     62  H   7TR d   1       6.346  20.347  21.593  0.00  0.00     0.087 H 
ATOM     63  CAM 7TR d   1       6.851  22.693  23.996  0.00  0.00    -0.050 A 
ATOM     64  CAK 7TR d   1       7.075  21.850  25.082  0.00  0.00    -0.074 A 
ATOM     65  H   7TR d   1       6.872  23.774  24.132  0.00  0.00     0.087 H 
ATOM     66  H   7TR d   1       7.281  22.274  26.065  0.00  0.00     0.084 H 
BRANCH  61  67
ATOM     67  OBE 7TR d   1       6.369  22.962  21.659  0.00  0.00    -0.261 OA
BRANCH  67  68
ATOM     68  CBF 7TR d   1       7.419  23.666  21.136  0.00  0.00     0.368 C 
ATOM     69  NBP 7TR d   1       7.377  23.983  19.843  0.00  0.00    -0.328 N 
ATOM     70  OAF 7TR d   1       8.354  23.993  21.863  0.00  0.00    -0.238 OA
BRANCH  69  71
ATOM     71  CAW 7TR d   1       6.247  23.566  18.991  0.00  0.00    -0.004 C 
ATOM     72  H   7TR d   1       5.331  23.536  19.581  0.00  0.00     0.064 H 
ATOM     73  H   7TR d   1       6.117  24.278  18.176  0.00  0.00     0.064 H 
BRANCH  71  74
ATOM     74  CAA 7TR d   1       6.545  22.167  18.419  0.00  0.00    -0.061 C 
ATOM     75  H   7TR d   1       7.460  22.205  17.827  0.00  0.00     0.029 H 
ATOM     76  H   7TR d   1       6.670  21.460  19.239  0.00  0.00     0.029 H 
ATOM     77  H   7TR d   1       5.715  21.850  17.788  0.00  0.00     0.029 H 
ENDBRANCH  71  74
ENDBRANCH  69  71
BRANCH  69  78
ATOM     78  CAX 7TR d   1       8.467  24.749  19.211  0.00  0.00    -0.004 C 
ATOM     79  H   7TR d   1       8.777  24.256  18.290  0.00  0.00     0.064 H 
ATOM     80  H   7TR d   1       9.319  24.803  19.888  0.00  0.00     0.064 H 
BRANCH  78  81
ATOM     81  CAB 7TR d   1       7.966  26.160  18.898  0.00  0.00    -0.061 C 
ATOM     82  H   7TR d   1       7.116  26.100  18.219  0.00  0.00     0.029 H 
ATOM     83  H   7TR d   1       7.660  26.649  19.823  0.00  0.00     0.029 H 
ATOM     84  H   7TR d   1       8.767  26.733  18.430  0.00  0.00     0.029 H 
ENDBRANCH  78  81
ENDBRANCH  69  78
ENDBRANCH  67  68
ENDBRANCH  61  67
ENDBRANCH  54  57
ENDBRANCH   1  54
TORSDOF 15
