REMARK  4 active torsions:
REMARK  status: ('A' for Active; 'I' for Inactive)
REMARK    1  A    between atoms: O12_1  and  C8_2 
REMARK    2  A    between atoms: C6_3  and  O7_4 
REMARK    3  A    between atoms: C4_6  and  C1_7 
REMARK    4  A    between atoms: C9_11  and  O11_12 
ROOT
ATOM      1  C8  SKM d   1      18.293   0.072  82.306  0.00  0.00     0.088 C 
ATOM      2  C6  SKM d   1      17.908  -0.396  80.917  0.00  0.00     0.067 C 
ATOM      3  C5  SKM d   1      19.170  -0.510  80.071  0.00  0.00    -0.008 C 
ATOM      4  C4  SKM d   1      20.025   0.754  80.129  0.00  0.00     0.020 C 
ATOM      5  C10 SKM d   1      19.832   1.653  81.097  0.00  0.00    -0.061 C 
ATOM      6  C9  SKM d   1      18.804   1.488  82.202  0.00  0.00     0.080 C 
ATOM      7  H2  SKM d   1      19.095  -0.575  82.692  0.00  0.00     0.091 H 
ATOM      8  H3  SKM d   1      17.232   0.340  80.457  0.00  0.00     0.087 H 
ATOM      9  H5  SKM d   1      18.880  -0.693  79.026  0.00  0.00     0.044 H 
ATOM     10  H6  SKM d   1      19.767  -1.357  80.439  0.00  0.00     0.044 H 
ATOM     11  H7  SKM d   1      20.445   2.553  81.094  0.00  0.00     0.082 H 
ATOM     12  H8  SKM d   1      19.274   1.762  83.158  0.00  0.00     0.093 H 
ENDROOT
BRANCH   1  13
ATOM     13  O12 SKM d   1      17.184   0.010  83.207  0.00  0.00    -0.390 OA
ATOM     14  H1  SKM d   1      16.875  -0.886  83.266  0.00  0.00     0.210 HD
ENDBRANCH   1  13
BRANCH   2  15
ATOM     15  O7  SKM d   1      17.231  -1.660  81.007  0.00  0.00    -0.393 OA
ATOM     16  H4  SKM d   1      17.808  -2.299  81.408  0.00  0.00     0.210 HD
ENDBRANCH   2  15
BRANCH   6  17
ATOM     17  O11 SKM d   1      17.696   2.360  81.955  0.00  0.00    -0.389 OA
ATOM     18  H9  SKM d   1      18.001   3.260  81.936  0.00  0.00     0.210 HD
ENDBRANCH   6  17
BRANCH   4  19
ATOM     19  C1  SKM d   1      21.064   0.929  79.111  0.00  0.00     0.205 C 
ATOM     20  O2  SKM d   1      21.646  -0.100  78.698  0.00  0.00    -0.644 OA
ATOM     21  O3  SKM d   1      21.354   2.068  78.671  0.00  0.00    -0.644 OA
ENDBRANCH   4  19
TORSDOF 4
