REMARK  8 active torsions:
REMARK  status: ('A' for Active; 'I' for Inactive)
REMARK    1  A    between atoms: C24_7  and  C20_8 
REMARK    2  A    between atoms: C20_8  and  C21_9 
REMARK    3  A    between atoms: C20_8  and  N19_12 
REMARK    4  A    between atoms: C21_9  and  C22_10 
REMARK    5  A    between atoms: C22_10  and  O23_11 
REMARK       I    between atoms: N19_12  and  C17_13 
REMARK    6  A    between atoms: C17_13  and  C13_15 
REMARK    7  A    between atoms: C13_15  and  N16_18 
REMARK    8  A    between atoms: N10_21  and  C3_22 
ROOT
ATOM      1  C13 0XZ d   1     -20.380   5.780  11.860  0.00  0.00     0.206 C 
ATOM      2  C12 0XZ d   1     -20.094   6.971  10.941  0.00  0.00    -0.010 C 
ATOM      3  C11 0XZ d   1     -19.577   6.558   9.539  0.00  0.00    -0.001 C 
ATOM      4  C14 0XZ d   1     -21.195   4.693  11.097  0.00  0.00    -0.010 C 
ATOM      5  C15 0XZ d   1     -20.510   4.326   9.776  0.00  0.00    -0.001 C 
ATOM      6  N10 0XZ d   1     -20.590   5.590   9.061  0.00  0.00    -0.365 N 
ATOM      7  H12 0XZ d   1     -19.334   7.606  11.420  0.00  0.00     0.039 H 
ATOM      8  H13 0XZ d   1     -21.024   7.545  10.814  0.00  0.00     0.039 H 
ATOM      9  H14 0XZ d   1     -18.586   6.085   9.610  0.00  0.00     0.064 H 
ATOM     10  H15 0XZ d   1     -19.521   7.429   8.870  0.00  0.00     0.064 H 
ATOM     11  H19 0XZ d   1     -22.203   5.080  10.885  0.00  0.00     0.039 H 
ATOM     12  H20 0XZ d   1     -21.272   3.793  11.725  0.00  0.00     0.039 H 
ATOM     13  H21 0XZ d   1     -21.052   3.528   9.248  0.00  0.00     0.064 H 
ATOM     14  H22 0XZ d   1     -19.466   4.017   9.934  0.00  0.00     0.064 H 
ENDROOT
BRANCH   1  15
ATOM     15  C17 0XZ d   1     -19.074   5.135  12.345  0.00  0.00     0.254 C 
ATOM     16  N19 0XZ d   1     -19.183   4.131  13.271  0.00  0.00    -0.350 N 
ATOM     17  H11 0XZ d   1     -20.092   3.878  13.602  0.00  0.00     0.163 HD
ATOM     18  O18 0XZ d   1     -17.965   5.454  11.913  0.00  0.00    -0.271 OA
BRANCH  16  19
ATOM     19  C20 0XZ d   1     -18.012   3.411  13.797  0.00  0.00     0.040 C 
ATOM     20  H5  0XZ d   1     -17.210   4.130  14.020  0.00  0.00     0.080 H 
BRANCH  19  21
ATOM     21  C24 0XZ d   1     -17.534   2.439  12.724  0.00  0.00    -0.035 A 
ATOM     22  C25 0XZ d   1     -18.418   1.463  12.250  0.00  0.00    -0.073 A 
ATOM     23  C26 0XZ d   1     -18.015   0.554  11.285  0.00  0.00    -0.061 A 
ATOM     24  H2  0XZ d   1     -19.428   1.418  12.642  0.00  0.00     0.084 H 
ATOM     25  C27 0XZ d   1     -16.723   0.636  10.789  0.00  0.00     0.034 A 
ATOM     26  H1  0XZ d   1     -18.697  -0.207  10.925  0.00  0.00     0.086 H 
ATOM     27 CL3  0XZ d   1     -16.185  -0.478   9.590  0.00  0.00    -0.084 Cl
ATOM     28  C28 0XZ d   1     -15.834   1.605  11.238  0.00  0.00    -0.061 A 
ATOM     29  C29 0XZ d   1     -16.239   2.511  12.217  0.00  0.00    -0.073 A 
ATOM     30  H3  0XZ d   1     -14.831   1.656  10.829  0.00  0.00     0.086 H 
ATOM     31  H4  0XZ d   1     -15.551   3.266  12.581  0.00  0.00     0.084 H 
ENDBRANCH  19  21
BRANCH  19  32
ATOM     32  C21 0XZ d   1     -18.385   2.659  15.096  0.00  0.00    -0.023 C 
ATOM     33  H6  0XZ d   1     -17.518   2.060  15.412  0.00  0.00     0.039 H 
ATOM     34  H7  0XZ d   1     -19.232   1.992  14.879  0.00  0.00     0.039 H 
BRANCH  32  35
ATOM     35  C22 0XZ d   1     -18.782   3.584  16.255  0.00  0.00     0.019 C 
ATOM     36  H8  0XZ d   1     -19.084   2.969  17.116  0.00  0.00     0.074 H 
ATOM     37  H9  0XZ d   1     -19.628   4.212  15.938  0.00  0.00     0.074 H 
BRANCH  35  38
ATOM     38  O23 0XZ d   1     -17.708   4.420  16.641  0.00  0.00    -0.401 OA
ATOM     39  H10 0XZ d   1     -17.985   4.979  17.358  0.00  0.00     0.209 HD
ENDBRANCH  35  38
ENDBRANCH  32  35
ENDBRANCH  19  32
ENDBRANCH  16  19
ENDBRANCH   1  15
BRANCH   1  40
ATOM     40  N16 0XZ d   1     -21.172   6.241  13.023  0.00  0.00    -0.061 N 
ATOM     41  H16 0XZ d   1     -21.363   5.460  13.631  0.00  0.00     0.275 HD
ATOM     42  H17 0XZ d   1     -22.042   6.637  12.702  0.00  0.00     0.275 HD
ATOM     43  H18 0XZ d   1     -20.651   6.941  13.528  0.00  0.00     0.275 HD
ENDBRANCH   1  40
BRANCH   6  44
ATOM     44  C3  0XZ d   1     -21.666   6.024   8.273  0.00  0.00     0.141 A 
ATOM     45  N5  0XZ d   1     -21.620   7.364   7.947  0.00  0.00    -0.224 NA
ATOM     46  C6  0XZ d   1     -22.639   7.973   7.253  0.00  0.00     0.091 A 
ATOM     47  N4  0XZ d   1     -23.711   7.245   6.831  0.00  0.00    -0.223 NA
ATOM     48  H23 0XZ d   1     -22.590   9.035   7.041  0.00  0.00     0.146 H 
ATOM     49  C2  0XZ d   1     -23.763   5.914   7.161  0.00  0.00     0.142 A 
ATOM     50  C1  0XZ d   1     -22.782   5.280   7.878  0.00  0.00     0.057 A 
ATOM     51  N7  0XZ d   1     -24.738   5.048   6.851  0.00  0.00    -0.350 N 
ATOM     52  C9  0XZ d   1     -23.233   3.963   7.985  0.00  0.00    -0.051 A 
ATOM     53  C8  0XZ d   1     -24.432   3.820   7.310  0.00  0.00    -0.020 A 
ATOM     54  H24 0XZ d   1     -22.718   3.167   8.520  0.00  0.00     0.087 H 
ATOM     55  H25 0XZ d   1     -25.008   2.905   7.178  0.00  0.00     0.111 H 
ATOM     56  H26 0XZ d   1     -25.597   5.287   6.336  0.00  0.00     0.166 HD
ENDBRANCH   6  44
TORSDOF 8
