REMARK  9 active torsions:
REMARK  status: ('A' for Active; 'I' for Inactive)
REMARK    1  A    between atoms: N1_8  and  C1'_9 
REMARK    2  A    between atoms: C3'_11  and  O3'_12 
REMARK    3  A    between atoms: C4'_14  and  C5'_15 
REMARK    4  A    between atoms: C5'_15  and  O5'_16 
REMARK    5  A    between atoms: O5'_16  and  PA_17 
REMARK    6  A    between atoms: PA_17  and  N3A_20 
REMARK    7  A    between atoms: N3A_20  and  PB_21 
REMARK    8  A    between atoms: PB_21  and  O3B_24 
REMARK    9  A    between atoms: O3B_24  and  PG_25 
ROOT
ATOM      1  C1' DUP d   1      39.419  43.984 -10.233  0.00  0.00     0.115 C 
ATOM      2  C2' DUP d   1      39.279  45.265 -11.058  0.00  0.00     0.002 C 
ATOM      3  C3' DUP d   1      40.204  46.261 -10.369  0.00  0.00     0.066 C 
ATOM      4  O4' DUP d   1      40.611  44.135  -9.424  0.00  0.00    -0.356 OA
ATOM      5  C4' DUP d   1      41.272  45.390  -9.734  0.00  0.00     0.087 C 
ATOM      6  H4  DUP d   1      39.521  43.123 -10.910  0.00  0.00     0.118 H 
ATOM      7  H5  DUP d   1      38.240  45.625 -11.045  0.00  0.00     0.043 H 
ATOM      8  H6  DUP d   1      39.595  45.095 -12.098  0.00  0.00     0.043 H 
ATOM      9  H7  DUP d   1      39.652  46.811  -9.592  0.00  0.00     0.087 H 
ATOM     10  H9  DUP d   1      42.055  45.196 -10.482  0.00  0.00     0.090 H 
ENDROOT
BRANCH   5  11
ATOM     11  C5' DUP d   1      41.955  46.039  -8.535  0.00  0.00     0.057 C 
ATOM     12  H10 DUP d   1      42.573  46.875  -8.895  0.00  0.00     0.079 H 
ATOM     13  H11 DUP d   1      42.598  45.289  -8.051  0.00  0.00     0.079 H 
BRANCH  11  14
ATOM     14  O5' DUP d   1      41.022  46.546  -7.555  0.00  0.00    -0.293 OA
BRANCH  14  15
ATOM     15  PA  DUP d   1      41.583  46.952  -6.127  0.00  0.00     0.368 P 
ATOM     16  O1A DUP d   1      42.544  48.086  -6.437  0.00  0.00    -0.629 OA
ATOM     17  O2A DUP d   1      40.317  47.149  -5.307  0.00  0.00    -0.629 OA
BRANCH  15  18
ATOM     18  N3A DUP d   1      42.362  45.567  -5.562  0.00  0.00    -0.225 N 
ATOM     19  H12 DUP d   1      41.909  44.690  -5.719  0.00  0.00     0.178 HD
BRANCH  18  20
ATOM     20  PB  DUP d   1      43.842  45.540  -4.755  0.00  0.00     0.379 P 
ATOM     21  O1B DUP d   1      44.255  46.926  -4.375  0.00  0.00    -0.629 OA
ATOM     22  O2B DUP d   1      43.721  44.561  -3.614  0.00  0.00    -0.629 OA
BRANCH  20  23
ATOM     23  O3B DUP d   1      44.913  45.020  -5.874  0.00  0.00    -0.178 OA
BRANCH  23  24
ATOM     24  PG  DUP d   1      45.957  45.884  -6.867  0.00  0.00     0.431 P 
ATOM     25  O2G DUP d   1      45.928  44.991  -8.078  0.00  0.00    -0.616 OA
ATOM     26  O1G DUP d   1      47.235  45.946  -6.048  0.00  0.00    -0.616 OA
ATOM     27  O3G DUP d   1      45.415  47.280  -7.031  0.00  0.00    -0.616 OA
ENDBRANCH  23  24
ENDBRANCH  20  23
ENDBRANCH  18  20
ENDBRANCH  15  18
ENDBRANCH  14  15
ENDBRANCH  11  14
ENDBRANCH   5  11
BRANCH   3  28
ATOM     28  O3' DUP d   1      40.766  47.205 -11.277  0.00  0.00    -0.393 OA
ATOM     29  H8  DUP d   1      41.333  47.801 -10.802  0.00  0.00     0.210 HD
ENDBRANCH   3  28
BRANCH   1  30
ATOM     30  N1  DUP d   1      38.282  43.753  -9.324  0.00  0.00    -0.294 N 
ATOM     31  C6  DUP d   1      38.120  44.557  -8.235  0.00  0.00    -0.010 A 
ATOM     32  C5  DUP d   1      37.028  44.388  -7.358  0.00  0.00    -0.016 A 
ATOM     33  H2  DUP d   1      38.847  45.344  -8.039  0.00  0.00     0.112 H 
ATOM     34  C4  DUP d   1      36.132  43.351  -7.581  0.00  0.00     0.183 A 
ATOM     35  H1  DUP d   1      36.889  45.064  -6.515  0.00  0.00     0.092 H 
ATOM     36  O4  DUP d   1      35.077  43.154  -6.729  0.00  0.00    -0.172 OA
ATOM     37  N3  DUP d   1      36.292  42.579  -8.707  0.00  0.00    -0.298 N 
ATOM     38  C2  DUP d   1      37.363  42.798  -9.571  0.00  0.00     0.262 A 
ATOM     39  H3  DUP d   1      35.634  41.853  -8.908  0.00  0.00     0.171 HD
ATOM     40  O2  DUP d   1      37.496  42.020 -10.660  0.00  0.00    -0.151 OA
ENDBRANCH   1  30
TORSDOF 9
