REMARK WARNING: 32 MAX_TORS EXCEEDED!!!
REMARK  40 active torsions:
REMARK  status: ('A' for Active; 'I' for Inactive)
REMARK    1  A    between atoms: N_1  and  CA_2 
REMARK    2  A    between atoms: CA_2  and  C_3 
REMARK    3  A    between atoms: CA_2  and  CB_5 
REMARK       I    between atoms: C_3  and  N_8 
REMARK    4  A    between atoms: CB_5  and  OG1_6 
REMARK    5  A    between atoms: CB_5  and  CG2_7 
REMARK    6  A    between atoms: N_8  and  CA_9 
REMARK    7  A    between atoms: CA_9  and  C_10 
REMARK    8  A    between atoms: CA_9  and  CB_12 
REMARK       I    between atoms: C_10  and  N_17 
REMARK    9  A    between atoms: CB_12  and  CG_13 
REMARK   10  A    between atoms: CG_13  and  CD_14 
REMARK   11  A    between atoms: CD_14  and  CE_15 
REMARK   12  A    between atoms: CE_15  and  NZ_16 
REMARK   13  A    between atoms: N_17  and  CA_18 
REMARK   14  A    between atoms: CA_18  and  C_19 
REMARK   15  A    between atoms: CA_18  and  CB_21 
REMARK       I    between atoms: C_19  and  N_26 
REMARK   16  A    between atoms: CB_21  and  CG_22 
REMARK   17  A    between atoms: CG_22  and  CD_23 
REMARK       I    between atoms: CD_23  and  NE2_25 
REMARK   18  A    between atoms: N_26  and  CA_27 
REMARK   19  A    between atoms: CA_27  and  C_28 
REMARK   20  A    between atoms: CA_27  and  CB_30 
REMARK       I    between atoms: C_28  and  N_35 
REMARK   21  A    between atoms: CB_30  and  CG_31 
REMARK   22  A    between atoms: CG_31  and  CD_32 
REMARK   23  A    between atoms: N_35  and  CA_36 
REMARK   24  A    between atoms: CA_36  and  C_37 
REMARK   25  A    between atoms: CA_36  and  CB_39 
REMARK       I    between atoms: C_37  and  N_44 
REMARK   26  A    between atoms: CB_39  and  CG_40 
REMARK   27  A    between atoms: CG_40  and  CD_41 
REMARK   28  A    between atoms: N_44  and  CA_45 
REMARK   29  A    between atoms: CA_45  and  C_46 
REMARK   30  A    between atoms: CA_45  and  CB_48 
REMARK       I    between atoms: C_46  and  N_55 
REMARK   31  A    between atoms: CB_48  and  CG_49 
REMARK   32  A    between atoms: N_55  and  CA_56 
REMARK   33  A    between atoms: CA_56  and  C_57 
REMARK   34  A    between atoms: CA_56  and  CB_59 
REMARK       I    between atoms: C_57  and  N_71 
REMARK   35  A    between atoms: CB_59  and  CG_60 
REMARK   36  A    between atoms: CZ_65  and  OH_66 
REMARK   37  A    between atoms: OH_66  and  P_67 
REMARK   38  A    between atoms: N_71  and  CA_72 
REMARK   39  A    between atoms: CA_72  and  C_73 
REMARK   40  A    between atoms: CA_72  and  CB_75 
ROOT
ATOM      1  C   GLU d   1       3.198   2.407   9.327  0.00  0.00     0.241 C 
ATOM      2  O   GLU d   1       3.583   1.263   9.065  0.00  0.00    -0.271 OA
ATOM      3  N   GLU d   1       2.588   2.754  10.448  0.00  0.00    -0.346 N 
ATOM      4  H37 GLU d   1       2.038   3.589  10.460  0.00  0.00     0.163 HD
ENDROOT
BRANCH   1   5
ATOM      5  CA  GLU d   1       3.311   3.525   8.328  0.00  0.00     0.090 C 
ATOM      6  H32 GLU d   1       3.922   4.337   8.749  0.00  0.00     0.087 H 
BRANCH   5   7
ATOM      7  N   GLU d   1       3.950   3.021   7.127  0.00  0.00    -0.346 N 
ATOM      8  C   GLN d   1       4.203   3.812   6.093  0.00  0.00     0.241 C 
ATOM      9  O   GLN d   1       4.013   5.038   6.108  0.00  0.00    -0.271 OA
ATOM     10  H31 GLU d   1       4.205   2.055   7.078  0.00  0.00     0.163 HD
BRANCH   8  11
ATOM     11  CA  GLN d   1       4.764   3.113   4.871  0.00  0.00     0.090 C 
ATOM     12  H24 GLN d   1       5.210   3.853   4.190  0.00  0.00     0.087 H 
BRANCH  11  13
ATOM     13  N   GLN d   1       5.787   2.174   5.307  0.00  0.00    -0.346 N 
ATOM     14  C   LYS d   1       6.960   2.601   5.755  0.00  0.00     0.241 C 
ATOM     15  O   LYS d   1       7.281   3.793   5.770  0.00  0.00    -0.271 OA
ATOM     16  H23 GLN d   1       5.603   1.192   5.268  0.00  0.00     0.163 HD
BRANCH  14  17
ATOM     17  CA  LYS d   1       7.919   1.529   6.233  0.00  0.00     0.089 C 
ATOM     18  H11 LYS d   1       7.680   0.567   5.756  0.00  0.00     0.087 H 
BRANCH  17  19
ATOM     19  N   LYS d   1       9.256   1.947   5.849  0.00  0.00    -0.346 N 
ATOM     20  C   THR d   1       9.866   1.430   4.795  0.00  0.00     0.251 C 
ATOM     21  O   THR d   1       9.437   0.461   4.166  0.00  0.00    -0.271 OA
ATOM     22  H10 LYS d   1       9.726   2.641   6.394  0.00  0.00     0.163 HD
BRANCH  20  23
ATOM     23  CA  THR d   1      11.170   2.088   4.409  0.00  0.00     0.199 C 
ATOM     24  H4  THR d   1      11.689   2.429   5.317  0.00  0.00     0.103 H 
BRANCH  23  25
ATOM     25  N   THR d   1      12.014   1.080   3.711  0.00  0.00    -0.064 N 
ATOM     26  H1  THR d   1      12.175   0.295   4.323  0.00  0.00     0.275 HD
ATOM     27  H2  THR d   1      12.897   1.497   3.460  0.00  0.00     0.275 HD
ATOM     28  H3  THR d   1      11.542   0.765   2.878  0.00  0.00     0.275 HD
ENDBRANCH  23  25
BRANCH  23  29
ATOM     29  CB  THR d   1      10.904   3.298   3.508  0.00  0.00     0.068 C 
ATOM     30  H5  THR d   1      10.132   3.935   3.964  0.00  0.00     0.086 H 
BRANCH  29  31
ATOM     31  OG1 THR d   1      10.455   2.836   2.227  0.00  0.00    -0.393 OA
ATOM     32  H6  THR d   1      10.288   3.582   1.663  0.00  0.00     0.210 HD
ENDBRANCH  29  31
BRANCH  29  33
ATOM     33  CG2 THR d   1      12.184   4.100   3.329  0.00  0.00    -0.050 C 
ATOM     34  H7  THR d   1      11.986   4.967   2.681  0.00  0.00     0.031 H 
ATOM     35  H8  THR d   1      12.953   3.465   2.866  0.00  0.00     0.031 H 
ATOM     36  H9  THR d   1      12.539   4.449   4.310  0.00  0.00     0.031 H 
ENDBRANCH  29  33
ENDBRANCH  23  29
ENDBRANCH  20  23
ENDBRANCH  17  19
BRANCH  17  37
ATOM     37  CB  LYS d   1       7.798   1.386   7.743  0.00  0.00    -0.038 C 
ATOM     38  H12 LYS d   1       6.824   0.922   7.958  0.00  0.00     0.036 H 
ATOM     39  H13 LYS d   1       7.827   2.396   8.178  0.00  0.00     0.036 H 
BRANCH  37  40
ATOM     40  CG  LYS d   1       8.865   0.557   8.432  0.00  0.00    -0.061 C 
ATOM     41  H14 LYS d   1       9.859   0.828   8.046  0.00  0.00     0.033 H 
ATOM     42  H15 LYS d   1       8.682  -0.513   8.255  0.00  0.00     0.033 H 
BRANCH  40  43
ATOM     43  CD  LYS d   1       8.786   0.858   9.922  0.00  0.00    -0.043 C 
ATOM     44  H16 LYS d   1       7.788   0.574  10.287  0.00  0.00     0.035 H 
ATOM     45  H17 LYS d   1       8.938   1.937  10.073  0.00  0.00     0.035 H 
BRANCH  43  46
ATOM     46  CE  LYS d   1       9.814   0.114  10.708  0.00  0.00     0.080 C 
ATOM     47  H18 LYS d   1      10.802   0.255  10.246  0.00  0.00     0.075 H 
ATOM     48  H19 LYS d   1       9.564  -0.957  10.719  0.00  0.00     0.075 H 
BRANCH  46  49
ATOM     49  NZ  LYS d   1       9.839   0.636  12.110  0.00  0.00    -0.079 N 
ATOM     50  H20 LYS d   1      10.533   0.135  12.643  0.00  0.00     0.274 HD
ATOM     51  H21 LYS d   1       8.933   0.507  12.533  0.00  0.00     0.274 HD
ATOM     52  H22 LYS d   1      10.068   1.617  12.099  0.00  0.00     0.274 HD
ENDBRANCH  46  49
ENDBRANCH  43  46
ENDBRANCH  40  43
ENDBRANCH  37  40
ENDBRANCH  17  37
ENDBRANCH  14  17
ENDBRANCH  11  13
BRANCH  11  53
ATOM     53  CB  GLN d   1       3.637   2.380   4.154  0.00  0.00    -0.030 C 
ATOM     54  H25 GLN d   1       2.780   3.065   4.080  0.00  0.00     0.037 H 
ATOM     55  H26 GLN d   1       3.358   1.508   4.764  0.00  0.00     0.037 H 
BRANCH  53  56
ATOM     56  CG  GLN d   1       3.964   1.889   2.759  0.00  0.00     0.011 C 
ATOM     57  H27 GLN d   1       4.793   1.169   2.822  0.00  0.00     0.047 H 
ATOM     58  H28 GLN d   1       4.270   2.748   2.144  0.00  0.00     0.047 H 
BRANCH  56  59
ATOM     59  CD  GLN d   1       2.770   1.206   2.090  0.00  0.00     0.215 C 
ATOM     60  OE1 GLN d   1       1.979   0.514   2.749  0.00  0.00    -0.274 OA
ATOM     61  NE2 GLN d   1       2.638   1.393   0.775  0.00  0.00    -0.370 N 
ATOM     62  H29 GLN d   1       1.876   0.971   0.284  0.00  0.00     0.159 HD
ATOM     63  H30 GLN d   1       3.301   1.955   0.281  0.00  0.00     0.159 HD
ENDBRANCH  56  59
ENDBRANCH  53  56
ENDBRANCH  11  53
ENDBRANCH   8  11
ENDBRANCH   5   7
BRANCH   5  64
ATOM     64  CB  GLU d   1       1.912   4.054   8.024  0.00  0.00    -0.029 C 
ATOM     65  H33 GLU d   1       1.987   4.778   7.199  0.00  0.00     0.037 H 
ATOM     66  H34 GLU d   1       1.531   4.561   8.923  0.00  0.00     0.037 H 
BRANCH  64  67
ATOM     67  CG  GLU d   1       0.915   2.972   7.624  0.00  0.00     0.018 C 
ATOM     68  H35 GLU d   1       0.649   2.384   8.515  0.00  0.00     0.049 H 
ATOM     69  H36 GLU d   1       1.382   2.314   6.876  0.00  0.00     0.049 H 
BRANCH  67  70
ATOM     70  CD  GLU d   1      -0.342   3.569   7.037  0.00  0.00     0.172 C 
ATOM     71  OE1 GLU d   1      -0.992   2.881   6.218  0.00  0.00    -0.648 OA
ATOM     72  OE2 GLU d   1      -0.666   4.732   7.378  0.00  0.00    -0.648 OA
ENDBRANCH  67  70
ENDBRANCH  64  67
ENDBRANCH   5  64
ENDBRANCH   1   5
BRANCH   3  73
ATOM     73  CA  GLU d   1       2.688   1.979  11.639  0.00  0.00     0.090 C 
ATOM     74  H38 GLU d   1       2.763   0.905  11.414  0.00  0.00     0.087 H 
BRANCH  73  75
ATOM     75  C   GLU d   1       1.474   2.262  12.493  0.00  0.00     0.241 C 
ATOM     76  O   GLU d   1       1.036   3.406  12.587  0.00  0.00    -0.271 OA
ATOM     77  N   PHE d   1       0.928   1.206  13.098  0.00  0.00    -0.346 N 
ATOM     78  H43 PHE d   1       1.271   0.292  12.880  0.00  0.00     0.163 HD
BRANCH  77  79
ATOM     79  CA  PHE d   1      -0.157   1.343  14.071  0.00  0.00     0.093 C 
ATOM     80  H44 PHE d   1      -0.257   2.406  14.334  0.00  0.00     0.088 H 
BRANCH  79  81
ATOM     81  C   PHE d   1       0.164   0.557  15.318  0.00  0.00     0.241 C 
ATOM     82  O   PHE d   1       0.832  -0.468  15.248  0.00  0.00    -0.271 OA
ATOM     83  N   PTR d   1      -0.347   1.031  16.454  0.00  0.00    -0.346 N 
ATOM     84  H52 PTR d   1      -0.852   1.894  16.428  0.00  0.00     0.163 HD
BRANCH  83  85
ATOM     85  CA  PTR d   1      -0.201   0.344  17.736  0.00  0.00     0.093 C 
ATOM     86  H53 PTR d   1       0.178  -0.671  17.545  0.00  0.00     0.088 H 
BRANCH  85  87
ATOM     87  C   PTR d   1      -1.554   0.224  18.416  0.00  0.00     0.241 C 
ATOM     88  O   PTR d   1      -2.423   1.089  18.268  0.00  0.00    -0.271 OA
ATOM     89  N   ALA d   1      -1.737  -0.864  19.150  0.00  0.00    -0.345 N 
ATOM     90  H60 ALA d   1      -1.068  -1.607  19.117  0.00  0.00     0.163 HD
BRANCH  89  91
ATOM     91  CA  ALA d   1      -2.915  -0.981  20.008  0.00  0.00     0.093 C 
ATOM     92  H61 ALA d   1      -3.153   0.025  20.385  0.00  0.00     0.089 H 
BRANCH  91  93
ATOM     93  C   ALA d   1      -2.650  -1.867  21.209  0.00  0.00     0.196 C 
ATOM     94  O   ALA d   1      -3.551  -2.094  22.038  0.00  0.00    -0.646 OA
ATOM     95  OXT ALA d   1      -1.527  -2.371  21.357  0.00  0.00    -0.646 OA
ENDBRANCH  91  93
BRANCH  91  96
ATOM     96  CB  ALA d   1      -4.122  -1.475  19.210  0.00  0.00    -0.048 C 
ATOM     97  H62 ALA d   1      -4.994  -1.555  19.876  0.00  0.00     0.030 H 
ATOM     98  H63 ALA d   1      -3.898  -2.462  18.779  0.00  0.00     0.030 H 
ATOM     99  H64 ALA d   1      -4.343  -0.763  18.401  0.00  0.00     0.030 H 
ENDBRANCH  91  96
ENDBRANCH  89  91
ENDBRANCH  85  87
BRANCH  85 100
ATOM    100  CB  PTR d   1       0.820   1.075  18.626  0.00  0.00    -0.014 C 
ATOM    101  H54 PTR d   1       0.693   2.156  18.469  0.00  0.00     0.043 H 
ATOM    102  H55 PTR d   1       1.828   0.774  18.304  0.00  0.00     0.043 H 
BRANCH 100 103
ATOM    103  CG  PTR d   1       0.704   0.801  20.117  0.00  0.00    -0.056 A 
ATOM    104  CD1 PTR d   1       1.641   0.011  20.783  0.00  0.00    -0.074 A 
ATOM    105  CE1 PTR d   1       1.538  -0.225  22.154  0.00  0.00    -0.050 A 
ATOM    106  H56 PTR d   1       2.462  -0.426  20.227  0.00  0.00     0.084 H 
ATOM    107  CZ  PTR d   1       0.499   0.345  22.886  0.00  0.00     0.082 A 
ATOM    108  H58 PTR d   1       2.268  -0.853  22.651  0.00  0.00     0.087 H 
ATOM    109  CE2 PTR d   1      -0.438   1.133  22.239  0.00  0.00    -0.050 A 
ATOM    110  CD2 PTR d   1      -0.324   1.374  20.874  0.00  0.00    -0.074 A 
ATOM    111  H59 PTR d   1      -1.262   1.563  22.797  0.00  0.00     0.087 H 
ATOM    112  H57 PTR d   1      -1.046   2.019  20.387  0.00  0.00     0.084 H 
BRANCH 107 113
ATOM    113  OH  PTR d   1       0.386   0.114  24.119  0.00  0.00    -0.240 OA
BRANCH 113 114
ATOM    114  P   PTR d   1       0.727   1.183  25.291  0.00  0.00     0.427 P 
ATOM    115  O1P PTR d   1      -0.081   2.399  24.984  0.00  0.00    -0.617 OA
ATOM    116  O2P PTR d   1       2.238   1.457  25.286  0.00  0.00    -0.617 OA
ATOM    117  O3P PTR d   1       0.196   0.607  26.596  0.00  0.00    -0.617 OA
ENDBRANCH 113 114
ENDBRANCH 107 113
ENDBRANCH 100 103
ENDBRANCH  85 100
ENDBRANCH  83  85
ENDBRANCH  79  81
BRANCH  79 118
ATOM    118  CB  PHE d   1      -1.498   0.848  13.500  0.00  0.00    -0.014 C 
ATOM    119  H45 PHE d   1      -2.227   0.799  14.322  0.00  0.00     0.043 H 
ATOM    120  H46 PHE d   1      -1.346  -0.159  13.084  0.00  0.00     0.043 H 
BRANCH 118 121
ATOM    121  CG  PHE d   1      -2.063   1.726  12.418  0.00  0.00    -0.056 A 
ATOM    122  CD1 PHE d   1      -2.905   2.794  12.743  0.00  0.00    -0.077 A 
ATOM    123  CE1 PHE d   1      -3.447   3.614  11.745  0.00  0.00    -0.082 A 
ATOM    124  H47 PHE d   1      -3.142   2.990  13.783  0.00  0.00     0.084 H 
ATOM    125  CZ  PHE d   1      -3.132   3.375  10.408  0.00  0.00    -0.083 A 
ATOM    126  H49 PHE d   1      -4.108   4.431  12.011  0.00  0.00     0.083 H 
ATOM    127  CE2 PHE d   1      -2.294   2.304  10.070  0.00  0.00    -0.082 A 
ATOM    128  H51 PHE d   1      -3.534   4.016   9.632  0.00  0.00     0.083 H 
ATOM    129  CD2 PHE d   1      -1.767   1.486  11.081  0.00  0.00    -0.077 A 
ATOM    130  H50 PHE d   1      -2.054   2.108   9.031  0.00  0.00     0.083 H 
ATOM    131  H48 PHE d   1      -1.121   0.657  10.816  0.00  0.00     0.084 H 
ENDBRANCH 118 121
ENDBRANCH  79 118
ENDBRANCH  77  79
ENDBRANCH  73  75
BRANCH  73 132
ATOM    132  CB  GLU d   1       3.928   2.476  12.352  0.00  0.00    -0.029 C 
ATOM    133  H39 GLU d   1       3.662   3.409  12.870  0.00  0.00     0.037 H 
ATOM    134  H40 GLU d   1       4.690   2.686  11.586  0.00  0.00     0.037 H 
BRANCH 132 135
ATOM    135  CG  GLU d   1       4.527   1.583  13.335  0.00  0.00     0.018 C 
ATOM    136  H41 GLU d   1       4.544   0.558  12.936  0.00  0.00     0.049 H 
ATOM    137  H42 GLU d   1       3.934   1.607  14.261  0.00  0.00     0.049 H 
BRANCH 135 138
ATOM    138  CD  GLU d   1       5.942   2.031  13.632  0.00  0.00     0.172 C 
ATOM    139  OE1 GLU d   1       6.107   2.795  14.602  0.00  0.00    -0.648 OA
ATOM    140  OE2 GLU d   1       6.872   1.662  12.872  0.00  0.00    -0.648 OA
ENDBRANCH 135 138
ENDBRANCH 132 135
ENDBRANCH  73 132
ENDBRANCH   3  73
TORSDOF 40
