REMARK WARNING: 32 MAX_TORS EXCEEDED!!!
REMARK  33 active torsions:
REMARK  status: ('A' for Active; 'I' for Inactive)
REMARK    1  A    between atoms: N_1  and  CA_2 
REMARK    2  A    between atoms: CA_2  and  C_3 
REMARK    3  A    between atoms: CA_2  and  CB_5 
REMARK       I    between atoms: C_3  and  N_8 
REMARK    4  A    between atoms: CB_5  and  OG1_6 
REMARK    5  A    between atoms: CB_5  and  CG2_7 
REMARK    6  A    between atoms: N_8  and  CA_9 
REMARK    7  A    between atoms: CA_9  and  C_10 
REMARK    8  A    between atoms: CA_9  and  CB_12 
REMARK       I    between atoms: C_10  and  N_17 
REMARK    9  A    between atoms: CB_12  and  CG_13 
REMARK   10  A    between atoms: CG_13  and  CD_14 
REMARK   11  A    between atoms: CD_14  and  CE_15 
REMARK   12  A    between atoms: CE_15  and  NZ_16 
REMARK   13  A    between atoms: N_17  and  CA_18 
REMARK   14  A    between atoms: CA_18  and  C_19 
REMARK   15  A    between atoms: CA_18  and  CB_21 
REMARK       I    between atoms: C_19  and  N_22 
REMARK   16  A    between atoms: N_22  and  CA_23 
REMARK   17  A    between atoms: CA_23  and  C_24 
REMARK   18  A    between atoms: CA_23  and  CB_26 
REMARK       I    between atoms: C_24  and  N_27 
REMARK   19  A    between atoms: N_27  and  CA_28 
REMARK   20  A    between atoms: CA_28  and  C_29 
REMARK   21  A    between atoms: CA_28  and  CB_31 
REMARK       I    between atoms: C_29  and  N_32 
REMARK   22  A    between atoms: N_32  and  CA_33 
REMARK   23  A    between atoms: CA_33  and  C_34 
REMARK   24  A    between atoms: CA_33  and  CB_36 
REMARK       I    between atoms: C_34  and  N_43 
REMARK   25  A    between atoms: CB_36  and  CG_37 
REMARK   26  A    between atoms: N_43  and  CA_44 
REMARK   27  A    between atoms: CA_44  and  C_45 
REMARK   28  A    between atoms: CA_44  and  CB_47 
REMARK       I    between atoms: C_45  and  N_55 
REMARK   29  A    between atoms: CB_47  and  CG_48 
REMARK   30  A    between atoms: CZ_53  and  OH_54 
REMARK   31  A    between atoms: N_55  and  CA_56 
REMARK   32  A    between atoms: CA_56  and  C_57 
REMARK   33  A    between atoms: CA_56  and  CB_59 
ROOT
ATOM      1  C   GLU d   1     -10.245 -15.442   2.315  0.00  0.00     0.240 C 
ATOM      2  O   GLU d   1     -10.757 -15.739   1.252  0.00  0.00    -0.271 OA
ATOM      3  N   GLU d   1     -10.071 -14.183   2.716  0.00  0.00    -0.346 N 
ATOM      4  H33 GLU d   1      -9.833 -13.998   3.669  0.00  0.00     0.163 HD
ENDROOT
BRANCH   3   5
ATOM      5  CA  GLU d   1     -10.226 -13.050   1.766  0.00  0.00     0.086 C 
ATOM      6  H34 GLU d   1     -10.284 -13.430   0.736  0.00  0.00     0.086 H 
BRANCH   5   7
ATOM      7  C   GLU d   1      -8.944 -12.279   1.962  0.00  0.00     0.240 C 
ATOM      8  O   GLU d   1      -8.500 -12.102   3.098  0.00  0.00    -0.271 OA
ATOM      9  N   PHE d   1      -8.308 -11.892   0.863  0.00  0.00    -0.346 N 
ATOM     10  H38 PHE d   1      -8.682 -12.167  -0.023  0.00  0.00     0.163 HD
BRANCH   9  11
ATOM     11  CA  PHE d   1      -7.102 -11.093   0.879  0.00  0.00     0.093 C 
ATOM     12  H39 PHE d   1      -6.774 -10.982   1.923  0.00  0.00     0.088 H 
BRANCH  11  13
ATOM     13  C   PHE d   1      -7.440  -9.708   0.331  0.00  0.00     0.241 C 
ATOM     14  O   PHE d   1      -8.179  -9.574  -0.688  0.00  0.00    -0.271 OA
ATOM     15  N   TYR d   1      -6.956  -8.659   1.018  0.00  0.00    -0.346 N 
ATOM     16  H47 TYR d   1      -6.422  -8.847   1.842  0.00  0.00     0.163 HD
BRANCH  15  17
ATOM     17  CA  TYR d   1      -7.160  -7.251   0.638  0.00  0.00     0.093 C 
ATOM     18  H48 TYR d   1      -7.865  -7.212  -0.205  0.00  0.00     0.088 H 
BRANCH  17  19
ATOM     19  C   TYR d   1      -5.807  -6.695   0.155  0.00  0.00     0.241 C 
ATOM     20  O   TYR d   1      -4.962  -6.318   0.962  0.00  0.00    -0.271 OA
ATOM     21  N   ALA d   1      -5.608  -6.754  -1.163  0.00  0.00    -0.345 N 
ATOM     22  H56 ALA d   1      -6.400  -6.923  -1.750  0.00  0.00     0.163 HD
BRANCH  21  23
ATOM     23  CA  ALA d   1      -4.318  -6.589  -1.796  0.00  0.00     0.093 C 
ATOM     24  H57 ALA d   1      -3.545  -6.769  -1.034  0.00  0.00     0.089 H 
BRANCH  23  25
ATOM     25  C   ALA d   1      -4.099  -5.162  -2.349  0.00  0.00     0.196 C 
ATOM     26  O   ALA d   1      -5.079  -4.381  -2.530  0.00  0.00    -0.646 OA
ATOM     27  OXT ALA d   1      -2.918  -4.781  -2.578  0.00  0.00    -0.646 OA
ENDBRANCH  23  25
BRANCH  23  28
ATOM     28  CB  ALA d   1      -4.154  -7.636  -2.892  0.00  0.00    -0.048 C 
ATOM     29  H58 ALA d   1      -3.173  -7.511  -3.374  0.00  0.00     0.030 H 
ATOM     30  H59 ALA d   1      -4.949  -7.510  -3.641  0.00  0.00     0.030 H 
ATOM     31  H60 ALA d   1      -4.221  -8.642  -2.451  0.00  0.00     0.030 H 
ENDBRANCH  23  28
ENDBRANCH  21  23
ENDBRANCH  17  19
BRANCH  17  32
ATOM     32  CB  TYR d   1      -7.787  -6.454   1.805  0.00  0.00    -0.014 C 
ATOM     33  H49 TYR d   1      -7.905  -5.405   1.496  0.00  0.00     0.043 H 
ATOM     34  H50 TYR d   1      -7.115  -6.507   2.674  0.00  0.00     0.043 H 
BRANCH  32  35
ATOM     35  CG  TYR d   1      -9.124  -6.997   2.194  0.00  0.00    -0.056 A 
ATOM     36  CD1 TYR d   1     -10.264  -6.603   1.531  0.00  0.00    -0.074 A 
ATOM     37  CE1 TYR d   1     -11.501  -7.104   1.858  0.00  0.00    -0.051 A 
ATOM     38  H51 TYR d   1     -10.184  -5.878   0.729  0.00  0.00     0.084 H 
ATOM     39  CZ  TYR d   1     -11.597  -8.089   2.826  0.00  0.00     0.065 A 
ATOM     40  H53 TYR d   1     -12.391  -6.732   1.364  0.00  0.00     0.087 H 
ATOM     41  CE2 TYR d   1     -10.469  -8.553   3.474  0.00  0.00    -0.051 A 
ATOM     42  CD2 TYR d   1      -9.233  -8.005   3.144  0.00  0.00    -0.074 A 
ATOM     43  H54 TYR d   1     -10.545  -9.330   4.226  0.00  0.00     0.087 H 
ATOM     44  H52 TYR d   1      -8.340  -8.371   3.637  0.00  0.00     0.084 H 
BRANCH  39  45
ATOM     45  OH  TYR d   1     -12.811  -8.612   3.130  0.00  0.00    -0.361 OA
ATOM     46  H55 TYR d   1     -13.478  -8.189   2.602  0.00  0.00     0.217 HD
ENDBRANCH  39  45
ENDBRANCH  32  35
ENDBRANCH  17  32
ENDBRANCH  15  17
ENDBRANCH  11  13
BRANCH  11  47
ATOM     47  CB  PHE d   1      -5.960 -11.752   0.103  0.00  0.00    -0.014 C 
ATOM     48  H40 PHE d   1      -5.089 -11.081   0.135  0.00  0.00     0.043 H 
ATOM     49  H41 PHE d   1      -6.283 -11.885  -0.940  0.00  0.00     0.043 H 
BRANCH  47  50
ATOM     50  CG  PHE d   1      -5.543 -13.095   0.644  0.00  0.00    -0.056 A 
ATOM     51  CD1 PHE d   1      -6.232 -14.263   0.260  0.00  0.00    -0.077 A 
ATOM     52  CE1 PHE d   1      -5.839 -15.528   0.723  0.00  0.00    -0.082 A 
ATOM     53  H42 PHE d   1      -7.083 -14.182  -0.407  0.00  0.00     0.084 H 
ATOM     54  CZ  PHE d   1      -4.750 -15.630   1.575  0.00  0.00    -0.083 A 
ATOM     55  H44 PHE d   1      -6.381 -16.416   0.418  0.00  0.00     0.083 H 
ATOM     56  CE2 PHE d   1      -4.029 -14.477   1.946  0.00  0.00    -0.082 A 
ATOM     57  H46 PHE d   1      -4.452 -16.600   1.957  0.00  0.00     0.083 H 
ATOM     58  CD2 PHE d   1      -4.430 -13.222   1.476  0.00  0.00    -0.077 A 
ATOM     59  H45 PHE d   1      -3.165 -14.563   2.595  0.00  0.00     0.083 H 
ATOM     60  H43 PHE d   1      -3.870 -12.339   1.761  0.00  0.00     0.084 H 
ENDBRANCH  47  50
ENDBRANCH  11  47
ENDBRANCH   9  11
ENDBRANCH   5   7
BRANCH   5  61
ATOM     61  CB  GLU d   1     -11.506 -12.180   2.033  0.00  0.00    -0.049 C 
ATOM     62  H35 GLU d   1     -11.555 -11.365   1.296  0.00  0.00     0.030 H 
ATOM     63  H36 GLU d   1     -11.456 -11.755   3.047  0.00  0.00     0.030 H 
ATOM     64  H37 GLU d   1     -12.403 -12.810   1.943  0.00  0.00     0.030 H 
ENDBRANCH   5  61
ENDBRANCH   3   5
BRANCH   1  65
ATOM     65  CA  GLU d   1      -9.892 -16.563   3.242  0.00  0.00     0.086 C 
ATOM     66  H29 GLU d   1     -10.047 -16.281   4.294  0.00  0.00     0.086 H 
BRANCH  65  67
ATOM     67  N   GLU d   1     -10.787 -17.682   2.846  0.00  0.00    -0.346 N 
ATOM     68  C   GLN d   1     -11.013 -18.691   3.677  0.00  0.00     0.240 C 
ATOM     69  O   GLN d   1     -10.691 -18.603   4.864  0.00  0.00    -0.271 OA
ATOM     70  H28 GLU d   1     -11.222 -17.674   1.946  0.00  0.00     0.163 HD
BRANCH  68  71
ATOM     71  CA  GLN d   1     -11.730 -19.978   3.121  0.00  0.00     0.086 C 
ATOM     72  H24 GLN d   1     -12.206 -20.455   3.990  0.00  0.00     0.086 H 
BRANCH  71  73
ATOM     73  N   GLN d   1     -12.806 -19.717   2.157  0.00  0.00    -0.346 N 
ATOM     74  C   LYS d   1     -14.022 -19.429   2.575  0.00  0.00     0.241 C 
ATOM     75  O   LYS d   1     -14.275 -19.369   3.753  0.00  0.00    -0.271 OA
ATOM     76  H23 GLN d   1     -12.615 -19.758   1.176  0.00  0.00     0.163 HD
BRANCH  74  77
ATOM     77  CA  LYS d   1     -15.109 -19.158   1.539  0.00  0.00     0.089 C 
ATOM     78  H11 LYS d   1     -14.668 -19.244   0.535  0.00  0.00     0.087 H 
BRANCH  77  79
ATOM     79  N   LYS d   1     -16.188 -20.131   1.674  0.00  0.00    -0.346 N 
ATOM     80  C   THR d   1     -16.159 -21.258   0.987  0.00  0.00     0.251 C 
ATOM     81  O   THR d   1     -15.225 -21.515   0.234  0.00  0.00    -0.271 OA
ATOM     82  H10 LYS d   1     -16.953 -19.943   2.290  0.00  0.00     0.163 HD
BRANCH  80  83
ATOM     83  CA  THR d   1     -17.371 -22.215   1.123  0.00  0.00     0.199 C 
ATOM     84  H4  THR d   1     -18.019 -21.817   1.918  0.00  0.00     0.103 H 
BRANCH  83  85
ATOM     85  N   THR d   1     -18.158 -22.287  -0.129  0.00  0.00    -0.064 N 
ATOM     86  H1  THR d   1     -18.439 -21.359  -0.403  0.00  0.00     0.275 HD
ATOM     87  H2  THR d   1     -18.977 -22.856   0.021  0.00  0.00     0.275 HD
ATOM     88  H3  THR d   1     -17.594 -22.695  -0.858  0.00  0.00     0.275 HD
ENDBRANCH  83  85
BRANCH  83  89
ATOM     89  CB  THR d   1     -16.960 -23.645   1.509  0.00  0.00     0.068 C 
ATOM     90  H5  THR d   1     -17.733 -24.327   1.124  0.00  0.00     0.086 H 
BRANCH  89  91
ATOM     91  OG1 THR d   1     -16.959 -23.762   2.935  0.00  0.00    -0.393 OA
ATOM     92  H6  THR d   1     -16.706 -24.645   3.179  0.00  0.00     0.210 HD
ENDBRANCH  89  91
BRANCH  89  93
ATOM     93  CG2 THR d   1     -15.599 -24.084   0.846  0.00  0.00    -0.050 C 
ATOM     94  H7  THR d   1     -15.355 -25.111   1.155  0.00  0.00     0.031 H 
ATOM     95  H8  THR d   1     -14.797 -23.403   1.169  0.00  0.00     0.031 H 
ATOM     96  H9  THR d   1     -15.695 -24.044  -0.249  0.00  0.00     0.031 H 
ENDBRANCH  89  93
ENDBRANCH  83  89
ENDBRANCH  80  83
ENDBRANCH  77  79
BRANCH  77  97
ATOM     97  CB  LYS d   1     -15.691 -17.764   1.707  0.00  0.00    -0.038 C 
ATOM     98  H12 LYS d   1     -15.963 -17.645   2.766  0.00  0.00     0.036 H 
ATOM     99  H13 LYS d   1     -16.598 -17.708   1.087  0.00  0.00     0.036 H 
BRANCH  97 100
ATOM    100  CG  LYS d   1     -14.807 -16.587   1.329  0.00  0.00    -0.061 C 
ATOM    101  H14 LYS d   1     -13.956 -16.921   0.717  0.00  0.00     0.033 H 
ATOM    102  H15 LYS d   1     -14.434 -16.077   2.229  0.00  0.00     0.033 H 
BRANCH 100 103
ATOM    103  CD  LYS d   1     -15.702 -15.680   0.540  0.00  0.00    -0.043 C 
ATOM    104  H16 LYS d   1     -16.734 -15.837   0.887  0.00  0.00     0.035 H 
ATOM    105  H17 LYS d   1     -15.624 -15.966  -0.519  0.00  0.00     0.035 H 
BRANCH 103 106
ATOM    106  CE  LYS d   1     -15.397 -14.209   0.646  0.00  0.00     0.080 C 
ATOM    107  H18 LYS d   1     -14.382 -13.984   0.286  0.00  0.00     0.075 H 
ATOM    108  H19 LYS d   1     -15.507 -13.851   1.680  0.00  0.00     0.075 H 
BRANCH 106 109
ATOM    109  NZ  LYS d   1     -16.435 -13.612  -0.249  0.00  0.00    -0.079 N 
ATOM    110  H20 LYS d   1     -16.332 -12.609  -0.261  0.00  0.00     0.274 HD
ATOM    111  H21 LYS d   1     -17.352 -13.851   0.094  0.00  0.00     0.274 HD
ATOM    112  H22 LYS d   1     -16.321 -13.973  -1.183  0.00  0.00     0.274 HD
ENDBRANCH 106 109
ENDBRANCH 103 106
ENDBRANCH 100 103
ENDBRANCH  97 100
ENDBRANCH  77  97
ENDBRANCH  74  77
ENDBRANCH  71  73
BRANCH  71 113
ATOM    113  CB  GLN d   1     -10.730 -21.004   2.546  0.00  0.00    -0.049 C 
ATOM    114  H25 GLN d   1      -9.931 -21.188   3.280  0.00  0.00     0.030 H 
ATOM    115  H26 GLN d   1     -10.291 -20.608   1.618  0.00  0.00     0.030 H 
ATOM    116  H27 GLN d   1     -11.255 -21.947   2.331  0.00  0.00     0.030 H 
ENDBRANCH  71 113
ENDBRANCH  68  71
ENDBRANCH  65  67
BRANCH  65 117
ATOM    117  CB  GLU d   1      -8.409 -16.963   2.998  0.00  0.00    -0.049 C 
ATOM    118  H30 GLU d   1      -7.752 -16.132   3.293  0.00  0.00     0.030 H 
ATOM    119  H31 GLU d   1      -8.261 -17.188   1.931  0.00  0.00     0.030 H 
ATOM    120  H32 GLU d   1      -8.166 -17.853   3.597  0.00  0.00     0.030 H 
ENDBRANCH  65 117
ENDBRANCH   1  65
TORSDOF 33
