REMARK  9 active torsions:
REMARK  status: ('A' for Active; 'I' for Inactive)
REMARK    1  A    between atoms: C13_7  and  C27_21 
REMARK    2  A    between atoms: C14_8  and  C18_12 
REMARK    3  A    between atoms: C15_9  and  C33_27 
REMARK    4  A    between atoms: C18_12  and  C19_13 
REMARK    5  A    between atoms: C18_12  and  O20_14 
REMARK    6  A    between atoms: O20_14  and  C21_15 
REMARK    7  A    between atoms: C21_15  and  C22_16 
REMARK    8  A    between atoms: C21_15  and  C23_17 
REMARK    9  A    between atoms: C21_15  and  C24_18 
ROOT
ATOM      1  C1  LF2 d   1     -46.680  18.580  27.417  0.00  0.00     0.011 A 
ATOM      2  C2  LF2 d   1     -45.966  17.436  27.794  0.00  0.00    -0.053 A 
ATOM      3  C3  LF2 d   1     -46.646  16.208  27.830  0.00  0.00     0.006 A 
ATOM      4  C4  LF2 d   1     -48.015  16.197  27.489  0.00  0.00     0.068 A 
ATOM      5  C5  LF2 d   1     -48.727  17.363  27.110  0.00  0.00    -0.053 A 
ATOM      6  C6  LF2 d   1     -48.024  18.557  27.059  0.00  0.00    -0.064 A 
ATOM      7  C13 LF2 d   1     -46.010  15.006  28.235  0.00  0.00    -0.002 A 
ATOM      8  C14 LF2 d   1     -46.764  13.815  28.242  0.00  0.00     0.017 A 
ATOM      9  C15 LF2 d   1     -48.142  13.860  27.883  0.00  0.00     0.041 A 
ATOM     10  N16 LF2 d   1     -48.704  15.031  27.520  0.00  0.00    -0.253 NA
ATOM     11 BR1  LF2 d   1     -45.753  20.217  27.347  0.00  0.00    -0.051 Br
ATOM     12  H1  LF2 d   1     -44.915  17.497  28.052  0.00  0.00     0.087 H 
ATOM     13  H2  LF2 d   1     -49.783  17.323  26.869  0.00  0.00     0.087 H 
ATOM     14  H3  LF2 d   1     -48.519  19.468  26.742  0.00  0.00     0.085 H 
ENDROOT
BRANCH   8  15
ATOM     15  C18 LF2 d   1     -46.097  12.556  28.616  0.00  0.00     0.151 C 
ATOM     16  H4  LF2 d   1     -45.005  12.685  28.583  0.00  0.00     0.108 H 
BRANCH  15  17
ATOM     17  C19 LF2 d   1     -46.529  12.123  29.985  0.00  0.00     0.208 C 
ATOM     18  O25 LF2 d   1     -46.552  10.895  30.251  0.00  0.00    -0.646 OA
ATOM     19  O26 LF2 d   1     -46.855  13.014  30.787  0.00  0.00    -0.646 OA
ENDBRANCH  15  17
BRANCH  15  20
ATOM     20  O20 LF2 d   1     -46.509  11.538  27.716  0.00  0.00    -0.360 OA
BRANCH  20  21
ATOM     21  C21 LF2 d   1     -45.793  11.407  26.480  0.00  0.00     0.051 C 
BRANCH  21  22
ATOM     22  C22 LF2 d   1     -44.263  11.471  26.587  0.00  0.00    -0.048 C 
ATOM     23  H5  LF2 d   1     -43.821  11.360  25.586  0.00  0.00     0.031 H 
ATOM     24  H6  LF2 d   1     -43.907  10.659  27.237  0.00  0.00     0.031 H 
ATOM     25  H7  LF2 d   1     -43.965  12.440  27.014  0.00  0.00     0.031 H 
ENDBRANCH  21  22
BRANCH  21  26
ATOM     26  C23 LF2 d   1     -46.195  10.044  25.946  0.00  0.00    -0.048 C 
ATOM     27  H8  LF2 d   1     -45.685   9.860  24.989  0.00  0.00     0.031 H 
ATOM     28  H9  LF2 d   1     -47.284  10.017  25.793  0.00  0.00     0.031 H 
ATOM     29  H10 LF2 d   1     -45.907   9.267  26.670  0.00  0.00     0.031 H 
ENDBRANCH  21  26
BRANCH  21  30
ATOM     30  C24 LF2 d   1     -46.279  12.454  25.486  0.00  0.00    -0.048 C 
ATOM     31  H11 LF2 d   1     -45.726  12.347  24.541  0.00  0.00     0.031 H 
ATOM     32  H12 LF2 d   1     -46.108  13.459  25.899  0.00  0.00     0.031 H 
ATOM     33  H13 LF2 d   1     -47.354  12.312  25.300  0.00  0.00     0.031 H 
ENDBRANCH  21  30
ENDBRANCH  20  21
ENDBRANCH  15  20
ENDBRANCH   8  15
BRANCH   7  34
ATOM     34  C27 LF2 d   1     -44.555  14.957  28.572  0.00  0.00    -0.024 A 
ATOM     35  C28 LF2 d   1     -44.142  14.707  29.880  0.00  0.00    -0.071 A 
ATOM     36  C29 LF2 d   1     -42.786  14.658  30.190  0.00  0.00    -0.061 A 
ATOM     37  H14 LF2 d   1     -44.880  14.550  30.659  0.00  0.00     0.084 H 
ATOM     38  C30 LF2 d   1     -41.875  14.862  29.147  0.00  0.00     0.034 A 
ATOM     39  H15 LF2 d   1     -42.448  14.469  31.202  0.00  0.00     0.086 H 
ATOM     40  C31 LF2 d   1     -42.266  15.107  27.815  0.00  0.00    -0.061 A 
ATOM     41 CL1  LF2 d   1     -40.154  14.795  29.509  0.00  0.00    -0.084 Cl
ATOM     42  C32 LF2 d   1     -43.634  15.176  27.513  0.00  0.00    -0.071 A 
ATOM     43  H16 LF2 d   1     -41.522  15.240  27.038  0.00  0.00     0.086 H 
ATOM     44  H17 LF2 d   1     -43.976  15.389  26.507  0.00  0.00     0.084 H 
ENDBRANCH   7  34
BRANCH   9  45
ATOM     45  C33 LF2 d   1     -49.107  12.706  27.868  0.00  0.00    -0.035 C 
ATOM     46  H18 LF2 d   1     -50.097  13.060  27.546  0.00  0.00     0.035 H 
ATOM     47  H19 LF2 d   1     -49.182  12.277  28.878  0.00  0.00     0.035 H 
ATOM     48  H20 LF2 d   1     -48.748  11.937  27.169  0.00  0.00     0.035 H 
ENDBRANCH   9  45
TORSDOF 9
