REMARK  27 active torsions:
REMARK  status: ('A' for Active; 'I' for Inactive)
REMARK    1  A    between atoms: CA_1  and  C_2 
REMARK    2  A    between atoms: CA_1  and  CB_4 
REMARK    3  A    between atoms: CB_4  and  CG_5 
REMARK    4  A    between atoms: CG_5  and  CD_6 
REMARK    5  A    between atoms: CD_6  and  C6_7 
REMARK    6  A    between atoms: N_8  and  CA_9 
REMARK    7  A    between atoms: CA_9  and  C_10 
REMARK    8  A    between atoms: CA_9  and  CB_12 
REMARK       I    between atoms: C_10  and  N_17 
REMARK    9  A    between atoms: CB_12  and  CG_13 
REMARK   10  A    between atoms: CG_13  and  CD_14 
REMARK       I    between atoms: CD_14  and  NE2_16 
REMARK   11  A    between atoms: N_17  and  CA_18 
REMARK   12  A    between atoms: CB_21  and  CG2_23 
REMARK   13  A    between atoms: CB_26  and  CG_27 
REMARK   14  A    between atoms: C_32  and  O_33 
REMARK   15  A    between atoms: CD_36  and  OE1_37 
REMARK   16  A    between atoms: CA_39  and  CB_42 
REMARK   17  A    between atoms: C_40  and  O_41 
REMARK   18  A    between atoms: CB_42  and  CG_43 
REMARK   19  A    between atoms: N_49  and  CM_61 
REMARK   20  A    between atoms: CA_50  and  CB_53 
REMARK   21  A    between atoms: C_51  and  O_52 
REMARK   22  A    between atoms: CB_53  and  CG_54 
REMARK   23  A    between atoms: CZ_60  and  OH_59 
REMARK   24  A    between atoms: CA_63  and  CB_66 
REMARK   25  A    between atoms: C_64  and  O_65 
REMARK   26  A    between atoms: CB_66  and  CG1_67 
REMARK   27  A    between atoms: CB_66  and  CG2_68 
ROOT
ATOM      1  CA  THR d   1      11.449   9.114   0.912  0.00  0.00     0.114 C 
ATOM      2  C   THR d   1      11.227   7.938  -0.021  0.00  0.00     0.247 C 
ATOM      3  O   THR d   1      11.635   7.929  -1.185  0.00  0.00    -0.271 OA
ATOM      4  CB  THR d   1      10.207  10.051   0.923  0.00  0.00     0.066 C 
ATOM      5  OG1 THR d   1      10.215  10.937  -0.214  0.00  0.00    -0.352 OA
ATOM      6  H21 THR d   1      11.615   8.728   1.929  0.00  0.00     0.091 H 
ATOM      7  H22 THR d   1       9.301   9.428   0.919  0.00  0.00     0.086 H 
ATOM      8  N   DBU d   1      10.527   6.883   0.474  0.00  0.00    -0.321 N 
ATOM      9  CA  DBU d   1      10.283   5.692  -0.146  0.00  0.00     0.099 C 
ATOM     10  CB  DBU d   1      10.893   4.532   0.227  0.00  0.00    -0.075 C 
ATOM     11  C   DBU d   1       9.330   5.578  -1.250  0.00  0.00     0.268 C 
ATOM     12  O   DBU d   1       8.993   4.444  -1.611  0.00  0.00    -0.266 OA
ATOM     13  H26 DBU d   1      10.149   6.992   1.394  0.00  0.00     0.169 HD
ATOM     14  H27 DBU d   1      10.620   3.614  -0.291  0.00  0.00     0.080 H 
ATOM     15  N   GLJ d   1       8.773   6.680  -1.769  0.00  0.00    -0.347 N 
ATOM     16  CA  GLJ d   1       7.635   6.546  -2.702  0.00  0.00     0.062 C 
ATOM     17  C   GLJ d   1       8.006   6.732  -4.183  0.00  0.00     0.215 C 
ATOM     18  CB  GLJ d   1       6.490   7.437  -2.217  0.00  0.00    -0.038 C 
ATOM     19  CG  GLJ d   1       5.505   7.520  -3.375  0.00  0.00    -0.015 C 
ATOM     20  CD  GLJ d   1       6.101   8.319  -4.556  0.00  0.00     0.195 C 
ATOM     21  H31 GLJ d   1       9.124   7.585  -1.527  0.00  0.00     0.163 HD
ATOM     22  H32 GLJ d   1       7.281   5.508  -2.617  0.00  0.00     0.079 H 
ATOM     23  H33 GLJ d   1       7.675   5.773  -4.607  0.00  0.00     0.132 H 
ATOM     24  H35 GLJ d   1       6.866   8.439  -1.963  0.00  0.00     0.036 H 
ATOM     25  H36 GLJ d   1       6.006   6.992  -1.335  0.00  0.00     0.036 H 
ATOM     26  H37 GLJ d   1       4.587   8.019  -3.031  0.00  0.00     0.039 H 
ATOM     27  H38 GLJ d   1       5.264   6.502  -3.715  0.00  0.00     0.039 H 
ATOM     28  H39 GLJ d   1       5.370   8.338  -5.377  0.00  0.00     0.129 H 
ATOM     29  N   PHE d   1       7.330   7.675  -5.019  0.00  0.00    -0.008 N 
ATOM     30  CA  PHE d   1       7.865   7.894  -6.389  0.00  0.00     0.162 C 
ATOM     31  C   PHE d   1       7.681   9.414  -6.521  0.00  0.00     0.220 C 
ATOM     32  H41 PHE d   1       7.883   8.436  -4.657  0.00  0.00     0.286 HD
ATOM     33  H42 PHE d   1       8.917   7.594  -6.503  0.00  0.00     0.092 H 
ATOM     34  H43 PHE d   1       7.140   9.624  -5.586  0.00  0.00     0.132 H 
ATOM     35  N   YNM d   1       8.803  10.307  -6.366  0.00  0.00    -0.038 N 
ATOM     36  CA  YNM d   1      10.018   9.752  -5.777  0.00  0.00     0.159 C 
ATOM     37  C   YNM d   1      10.302  10.408  -4.431  0.00  0.00     0.218 C 
ATOM     38  H52 YNM d   1       9.139  10.108  -7.295  0.00  0.00     0.283 HD
ATOM     39  H53 YNM d   1       9.859   8.678  -5.598  0.00  0.00     0.092 H 
ATOM     40  H54 YNM d   1      10.661   9.550  -3.844  0.00  0.00     0.132 H 
ATOM     41  N   VAL d   1       9.176  10.871  -3.661  0.00  0.00    -0.038 N 
ATOM     42  CA  VAL d   1       9.477  11.551  -2.447  0.00  0.00     0.154 C 
ATOM     43  C   VAL d   1       9.816  10.470  -1.434  0.00  0.00     0.156 C 
ATOM     44  H66 VAL d   1       8.611  10.069  -3.431  0.00  0.00     0.281 HD
ATOM     45  H67 VAL d   1       8.645  11.501  -4.242  0.00  0.00     0.281 HD
ATOM     46  H68 VAL d   1      10.398  12.131  -2.609  0.00  0.00     0.092 H 
ATOM     47  H69 VAL d   1      10.722   9.999  -1.844  0.00  0.00     0.132 H 
ENDROOT
BRANCH   1  48
ATOM     48  N   THR d   1      12.619   9.890   0.500  0.00  0.00    -0.344 N 
ATOM     49  C   GLN d   1      13.768   9.207   0.524  0.00  0.00     0.241 C 
ATOM     50  O   GLN d   1      13.869   8.046   0.871  0.00  0.00    -0.271 OA
ATOM     51  H20 THR d   1      12.564  10.850   0.224  0.00  0.00     0.163 HD
BRANCH  49  52
ATOM     52  CA  GLN d   1      14.966   9.984   0.074  0.00  0.00     0.089 C 
ATOM     53  H13 GLN d   1      14.676  11.022  -0.146  0.00  0.00     0.087 H 
BRANCH  52  54
ATOM     54  N   GLN d   1      15.946   9.959   1.160  0.00  0.00    -0.359 N 
ATOM     55  C   6NA d   1      16.657  10.953   1.480  0.00  0.00     0.152 C 
ATOM     56  O   6NA d   1      16.620  12.104   0.833  0.00  0.00    -0.177 OA
ATOM     57  H12 GLN d   1      16.059   9.110   1.676  0.00  0.00     0.162 HD
BRANCH  55  58
ATOM     58  CA  6NA d   1      17.614  10.772   2.635  0.00  0.00    -0.003 C 
ATOM     59  H1  6NA d   1      18.593  10.470   2.235  0.00  0.00     0.045 H 
ATOM     60  H2  6NA d   1      17.226   9.979   3.291  0.00  0.00     0.045 H 
BRANCH  58  61
ATOM     61  CB  6NA d   1      17.794  12.022   3.449  0.00  0.00    -0.058 C 
ATOM     62  H3  6NA d   1      18.078  12.858   2.793  0.00  0.00     0.033 H 
ATOM     63  H4  6NA d   1      18.578  11.867   4.205  0.00  0.00     0.033 H 
BRANCH  61  64
ATOM     64  CG  6NA d   1      16.486  12.324   4.124  0.00  0.00    -0.065 C 
ATOM     65  H5  6NA d   1      16.120  11.408   4.611  0.00  0.00     0.033 H 
ATOM     66  H6  6NA d   1      15.762  12.649   3.363  0.00  0.00     0.033 H 
BRANCH  64  67
ATOM     67  CD  6NA d   1      16.616  13.407   5.163  0.00  0.00    -0.069 C 
ATOM     68  H7  6NA d   1      17.252  13.040   5.983  0.00  0.00     0.032 H 
ATOM     69  H8  6NA d   1      15.616  13.648   5.554  0.00  0.00     0.032 H 
BRANCH  67  70
ATOM     70  C6  6NA d   1      17.236  14.668   4.586  0.00  0.00    -0.077 C 
ATOM     71  H9  6NA d   1      17.313  15.432   5.374  0.00  0.00     0.027 H 
ATOM     72  H10 6NA d   1      16.604  15.046   3.769  0.00  0.00     0.027 H 
ATOM     73  H11 6NA d   1      18.239  14.439   4.198  0.00  0.00     0.027 H 
ENDBRANCH  67  70
ENDBRANCH  64  67
ENDBRANCH  61  64
ENDBRANCH  58  61
ENDBRANCH  55  58
ENDBRANCH  52  54
BRANCH  52  74
ATOM     74  CB  GLN d   1      15.568   9.352  -1.173  0.00  0.00    -0.030 C 
ATOM     75  H14 GLN d   1      15.846   8.312  -0.949  0.00  0.00     0.037 H 
ATOM     76  H15 GLN d   1      16.466   9.917  -1.463  0.00  0.00     0.037 H 
BRANCH  74  77
ATOM     77  CG  GLN d   1      14.582   9.363  -2.328  0.00  0.00     0.011 C 
ATOM     78  H16 GLN d   1      14.136  10.368  -2.363  0.00  0.00     0.047 H 
ATOM     79  H17 GLN d   1      13.802   8.623  -2.095  0.00  0.00     0.047 H 
BRANCH  77  80
ATOM     80  CD  GLN d   1      15.032   9.087  -3.563  0.00  0.00     0.215 C 
ATOM     81  OE1 GLN d   1      16.213   8.831  -3.706  0.00  0.00    -0.274 OA
ATOM     82  NE2 GLN d   1      14.208   9.052  -4.607  0.00  0.00    -0.370 N 
ATOM     83  H18 GLN d   1      14.564   8.844  -5.518  0.00  0.00     0.159 HD
ATOM     84  H19 GLN d   1      13.233   9.233  -4.481  0.00  0.00     0.159 HD
ENDBRANCH  77  80
ENDBRANCH  74  77
ENDBRANCH  52  74
ENDBRANCH  49  52
ENDBRANCH   1  48
BRANCH   4  85
ATOM     85  CG2 THR d   1      10.176  11.000   2.100  0.00  0.00    -0.050 C 
ATOM     86  H23 THR d   1       9.274  11.628   2.041  0.00  0.00     0.031 H 
ATOM     87  H24 THR d   1      11.070  11.640   2.079  0.00  0.00     0.031 H 
ATOM     88  H25 THR d   1      10.161  10.423   3.036  0.00  0.00     0.031 H 
ENDBRANCH   4  85
BRANCH  43  89
ATOM     89  O   VAL d   1       8.891   9.425  -1.377  0.00  0.00    -0.369 OA
ATOM     90  H70 VAL d   1       9.273   8.691  -0.910  0.00  0.00     0.212 HD
ENDBRANCH  43  89
BRANCH  10  91
ATOM     91  CG  DBU d   1      11.920   4.458   1.314  0.00  0.00    -0.057 C 
ATOM     92  H28 DBU d   1      12.261   3.418   1.426  0.00  0.00     0.032 H 
ATOM     93  H29 DBU d   1      11.478   4.803   2.260  0.00  0.00     0.032 H 
ATOM     94  H30 DBU d   1      12.776   5.098   1.054  0.00  0.00     0.032 H 
ENDBRANCH  10  91
BRANCH  42  95
ATOM     95  CB  VAL d   1       8.418  12.576  -2.064  0.00  0.00    -0.029 C 
ATOM     96  H71 VAL d   1       8.719  13.019  -1.103  0.00  0.00     0.042 H 
BRANCH  95  97
ATOM     97  CG1 VAL d   1       8.489  13.666  -3.139  0.00  0.00    -0.071 C 
ATOM     98  H72 VAL d   1       7.743  14.445  -2.921  0.00  0.00     0.028 H 
ATOM     99  H73 VAL d   1       8.280  13.224  -4.124  0.00  0.00     0.028 H 
ATOM    100  H74 VAL d   1       9.495  14.112  -3.143  0.00  0.00     0.028 H 
ENDBRANCH  95  97
BRANCH  95 101
ATOM    101  CG2 VAL d   1       7.001  12.043  -1.861  0.00  0.00    -0.071 C 
ATOM    102  H75 VAL d   1       7.009  11.267  -1.082  0.00  0.00     0.028 H 
ATOM    103  H76 VAL d   1       6.633  11.612  -2.804  0.00  0.00     0.028 H 
ATOM    104  H77 VAL d   1       6.340  12.866  -1.551  0.00  0.00     0.028 H 
ENDBRANCH  95 101
ENDBRANCH  42  95
BRANCH  37 105
ATOM    105  O   YNM d   1      11.383  11.318  -4.340  0.00  0.00    -0.368 OA
ATOM    106  H55 YNM d   1      12.113  10.993  -4.854  0.00  0.00     0.212 HD
ENDBRANCH  37 105
BRANCH  17 107
ATOM    107  O   GLJ d   1       9.380   6.745  -4.447  0.00  0.00    -0.368 OA
ATOM    108  H34 GLJ d   1       9.726   7.614  -4.278  0.00  0.00     0.212 HD
ENDBRANCH  17 107
BRANCH  36 109
ATOM    109  CB  YNM d   1      11.189   9.899  -6.783  0.00  0.00    -0.010 C 
ATOM    110  H56 YNM d   1      12.153   9.754  -6.273  0.00  0.00     0.043 H 
ATOM    111  H57 YNM d   1      11.168  10.893  -7.253  0.00  0.00     0.043 H 
BRANCH 109 112
ATOM    112  CG  YNM d   1      10.974   8.821  -7.821  0.00  0.00    -0.056 A 
ATOM    113  CD1 YNM d   1      11.519   7.552  -7.624  0.00  0.00    -0.074 A 
ATOM    114  CE1 YNM d   1      11.342   6.532  -8.571  0.00  0.00    -0.051 A 
ATOM    115  H58 YNM d   1      12.089   7.351  -6.724  0.00  0.00     0.084 H 
ATOM    116  CZ  YNM d   1      10.595   6.795  -9.708  0.00  0.00     0.065 A 
ATOM    117  H60 YNM d   1      11.783   5.554  -8.416  0.00  0.00     0.087 H 
ATOM    118  CE2 YNM d   1      10.043   8.062  -9.919  0.00  0.00    -0.051 A 
ATOM    119  CD2 YNM d   1      10.239   9.084  -8.985  0.00  0.00    -0.074 A 
ATOM    120  H61 YNM d   1       9.459   8.253 -10.812  0.00  0.00     0.087 H 
ATOM    121  H59 YNM d   1       9.826  10.071  -9.160  0.00  0.00     0.084 H 
BRANCH 116 122
ATOM    122  OH  YNM d   1      10.427   5.799 -10.618  0.00  0.00    -0.361 OA
ATOM    123  H62 YNM d   1      10.867   5.015 -10.312  0.00  0.00     0.217 HD
ENDBRANCH 116 122
ENDBRANCH 109 112
ENDBRANCH  36 109
BRANCH  35 124
ATOM    124  CM  YNM d   1       8.631  11.710  -6.706  0.00  0.00     0.070 C 
ATOM    125  H63 YNM d   1       7.629  11.864  -7.133  0.00  0.00     0.068 H 
ATOM    126  H64 YNM d   1       9.393  12.005  -7.443  0.00  0.00     0.068 H 
ATOM    127  H65 YNM d   1       8.741  12.323  -5.800  0.00  0.00     0.068 H 
ENDBRANCH  35 124
BRANCH  20 128
ATOM    128  OE1 GLJ d   1       6.394   9.639  -4.174  0.00  0.00    -0.369 OA
ATOM    129  H40 GLJ d   1       5.600  10.064  -3.872  0.00  0.00     0.212 HD
ENDBRANCH  20 128
BRANCH  30 130
ATOM    130  CB  PHE d   1       6.947   7.082  -7.348  0.00  0.00    -0.010 C 
ATOM    131  H45 PHE d   1       7.252   7.281  -8.386  0.00  0.00     0.043 H 
ATOM    132  H46 PHE d   1       5.906   7.407  -7.203  0.00  0.00     0.043 H 
BRANCH 130 133
ATOM    133  CG  PHE d   1       7.036   5.598  -7.089  0.00  0.00    -0.056 A 
ATOM    134  CD1 PHE d   1       6.047   4.938  -6.341  0.00  0.00    -0.077 A 
ATOM    135  CE1 PHE d   1       6.190   3.562  -6.105  0.00  0.00    -0.082 A 
ATOM    136  H47 PHE d   1       5.192   5.480  -5.954  0.00  0.00     0.084 H 
ATOM    137  CZ  PHE d   1       7.259   2.838  -6.627  0.00  0.00    -0.083 A 
ATOM    138  H49 PHE d   1       5.450   3.050  -5.501  0.00  0.00     0.083 H 
ATOM    139  CE2 PHE d   1       8.222   3.498  -7.374  0.00  0.00    -0.082 A 
ATOM    140  H51 PHE d   1       7.337   1.771  -6.451  0.00  0.00     0.083 H 
ATOM    141  CD2 PHE d   1       8.115   4.880  -7.588  0.00  0.00    -0.077 A 
ATOM    142  H50 PHE d   1       9.057   2.947  -7.792  0.00  0.00     0.083 H 
ATOM    143  H48 PHE d   1       8.885   5.395  -8.151  0.00  0.00     0.084 H 
ENDBRANCH 130 133
ENDBRANCH  30 130
BRANCH  31 144
ATOM    144  O   PHE d   1       6.734   9.806  -7.475  0.00  0.00    -0.368 OA
ATOM    145  H44 PHE d   1       7.151   9.868  -8.326  0.00  0.00     0.212 HD
ENDBRANCH  31 144
TORSDOF 27
