REMARK WARNING: 32 MAX_TORS EXCEEDED!!!
REMARK  35 active torsions:
REMARK  status: ('A' for Active; 'I' for Inactive)
REMARK    1  A    between atoms: N_1  and  CA_2 
REMARK    2  A    between atoms: CA_8  and  CB_11 
REMARK    3  A    between atoms: CB_11  and  CG_12 
REMARK    4  A    between atoms: CG_12  and  CD_13 
REMARK       I    between atoms: CD_13  and  NE2_15 
REMARK    5  A    between atoms: CA_17  and  CB_20 
REMARK    6  A    between atoms: CB_20  and  CG_21 
REMARK    7  A    between atoms: CA_28  and  CB_31 
REMARK    8  A    between atoms: CB_31  and  CG_32 
REMARK    9  A    between atoms: CA_36  and  CB_39 
REMARK   10  A    between atoms: CB_39  and  CG_40 
REMARK   11  A    between atoms: CG_40  and  CD1_41 
REMARK   12  A    between atoms: CG_40  and  CD2_42 
REMARK   13  A    between atoms: CA_44  and  CB_47 
REMARK   14  A    between atoms: CB_47  and  OG_48 
REMARK   15  A    between atoms: CA_50  and  CB_53 
REMARK   16  A    between atoms: CB_53  and  OG1_54 
REMARK   17  A    between atoms: CB_53  and  CG2_55 
REMARK   18  A    between atoms: CA_57  and  CB_60 
REMARK   19  A    between atoms: CB_60  and  CG_61 
REMARK   20  A    between atoms: CG_61  and  CD_62 
REMARK   21  A    between atoms: CD_62  and  NE_63 
REMARK       I    between atoms: NE_63  and  CZ_64 
REMARK       I    between atoms: CZ_64  and  NH1_65 
REMARK       I    between atoms: CZ_64  and  NH2_66 
REMARK   22  A    between atoms: CA_68  and  CB_71 
REMARK   23  A    between atoms: CB_71  and  CG_72 
REMARK   24  A    between atoms: CG_72  and  CD_73 
REMARK   25  A    between atoms: CD_73  and  NE_74 
REMARK       I    between atoms: NE_74  and  CZ_75 
REMARK       I    between atoms: CZ_75  and  NH1_76 
REMARK   26  A    between atoms: CA_79  and  CB_82 
REMARK   27  A    between atoms: CB_82  and  CG_83 
REMARK   28  A    between atoms: CG_83  and  CD1_84 
REMARK   29  A    between atoms: CG_83  and  CD2_85 
REMARK   30  A    between atoms: CA_87  and  CB_90 
REMARK   31  A    between atoms: CB_90  and  CG_91 
REMARK   32  A    between atoms: CG_91  and  CD_92 
REMARK   33  A    between atoms: CD_92  and  CE_93 
REMARK   34  A    between atoms: CE_93  and  NZ_94 
REMARK   35  A    between atoms: CA_96  and  C_97 
ROOT
ATOM      1  CA  CYS d   1      16.068   8.477  30.396  0.00  0.00     0.184 C 
ATOM      2  C   CYS d   1      15.325   7.527  29.465  0.00  0.00     0.249 C 
ATOM      3  O   CYS d   1      15.286   7.739  28.255  0.00  0.00    -0.271 OA
ATOM      4  CB  CYS d   1      16.424   7.767  31.703  0.00  0.00     0.021 C 
ATOM      5  SG  CYS d   1      17.289   8.807  32.906  0.00  0.00    -0.095 SA
ATOM      6  N   CYS d   1      13.239  10.969  33.707  0.00  0.00    -0.344 N 
ATOM      7  CA  CYS d   1      14.185  12.076  33.824  0.00  0.00     0.105 C 
ATOM      8  CB  CYS d   1      15.552  11.692  33.252  0.00  0.00     0.015 C 
ATOM      9  SG  CYS d   1      16.248  10.191  33.966  0.00  0.00    -0.095 SA
ATOM     10  H4  CYS d   1      17.000   8.789  29.903  0.00  0.00     0.100 H 
ATOM     11  H5  CYS d   1      17.069   6.908  31.464  0.00  0.00     0.054 H 
ATOM     12  H6  CYS d   1      15.492   7.409  32.165  0.00  0.00     0.054 H 
ATOM     13 1H10 CYS d   1      12.938  10.510  34.543  0.00  0.00     0.163 HD
ATOM     14 2H10 CYS d   1      14.317  12.281  34.897  0.00  0.00     0.090 H 
ATOM     15 3H10 CYS d   1      16.251  12.521  33.439  0.00  0.00     0.054 H 
ATOM     16 4H10 CYS d   1      15.444  11.541  32.168  0.00  0.00     0.054 H 
ATOM     17  N   GLN d   1      14.735   6.480  30.032  0.00  0.00    -0.346 N 
ATOM     18  CA  GLN d   1      13.993   5.507  29.240  0.00  0.00     0.090 C 
ATOM     19  C   GLN d   1      12.489   5.678  29.409  0.00  0.00     0.241 C 
ATOM     20  O   GLN d   1      12.029   6.505  30.196  0.00  0.00    -0.271 OA
ATOM     21  H7  GLN d   1      14.801   6.357  31.022  0.00  0.00     0.163 HD
ATOM     22  H8  GLN d   1      14.241   5.671  28.181  0.00  0.00     0.087 H 
ATOM     23  N   PHE d   1      11.734   4.877  28.667  0.00  0.00    -0.346 N 
ATOM     24  CA  PHE d   1      10.279   4.911  28.713  0.00  0.00     0.093 C 
ATOM     25  C   PHE d   1       9.758   4.180  29.945  0.00  0.00     0.241 C 
ATOM     26  O   PHE d   1      10.201   3.074  30.256  0.00  0.00    -0.271 OA
ATOM     27  H15 PHE d   1      12.181   4.226  28.054  0.00  0.00     0.163 HD
ATOM     28  H16 PHE d   1       9.954   5.961  28.768  0.00  0.00     0.088 H 
ATOM     29  N   ASP d   1       8.815   4.806  30.643  0.00  0.00    -0.345 N 
ATOM     30  CA  ASP d   1       8.250   4.229  31.858  0.00  0.00     0.098 C 
ATOM     31  C   ASP d   1       6.897   3.578  31.583  0.00  0.00     0.241 C 
ATOM     32  O   ASP d   1       5.953   4.244  31.161  0.00  0.00    -0.271 OA
ATOM     33  H24 ASP d   1       8.485   5.695  30.327  0.00  0.00     0.163 HD
ATOM     34  H25 ASP d   1       8.938   3.451  32.221  0.00  0.00     0.088 H 
ATOM     35  N   LEU d   1       6.812   2.277  31.834  0.00  0.00    -0.346 N 
ATOM     36  CA  LEU d   1       5.599   1.510  31.565  0.00  0.00     0.089 C 
ATOM     37  C   LEU d   1       4.442   1.892  32.486  0.00  0.00     0.241 C 
ATOM     38  O   LEU d   1       3.276   1.695  32.146  0.00  0.00    -0.271 OA
ATOM     39  N   LEU d   1       8.355   9.327  29.322  0.00  0.00    -0.346 N 
ATOM     40  CA  LEU d   1       9.806   9.205  29.387  0.00  0.00     0.089 C 
ATOM     41  C   LEU d   1      10.307   9.722  30.726  0.00  0.00     0.241 C 
ATOM     42  O   LEU d   1       9.850  10.755  31.212  0.00  0.00    -0.271 OA
ATOM     43  H28 LEU d   1       7.605   1.807  32.220  0.00  0.00     0.163 HD
ATOM     44  H29 LEU d   1       5.290   1.721  30.531  0.00  0.00     0.087 H 
ATOM     45  H77 LEU d   1       7.948  10.073  28.795  0.00  0.00     0.163 HD
ATOM     46  H78 LEU d   1      10.076   8.143  29.292  0.00  0.00     0.087 H 
ATOM     47  N   SER d   1       4.770   2.438  33.654  0.00  0.00    -0.344 N 
ATOM     48  CA  SER d   1       3.759   2.798  34.643  0.00  0.00     0.109 C 
ATOM     49  C   SER d   1       2.992   4.060  34.253  0.00  0.00     0.243 C 
ATOM     50  O   SER d   1       1.774   4.135  34.418  0.00  0.00    -0.271 OA
ATOM     51  H39 SER d   1       5.734   2.606  33.860  0.00  0.00     0.163 HD
ATOM     52  H40 SER d   1       3.039   1.968  34.708  0.00  0.00     0.090 H 
ATOM     53  N   THR d   1       3.712   5.049  33.733  0.00  0.00    -0.344 N 
ATOM     54  CA  THR d   1       3.124   6.352  33.441  0.00  0.00     0.113 C 
ATOM     55  C   THR d   1       2.971   6.606  31.946  0.00  0.00     0.243 C 
ATOM     56  O   THR d   1       2.372   7.602  31.537  0.00  0.00    -0.271 OA
ATOM     57  H44 THR d   1       4.681   4.896  33.537  0.00  0.00     0.163 HD
ATOM     58  H45 THR d   1       2.127   6.384  33.904  0.00  0.00     0.091 H 
ATOM     59  N   ARG d   1       3.518   5.699  31.141  0.00  0.00    -0.346 N 
ATOM     60  CA  ARG d   1       3.581   5.867  29.690  0.00  0.00     0.089 C 
ATOM     61  C   ARG d   1       4.299   7.160  29.312  0.00  0.00     0.241 C 
ATOM     62  O   ARG d   1       3.952   7.812  28.328  0.00  0.00    -0.271 OA
ATOM     63  N   ARG d   1       5.305   7.516  30.103  0.00  0.00    -0.346 N 
ATOM     64  CA  ARG d   1       6.067   8.739  29.883  0.00  0.00     0.089 C 
ATOM     65  C   ARG d   1       7.563   8.463  29.952  0.00  0.00     0.241 C 
ATOM     66  O   ARG d   1       7.994   7.487  30.562  0.00  0.00    -0.271 OA
ATOM     67  H51 ARG d   1       3.902   4.869  31.545  0.00  0.00     0.163 HD
ATOM     68  H52 ARG d   1       4.167   5.029  29.285  0.00  0.00     0.087 H 
ATOM     69  H64 ARG d   1       5.547   6.926  30.874  0.00  0.00     0.163 HD
ATOM     70  H65 ARG d   1       5.827   9.125  28.881  0.00  0.00     0.087 H 
ATOM     71  N   LYS d   1      11.249   8.996  31.325  0.00  0.00    -0.346 N 
ATOM     72  CA  LYS d   1      11.783   9.375  32.627  0.00  0.00     0.089 C 
ATOM     73  C   LYS d   1      12.759  10.542  32.541  0.00  0.00     0.241 C 
ATOM     74  O   LYS d   1      13.071  11.033  31.455  0.00  0.00    -0.271 OA
ATOM     75  H88 LYS d   1      11.597   8.175  30.873  0.00  0.00     0.163 HD
ATOM     76  H89 LYS d   1      10.936   9.688  33.255  0.00  0.00     0.087 H 
ENDROOT
BRANCH  60  77
ATOM     77  CB  ARG d   1       2.188   5.811  29.053  0.00  0.00    -0.036 C 
ATOM     78  H53 ARG d   1       2.302   5.893  27.962  0.00  0.00     0.036 H 
ATOM     79  H54 ARG d   1       1.602   6.664  29.425  0.00  0.00     0.036 H 
BRANCH  77  80
ATOM     80  CG  ARG d   1       1.424   4.535  29.360  0.00  0.00    -0.048 C 
ATOM     81  H55 ARG d   1       1.038   4.589  30.388  0.00  0.00     0.035 H 
ATOM     82  H56 ARG d   1       2.109   3.679  29.270  0.00  0.00     0.035 H 
BRANCH  80  83
ATOM     83  CD  ARG d   1       0.258   4.336  28.405  0.00  0.00     0.009 C 
ATOM     84  H57 ARG d   1       0.641   4.317  27.374  0.00  0.00     0.064 H 
ATOM     85  H58 ARG d   1      -0.444   5.175  28.520  0.00  0.00     0.064 H 
BRANCH  83  86
ATOM     86  NE  ARG d   1      -0.451   3.087  28.669  0.00  0.00    -0.227 N 
ATOM     87  CZ  ARG d   1      -1.454   2.626  27.929  0.00  0.00     0.665 C 
ATOM     88  NH1 ARG d   1      -1.869   3.309  26.870  0.00  0.00    -0.235 N 
ATOM     89  NH2 ARG d   1      -2.040   1.480  28.248  0.00  0.00    -0.235 N 
ATOM     90  H60 ARG d   1      -2.647   2.950  26.298  0.00  0.00     0.174 HD
ATOM     91  H61 ARG d   1      -1.414   4.198  26.620  0.00  0.00     0.174 HD
ATOM     92  H62 ARG d   1      -1.719   0.949  29.070  0.00  0.00     0.174 HD
ATOM     93  H63 ARG d   1      -2.816   1.121  27.674  0.00  0.00     0.174 HD
ATOM     94  H59 ARG d   1      -0.155   2.527  29.481  0.00  0.00     0.177 HD
ENDBRANCH  83  86
ENDBRANCH  80  83
ENDBRANCH  77  80
ENDBRANCH  60  77
BRANCH  54  95
ATOM     95  CB  THR d   1       3.980   7.485  34.028  0.00  0.00     0.060 C 
ATOM     96  H46 THR d   1       3.481   8.447  33.842  0.00  0.00     0.086 H 
BRANCH  95  97
ATOM     97  OG1 THR d   1       5.268   7.488  33.397  0.00  0.00    -0.393 OA
ATOM     98  H47 THR d   1       5.697   6.654  33.551  0.00  0.00     0.210 HD
ENDBRANCH  95  97
BRANCH  95  99
ATOM     99  CG2 THR d   1       4.155   7.297  35.522  0.00  0.00    -0.050 C 
ATOM    100  H48 THR d   1       4.769   8.116  35.925  0.00  0.00     0.031 H 
ATOM    101  H49 THR d   1       4.653   6.335  35.715  0.00  0.00     0.031 H 
ATOM    102  H50 THR d   1       3.169   7.303  36.010  0.00  0.00     0.031 H 
ENDBRANCH  95  99
ENDBRANCH  54  95
BRANCH  64 103
ATOM    103  CB  ARG d   1       5.688   9.797  30.921  0.00  0.00    -0.036 C 
ATOM    104  H66 ARG d   1       6.367  10.654  30.801  0.00  0.00     0.036 H 
ATOM    105  H67 ARG d   1       5.822   9.360  31.922  0.00  0.00     0.036 H 
BRANCH 103 106
ATOM    106  CG  ARG d   1       4.261  10.304  30.813  0.00  0.00    -0.048 C 
ATOM    107  H68 ARG d   1       4.069  11.011  31.634  0.00  0.00     0.035 H 
ATOM    108  H69 ARG d   1       3.571   9.451  30.894  0.00  0.00     0.035 H 
BRANCH 106 109
ATOM    109  CD  ARG d   1       4.024  11.010  29.485  0.00  0.00     0.009 C 
ATOM    110  H70 ARG d   1       3.046  11.512  29.520  0.00  0.00     0.064 H 
ATOM    111  H71 ARG d   1       4.022  10.260  28.680  0.00  0.00     0.064 H 
BRANCH 109 112
ATOM    112  NE  ARG d   1       5.053  12.006  29.197  0.00  0.00    -0.227 N 
ATOM    113  CZ  ARG d   1       5.098  13.220  29.738  0.00  0.00     0.665 C 
ATOM    114  NH1 ARG d   1       4.172  13.598  30.610  0.00  0.00    -0.235 N 
ATOM    115  NH2 ARG d   1       6.074  14.057  29.411  0.00  0.00    -0.235 N 
ATOM    116  H73 ARG d   1       4.211  14.539  31.027  0.00  0.00     0.174 HD
ATOM    117  H74 ARG d   1       3.415  12.950  30.870  0.00  0.00     0.174 HD
ATOM    118  H75 ARG d   1       6.795  13.768  28.735  0.00  0.00     0.174 HD
ATOM    119  H76 ARG d   1       6.111  14.996  29.834  0.00  0.00     0.174 HD
ATOM    120  H72 ARG d   1       5.794  11.751  28.529  0.00  0.00     0.177 HD
ENDBRANCH 109 112
ENDBRANCH 106 109
ENDBRANCH 103 106
ENDBRANCH  64 103
BRANCH  48 121
ATOM    121  CB  SER d   1       4.402   2.990  36.020  0.00  0.00     0.044 C 
ATOM    122  H41 SER d   1       3.616   3.223  36.754  0.00  0.00     0.077 H 
ATOM    123  H42 SER d   1       5.116   3.825  35.969  0.00  0.00     0.077 H 
BRANCH 121 124
ATOM    124  OG  SER d   1       5.087   1.822  36.433  0.00  0.00    -0.398 OA
ATOM    125  H43 SER d   1       4.474   1.098  36.483  0.00  0.00     0.209 HD
ENDBRANCH 121 124
ENDBRANCH  48 121
BRANCH  40 126
ATOM    126  CB  LEU d   1      10.465   9.981  28.247  0.00  0.00    -0.035 C 
ATOM    127  H79 LEU d   1      11.555   9.892  28.363  0.00  0.00     0.037 H 
ATOM    128  H80 LEU d   1      10.171  11.037  28.343  0.00  0.00     0.037 H 
BRANCH 126 129
ATOM    129  CG  LEU d   1      10.104   9.519  26.836  0.00  0.00    -0.059 C 
ATOM    130  H81 LEU d   1       9.012   9.579  26.721  0.00  0.00     0.038 H 
BRANCH 129 131
ATOM    131  CD1 LEU d   1      10.743  10.426  25.795  0.00  0.00    -0.073 C 
ATOM    132  H82 LEU d   1      10.471  10.077  24.788  0.00  0.00     0.028 H 
ATOM    133  H83 LEU d   1      11.837  10.401  25.909  0.00  0.00     0.028 H 
ATOM    134  H84 LEU d   1      10.383  11.456  25.935  0.00  0.00     0.028 H 
ENDBRANCH 129 131
BRANCH 129 135
ATOM    135  CD2 LEU d   1      10.527   8.075  26.628  0.00  0.00    -0.073 C 
ATOM    136  H85 LEU d   1      10.053   7.441  27.391  0.00  0.00     0.028 H 
ATOM    137  H86 LEU d   1      11.621   7.997  26.714  0.00  0.00     0.028 H 
ATOM    138  H87 LEU d   1      10.213   7.742  25.628  0.00  0.00     0.028 H 
ENDBRANCH 129 135
ENDBRANCH 126 129
ENDBRANCH  40 126
BRANCH  36 139
ATOM    139  CB  LEU d   1       5.887   0.012  31.686  0.00  0.00    -0.035 C 
ATOM    140  H30 LEU d   1       4.932  -0.524  31.585  0.00  0.00     0.037 H 
ATOM    141  H31 LEU d   1       6.306  -0.171  32.687  0.00  0.00     0.037 H 
BRANCH 139 142
ATOM    142  CG  LEU d   1       6.860  -0.568  30.658  0.00  0.00    -0.059 C 
ATOM    143  H32 LEU d   1       7.752   0.075  30.622  0.00  0.00     0.038 H 
BRANCH 142 144
ATOM    144  CD1 LEU d   1       7.296  -1.965  31.060  0.00  0.00    -0.073 C 
ATOM    145  H33 LEU d   1       7.994  -2.362  30.308  0.00  0.00     0.028 H 
ATOM    146  H34 LEU d   1       6.415  -2.620  31.124  0.00  0.00     0.028 H 
ATOM    147  H35 LEU d   1       7.795  -1.926  32.039  0.00  0.00     0.028 H 
ENDBRANCH 142 144
BRANCH 142 148
ATOM    148  CD2 LEU d   1       6.222  -0.581  29.278  0.00  0.00    -0.073 C 
ATOM    149  H36 LEU d   1       5.914   0.440  29.007  0.00  0.00     0.028 H 
ATOM    150  H37 LEU d   1       5.341  -1.240  29.288  0.00  0.00     0.028 H 
ATOM    151  H38 LEU d   1       6.949  -0.952  28.541  0.00  0.00     0.028 H 
ENDBRANCH 142 148
ENDBRANCH 139 142
ENDBRANCH  36 139
BRANCH  72 152
ATOM    152  CB  LYS d   1      12.469   8.186  33.306  0.00  0.00    -0.038 C 
ATOM    153  H90 LYS d   1      12.969   8.552  34.215  0.00  0.00     0.036 H 
ATOM    154  H91 LYS d   1      13.221   7.782  32.612  0.00  0.00     0.036 H 
BRANCH 152 155
ATOM    155  CG  LYS d   1      11.534   7.053  33.703  0.00  0.00    -0.061 C 
ATOM    156  H92 LYS d   1      11.104   6.605  32.795  0.00  0.00     0.033 H 
ATOM    157  H93 LYS d   1      10.726   7.455  34.332  0.00  0.00     0.033 H 
BRANCH 155 158
ATOM    158  CD  LYS d   1      12.287   5.983  34.480  0.00  0.00    -0.043 C 
ATOM    159  H94 LYS d   1      12.786   6.452  35.340  0.00  0.00     0.035 H 
ATOM    160  H95 LYS d   1      13.042   5.529  33.821  0.00  0.00     0.035 H 
BRANCH 158 161
ATOM    161  CE  LYS d   1      11.355   4.893  34.986  0.00  0.00     0.080 C 
ATOM    162  H96 LYS d   1      10.893   4.398  34.119  0.00  0.00     0.075 H 
ATOM    163  H97 LYS d   1      10.573   5.360  35.602  0.00  0.00     0.075 H 
BRANCH 161 164
ATOM    164  NZ  LYS d   1      12.053   3.858  35.808  0.00  0.00    -0.079 N 
ATOM    165  H98 LYS d   1      11.387   3.166  36.113  0.00  0.00     0.274 HD
ATOM    166  H99 LYS d   1      12.475   4.296  36.612  0.00  0.00     0.274 HD
ATOM    167 0H10 LYS d   1      12.768   3.414  35.253  0.00  0.00     0.274 HD
ENDBRANCH 161 164
ENDBRANCH 158 161
ENDBRANCH 155 158
ENDBRANCH 152 155
ENDBRANCH  72 152
BRANCH  30 168
ATOM    168  CB  ASP d   1       8.115   5.299  32.944  0.00  0.00     0.043 C 
ATOM    169  H26 ASP d   1       7.423   6.076  32.588  0.00  0.00     0.052 H 
ATOM    170  H27 ASP d   1       9.105   5.744  33.124  0.00  0.00     0.052 H 
BRANCH 168 171
ATOM    171  CG  ASP d   1       7.587   4.742  34.254  0.00  0.00     0.175 C 
ATOM    172  OD1 ASP d   1       7.784   3.537  34.518  0.00  0.00    -0.648 OA
ATOM    173  OD2 ASP d   1       6.977   5.513  35.024  0.00  0.00    -0.648 OA
ENDBRANCH 168 171
ENDBRANCH  30 168
BRANCH   7 174
ATOM    174  C   CYS d   1      13.673  13.361  33.174  0.00  0.00     0.197 C 
ATOM    175  O   CYS d   1      13.981  14.487  33.648  0.00  0.00    -0.646 OA
ATOM    176  O   CYS d   1      12.936  13.293  32.154  0.00  0.00    -0.646 OA
ENDBRANCH   7 174
BRANCH  24 177
ATOM    177  CB  PHE d   1       9.705   4.287  27.440  0.00  0.00    -0.014 C 
ATOM    178  H17 PHE d   1      10.133   3.280  27.324  0.00  0.00     0.043 H 
ATOM    179  H18 PHE d   1      10.000   4.912  26.584  0.00  0.00     0.043 H 
BRANCH 177 180
ATOM    180  CG  PHE d   1       8.209   4.167  27.444  0.00  0.00    -0.056 A 
ATOM    181  CD1 PHE d   1       7.412   5.273  27.211  0.00  0.00    -0.077 A 
ATOM    182  CE1 PHE d   1       6.034   5.164  27.211  0.00  0.00    -0.082 A 
ATOM    183  H19 PHE d   1       7.873   6.236  27.026  0.00  0.00     0.084 H 
ATOM    184  CZ  PHE d   1       5.438   3.941  27.442  0.00  0.00    -0.083 A 
ATOM    185  H21 PHE d   1       5.421   6.040  27.029  0.00  0.00     0.083 H 
ATOM    186  CE2 PHE d   1       6.219   2.832  27.673  0.00  0.00    -0.082 A 
ATOM    187  H23 PHE d   1       4.357   3.854  27.442  0.00  0.00     0.083 H 
ATOM    188  CD2 PHE d   1       7.599   2.946  27.671  0.00  0.00    -0.077 A 
ATOM    189  H22 PHE d   1       5.754   1.870  27.856  0.00  0.00     0.083 H 
ATOM    190  H20 PHE d   1       8.209   2.068  27.849  0.00  0.00     0.084 H 
ENDBRANCH 177 180
ENDBRANCH  24 177
BRANCH   1 191
ATOM    191  N   CYS d   1      15.270   9.665  30.665  0.00  0.00    -0.066 N 
ATOM    192  H1  CYS d   1      15.779  10.279  31.282  0.00  0.00     0.275 HD
ATOM    193  H2  CYS d   1      14.402   9.395  31.101  0.00  0.00     0.275 HD
ATOM    194  H3  CYS d   1      15.077  10.143  29.799  0.00  0.00     0.275 HD
ENDBRANCH   1 191
BRANCH  18 195
ATOM    195  CB  GLN d   1      14.397   4.078  29.613  0.00  0.00    -0.030 C 
ATOM    196  H9  GLN d   1      13.673   3.386  29.158  0.00  0.00     0.037 H 
ATOM    197  H10 GLN d   1      14.355   3.983  30.708  0.00  0.00     0.037 H 
BRANCH 195 198
ATOM    198  CG  GLN d   1      15.793   3.678  29.153  0.00  0.00     0.011 C 
ATOM    199  H11 GLN d   1      16.530   4.289  29.695  0.00  0.00     0.047 H 
ATOM    200  H12 GLN d   1      15.877   3.875  28.074  0.00  0.00     0.047 H 
BRANCH 198 201
ATOM    201  CD  GLN d   1      16.100   2.211  29.404  0.00  0.00     0.215 C 
ATOM    202  OE1 GLN d   1      17.044   1.656  28.839  0.00  0.00    -0.274 OA
ATOM    203  NE2 GLN d   1      15.303   1.574  30.255  0.00  0.00    -0.370 N 
ATOM    204  H13 GLN d   1      15.459   0.607  30.458  0.00  0.00     0.159 HD
ATOM    205  H14 GLN d   1      14.547   2.061  30.693  0.00  0.00     0.159 HD
ENDBRANCH 198 201
ENDBRANCH 195 198
ENDBRANCH  18 195
TORSDOF 35
