REMARK  32 active torsions:
REMARK  status: ('A' for Active; 'I' for Inactive)
REMARK    1  A    between atoms: N_1  and  CA_2 
REMARK    2  A    between atoms: CA_8  and  CB_11 
REMARK    3  A    between atoms: CB_11  and  CG_12 
REMARK    4  A    between atoms: CG_12  and  CD_13 
REMARK       I    between atoms: CD_13  and  NE2_15 
REMARK    5  A    between atoms: CA_17  and  CB_20 
REMARK    6  A    between atoms: CB_20  and  CG_21 
REMARK    7  A    between atoms: CZ_26  and  OH_27 
REMARK    8  A    between atoms: CA_29  and  CB_32 
REMARK    9  A    between atoms: CB_32  and  CG_33 
REMARK       I    between atoms: CG_33  and  ND2_35 
REMARK   10  A    between atoms: CA_37  and  CB_40 
REMARK   11  A    between atoms: CB_40  and  CG_41 
REMARK   12  A    between atoms: CG_41  and  CD1_42 
REMARK   13  A    between atoms: CG_41  and  CD2_43 
REMARK   14  A    between atoms: CA_45  and  CB_48 
REMARK   15  A    between atoms: CB_48  and  OG_49 
REMARK   16  A    between atoms: CA_51  and  CB_54 
REMARK   17  A    between atoms: CB_54  and  OG_55 
REMARK   18  A    between atoms: CA_57  and  CB_60 
REMARK   19  A    between atoms: CB_60  and  CG_61 
REMARK   20  A    between atoms: CG_61  and  CD_62 
REMARK   21  A    between atoms: CD_62  and  NE_63 
REMARK       I    between atoms: NE_63  and  CZ_64 
REMARK       I    between atoms: CZ_64  and  NH1_65 
REMARK   22  A    between atoms: CA_68  and  CB_71 
REMARK   23  A    between atoms: CA_73  and  CB_76 
REMARK   24  A    between atoms: CB_76  and  CG_77 
REMARK   25  A    between atoms: CG_77  and  CD1_78 
REMARK   26  A    between atoms: CG_77  and  CD2_79 
REMARK   27  A    between atoms: CA_81  and  CB_84 
REMARK   28  A    between atoms: CB_84  and  CG_85 
REMARK   29  A    between atoms: CG_85  and  CD_86 
REMARK   30  A    between atoms: CD_86  and  CE_87 
REMARK   31  A    between atoms: CE_87  and  NZ_88 
REMARK   32  A    between atoms: CA_90  and  C_91 
ROOT
ATOM      1  CA  CYS d   1      15.955   8.306  28.162  0.00  0.00     0.184 C 
ATOM      2  C   CYS d   1      15.037   7.270  27.518  0.00  0.00     0.249 C 
ATOM      3  O   CYS d   1      15.109   7.022  26.311  0.00  0.00    -0.271 OA
ATOM      4  CB  CYS d   1      15.635   9.702  27.625  0.00  0.00     0.021 C 
ATOM      5  SG  CYS d   1      13.956  10.295  27.970  0.00  0.00    -0.095 SA
ATOM      6  N   CYS d   1      13.550  10.105  31.710  0.00  0.00    -0.344 N 
ATOM      7  CA  CYS d   1      14.942  10.486  31.489  0.00  0.00     0.105 C 
ATOM      8  CB  CYS d   1      15.010  11.826  30.759  0.00  0.00     0.015 C 
ATOM      9  SG  CYS d   1      14.049  11.896  29.227  0.00  0.00    -0.095 SA
ATOM     10  H4  CYS d   1      15.773   8.301  29.247  0.00  0.00     0.100 H 
ATOM     11  H5  CYS d   1      15.773   9.687  26.534  0.00  0.00     0.054 H 
ATOM     12  H6  CYS d   1      16.346  10.411  28.075  0.00  0.00     0.054 H 
ATOM     13  H93 CYS d   1      12.846  10.815  31.738  0.00  0.00     0.163 HD
ATOM     14  H94 CYS d   1      15.399   9.721  30.844  0.00  0.00     0.090 H 
ATOM     15  H95 CYS d   1      16.063  12.031  30.514  0.00  0.00     0.054 H 
ATOM     16  H96 CYS d   1      14.633  12.606  31.437  0.00  0.00     0.054 H 
ATOM     17  N   GLN d   1      14.166   6.671  28.322  0.00  0.00    -0.346 N 
ATOM     18  CA  GLN d   1      13.322   5.591  27.828  0.00  0.00     0.090 C 
ATOM     19  C   GLN d   1      11.910   5.584  28.409  0.00  0.00     0.241 C 
ATOM     20  O   GLN d   1      11.637   6.200  29.443  0.00  0.00    -0.271 OA
ATOM     21  H7  GLN d   1      14.089   6.964  29.275  0.00  0.00     0.163 HD
ATOM     22  H8  GLN d   1      13.222   5.731  26.742  0.00  0.00     0.087 H 
ATOM     23  N   TYR d   1      11.016   4.873  27.729  0.00  0.00    -0.346 N 
ATOM     24  CA  TYR d   1       9.628   4.777  28.154  0.00  0.00     0.093 C 
ATOM     25  C   TYR d   1       9.503   3.951  29.433  0.00  0.00     0.241 C 
ATOM     26  O   TYR d   1      10.105   2.881  29.556  0.00  0.00    -0.271 OA
ATOM     27  H15 TYR d   1      11.306   4.391  26.902  0.00  0.00     0.163 HD
ATOM     28  H16 TYR d   1       9.259   5.792  28.361  0.00  0.00     0.088 H 
ATOM     29  N   ASN d   1       8.725   4.463  30.383  0.00  0.00    -0.346 N 
ATOM     30  CA  ASN d   1       8.558   3.828  31.691  0.00  0.00     0.097 C 
ATOM     31  C   ASN d   1       7.145   3.266  31.825  0.00  0.00     0.241 C 
ATOM     32  O   ASN d   1       6.170   3.984  31.615  0.00  0.00    -0.271 OA
ATOM     33  H24 ASN d   1       8.235   5.315  30.196  0.00  0.00     0.163 HD
ATOM     34  H25 ASN d   1       9.278   3.001  31.779  0.00  0.00     0.088 H 
ATOM     35  N   LEU d   1       7.033   1.988  32.177  0.00  0.00    -0.346 N 
ATOM     36  CA  LEU d   1       5.735   1.307  32.139  0.00  0.00     0.089 C 
ATOM     37  C   LEU d   1       4.811   1.630  33.322  0.00  0.00     0.241 C 
ATOM     38  O   LEU d   1       3.594   1.458  33.222  0.00  0.00    -0.271 OA
ATOM     39  N   LEU d   1       7.964   8.985  29.029  0.00  0.00    -0.346 N 
ATOM     40  CA  LEU d   1       9.420   8.879  28.970  0.00  0.00     0.089 C 
ATOM     41  C   LEU d   1      10.033   9.193  30.341  0.00  0.00     0.241 C 
ATOM     42  O   LEU d   1       9.552  10.073  31.061  0.00  0.00    -0.271 OA
ATOM     43  H30 LEU d   1       7.845   1.485  32.472  0.00  0.00     0.163 HD
ATOM     44  H31 LEU d   1       5.221   1.666  31.236  0.00  0.00     0.087 H 
ATOM     45  H69 LEU d   1       7.490   9.666  28.471  0.00  0.00     0.163 HD
ATOM     46  H70 LEU d   1       9.670   7.836  28.724  0.00  0.00     0.087 H 
ATOM     47  N   SER d   1       5.390   2.098  34.430  0.00  0.00    -0.344 N 
ATOM     48  CA  SER d   1       4.626   2.482  35.621  0.00  0.00     0.109 C 
ATOM     49  C   SER d   1       4.065   3.904  35.513  0.00  0.00     0.243 C 
ATOM     50  O   SER d   1       2.897   4.151  35.823  0.00  0.00    -0.271 OA
ATOM     51  N   SER d   1       4.910   4.838  35.083  0.00  0.00    -0.344 N 
ATOM     52  CA  SER d   1       4.492   6.223  34.901  0.00  0.00     0.109 C 
ATOM     53  C   SER d   1       3.836   6.449  33.528  0.00  0.00     0.243 C 
ATOM     54  O   SER d   1       3.126   7.437  33.334  0.00  0.00    -0.271 OA
ATOM     55  H41 SER d   1       6.386   2.191  34.449  0.00  0.00     0.163 HD
ATOM     56  H42 SER d   1       3.779   1.787  35.717  0.00  0.00     0.090 H 
ATOM     57  H46 SER d   1       5.855   4.583  34.880  0.00  0.00     0.163 HD
ATOM     58  H47 SER d   1       3.736   6.445  35.669  0.00  0.00     0.090 H 
ATOM     59  N   ARG d   1       4.074   5.526  32.591  0.00  0.00    -0.346 N 
ATOM     60  CA  ARG d   1       3.533   5.609  31.220  0.00  0.00     0.089 C 
ATOM     61  C   ARG d   1       3.911   6.895  30.485  0.00  0.00     0.241 C 
ATOM     62  O   ARG d   1       3.057   7.573  29.915  0.00  0.00    -0.271 OA
ATOM     63  H51 ARG d   1       4.646   4.742  32.830  0.00  0.00     0.163 HD
ATOM     64  H52 ARG d   1       3.963   4.770  30.653  0.00  0.00     0.087 H 
ATOM     65  N   ALA d   1       5.202   7.210  30.521  0.00  0.00    -0.346 N 
ATOM     66  CA  ALA d   1       5.761   8.403  29.910  0.00  0.00     0.086 C 
ATOM     67  C   ALA d   1       7.268   8.177  29.824  0.00  0.00     0.240 C 
ATOM     68  O   ALA d   1       7.794   7.265  30.472  0.00  0.00    -0.271 OA
ATOM     69  H64 ALA d   1       5.825   6.589  30.997  0.00  0.00     0.163 HD
ATOM     70  H65 ALA d   1       5.343   8.544  28.902  0.00  0.00     0.086 H 
ATOM     71  N   LYS d   1      11.076   8.446  30.698  0.00  0.00    -0.346 N 
ATOM     72  CA  LYS d   1      11.711   8.543  32.013  0.00  0.00     0.089 C 
ATOM     73  C   LYS d   1      13.201   8.835  31.875  0.00  0.00     0.241 C 
ATOM     74  O   LYS d   1      14.023   7.924  31.926  0.00  0.00    -0.271 OA
ATOM     75  H80 LYS d   1      11.442   7.790  30.038  0.00  0.00     0.163 HD
ATOM     76  H81 LYS d   1      11.237   9.359  32.578  0.00  0.00     0.087 H 
ENDROOT
BRANCH  60  77
ATOM     77  CB  ARG d   1       2.017   5.446  31.218  0.00  0.00    -0.036 C 
ATOM     78  H53 ARG d   1       1.663   5.527  30.180  0.00  0.00     0.036 H 
ATOM     79  H54 ARG d   1       1.582   6.259  31.818  0.00  0.00     0.036 H 
BRANCH  77  80
ATOM     80  CG  ARG d   1       1.533   4.132  31.781  0.00  0.00    -0.048 C 
ATOM     81  H55 ARG d   1       0.460   4.211  32.008  0.00  0.00     0.035 H 
ATOM     82  H56 ARG d   1       2.088   3.910  32.705  0.00  0.00     0.035 H 
BRANCH  80  83
ATOM     83  CD  ARG d   1       1.747   3.015  30.798  0.00  0.00     0.009 C 
ATOM     84  H57 ARG d   1       2.822   2.789  30.736  0.00  0.00     0.064 H 
ATOM     85  H58 ARG d   1       1.381   3.329  29.809  0.00  0.00     0.064 H 
BRANCH  83  86
ATOM     86  NE  ARG d   1       1.031   1.818  31.214  0.00  0.00    -0.227 N 
ATOM     87  CZ  ARG d   1      -0.218   1.530  30.858  0.00  0.00     0.665 C 
ATOM     88  NH1 ARG d   1      -0.894   2.351  30.060  0.00  0.00    -0.235 N 
ATOM     89  NH2 ARG d   1      -0.788   0.417  31.300  0.00  0.00    -0.235 N 
ATOM     90  H60 ARG d   1      -1.861   2.124  29.787  0.00  0.00     0.174 HD
ATOM     91  H61 ARG d   1      -0.451   3.214  29.715  0.00  0.00     0.174 HD
ATOM     92  H62 ARG d   1      -0.265  -0.219  31.918  0.00  0.00     0.174 HD
ATOM     93  H63 ARG d   1      -1.754   0.189  31.025  0.00  0.00     0.174 HD
ATOM     94  H59 ARG d   1       1.524   1.150  31.824  0.00  0.00     0.177 HD
ENDBRANCH  83  86
ENDBRANCH  80  83
ENDBRANCH  77  80
ENDBRANCH  60  77
BRANCH  52  95
ATOM     95  CB  SER d   1       5.675   7.182  35.118  0.00  0.00     0.044 C 
ATOM     96  H48 SER d   1       6.158   6.942  36.077  0.00  0.00     0.077 H 
ATOM     97  H49 SER d   1       5.297   8.214  35.147  0.00  0.00     0.077 H 
BRANCH  95  98
ATOM     98  OG  SER d   1       6.634   7.072  34.079  0.00  0.00    -0.398 OA
ATOM     99  H50 SER d   1       7.349   7.676  34.244  0.00  0.00     0.209 HD
ENDBRANCH  95  98
ENDBRANCH  52  95
BRANCH  66 100
ATOM    100  CB  ALA d   1       5.447   9.631  30.763  0.00  0.00    -0.049 C 
ATOM    101  H66 ALA d   1       5.876  10.526  30.289  0.00  0.00     0.030 H 
ATOM    102  H67 ALA d   1       5.882   9.503  31.765  0.00  0.00     0.030 H 
ATOM    103  H68 ALA d   1       4.357   9.748  30.849  0.00  0.00     0.030 H 
ENDBRANCH  66 100
BRANCH  48 104
ATOM    104  CB  SER d   1       5.493   2.365  36.883  0.00  0.00     0.044 C 
ATOM    105  H43 SER d   1       4.917   2.723  37.749  0.00  0.00     0.077 H 
ATOM    106  H44 SER d   1       6.393   2.986  36.759  0.00  0.00     0.077 H 
BRANCH 104 107
ATOM    107  OG  SER d   1       5.885   1.023  37.111  0.00  0.00    -0.398 OA
ATOM    108  H45 SER d   1       5.111   0.483  37.222  0.00  0.00     0.209 HD
ENDBRANCH 104 107
ENDBRANCH  48 104
BRANCH  40 109
ATOM    109  CB  LEU d   1      10.008   9.764  27.864  0.00  0.00    -0.035 C 
ATOM    110  H71 LEU d   1      11.098   9.804  28.003  0.00  0.00     0.037 H 
ATOM    111  H72 LEU d   1       9.587  10.774  27.976  0.00  0.00     0.037 H 
BRANCH 109 112
ATOM    112  CG  LEU d   1       9.728   9.288  26.428  0.00  0.00    -0.059 C 
ATOM    113  H73 LEU d   1       8.639   9.171  26.327  0.00  0.00     0.038 H 
BRANCH 112 114
ATOM    114  CD1 LEU d   1      10.181  10.313  25.378  0.00  0.00    -0.073 C 
ATOM    115  H74 LEU d   1       9.960   9.928  24.371  0.00  0.00     0.028 H 
ATOM    116  H75 LEU d   1      11.263  10.485  25.476  0.00  0.00     0.028 H 
ATOM    117  H76 LEU d   1       9.644  11.260  25.535  0.00  0.00     0.028 H 
ENDBRANCH 112 114
BRANCH 112 118
ATOM    118  CD2 LEU d   1      10.366   7.929  26.167  0.00  0.00    -0.073 C 
ATOM    119  H77 LEU d   1      10.028   7.213  26.930  0.00  0.00     0.028 H 
ATOM    120  H78 LEU d   1      11.461   8.023  26.212  0.00  0.00     0.028 H 
ATOM    121  H79 LEU d   1      10.070   7.570  25.170  0.00  0.00     0.028 H 
ENDBRANCH 112 118
ENDBRANCH 109 112
ENDBRANCH  40 109
BRANCH  36 122
ATOM    122  CB  LEU d   1       5.920  -0.206  31.982  0.00  0.00    -0.035 C 
ATOM    123  H32 LEU d   1       4.922  -0.669  31.975  0.00  0.00     0.037 H 
ATOM    124  H33 LEU d   1       6.487  -0.569  32.852  0.00  0.00     0.037 H 
BRANCH 122 125
ATOM    125  CG  LEU d   1       6.660  -0.662  30.714  0.00  0.00    -0.059 C 
ATOM    126  H34 LEU d   1       7.643  -0.169  30.702  0.00  0.00     0.038 H 
BRANCH 125 127
ATOM    127  CD1 LEU d   1       6.886  -2.163  30.747  0.00  0.00    -0.073 C 
ATOM    128  H35 LEU d   1       7.416  -2.474  29.835  0.00  0.00     0.028 H 
ATOM    129  H36 LEU d   1       5.916  -2.679  30.802  0.00  0.00     0.028 H 
ATOM    130  H37 LEU d   1       7.490  -2.424  31.629  0.00  0.00     0.028 H 
ENDBRANCH 125 127
BRANCH 125 131
ATOM    131  CD2 LEU d   1       5.919  -0.256  29.439  0.00  0.00    -0.073 C 
ATOM    132  H38 LEU d   1       5.766   0.833  29.435  0.00  0.00     0.028 H 
ATOM    133  H39 LEU d   1       4.944  -0.764  29.404  0.00  0.00     0.028 H 
ATOM    134  H40 LEU d   1       6.515  -0.546  28.561  0.00  0.00     0.028 H 
ENDBRANCH 125 131
ENDBRANCH 122 125
ENDBRANCH  36 122
BRANCH  72 135
ATOM    135  CB  LYS d   1      11.525   7.228  32.776  0.00  0.00    -0.038 C 
ATOM    136  H82 LYS d   1      12.495   6.711  32.800  0.00  0.00     0.036 H 
ATOM    137  H83 LYS d   1      10.797   6.616  32.223  0.00  0.00     0.036 H 
BRANCH 135 138
ATOM    138  CG  LYS d   1      11.030   7.363  34.210  0.00  0.00    -0.061 C 
ATOM    139  H84 LYS d   1      10.727   6.371  34.575  0.00  0.00     0.033 H 
ATOM    140  H85 LYS d   1      10.163   8.040  34.224  0.00  0.00     0.033 H 
BRANCH 138 141
ATOM    141  CD  LYS d   1      12.099   7.919  35.134  0.00  0.00    -0.043 C 
ATOM    142  H86 LYS d   1      12.361   8.938  34.812  0.00  0.00     0.035 H 
ATOM    143  H87 LYS d   1      12.991   7.277  35.082  0.00  0.00     0.035 H 
BRANCH 141 144
ATOM    144  CE  LYS d   1      11.599   7.962  36.567  0.00  0.00     0.080 C 
ATOM    145  H88 LYS d   1      11.467   6.930  36.925  0.00  0.00     0.075 H 
ATOM    146  H89 LYS d   1      10.631   8.483  36.586  0.00  0.00     0.075 H 
BRANCH 144 147
ATOM    147  NZ  LYS d   1      12.539   8.668  37.485  0.00  0.00    -0.079 N 
ATOM    148  H90 LYS d   1      12.160   8.668  38.419  0.00  0.00     0.274 HD
ATOM    149  H91 LYS d   1      12.663   9.618  37.173  0.00  0.00     0.274 HD
ATOM    150  H92 LYS d   1      13.429   8.195  37.483  0.00  0.00     0.274 HD
ENDBRANCH 144 147
ENDBRANCH 141 144
ENDBRANCH 138 141
ENDBRANCH 135 138
ENDBRANCH  72 135
BRANCH  30 151
ATOM    151  CB  ASN d   1       8.834   4.843  32.802  0.00  0.00     0.036 C 
ATOM    152  H26 ASN d   1       8.046   5.610  32.781  0.00  0.00     0.051 H 
ATOM    153  H27 ASN d   1       9.809   5.315  32.612  0.00  0.00     0.051 H 
BRANCH 151 154
ATOM    154  CG  ASN d   1       8.861   4.214  34.182  0.00  0.00     0.217 C 
ATOM    155  OD1 ASN d   1       7.832   3.793  34.700  0.00  0.00    -0.274 OA
ATOM    156  ND2 ASN d   1      10.042   4.167  34.792  0.00  0.00    -0.370 N 
ATOM    157  H28 ASN d   1      10.118   3.763  35.704  0.00  0.00     0.159 HD
ATOM    158  H29 ASN d   1      10.854   4.536  34.339  0.00  0.00     0.159 HD
ENDBRANCH 151 154
ENDBRANCH  30 151
BRANCH   7 159
ATOM    159  C   CYS d   1      15.756  10.545  32.784  0.00  0.00     0.197 C 
ATOM    160  O   CYS d   1      15.343  11.197  33.780  0.00  0.00    -0.646 OA
ATOM    161  O   CYS d   1      16.855   9.932  32.855  0.00  0.00    -0.646 OA
ENDBRANCH   7 159
BRANCH  24 162
ATOM    162  CB  TYR d   1       8.776   4.172  27.042  0.00  0.00    -0.014 C 
ATOM    163  H17 TYR d   1       9.050   3.112  26.933  0.00  0.00     0.043 H 
ATOM    164  H18 TYR d   1       8.997   4.706  26.106  0.00  0.00     0.043 H 
BRANCH 162 165
ATOM    165  CG  TYR d   1       7.289   4.256  27.299  0.00  0.00    -0.056 A 
ATOM    166  CD1 TYR d   1       6.590   5.430  27.050  0.00  0.00    -0.074 A 
ATOM    167  CE1 TYR d   1       5.225   5.511  27.280  0.00  0.00    -0.051 A 
ATOM    168  H19 TYR d   1       7.120   6.296  26.670  0.00  0.00     0.084 H 
ATOM    169  CZ  TYR d   1       4.546   4.408  27.764  0.00  0.00     0.065 A 
ATOM    170  H21 TYR d   1       4.693   6.434  27.081  0.00  0.00     0.087 H 
ATOM    171  CE2 TYR d   1       5.219   3.230  28.020  0.00  0.00    -0.051 A 
ATOM    172  CD2 TYR d   1       6.583   3.160  27.788  0.00  0.00    -0.074 A 
ATOM    173  H22 TYR d   1       4.684   2.367  28.399  0.00  0.00     0.087 H 
ATOM    174  H20 TYR d   1       7.110   2.235  27.991  0.00  0.00     0.084 H 
BRANCH 169 175
ATOM    175  OH  TYR d   1       3.193   4.492  27.990  0.00  0.00    -0.361 OA
ATOM    176  H23 TYR d   1       2.889   5.363  27.764  0.00  0.00     0.217 HD
ENDBRANCH 169 175
ENDBRANCH 162 165
ENDBRANCH  24 162
BRANCH   1 177
ATOM    177  N   CYS d   1      17.360   7.981  27.933  0.00  0.00    -0.066 N 
ATOM    178  H1  CYS d   1      17.942   8.680  28.368  0.00  0.00     0.275 HD
ATOM    179  H2  CYS d   1      17.543   7.961  26.942  0.00  0.00     0.275 HD
ATOM    180  H3  CYS d   1      17.565   7.078  28.331  0.00  0.00     0.275 HD
ENDBRANCH   1 177
BRANCH  18 181
ATOM    181  CB  GLN d   1      14.002   4.241  28.064  0.00  0.00    -0.030 C 
ATOM    182  H9  GLN d   1      14.986   4.263  27.573  0.00  0.00     0.037 H 
ATOM    183  H10 GLN d   1      13.380   3.459  27.603  0.00  0.00     0.037 H 
BRANCH 181 184
ATOM    184  CG  GLN d   1      14.210   3.880  29.523  0.00  0.00     0.011 C 
ATOM    185  H11 GLN d   1      13.230   3.689  29.984  0.00  0.00     0.047 H 
ATOM    186  H12 GLN d   1      14.696   4.726  30.032  0.00  0.00     0.047 H 
BRANCH 184 187
ATOM    187  CD  GLN d   1      15.078   2.645  29.689  0.00  0.00     0.215 C 
ATOM    188  OE1 GLN d   1      16.060   2.460  28.965  0.00  0.00    -0.274 OA
ATOM    189  NE2 GLN d   1      14.715   1.787  30.639  0.00  0.00    -0.370 N 
ATOM    190  H13 GLN d   1      15.250   0.956  30.793  0.00  0.00     0.159 HD
ATOM    191  H14 GLN d   1      13.908   1.973  31.199  0.00  0.00     0.159 HD
ENDBRANCH 184 187
ENDBRANCH 181 184
ENDBRANCH  18 181
TORSDOF 32
