REMARK  9 active torsions:
REMARK  status: ('A' for Active; 'I' for Inactive)
REMARK    1  A    between atoms: C13_7  and  C27_21 
REMARK    2  A    between atoms: C14_8  and  C18_12 
REMARK    3  A    between atoms: C15_9  and  C33_27 
REMARK    4  A    between atoms: C18_12  and  C19_13 
REMARK    5  A    between atoms: C18_12  and  O20_14 
REMARK    6  A    between atoms: O20_14  and  C21_15 
REMARK    7  A    between atoms: C21_15  and  C22_16 
REMARK    8  A    between atoms: C21_15  and  C23_17 
REMARK    9  A    between atoms: C21_15  and  C24_18 
ROOT
ATOM      1  C1  LF2 d   1      29.959 -14.037  17.216  0.00  0.00     0.011 A 
ATOM      2  C2  LF2 d   1      29.049 -15.086  17.380  0.00  0.00    -0.053 A 
ATOM      3  C3  LF2 d   1      27.689 -14.895  17.209  0.00  0.00     0.006 A 
ATOM      4  C4  LF2 d   1      27.220 -13.632  16.869  0.00  0.00     0.068 A 
ATOM      5  C5  LF2 d   1      28.120 -12.560  16.702  0.00  0.00    -0.053 A 
ATOM      6  C6  LF2 d   1      29.496 -12.765  16.882  0.00  0.00    -0.064 A 
ATOM      7  C13 LF2 d   1      26.793 -15.952  17.367  0.00  0.00    -0.002 A 
ATOM      8  C14 LF2 d   1      25.431 -15.750  17.165  0.00  0.00     0.017 A 
ATOM      9  C15 LF2 d   1      24.979 -14.449  16.844  0.00  0.00     0.041 A 
ATOM     10  N16 LF2 d   1      25.884 -13.444  16.694  0.00  0.00    -0.253 NA
ATOM     11 BR1  LF2 d   1      31.797 -14.399  17.532  0.00  0.00    -0.051 Br
ATOM     12  H1  LF2 d   1      29.417 -16.070  17.647  0.00  0.00     0.087 H 
ATOM     13  H2  LF2 d   1      27.749 -11.577  16.434  0.00  0.00     0.087 H 
ATOM     14  H3  LF2 d   1      30.192 -11.943  16.763  0.00  0.00     0.085 H 
ENDROOT
BRANCH   8  15
ATOM     15  C18 LF2 d   1      24.531 -16.922  17.400  0.00  0.00     0.151 C 
ATOM     16  H4  LF2 d   1      25.139 -17.837  17.346  0.00  0.00     0.108 H 
BRANCH  15  17
ATOM     17  C19 LF2 d   1      23.984 -16.766  18.821  0.00  0.00     0.208 C 
ATOM     18  O25 LF2 d   1      22.816 -17.137  19.105  0.00  0.00    -0.646 OA
ATOM     19  O26 LF2 d   1      24.738 -16.279  19.704  0.00  0.00    -0.646 OA
ENDBRANCH  15  17
BRANCH  15  20
ATOM     20  O20 LF2 d   1      23.452 -17.068  16.461  0.00  0.00    -0.360 OA
BRANCH  20  21
ATOM     21  C21 LF2 d   1      23.590 -17.921  15.321  0.00  0.00     0.051 C 
BRANCH  21  22
ATOM     22  C22 LF2 d   1      24.317 -19.274  15.534  0.00  0.00    -0.048 C 
ATOM     23  H5  LF2 d   1      24.352 -19.825  14.583  0.00  0.00     0.031 H 
ATOM     24  H6  LF2 d   1      23.773 -19.869  16.282  0.00  0.00     0.031 H 
ATOM     25  H7  LF2 d   1      25.342 -19.088  15.888  0.00  0.00     0.031 H 
ENDBRANCH  21  22
BRANCH  21  26
ATOM     26  C23 LF2 d   1      22.183 -18.203  14.810  0.00  0.00    -0.048 C 
ATOM     27  H8  LF2 d   1      22.238 -18.859  13.929  0.00  0.00     0.031 H 
ATOM     28  H9  LF2 d   1      21.697 -17.256  14.533  0.00  0.00     0.031 H 
ATOM     29  H10 LF2 d   1      21.598 -18.698  15.600  0.00  0.00     0.031 H 
ENDBRANCH  21  26
BRANCH  21  30
ATOM     30  C24 LF2 d   1      24.271 -16.983  14.343  0.00  0.00    -0.048 C 
ATOM     31  H11 LF2 d   1      24.448 -17.509  13.393  0.00  0.00     0.031 H 
ATOM     32  H12 LF2 d   1      25.232 -16.650  14.763  0.00  0.00     0.031 H 
ATOM     33  H13 LF2 d   1      23.627 -16.110  14.164  0.00  0.00     0.031 H 
ENDBRANCH  21  30
ENDBRANCH  20  21
ENDBRANCH  15  20
ENDBRANCH   8  15
BRANCH   7  34
ATOM     34  C27 LF2 d   1      27.274 -17.313  17.701  0.00  0.00    -0.024 A 
ATOM     35  C28 LF2 d   1      27.158 -17.856  18.958  0.00  0.00    -0.071 A 
ATOM     36  C29 LF2 d   1      27.642 -19.144  19.157  0.00  0.00    -0.061 A 
ATOM     37  H14 LF2 d   1      26.704 -17.298  19.769  0.00  0.00     0.084 H 
ATOM     38  C30 LF2 d   1      28.247 -19.872  18.137  0.00  0.00     0.034 A 
ATOM     39  H15 LF2 d   1      27.545 -19.595  20.138  0.00  0.00     0.086 H 
ATOM     40  C31 LF2 d   1      28.361 -19.336  16.880  0.00  0.00    -0.061 A 
ATOM     41 CL1  LF2 d   1      28.820 -21.531  18.449  0.00  0.00    -0.084 Cl
ATOM     42  C32 LF2 d   1      27.867 -18.049  16.670  0.00  0.00    -0.071 A 
ATOM     43  H16 LF2 d   1      28.821 -19.896  16.074  0.00  0.00     0.086 H 
ATOM     44  H17 LF2 d   1      27.945 -17.608  15.683  0.00  0.00     0.084 H 
ENDBRANCH   7  34
BRANCH   9  45
ATOM     45  C33 LF2 d   1      23.528 -14.079  16.630  0.00  0.00    -0.035 C 
ATOM     46  H18 LF2 d   1      23.454 -13.007  16.393  0.00  0.00     0.035 H 
ATOM     47  H19 LF2 d   1      22.956 -14.293  17.545  0.00  0.00     0.035 H 
ATOM     48  H20 LF2 d   1      23.119 -14.668  15.796  0.00  0.00     0.035 H 
ENDBRANCH   9  45
TORSDOF 9
