REMARK  4 active torsions:
REMARK  status: ('A' for Active; 'I' for Inactive)
REMARK    1  A    between atoms: CAF_6  and  NAG_7 
REMARK    2  A    between atoms: NAG_7  and  CAH_8 
REMARK    3  A    between atoms: CAJ_10  and  CAN_14 
REMARK    4  A    between atoms: CAN_14  and  CAO_15 
ROOT
ATOM      1  CAH 3RA d   1     -18.084  35.888   0.741  0.00  0.00     0.730 A 
ATOM      2  NAI 3RA d   1     -19.061  36.819   0.755  0.00  0.00    -0.061 NA
ATOM      3  CAJ 3RA d   1     -19.168  37.295   2.007  0.00  0.00     0.128 A 
ATOM      4  CAK 3RA d   1     -18.228  36.596   2.757  0.00  0.00     0.309 A 
ATOM      5  NAL 3RA d   1     -17.583  35.733   1.957  0.00  0.00    -0.019 NA
ATOM      6  OAM 3RA d   1     -18.003  36.746   3.969  0.00  0.00    -0.263 OA
ENDROOT
BRANCH   3   7
ATOM      7  CAN 3RA d   1     -19.985  38.261   2.614  0.00  0.00     0.005 C 
ATOM      8  H7  3RA d   1     -19.329  38.903   3.220  0.00  0.00     0.049 H 
ATOM      9  H8  3RA d   1     -20.684  37.724   3.273  0.00  0.00     0.049 H 
BRANCH   7  10
ATOM     10  CAO 3RA d   1     -20.745  39.099   1.812  0.00  0.00    -0.050 A 
ATOM     11  CAP 3RA d   1     -21.062  38.743   0.484  0.00  0.00    -0.042 A 
ATOM     12  CAQ 3RA d   1     -21.793  39.595  -0.314  0.00  0.00     0.105 A 
ATOM     13  H9  3RA d   1     -20.727  37.791   0.088  0.00  0.00     0.088 H 
ATOM     14  CAR 3RA d   1     -22.257  40.796   0.212  0.00  0.00     0.105 A 
ATOM     15  OAU 3RA d   1     -22.225  39.465  -1.606  0.00  0.00    -0.323 OA
ATOM     16  CAS 3RA d   1     -21.958  41.144   1.527  0.00  0.00    -0.047 A 
ATOM     17  OAW 3RA d   1     -22.986  41.449  -0.740  0.00  0.00    -0.323 OA
ATOM     18  CAT 3RA d   1     -21.200  40.296   2.335  0.00  0.00    -0.074 A 
ATOM     19  H10 3RA d   1     -22.318  42.085   1.927  0.00  0.00     0.087 H 
ATOM     20  H11 3RA d   1     -20.971  40.571   3.358  0.00  0.00     0.084 H 
ATOM     21  CAV 3RA d   1     -22.789  40.714  -1.967  0.00  0.00     0.115 C 
ATOM     22  H12 3RA d   1     -23.752  40.562  -2.477  0.00  0.00     0.118 H 
ATOM     23  H13 3RA d   1     -22.104  41.262  -2.631  0.00  0.00     0.118 H 
ENDBRANCH   7  10
ENDBRANCH   3   7
BRANCH   1  24
ATOM     24  NAG 3RA d   1     -17.614  35.171  -0.278  0.00  0.00    -0.188 N 
ATOM     25  H6  3RA d   1     -16.880  34.483  -0.060  0.00  0.00     0.184 HD
BRANCH  24  26
ATOM     26  CAF 3RA d   1     -18.000  35.255  -1.557  0.00  0.00     0.049 A 
ATOM     27  CAA 3RA d   1     -17.024  35.083  -2.539  0.00  0.00    -0.057 A 
ATOM     28  CAB 3RA d   1     -17.369  35.135  -3.873  0.00  0.00    -0.081 A 
ATOM     29  H1  3RA d   1     -15.993  34.908  -2.253  0.00  0.00     0.086 H 
ATOM     30  CAC 3RA d   1     -18.697  35.325  -4.260  0.00  0.00    -0.083 A 
ATOM     31  H2  3RA d   1     -16.601  35.027  -4.630  0.00  0.00     0.083 H 
ATOM     32  CAD 3RA d   1     -19.689  35.481  -3.289  0.00  0.00    -0.081 A 
ATOM     33  H3  3RA d   1     -18.958  35.351  -5.312  0.00  0.00     0.083 H 
ATOM     34  CAE 3RA d   1     -19.341  35.441  -1.937  0.00  0.00    -0.057 A 
ATOM     35  H4  3RA d   1     -20.721  35.632  -3.583  0.00  0.00     0.083 H 
ATOM     36  H5  3RA d   1     -20.107  35.554  -1.178  0.00  0.00     0.086 H 
ENDBRANCH  24  26
ENDBRANCH   1  24
TORSDOF 4
