REMARK  23 active torsions:
REMARK  status: ('A' for Active; 'I' for Inactive)
REMARK    1  A    between atoms: O1_2  and  C1_1 
REMARK    2  A    between atoms: CAY_26  and  O1_2 
REMARK    3  A    between atoms: C2_3  and  O2_4 
REMARK    4  A    between atoms: O2_4  and  CAA_13 
REMARK    5  A    between atoms: C3_5  and  O3_6 
REMARK    6  A    between atoms: C4_7  and  O4_8 
REMARK    7  A    between atoms: C5_9  and  C6_11 
REMARK    8  A    between atoms: C6_11  and  O6_12 
REMARK    9  A    between atoms: CAB_14  and  OAG_19 
REMARK   10  A    between atoms: CAC_15  and  OAH_20 
REMARK   11  A    between atoms: CAD_16  and  OAI_21 
REMARK   12  A    between atoms: CAE_17  and  CAF_18 
REMARK   13  A    between atoms: CAV_23  and  OBE_32 
REMARK   14  A    between atoms: NBD_31  and  CAW_24 
REMARK   15  A    between atoms: CAX_25  and  OBF_33 
REMARK   16  A    between atoms: CAZ_27  and  CBA_28 
REMARK   17  A    between atoms: CBA_28  and  OBI_35 
REMARK   18  A    between atoms: CBB_29  and  CBC_30 
REMARK       I    between atoms: CBB_29  and  NBD_31 
REMARK   19  A    between atoms: OBF_33  and  CBK_37 
REMARK   20  A    between atoms: CBL_38  and  OBQ_43 
REMARK   21  A    between atoms: CBM_39  and  OBR_44 
REMARK   22  A    between atoms: CBN_40  and  OBS_45 
REMARK   23  A    between atoms: CBO_41  and  CBP_42 
ROOT
ATOM      1  CAV BDZ d   1      -4.218  -4.330 -23.899  0.00  0.00     0.151 C 
ATOM      2  CAW BDZ d   1      -3.585  -3.126 -23.206  0.00  0.00     0.087 C 
ATOM      3  CAX BDZ d   1      -3.181  -3.358 -21.783  0.00  0.00     0.093 C 
ATOM      4  CAY BDZ d   1      -4.448  -3.804 -21.177  0.00  0.00     0.096 C 
ATOM      5  CAZ BDZ d   1      -4.814  -5.071 -21.847  0.00  0.00     0.089 C 
ATOM      6  OBH BDZ d   1      -5.261  -4.872 -23.160  0.00  0.00    -0.349 OA
ATOM      7  H   BDZ d   1      -3.514  -5.147 -24.056  0.00  0.00     0.132 H 
ATOM      8  H   BDZ d   1      -4.345  -2.345 -23.198  0.00  0.00     0.084 H 
ATOM      9  H   BDZ d   1      -2.360  -4.045 -21.579  0.00  0.00     0.091 H 
ATOM     10  H   BDZ d   1      -5.173  -2.998 -21.288  0.00  0.00     0.091 H 
ATOM     11  H   BDZ d   1      -4.052  -5.843 -21.952  0.00  0.00     0.090 H 
ENDROOT
BRANCH   4  12
ATOM     12  O1  BDZ d   1      -4.326  -4.119 -19.810  0.00  0.00    -0.348 OA
BRANCH  12  13
ATOM     13  C1  BDZ d   1      -5.257  -3.594 -18.927  0.00  0.00     0.159 C 
ATOM     14  C2  BDZ d   1      -4.831  -4.125 -17.576  0.00  0.00     0.116 C 
ATOM     15  C3  BDZ d   1      -5.561  -3.359 -16.480  0.00  0.00     0.092 C 
ATOM     16  H   BDZ d   1      -3.754  -4.022 -17.444  0.00  0.00     0.095 H 
ATOM     17  C4  BDZ d   1      -5.465  -1.866 -16.686  0.00  0.00     0.090 C 
ATOM     18  H   BDZ d   1      -6.603  -3.674 -16.537  0.00  0.00     0.091 H 
ATOM     19  C5  BDZ d   1      -5.904  -1.542 -18.088  0.00  0.00     0.089 C 
ATOM     20  H   BDZ d   1      -6.096  -1.356 -15.958  0.00  0.00     0.091 H 
ATOM     21  O5  BDZ d   1      -5.108  -2.224 -19.030  0.00  0.00    -0.348 OA
ATOM     22  H   BDZ d   1      -6.945  -1.851 -18.178  0.00  0.00     0.090 H 
ATOM     23  H   BDZ d   1      -6.301  -3.852 -19.106  0.00  0.00     0.133 H 
BRANCH  14  24
ATOM     24  O2  BDZ d   1      -5.237  -5.438 -17.515  0.00  0.00    -0.346 OA
BRANCH  24  25
ATOM     25  CAA BDZ d   1      -4.373  -6.261 -16.732  0.00  0.00     0.159 C 
ATOM     26  CAB BDZ d   1      -5.040  -7.604 -16.500  0.00  0.00     0.110 C 
ATOM     27  CAC BDZ d   1      -5.171  -8.372 -17.779  0.00  0.00     0.092 C 
ATOM     28  H   BDZ d   1      -4.423  -8.189 -15.817  0.00  0.00     0.094 H 
ATOM     29  CAD BDZ d   1      -3.784  -8.564 -18.355  0.00  0.00     0.087 C 
ATOM     30  H   BDZ d   1      -5.792  -7.838 -18.498  0.00  0.00     0.091 H 
ATOM     31  CAE BDZ d   1      -3.194  -7.184 -18.551  0.00  0.00     0.065 C 
ATOM     32  H   BDZ d   1      -3.795  -9.087 -19.311  0.00  0.00     0.091 H 
ATOM     33  OAJ BDZ d   1      -3.131  -6.482 -17.344  0.00  0.00    -0.351 OA
ATOM     34  H   BDZ d   1      -3.859  -6.663 -19.240  0.00  0.00     0.086 H 
ATOM     35  H   BDZ d   1      -4.194  -5.736 -15.794  0.00  0.00     0.133 H 
BRANCH  26  36
ATOM     36  OAG BDZ d   1      -6.326  -7.386 -15.943  0.00  0.00    -0.388 OA
ATOM     37  H   BDZ d   1      -6.239  -6.894 -15.123  0.00  0.00     0.210 HD
ENDBRANCH  26  36
BRANCH  27  38
ATOM     38  OAH BDZ d   1      -5.754  -9.582 -17.510  0.00  0.00    -0.390 OA
ATOM     39  H   BDZ d   1      -5.217 -10.061 -16.875  0.00  0.00     0.210 HD
ENDBRANCH  27  38
BRANCH  29  40
ATOM     40  OAI BDZ d   1      -3.032  -9.339 -17.460  0.00  0.00    -0.390 OA
ATOM     41  H   BDZ d   1      -2.139  -9.441 -17.798  0.00  0.00     0.210 HD
ENDBRANCH  29  40
BRANCH  31  42
ATOM     42  CAF BDZ d   1      -1.812  -7.240 -19.159  0.00  0.00    -0.050 C 
ATOM     43  H   BDZ d   1      -1.150  -7.804 -18.502  0.00  0.00     0.031 H 
ATOM     44  H   BDZ d   1      -1.864  -7.730 -20.131  0.00  0.00     0.031 H 
ATOM     45  H   BDZ d   1      -1.429  -6.227 -19.281  0.00  0.00     0.031 H 
ENDBRANCH  31  42
ENDBRANCH  24  25
ENDBRANCH  14  24
BRANCH  15  46
ATOM     46  O3  BDZ d   1      -5.044  -3.655 -15.209  0.00  0.00    -0.390 OA
ATOM     47  H   BDZ d   1      -5.139  -4.595 -15.037  0.00  0.00     0.210 HD
ENDBRANCH  15  46
BRANCH  17  48
ATOM     48  O4  BDZ d   1      -4.145  -1.459 -16.533  0.00  0.00    -0.390 OA
ATOM     49  H   BDZ d   1      -3.844  -1.680 -15.649  0.00  0.00     0.210 HD
ENDBRANCH  17  48
BRANCH  19  50
ATOM     50  C6  BDZ d   1      -5.775  -0.090 -18.357  0.00  0.00     0.043 C 
ATOM     51  H   BDZ d   1      -4.731   0.225 -18.356  0.00  0.00     0.078 H 
ATOM     52  H   BDZ d   1      -6.260   0.504 -17.582  0.00  0.00     0.078 H 
BRANCH  50  53
ATOM     53  O6  BDZ d   1      -6.368   0.114 -19.603  0.00  0.00    -0.398 OA
ATOM     54  H   BDZ d   1      -5.907  -0.407 -20.265  0.00  0.00     0.209 HD
ENDBRANCH  50  53
ENDBRANCH  19  50
ENDBRANCH  12  13
ENDBRANCH   4  12
BRANCH   3  55
ATOM     55  OBF BDZ d   1      -2.919  -2.080 -21.363  0.00  0.00    -0.348 OA
BRANCH  55  56
ATOM     56  CBK BDZ d   1      -1.565  -1.762 -21.305  0.00  0.00     0.159 C 
ATOM     57  CBL BDZ d   1      -1.507  -0.256 -21.073  0.00  0.00     0.110 C 
ATOM     58  CBM BDZ d   1      -2.054   0.093 -19.700  0.00  0.00     0.092 C 
ATOM     59  H   BDZ d   1      -0.465   0.054 -21.154  0.00  0.00     0.094 H 
ATOM     60  CBN BDZ d   1      -1.381  -0.744 -18.628  0.00  0.00     0.087 C 
ATOM     61  H   BDZ d   1      -3.121  -0.131 -19.694  0.00  0.00     0.091 H 
ATOM     62  CBO BDZ d   1      -1.576  -2.194 -18.990  0.00  0.00     0.065 C 
ATOM     63  H   BDZ d   1      -1.815  -0.518 -17.654  0.00  0.00     0.091 H 
ATOM     64  OBT BDZ d   1      -0.914  -2.414 -20.213  0.00  0.00    -0.351 OA
ATOM     65  H   BDZ d   1      -2.628  -2.454 -19.104  0.00  0.00     0.086 H 
ATOM     66  H   BDZ d   1      -1.064  -2.079 -22.220  0.00  0.00     0.133 H 
BRANCH  57  67
ATOM     67  OBQ BDZ d   1      -2.313   0.414 -22.037  0.00  0.00    -0.388 OA
ATOM     68  H   BDZ d   1      -3.223   0.119 -21.953  0.00  0.00     0.210 HD
ENDBRANCH  57  67
BRANCH  58  69
ATOM     69  OBR BDZ d   1      -1.890   1.463 -19.429  0.00  0.00    -0.390 OA
ATOM     70  H   BDZ d   1      -2.321   1.978 -20.115  0.00  0.00     0.210 HD
ENDBRANCH  58  69
BRANCH  60  71
ATOM     71  OBS BDZ d   1      -0.007  -0.465 -18.580  0.00  0.00    -0.390 OA
ATOM     72  H   BDZ d   1       0.384  -0.640 -19.439  0.00  0.00     0.210 HD
ENDBRANCH  60  71
BRANCH  62  73
ATOM     73  CBP BDZ d   1      -1.005  -3.044 -17.883  0.00  0.00    -0.050 C 
ATOM     74  H   BDZ d   1       0.057  -2.827 -17.771  0.00  0.00     0.031 H 
ATOM     75  H   BDZ d   1      -1.523  -2.820 -16.951  0.00  0.00     0.031 H 
ATOM     76  H   BDZ d   1      -1.138  -4.097 -18.130  0.00  0.00     0.031 H 
ENDBRANCH  62  73
ENDBRANCH  55  56
ENDBRANCH   3  55
BRANCH   5  77
ATOM     77  CBA BDZ d   1      -5.978  -5.259 -20.957  0.00  0.00     0.043 C 
ATOM     78  H   BDZ d   1      -6.562  -4.339 -20.926  0.00  0.00     0.078 H 
ATOM     79  H   BDZ d   1      -5.631  -5.506 -19.954  0.00  0.00     0.078 H 
BRANCH  77  80
ATOM     80  OBI BDZ d   1      -6.778  -6.303 -21.443  0.00  0.00    -0.398 OA
ATOM     81  H   BDZ d   1      -7.083  -6.086 -22.327  0.00  0.00     0.209 HD
ENDBRANCH  77  80
ENDBRANCH   5  77
BRANCH   2  82
ATOM     82  NBD BDZ d   1      -2.393  -2.782 -23.929  0.00  0.00    -0.349 N 
ATOM     83  CBB BDZ d   1      -2.403  -1.790 -24.784  0.00  0.00     0.214 C 
ATOM     84  OBJ BDZ d   1      -1.420  -1.445 -25.433  0.00  0.00    -0.274 OA
ATOM     85  H   BDZ d   1      -1.535  -3.312 -23.776  0.00  0.00     0.163 HD
BRANCH  83  86
ATOM     86  CBC BDZ d   1      -3.738  -1.055 -24.851  0.00  0.00    -0.003 C 
ATOM     87  H   BDZ d   1      -3.598  -0.021 -24.535  0.00  0.00     0.040 H 
ATOM     88  H   BDZ d   1      -4.112  -1.076 -25.875  0.00  0.00     0.040 H 
ATOM     89  H   BDZ d   1      -4.454  -1.544 -24.191  0.00  0.00     0.040 H 
ENDBRANCH  83  86
ENDBRANCH   2  82
BRANCH   1  90
ATOM     90  OBE BDZ d   1      -4.738  -3.737 -25.067  0.00  0.00    -0.369 OA
ATOM     91  H   BDZ d   1      -5.356  -3.044 -24.825  0.00  0.00     0.212 HD
ENDBRANCH   1  90
TORSDOF 23
