REMARK  5 active torsions:
REMARK  status: ('A' for Active; 'I' for Inactive)
REMARK    1  A    between atoms: C1_1  and  C2_4 
REMARK    2  A    between atoms: C2_4  and  O3_5 
REMARK    3  A    between atoms: C2_4  and  C3_6 
REMARK    4  A    between atoms: C3_6  and  O1P_7 
REMARK    5  A    between atoms: O1P_7  and  P_8 
ROOT
ATOM      1  C3  3PG d   1      59.872  21.290 -13.393  0.00  0.00     0.066 C 
ATOM      2  H   3PG d   1      60.310  20.397 -12.948  0.00  0.00     0.080 H 
ATOM      3  H   3PG d   1      60.349  21.488 -14.353  0.00  0.00     0.080 H 
ENDROOT
BRANCH   1   4
ATOM      4  C2  3PG d   1      60.088  22.483 -12.461  0.00  0.00     0.140 C 
ATOM      5  H   3PG d   1      61.151  22.715 -12.387  0.00  0.00     0.103 H 
BRANCH   4   6
ATOM      6  C1  3PG d   1      59.617  22.139 -11.048  0.00  0.00     0.205 C 
ATOM      7  O1  3PG d   1      60.034  21.060 -10.581  0.00  0.00    -0.646 OA
ATOM      8  O2  3PG d   1      58.881  22.955 -10.462  0.00  0.00    -0.646 OA
ENDBRANCH   4   6
BRANCH   4   9
ATOM      9  O3  3PG d   1      59.440  23.644 -13.003  0.00  0.00    -0.383 OA
ATOM     10  H   3PG d   1      58.493  23.492 -13.040  0.00  0.00     0.210 HD
ENDBRANCH   4   9
ENDBRANCH   1   4
BRANCH   1  11
ATOM     11  O1P 3PG d   1      58.470  21.087 -13.589  0.00  0.00    -0.280 OA
BRANCH  11  12
ATOM     12  P   3PG d   1      57.922  19.687 -14.151  0.00  0.00     0.422 P 
ATOM     13  O2P 3PG d   1      58.247  19.719 -15.741  0.00  0.00    -0.617 OA
ATOM     14  O3P 3PG d   1      58.778  18.483 -13.503  0.00  0.00    -0.617 OA
ATOM     15  O4P 3PG d   1      56.460  19.531 -13.942  0.00  0.00    -0.617 OA
ENDBRANCH  11  12
ENDBRANCH   1  11
TORSDOF 5
