REMARK WARNING: 32 MAX_TORS EXCEEDED!!!
REMARK  37 active torsions:
REMARK  status: ('A' for Active; 'I' for Inactive)
REMARK    1  A    between atoms: N_1  and  CA_2 
REMARK    2  A    between atoms: CA_2  and  C_3 
REMARK    3  A    between atoms: CA_2  and  CB_5 
REMARK       I    between atoms: C_3  and  N_9 
REMARK    4  A    between atoms: CB_5  and  CG_6 
REMARK       I    between atoms: CG_6  and  ND2_8 
REMARK    5  A    between atoms: CA_10  and  C_11 
REMARK       I    between atoms: C_11  and  N_16 
REMARK    6  A    between atoms: N_16  and  CA_17 
REMARK    7  A    between atoms: CA_17  and  C_18 
REMARK       I    between atoms: C_18  and  N_20 
REMARK    8  A    between atoms: N_20  and  CA_21 
REMARK    9  A    between atoms: CA_21  and  C_22 
REMARK   10  A    between atoms: CA_21  and  CB_24 
REMARK       I    between atoms: C_22  and  N_28 
REMARK   11  A    between atoms: CB_24  and  CG_25 
REMARK   12  A    between atoms: CG_25  and  CD1_26 
REMARK   13  A    between atoms: CG_25  and  CD2_27 
REMARK   14  A    between atoms: N_28  and  CA_29 
REMARK   15  A    between atoms: CA_29  and  C_30 
REMARK   16  A    between atoms: CA_29  and  CB_32 
REMARK       I    between atoms: C_30  and  N_33 
REMARK   17  A    between atoms: N_33  and  CA_34 
REMARK   18  A    between atoms: CA_34  and  C_35 
REMARK   19  A    between atoms: CA_34  and  CB_37 
REMARK       I    between atoms: C_35  and  N_45 
REMARK   20  A    between atoms: CB_37  and  CG_38 
REMARK   21  A    between atoms: CZ_43  and  OH_44 
REMARK   22  A    between atoms: N_45  and  CA_46 
REMARK   23  A    between atoms: CA_46  and  C_47 
REMARK       I    between atoms: C_47  and  N_49 
REMARK   24  A    between atoms: N_49  and  CA_50 
REMARK   25  A    between atoms: CA_50  and  C_51 
REMARK   26  A    between atoms: CA_50  and  CB_53 
REMARK       I    between atoms: C_51  and  N_57 
REMARK   27  A    between atoms: CB_53  and  CG_54 
REMARK       I    between atoms: CG_54  and  ND2_56 
REMARK   28  A    between atoms: CA_58  and  C_59 
REMARK       I    between atoms: C_59  and  N_64 
REMARK   29  A    between atoms: N_64  and  CA_65 
REMARK   30  A    between atoms: CA_65  and  C_66 
REMARK   31  A    between atoms: CA_65  and  CB_68 
REMARK       I    between atoms: C_66  and  N_76 
REMARK   32  A    between atoms: CB_68  and  CG_69 
REMARK   33  A    between atoms: CZ_74  and  OH_75 
REMARK   34  A    between atoms: N_76  and  CA_77 
REMARK   35  A    between atoms: CA_77  and  C_78 
REMARK   36  A    between atoms: CA_77  and  CB_80 
REMARK   37  A    between atoms: CB_80  and  OG_81 
ROOT
ATOM      1  CA  TYR d   1      -2.292  14.328  13.226  0.00  0.00     0.093 C 
ATOM      2  H36 TYR d   1      -3.225  13.850  13.560  0.00  0.00     0.088 H 
ENDROOT
BRANCH   1   3
ATOM      3  N   TYR d   1      -2.371  14.444  11.766  0.00  0.00    -0.346 N 
ATOM      4  C   ALA d   1      -3.529  14.284  11.124  0.00  0.00     0.240 C 
ATOM      5  O   ALA d   1      -4.598  14.133  11.721  0.00  0.00    -0.271 OA
ATOM      6  H35 TYR d   1      -1.543  14.646  11.243  0.00  0.00     0.163 HD
BRANCH   4   7
ATOM      7  CA  ALA d   1      -3.483  14.340   9.591  0.00  0.00     0.086 C 
ATOM      8  H31 ALA d   1      -4.429  14.773   9.236  0.00  0.00     0.086 H 
BRANCH   7   9
ATOM      9  N   ALA d   1      -2.389  15.194   9.151  0.00  0.00    -0.346 N 
ATOM     10  C   LEU d   1      -2.392  16.484   9.445  0.00  0.00     0.241 C 
ATOM     11  O   LEU d   1      -3.282  17.004  10.111  0.00  0.00    -0.271 OA
ATOM     12  H30 ALA d   1      -1.633  14.804   8.625  0.00  0.00     0.163 HD
BRANCH  10  13
ATOM     13  CA  LEU d   1      -1.221  17.301   8.932  0.00  0.00     0.089 C 
ATOM     14  H20 LEU d   1      -0.448  16.621   8.543  0.00  0.00     0.087 H 
BRANCH  13  15
ATOM     15  N   LEU d   1      -1.658  18.184   7.859  0.00  0.00    -0.346 N 
ATOM     16  C   GLY d   1      -1.399  17.941   6.581  0.00  0.00     0.236 C 
ATOM     17  O   GLY d   1      -0.815  16.925   6.194  0.00  0.00    -0.272 OA
ATOM     18  H19 LEU d   1      -2.174  19.007   8.096  0.00  0.00     0.163 HD
BRANCH  16  19
ATOM     19  CA  GLY d   1      -1.872  18.995   5.593  0.00  0.00     0.069 C 
ATOM     20  H17 GLY d   1      -1.530  18.706   4.588  0.00  0.00     0.078 H 
ATOM     21  H18 GLY d   1      -2.971  19.020   5.613  0.00  0.00     0.078 H 
BRANCH  19  22
ATOM     22  N   GLY d   1      -1.378  20.334   5.877  0.00  0.00    -0.351 N 
ATOM     23  C   PRO d   1      -0.070  20.608   5.903  0.00  0.00     0.241 C 
ATOM     24  O   PRO d   1       0.805  19.753   5.745  0.00  0.00    -0.271 OA
ATOM     25  H16 GLY d   1      -2.033  21.067   6.057  0.00  0.00     0.163 HD
BRANCH  23  26
ATOM     26  CA  PRO d   1       0.349  22.059   6.157  0.00  0.00     0.091 C 
ATOM     27  N   PRO d   1      -0.791  22.984   6.191  0.00  0.00    -0.337 N 
ATOM     28  C   ASN d   1      -1.419  23.388   5.072  0.00  0.00     0.251 C 
ATOM     29  CD  PRO d   1      -1.043  23.505   7.548  0.00  0.00    -0.001 C 
ATOM     30  O   ASN d   1      -1.047  23.063   3.947  0.00  0.00    -0.271 OA
ATOM     31  CG  PRO d   1      -0.206  22.610   8.425  0.00  0.00    -0.048 C 
ATOM     32  H14 PRO d   1      -2.109  23.427   7.808  0.00  0.00     0.064 H 
ATOM     33  H15 PRO d   1      -0.721  24.553   7.634  0.00  0.00     0.064 H 
ATOM     34  CB  PRO d   1       0.945  22.188   7.561  0.00  0.00    -0.036 C 
ATOM     35  H12 PRO d   1       0.154  23.160   9.307  0.00  0.00     0.035 H 
ATOM     36  H13 PRO d   1      -0.787  21.734   8.750  0.00  0.00     0.035 H 
ATOM     37  H10 PRO d   1       1.741  22.947   7.577  0.00  0.00     0.036 H 
ATOM     38  H11 PRO d   1       1.352  21.224   7.900  0.00  0.00     0.036 H 
ATOM     39  H9  PRO d   1       1.073  22.367   5.388  0.00  0.00     0.087 H 
BRANCH  28  40
ATOM     40  CA  ASN d   1      -2.626  24.313   5.246  0.00  0.00     0.184 C 
ATOM     41  H4  ASN d   1      -2.729  24.542   6.317  0.00  0.00     0.099 H 
BRANCH  40  42
ATOM     42  N   ASN d   1      -2.432  25.571   4.528  0.00  0.00    -0.066 N 
ATOM     43  H1  ASN d   1      -3.239  26.160   4.659  0.00  0.00     0.275 HD
ATOM     44  H2  ASN d   1      -2.310  25.382   3.546  0.00  0.00     0.275 HD
ATOM     45  H3  ASN d   1      -1.613  26.039   4.885  0.00  0.00     0.275 HD
ENDBRANCH  40  42
BRANCH  40  46
ATOM     46  CB  ASN d   1      -3.915  23.620   4.777  0.00  0.00     0.044 C 
ATOM     47  H5  ASN d   1      -3.722  23.138   3.807  0.00  0.00     0.051 H 
ATOM     48  H6  ASN d   1      -4.700  24.381   4.658  0.00  0.00     0.051 H 
BRANCH  46  49
ATOM     49  CG  ASN d   1      -4.407  22.560   5.760  0.00  0.00     0.217 C 
ATOM     50  OD1 ASN d   1      -3.615  21.796   6.318  0.00  0.00    -0.274 OA
ATOM     51  ND2 ASN d   1      -5.724  22.514   5.977  0.00  0.00    -0.370 N 
ATOM     52  H7  ASN d   1      -6.103  21.840   6.611  0.00  0.00     0.159 HD
ATOM     53  H8  ASN d   1      -6.331  23.154   5.505  0.00  0.00     0.159 HD
ENDBRANCH  46  49
ENDBRANCH  40  46
ENDBRANCH  28  40
ENDBRANCH  23  26
ENDBRANCH  19  22
ENDBRANCH  16  19
ENDBRANCH  13  15
BRANCH  13  54
ATOM     54  CB  LEU d   1      -0.635  18.121  10.090  0.00  0.00    -0.035 C 
ATOM     55  H21 LEU d   1      -0.362  17.419  10.891  0.00  0.00     0.037 H 
ATOM     56  H22 LEU d   1      -1.422  18.800  10.450  0.00  0.00     0.037 H 
BRANCH  54  57
ATOM     57  CG  LEU d   1       0.598  18.967   9.776  0.00  0.00    -0.059 C 
ATOM     58  H23 LEU d   1       0.369  19.619   8.920  0.00  0.00     0.038 H 
BRANCH  57  59
ATOM     59  CD1 LEU d   1       0.975  19.837  10.964  0.00  0.00    -0.073 C 
ATOM     60  H24 LEU d   1       1.863  20.435  10.713  0.00  0.00     0.028 H 
ATOM     61  H25 LEU d   1       1.196  19.198  11.831  0.00  0.00     0.028 H 
ATOM     62  H26 LEU d   1       0.138  20.508  11.207  0.00  0.00     0.028 H 
ENDBRANCH  57  59
BRANCH  57  63
ATOM     63  CD2 LEU d   1       1.753  18.069   9.410  0.00  0.00    -0.073 C 
ATOM     64  H27 LEU d   1       1.472  17.443   8.550  0.00  0.00     0.028 H 
ATOM     65  H28 LEU d   1       2.003  17.425  10.266  0.00  0.00     0.028 H 
ATOM     66  H29 LEU d   1       2.626  18.684   9.147  0.00  0.00     0.028 H 
ENDBRANCH  57  63
ENDBRANCH  54  57
ENDBRANCH  13  54
ENDBRANCH  10  13
ENDBRANCH   7   9
BRANCH   7  67
ATOM     67  CB  ALA d   1      -3.334  12.948   8.976  0.00  0.00    -0.049 C 
ATOM     68  H32 ALA d   1      -4.163  12.308   9.312  0.00  0.00     0.030 H 
ATOM     69  H33 ALA d   1      -2.378  12.507   9.294  0.00  0.00     0.030 H 
ATOM     70  H34 ALA d   1      -3.354  13.028   7.879  0.00  0.00     0.030 H 
ENDBRANCH   7  67
ENDBRANCH   4   7
ENDBRANCH   1   3
BRANCH   1  71
ATOM     71  C   TYR d   1      -2.168  15.650  13.986  0.00  0.00     0.241 C 
ATOM     72  O   TYR d   1      -2.068  15.655  15.211  0.00  0.00    -0.271 OA
ATOM     73  N   GLY d   1      -2.171  16.766  13.266  0.00  0.00    -0.351 N 
ATOM     74  H44 GLY d   1      -2.304  16.710  12.276  0.00  0.00     0.163 HD
BRANCH  73  75
ATOM     75  CA  GLY d   1      -1.986  18.064  13.886  0.00  0.00     0.069 C 
ATOM     76  H45 GLY d   1      -2.602  18.102  14.797  0.00  0.00     0.078 H 
ATOM     77  H46 GLY d   1      -2.328  18.835  13.180  0.00  0.00     0.078 H 
BRANCH  75  78
ATOM     78  C   GLY d   1      -0.547  18.373  14.270  0.00  0.00     0.236 C 
ATOM     79  O   GLY d   1       0.377  17.581  14.020  0.00  0.00    -0.272 OA
ATOM     80  N   ASN d   1      -0.361  19.536  14.888  0.00  0.00    -0.346 N 
ATOM     81  H47 ASN d   1      -1.159  20.093  15.118  0.00  0.00     0.163 HD
BRANCH  80  82
ATOM     82  CA  ASN d   1       0.965  20.026  15.241  0.00  0.00     0.097 C 
ATOM     83  H48 ASN d   1       1.704  19.227  15.081  0.00  0.00     0.088 H 
BRANCH  82  84
ATOM     84  C   ASN d   1       0.980  20.432  16.714  0.00  0.00     0.243 C 
ATOM     85  O   ASN d   1       0.402  21.454  17.072  0.00  0.00    -0.271 OA
ATOM     86  N   PRO d   1       1.656  19.640  17.567  0.00  0.00    -0.337 N 
ATOM     87  CA  PRO d   1       1.709  19.904  19.014  0.00  0.00     0.091 C 
ATOM     88  CD  PRO d   1       2.503  18.493  17.179  0.00  0.00    -0.001 C 
ATOM     89  CB  PRO d   1       2.435  18.679  19.567  0.00  0.00    -0.036 C 
ATOM     90  H53 PRO d   1       0.696  19.996  19.432  0.00  0.00     0.087 H 
ATOM     91  CG  PRO d   1       3.321  18.226  18.420  0.00  0.00    -0.048 C 
ATOM     92  H54 PRO d   1       1.718  17.891  19.842  0.00  0.00     0.036 H 
ATOM     93  H55 PRO d   1       3.040  18.947  20.446  0.00  0.00     0.036 H 
ATOM     94  H56 PRO d   1       3.554  17.155  18.509  0.00  0.00     0.035 H 
ATOM     95  H57 PRO d   1       4.257  18.804  18.400  0.00  0.00     0.035 H 
ATOM     96  H58 PRO d   1       3.151  18.752  16.329  0.00  0.00     0.064 H 
ATOM     97  H59 PRO d   1       1.887  17.620  16.918  0.00  0.00     0.064 H 
BRANCH  87  98
ATOM     98  C   PRO d   1       2.516  21.150  19.347  0.00  0.00     0.241 C 
ATOM     99  O   PRO d   1       2.528  21.577  20.501  0.00  0.00    -0.271 OA
ATOM    100  N   TYR d   1       3.188  21.726  18.354  0.00  0.00    -0.346 N 
ATOM    101  H60 TYR d   1       3.121  21.354  17.428  0.00  0.00     0.163 HD
BRANCH 100 102
ATOM    102  CA  TYR d   1       4.022  22.896  18.605  0.00  0.00     0.093 C 
ATOM    103  H61 TYR d   1       4.184  22.965  19.691  0.00  0.00     0.088 H 
BRANCH 102 104
ATOM    104  C   TYR d   1       3.348  24.195  18.154  0.00  0.00     0.241 C 
ATOM    105  O   TYR d   1       3.919  25.277  18.304  0.00  0.00    -0.271 OA
ATOM    106  N   SER d   1       2.138  24.096  17.606  0.00  0.00    -0.343 N 
ATOM    107  H69 SER d   1       1.719  23.196  17.486  0.00  0.00     0.163 HD
BRANCH 106 108
ATOM    108  CA  SER d   1       1.417  25.299  17.177  0.00  0.00     0.116 C 
ATOM    109  H70 SER d   1       2.153  26.023  16.798  0.00  0.00     0.093 H 
BRANCH 108 110
ATOM    110  C   SER d   1       0.682  25.928  18.357  0.00  0.00     0.198 C 
ATOM    111  O   SER d   1       0.139  25.204  19.233  0.00  0.00    -0.646 OA
ATOM    112  O   SER d   1       0.618  27.183  18.456  0.00  0.00    -0.646 OA
ENDBRANCH 108 110
BRANCH 108 113
ATOM    113  CB  SER d   1       0.425  24.990  16.051  0.00  0.00     0.045 C 
ATOM    114  H71 SER d   1       0.950  24.461  15.242  0.00  0.00     0.077 H 
ATOM    115  H72 SER d   1       0.011  25.933  15.665  0.00  0.00     0.077 H 
BRANCH 113 116
ATOM    116  OG  SER d   1      -0.635  24.177  16.528  0.00  0.00    -0.398 OA
ATOM    117  H73 SER d   1      -0.281  23.360  16.860  0.00  0.00     0.209 HD
ENDBRANCH 113 116
ENDBRANCH 108 113
ENDBRANCH 106 108
ENDBRANCH 102 104
BRANCH 102 118
ATOM    118  CB  TYR d   1       5.387  22.725  17.934  0.00  0.00    -0.014 C 
ATOM    119  H62 TYR d   1       6.034  23.562  18.237  0.00  0.00     0.043 H 
ATOM    120  H63 TYR d   1       5.246  22.746  16.843  0.00  0.00     0.043 H 
BRANCH 118 121
ATOM    121  CG  TYR d   1       6.076  21.420  18.309  0.00  0.00    -0.056 A 
ATOM    122  CD1 TYR d   1       6.529  20.545  17.325  0.00  0.00    -0.074 A 
ATOM    123  CE1 TYR d   1       7.154  19.355  17.654  0.00  0.00    -0.051 A 
ATOM    124  H64 TYR d   1       6.389  20.801  16.281  0.00  0.00     0.084 H 
ATOM    125  CZ  TYR d   1       7.330  19.025  18.982  0.00  0.00     0.065 A 
ATOM    126  H66 TYR d   1       7.503  18.687  16.874  0.00  0.00     0.087 H 
ATOM    127  CE2 TYR d   1       6.889  19.873  19.985  0.00  0.00    -0.051 A 
ATOM    128  CD2 TYR d   1       6.266  21.067  19.640  0.00  0.00    -0.074 A 
ATOM    129  H67 TYR d   1       7.028  19.608  21.027  0.00  0.00     0.087 H 
ATOM    130  H65 TYR d   1       5.923  21.734  20.422  0.00  0.00     0.084 H 
BRANCH 125 131
ATOM    131  OH  TYR d   1       7.951  17.836  19.306  0.00  0.00    -0.361 OA
ATOM    132  H68 TYR d   1       7.357  17.299  19.817  0.00  0.00     0.217 HD
ENDBRANCH 125 131
ENDBRANCH 118 121
ENDBRANCH 102 118
ENDBRANCH 100 102
ENDBRANCH  87  98
ENDBRANCH  82  84
BRANCH  82 133
ATOM    133  CB  ASN d   1       1.318  21.222  14.345  0.00  0.00     0.036 C 
ATOM    134  H49 ASN d   1       0.573  22.015  14.509  0.00  0.00     0.051 H 
ATOM    135  H50 ASN d   1       1.281  20.896  13.295  0.00  0.00     0.051 H 
BRANCH 133 136
ATOM    136  CG  ASN d   1       2.706  21.793  14.628  0.00  0.00     0.217 C 
ATOM    137  OD1 ASN d   1       3.409  21.348  15.540  0.00  0.00    -0.274 OA
ATOM    138  ND2 ASN d   1       3.106  22.784  13.837  0.00  0.00    -0.370 N 
ATOM    139  H51 ASN d   1       4.005  23.200  13.972  0.00  0.00     0.159 HD
ATOM    140  H52 ASN d   1       2.507  23.114  13.107  0.00  0.00     0.159 HD
ENDBRANCH 133 136
ENDBRANCH  82 133
ENDBRANCH  80  82
ENDBRANCH  75  78
ENDBRANCH  73  75
ENDBRANCH   1  71
BRANCH   1 141
ATOM    141  CB  TYR d   1      -1.126  13.418  13.609  0.00  0.00    -0.014 C 
ATOM    142  H37 TYR d   1      -0.978  13.482  14.697  0.00  0.00     0.043 H 
ATOM    143  H38 TYR d   1      -0.222  13.775  13.094  0.00  0.00     0.043 H 
BRANCH 141 144
ATOM    144  CG  TYR d   1      -1.344  11.972  13.241  0.00  0.00    -0.056 A 
ATOM    145  CD1 TYR d   1      -2.232  11.179  13.966  0.00  0.00    -0.074 A 
ATOM    146  CE1 TYR d   1      -2.433   9.847  13.642  0.00  0.00    -0.051 A 
ATOM    147  H39 TYR d   1      -2.775  11.612  14.798  0.00  0.00     0.084 H 
ATOM    148  CZ  TYR d   1      -1.748   9.303  12.580  0.00  0.00     0.065 A 
ATOM    149  H41 TYR d   1      -3.122   9.241  14.219  0.00  0.00     0.087 H 
ATOM    150  CE2 TYR d   1      -0.866  10.071  11.841  0.00  0.00    -0.051 A 
ATOM    151  CD2 TYR d   1      -0.666  11.397  12.176  0.00  0.00    -0.074 A 
ATOM    152  H42 TYR d   1      -0.334   9.635  11.003  0.00  0.00     0.087 H 
ATOM    153  H40 TYR d   1       0.030  11.995  11.599  0.00  0.00     0.084 H 
BRANCH 148 154
ATOM    154  OH  TYR d   1      -1.946   7.981  12.247  0.00  0.00    -0.361 OA
ATOM    155  H43 TYR d   1      -1.122   7.513  12.309  0.00  0.00     0.217 HD
ENDBRANCH 148 154
ENDBRANCH 141 144
ENDBRANCH   1 141
TORSDOF 37
