REMARK WARNING: 32 MAX_TORS EXCEEDED!!!
REMARK  54 active torsions:
REMARK  status: ('A' for Active; 'I' for Inactive)
REMARK    1  A    between atoms: N_1  and  CA_2 
REMARK    2  A    between atoms: CA_2  and  C_3 
REMARK    3  A    between atoms: CA_2  and  CB_5 
REMARK       I    between atoms: C_3  and  N_6 
REMARK    4  A    between atoms: N_6  and  CA_7 
REMARK    5  A    between atoms: CA_7  and  C_8 
REMARK    6  A    between atoms: CA_7  and  CB_10 
REMARK       I    between atoms: C_8  and  N_17 
REMARK    7  A    between atoms: CB_10  and  CG_11 
REMARK    8  A    between atoms: CG_11  and  CD_12 
REMARK    9  A    between atoms: CD_12  and  NE_13 
REMARK       I    between atoms: NE_13  and  CZ_14 
REMARK       I    between atoms: CZ_14  and  NH1_15 
REMARK       I    between atoms: CZ_14  and  NH2_16 
REMARK   10  A    between atoms: N_17  and  CA_18 
REMARK   11  A    between atoms: CA_18  and  C_19 
REMARK   12  A    between atoms: CA_18  and  CB_21 
REMARK       I    between atoms: C_19  and  N_24 
REMARK   13  A    between atoms: CB_21  and  OG1_22 
REMARK   14  A    between atoms: CB_21  and  CG2_23 
REMARK   15  A    between atoms: N_24  and  CA_25 
REMARK   16  A    between atoms: CA_25  and  C_26 
REMARK   17  A    between atoms: CA_25  and  CB_28 
REMARK       I    between atoms: C_26  and  N_33 
REMARK   18  A    between atoms: CB_28  and  CG_29 
REMARK   19  A    between atoms: CG_29  and  CD_30 
REMARK   20  A    between atoms: CD_30  and  CE_31 
REMARK   21  A    between atoms: CE_31  and  NZ_32 
REMARK   22  A    between atoms: N_33  and  CA_34 
REMARK   23  A    between atoms: CA_34  and  C_35 
REMARK   24  A    between atoms: CA_34  and  CB_37 
REMARK       I    between atoms: C_35  and  N_42 
REMARK   25  A    between atoms: CB_37  and  CG_38 
REMARK   26  A    between atoms: CG_38  and  CD_39 
REMARK       I    between atoms: CD_39  and  NE2_41 
REMARK   27  A    between atoms: N_42  and  CA_43 
REMARK   28  A    between atoms: CA_43  and  C_44 
REMARK   29  A    between atoms: CA_43  and  CB_46 
REMARK       I    between atoms: C_44  and  N_49 
REMARK   30  A    between atoms: CB_46  and  OG1_47 
REMARK   31  A    between atoms: CB_46  and  CG2_48 
REMARK   32  A    between atoms: N_49  and  CA_50 
REMARK   33  A    between atoms: CA_50  and  C_51 
REMARK   34  A    between atoms: CA_50  and  CB_53 
REMARK       I    between atoms: C_51  and  N_54 
REMARK   35  A    between atoms: N_54  and  CA_55 
REMARK   36  A    between atoms: CA_55  and  C_56 
REMARK   37  A    between atoms: CA_55  and  CB_58 
REMARK       I    between atoms: C_56  and  N_65 
REMARK   38  A    between atoms: CB_58  and  CG_59 
REMARK   39  A    between atoms: CG_59  and  CD_60 
REMARK   40  A    between atoms: CD_60  and  NE_61 
REMARK       I    between atoms: NE_61  and  CZ_62 
REMARK       I    between atoms: CZ_62  and  NH1_63 
REMARK   41  A    between atoms: N_65  and  CA_66 
REMARK   42  A    between atoms: CA_66  and  CB_67 
REMARK   43  A    between atoms: CA_66  and  C_72 
REMARK   44  A    between atoms: CB_67  and  CG_68 
REMARK   45  A    between atoms: CG_68  and  CD_69 
REMARK   46  A    between atoms: CD_69  and  CE_70 
REMARK   47  A    between atoms: CE_70  and  NZ_71 
REMARK   48  A    between atoms: NZ_71  and  CM1_74 
REMARK   49  A    between atoms: NZ_71  and  CM2_75 
REMARK   50  A    between atoms: NZ_71  and  CM3_76 
REMARK       I    between atoms: C_72  and  N_77 
REMARK   51  A    between atoms: N_77  and  CA_78 
REMARK   52  A    between atoms: CA_78  and  C_79 
REMARK   53  A    between atoms: CA_78  and  CB_81 
REMARK   54  A    between atoms: CB_81  and  OG_82 
ROOT
ATOM      1  N   THR d   1      22.597  34.871  -0.713  0.00  0.00    -0.344 N 
ATOM      2  H   THR d   1      22.836  35.436   0.102  0.00  0.00     0.163 HD
ATOM      3  C   GLN d   1      22.154  35.473  -1.811  0.00  0.00     0.241 C 
ATOM      4  O   GLN d   1      21.831  34.858  -2.827  0.00  0.00    -0.271 OA
ENDROOT
BRANCH   1   5
ATOM      5  CA  THR d   1      22.750  33.424  -0.644  0.00  0.00     0.113 C 
ATOM      6  H   THR d   1      23.052  33.093  -1.638  0.00  0.00     0.091 H 
BRANCH   5   7
ATOM      7  C   THR d   1      21.437  32.743  -0.268  0.00  0.00     0.243 C 
ATOM      8  O   THR d   1      21.078  31.712  -0.835  0.00  0.00    -0.271 OA
ATOM      9  N   ALA d   1      20.722  33.332   0.685  0.00  0.00    -0.346 N 
ATOM     10  H   ALA d   1      21.047  34.218   1.073  0.00  0.00     0.163 HD
BRANCH   9  11
ATOM     11  CA  ALA d   1      19.485  32.746   1.192  0.00  0.00     0.086 C 
ATOM     12  H   ALA d   1      19.642  31.668   1.238  0.00  0.00     0.086 H 
BRANCH  11  13
ATOM     13  C   ALA d   1      18.294  32.979   0.265  0.00  0.00     0.240 C 
ATOM     14  O   ALA d   1      17.164  32.609   0.589  0.00  0.00    -0.271 OA
ATOM     15  N   ARG d   1      18.552  33.588  -0.889  0.00  0.00    -0.346 N 
ATOM     16  H   ARG d   1      19.513  33.852  -1.107  0.00  0.00     0.163 HD
BRANCH  15  17
ATOM     17  CA  ARG d   1      17.494  33.889  -1.853  0.00  0.00     0.089 C 
ATOM     18  H   ARG d   1      16.799  34.567  -1.357  0.00  0.00     0.087 H 
BRANCH  17  19
ATOM     19  C   ARG d   1      16.710  32.647  -2.264  0.00  0.00     0.241 C 
ATOM     20  O   ARG d   1      15.482  32.641  -2.242  0.00  0.00    -0.271 OA
ATOM     21  N   M3L d   1      17.429  31.595  -2.638  0.00  0.00    -0.346 N 
ATOM     22  H   M3L d   1      18.447  31.656  -2.617  0.00  0.00     0.163 HD
BRANCH  21  23
ATOM     23  CA  M3L d   1      16.814  30.381  -3.069  0.00  0.00     0.089 C 
ATOM     24  H   M3L d   1      15.882  30.608  -3.587  0.00  0.00     0.087 H 
BRANCH  23  25
ATOM     25  CB  M3L d   1      17.729  29.647  -4.035  0.00  0.00    -0.038 C 
ATOM     26  H   M3L d   1      17.683  28.597  -3.747  0.00  0.00     0.036 H 
ATOM     27  H   M3L d   1      18.698  30.141  -3.960  0.00  0.00     0.036 H 
BRANCH  25  28
ATOM     28  CG  M3L d   1      17.351  29.689  -5.532  0.00  0.00    -0.061 C 
ATOM     29  H   M3L d   1      16.952  30.688  -5.705  0.00  0.00     0.033 H 
ATOM     30  H   M3L d   1      16.681  28.843  -5.688  0.00  0.00     0.033 H 
BRANCH  28  31
ATOM     31  CD  M3L d   1      18.477  29.515  -6.553  0.00  0.00    -0.042 C 
ATOM     32  H   M3L d   1      18.535  28.444  -6.747  0.00  0.00     0.035 H 
ATOM     33  H   M3L d   1      19.351  29.993  -6.111  0.00  0.00     0.035 H 
BRANCH  31  34
ATOM     34  CE  M3L d   1      18.294  30.174  -7.923  0.00  0.00     0.084 C 
ATOM     35  H   M3L d   1      18.356  31.247  -7.740  0.00  0.00     0.076 H 
ATOM     36  H   M3L d   1      17.357  29.778  -8.313  0.00  0.00     0.076 H 
BRANCH  34  37
ATOM     37  NZ  M3L d   1      19.325  29.887  -8.985  0.00  0.00    -0.079 N 
BRANCH  37  38
ATOM     38  CM1 M3L d   1      19.226  30.575 -10.275  0.00  0.00     0.067 C 
ATOM     39  H   M3L d   1      18.273  30.329 -10.744  0.00  0.00     0.068 H 
ATOM     40  H   M3L d   1      19.288  31.652 -10.117  0.00  0.00     0.068 H 
ATOM     41  H   M3L d   1      20.044  30.254 -10.920  0.00  0.00     0.068 H 
ENDBRANCH  37  38
BRANCH  37  42
ATOM     42  CM2 M3L d   1      20.632  30.238  -8.416  0.00  0.00     0.067 C 
ATOM     43  H   M3L d   1      20.638  31.294  -8.147  0.00  0.00     0.068 H 
ATOM     44  H   M3L d   1      20.814  29.634  -7.527  0.00  0.00     0.068 H 
ATOM     45  H   M3L d   1      21.411  30.046  -9.153  0.00  0.00     0.068 H 
ENDBRANCH  37  42
BRANCH  37  46
ATOM     46  CM3 M3L d   1      19.251  28.465  -9.267  0.00  0.00     0.067 C 
ATOM     47  H   M3L d   1      19.465  27.904  -8.357  0.00  0.00     0.068 H 
ATOM     48  H   M3L d   1      18.250  28.218  -9.621  0.00  0.00     0.068 H 
ATOM     49  H   M3L d   1      19.983  28.209 -10.034  0.00  0.00     0.068 H 
ENDBRANCH  37  46
ENDBRANCH  34  37
ENDBRANCH  31  34
ENDBRANCH  28  31
ENDBRANCH  25  28
ENDBRANCH  23  25
BRANCH  23  50
ATOM     50  C   M3L d   1      16.517  29.528  -1.877  0.00  0.00     0.241 C 
ATOM     51  O   M3L d   1      16.845  28.347  -1.867  0.00  0.00    -0.271 OA
ATOM     52  N   SER d   1      15.892  30.130  -0.867  0.00  0.00    -0.343 N 
ATOM     53  H   SER d   1      15.678  31.124  -0.952  0.00  0.00     0.163 HD
BRANCH  52  54
ATOM     54  CA  SER d   1      15.497  29.437   0.357  0.00  0.00     0.116 C 
ATOM     55  H   SER d   1      15.723  30.113   1.181  0.00  0.00     0.093 H 
BRANCH  54  56
ATOM     56  C   SER d   1      16.292  28.158   0.608  0.00  0.00     0.198 C 
ATOM     57  O   SER d   1      17.288  28.157   1.380  0.00  0.00    -0.646 OA
ATOM     58  O   SER d   1      15.948  27.090   0.036  0.00  0.00    -0.646 OA
ENDBRANCH  54  56
BRANCH  54  59
ATOM     59  CB  SER d   1      13.998  29.130   0.335  0.00  0.00     0.045 C 
ATOM     60  H   SER d   1      13.797  28.430  -0.476  0.00  0.00     0.077 H 
ATOM     61  H   SER d   1      13.453  30.063   0.193  0.00  0.00     0.077 H 
BRANCH  59  62
ATOM     62  OG  SER d   1      13.580  28.542   1.555  0.00  0.00    -0.398 OA
ATOM     63  H   SER d   1      12.638  28.360   1.515  0.00  0.00     0.209 HD
ENDBRANCH  59  62
ENDBRANCH  54  59
ENDBRANCH  52  54
ENDBRANCH  23  50
ENDBRANCH  21  23
ENDBRANCH  17  19
BRANCH  17  64
ATOM     64  CB  ARG d   1      18.077  34.569  -3.095  0.00  0.00    -0.036 C 
ATOM     65  H   ARG d   1      17.291  34.595  -3.849  0.00  0.00     0.036 H 
ATOM     66  H   ARG d   1      18.957  33.999  -3.394  0.00  0.00     0.036 H 
BRANCH  64  67
ATOM     67  CG  ARG d   1      18.525  36.001  -2.859  0.00  0.00    -0.048 C 
ATOM     68  H   ARG d   1      19.583  36.082  -3.107  0.00  0.00     0.035 H 
ATOM     69  H   ARG d   1      18.349  36.255  -1.814  0.00  0.00     0.035 H 
BRANCH  67  70
ATOM     70  CD  ARG d   1      17.744  36.967  -3.734  0.00  0.00     0.009 C 
ATOM     71  H   ARG d   1      17.768  37.948  -3.259  0.00  0.00     0.064 H 
ATOM     72  H   ARG d   1      16.730  36.583  -3.839  0.00  0.00     0.064 H 
BRANCH  70  73
ATOM     73  NE  ARG d   1      18.320  37.096  -5.069  0.00  0.00    -0.227 N 
ATOM     74  CZ  ARG d   1      17.643  37.502  -6.137  0.00  0.00     0.665 C 
ATOM     75  NH1 ARG d   1      16.356  37.808  -6.033  0.00  0.00    -0.235 N 
ATOM     76  NH2 ARG d   1      18.248  37.593  -7.313  0.00  0.00    -0.235 N 
ATOM     77  H   ARG d   1      15.885  37.732  -5.132  0.00  0.00     0.174 HD
ATOM     78  H   ARG d   1      15.838  38.120  -6.854  0.00  0.00     0.174 HD
ATOM     79  H   ARG d   1      19.235  37.351  -7.399  0.00  0.00     0.174 HD
ATOM     80  H   ARG d   1      17.726  37.905  -8.132  0.00  0.00     0.174 HD
ATOM     81  H   ARG d   1      19.305  36.859  -5.189  0.00  0.00     0.177 HD
ENDBRANCH  70  73
ENDBRANCH  67  70
ENDBRANCH  64  67
ENDBRANCH  17  64
ENDBRANCH  15  17
ENDBRANCH  11  13
BRANCH  11  82
ATOM     82  CB  ALA d   1      19.182  33.279   2.587  0.00  0.00    -0.049 C 
ATOM     83  H   ALA d   1      20.001  33.021   3.259  0.00  0.00     0.030 H 
ATOM     84  H   ALA d   1      19.073  34.363   2.545  0.00  0.00     0.030 H 
ATOM     85  H   ALA d   1      18.257  32.833   2.952  0.00  0.00     0.030 H 
ENDBRANCH  11  82
ENDBRANCH   9  11
ENDBRANCH   5   7
BRANCH   5  86
ATOM     86  CB  THR d   1      23.835  33.022   0.374  0.00  0.00     0.060 C 
ATOM     87  H   THR d   1      23.524  33.358   1.363  0.00  0.00     0.086 H 
BRANCH  86  88
ATOM     88  OG1 THR d   1      25.079  33.638   0.019  0.00  0.00    -0.393 OA
ATOM     89  H   THR d   1      24.975  34.592   0.023  0.00  0.00     0.210 HD
ENDBRANCH  86  88
BRANCH  86  90
ATOM     90  CG2 THR d   1      24.011  31.512   0.400  0.00  0.00    -0.050 C 
ATOM     91  H   THR d   1      23.069  31.043   0.683  0.00  0.00     0.031 H 
ATOM     92  H   THR d   1      24.308  31.165  -0.590  0.00  0.00     0.031 H 
ATOM     93  H   THR d   1      24.781  31.250   1.125  0.00  0.00     0.031 H 
ENDBRANCH  86  90
ENDBRANCH   5  86
ENDBRANCH   1   5
BRANCH   3  94
ATOM     94  CA  GLN d   1      22.061  36.993  -1.757  0.00  0.00     0.090 C 
ATOM     95  H   GLN d   1      21.177  37.299  -2.316  0.00  0.00     0.087 H 
BRANCH  94  96
ATOM     96  N   GLN d   1      21.890  37.476  -0.391  0.00  0.00    -0.346 N 
ATOM     97  C   LYS d   1      20.726  37.365   0.243  0.00  0.00     0.241 C 
ATOM     98  O   LYS d   1      19.722  36.888  -0.283  0.00  0.00    -0.271 OA
ATOM     99  H   GLN d   1      22.680  37.908   0.088  0.00  0.00     0.163 HD
BRANCH  97 100
ATOM    100  CA  LYS d   1      20.687  37.862   1.684  0.00  0.00     0.089 C 
ATOM    101  H   LYS d   1      20.029  37.205   2.252  0.00  0.00     0.087 H 
BRANCH 100 102
ATOM    102  N   LYS d   1      22.004  37.794   2.307  0.00  0.00    -0.346 N 
ATOM    103  C   THR d   1      22.649  36.636   2.406  0.00  0.00     0.243 C 
ATOM    104  O   THR d   1      22.194  35.581   1.964  0.00  0.00    -0.271 OA
ATOM    105  H   LYS d   1      22.435  38.644   2.671  0.00  0.00     0.163 HD
BRANCH 103 106
ATOM    106  CA  THR d   1      24.000  36.657   3.108  0.00  0.00     0.113 C 
ATOM    107  H   THR d   1      23.980  37.327   3.968  0.00  0.00     0.091 H 
BRANCH 106 108
ATOM    108  N   THR d   1      24.302  35.312   3.580  0.00  0.00    -0.344 N 
ATOM    109  C   ARG d   1      24.085  34.952   4.840  0.00  0.00     0.241 C 
ATOM    110  O   ARG d   1      23.751  35.748   5.714  0.00  0.00    -0.271 OA
ATOM    111  H   THR d   1      24.689  34.631   2.927  0.00  0.00     0.163 HD
BRANCH 109 112
ATOM    112  CA  ARG d   1      24.278  33.476   5.164  0.00  0.00     0.089 C 
ATOM    113  H   ARG d   1      24.545  32.958   4.243  0.00  0.00     0.087 H 
BRANCH 112 114
ATOM    114  N   ARG d   1      25.365  33.269   6.112  0.00  0.00    -0.346 N 
ATOM    115  C   ALA d   1      26.532  32.760   5.738  0.00  0.00     0.248 C 
ATOM    116  O   ALA d   1      26.784  32.440   4.577  0.00  0.00    -0.271 OA
ATOM    117  H   ARG d   1      25.225  33.522   7.090  0.00  0.00     0.163 HD
BRANCH 115 118
ATOM    118  CA  ALA d   1      27.571  32.588   6.839  0.00  0.00     0.172 C 
ATOM    119  H   ALA d   1      27.059  32.668   7.798  0.00  0.00     0.098 H 
BRANCH 118 120
ATOM    120  N   ALA d   1      28.199  31.274   6.773  0.00  0.00    -0.067 N 
ATOM    121  H   ALA d   1      27.481  30.552   6.833  0.00  0.00     0.275 HD
ATOM    122  H   ALA d   1      28.702  31.183   5.890  0.00  0.00     0.275 HD
ATOM    123  H   ALA d   1      28.852  31.171   7.550  0.00  0.00     0.275 HD
ENDBRANCH 118 120
BRANCH 118 124
ATOM    124  CB  ALA d   1      28.622  33.681   6.752  0.00  0.00    -0.042 C 
ATOM    125  H   ALA d   1      29.119  33.629   5.783  0.00  0.00     0.030 H 
ATOM    126  H   ALA d   1      28.143  34.654   6.864  0.00  0.00     0.030 H 
ATOM    127  H   ALA d   1      29.356  33.542   7.546  0.00  0.00     0.030 H 
ENDBRANCH 118 124
ENDBRANCH 115 118
ENDBRANCH 112 114
BRANCH 112 128
ATOM    128  CB  ARG d   1      22.974  32.900   5.721  0.00  0.00    -0.036 C 
ATOM    129  H   ARG d   1      22.163  33.303   5.114  0.00  0.00     0.036 H 
ATOM    130  H   ARG d   1      22.930  33.173   6.775  0.00  0.00     0.036 H 
BRANCH 128 131
ATOM    131  CG  ARG d   1      22.870  31.387   5.651  0.00  0.00    -0.048 C 
ATOM    132  H   ARG d   1      23.840  30.954   5.896  0.00  0.00     0.035 H 
ATOM    133  H   ARG d   1      22.566  31.100   4.645  0.00  0.00     0.035 H 
BRANCH 131 134
ATOM    134  CD  ARG d   1      21.839  30.877   6.642  0.00  0.00     0.009 C 
ATOM    135  H   ARG d   1      22.298  30.851   7.630  0.00  0.00     0.064 H 
ATOM    136  H   ARG d   1      21.514  29.888   6.320  0.00  0.00     0.064 H 
BRANCH 134 137
ATOM    137  NE  ARG d   1      20.668  31.747   6.703  0.00  0.00    -0.227 N 
ATOM    138  CZ  ARG d   1      19.955  31.960   7.804  0.00  0.00     0.665 C 
ATOM    139  NH1 ARG d   1      20.295  31.366   8.940  0.00  0.00    -0.235 N 
ATOM    140  NH2 ARG d   1      18.905  32.769   7.773  0.00  0.00    -0.235 N 
ATOM    141  H   ARG d   1      21.104  30.745   8.969  0.00  0.00     0.174 HD
ATOM    142  H   ARG d   1      19.747  31.530   9.785  0.00  0.00     0.174 HD
ATOM    143  H   ARG d   1      18.642  33.230   6.902  0.00  0.00     0.174 HD
ATOM    144  H   ARG d   1      18.360  32.930   8.620  0.00  0.00     0.174 HD
ATOM    145  H   ARG d   1      20.379  32.221   5.847  0.00  0.00     0.177 HD
ENDBRANCH 134 137
ENDBRANCH 131 134
ENDBRANCH 128 131
ENDBRANCH 112 128
ENDBRANCH 109 112
ENDBRANCH 106 108
BRANCH 106 146
ATOM    146  CB  THR d   1      25.073  37.177   2.137  0.00  0.00     0.060 C 
ATOM    147  H   THR d   1      24.773  38.163   1.783  0.00  0.00     0.086 H 
BRANCH 146 148
ATOM    148  OG1 THR d   1      25.194  36.277   1.028  0.00  0.00    -0.393 OA
ATOM    149  H   THR d   1      25.447  35.408   1.349  0.00  0.00     0.210 HD
ENDBRANCH 146 148
BRANCH 146 150
ATOM    150  CG2 THR d   1      26.417  37.292   2.839  0.00  0.00    -0.050 C 
ATOM    151  H   THR d   1      26.330  37.985   3.676  0.00  0.00     0.031 H 
ATOM    152  H   THR d   1      26.718  36.311   3.208  0.00  0.00     0.031 H 
ATOM    153  H   THR d   1      27.163  37.661   2.135  0.00  0.00     0.031 H 
ENDBRANCH 146 150
ENDBRANCH 106 146
ENDBRANCH 103 106
ENDBRANCH 100 102
BRANCH 100 154
ATOM    154  CB  LYS d   1      20.116  39.281   1.743  0.00  0.00    -0.038 C 
ATOM    155  H   LYS d   1      20.712  39.904   1.075  0.00  0.00     0.036 H 
ATOM    156  H   LYS d   1      20.151  39.607   2.783  0.00  0.00     0.036 H 
BRANCH 154 157
ATOM    157  CG  LYS d   1      18.668  39.368   1.282  0.00  0.00    -0.061 C 
ATOM    158  H   LYS d   1      18.052  38.807   1.986  0.00  0.00     0.033 H 
ATOM    159  H   LYS d   1      18.607  38.963   0.272  0.00  0.00     0.033 H 
BRANCH 157 160
ATOM    160  CD  LYS d   1      18.165  40.801   1.249  0.00  0.00    -0.043 C 
ATOM    161  H   LYS d   1      18.803  41.381   0.583  0.00  0.00     0.035 H 
ATOM    162  H   LYS d   1      18.190  41.205   2.261  0.00  0.00     0.035 H 
BRANCH 160 163
ATOM    163  CE  LYS d   1      16.735  40.863   0.733  0.00  0.00     0.080 C 
ATOM    164  H   LYS d   1      16.091  40.361   1.456  0.00  0.00     0.075 H 
ATOM    165  H   LYS d   1      16.706  40.384  -0.246  0.00  0.00     0.075 H 
BRANCH 163 166
ATOM    166  NZ  LYS d   1      16.254  42.263   0.578  0.00  0.00    -0.079 N 
ATOM    167  H   LYS d   1      15.295  42.255   0.231  0.00  0.00     0.274 HD
ATOM    168  H   LYS d   1      16.286  42.734   1.482  0.00  0.00     0.274 HD
ATOM    169  H   LYS d   1      16.853  42.755  -0.085  0.00  0.00     0.274 HD
ENDBRANCH 163 166
ENDBRANCH 160 163
ENDBRANCH 157 160
ENDBRANCH 154 157
ENDBRANCH 100 154
ENDBRANCH  97 100
ENDBRANCH  94  96
BRANCH  94 170
ATOM    170  CB  GLN d   1      23.300  37.613  -2.406  0.00  0.00    -0.030 C 
ATOM    171  H   GLN d   1      23.574  36.978  -3.248  0.00  0.00     0.037 H 
ATOM    172  H   GLN d   1      24.066  37.685  -1.634  0.00  0.00     0.037 H 
BRANCH 170 173
ATOM    173  CG  GLN d   1      23.081  39.011  -2.952  0.00  0.00     0.011 C 
ATOM    174  H   GLN d   1      23.327  39.723  -2.164  0.00  0.00     0.047 H 
ATOM    175  H   GLN d   1      22.042  39.089  -3.273  0.00  0.00     0.047 H 
BRANCH 173 176
ATOM    176  CD  GLN d   1      23.964  39.310  -4.147  0.00  0.00     0.215 C 
ATOM    177  OE1 GLN d   1      25.014  38.692  -4.328  0.00  0.00    -0.274 OA
ATOM    178  NE2 GLN d   1      23.536  40.251  -4.978  0.00  0.00    -0.370 N 
ATOM    179  H   GLN d   1      24.083  40.488  -5.806  0.00  0.00     0.159 HD
ATOM    180  H   GLN d   1      22.660  40.738  -4.789  0.00  0.00     0.159 HD
ENDBRANCH 173 176
ENDBRANCH 170 173
ENDBRANCH  94 170
ENDBRANCH   3  94
TORSDOF 54
