REMARK WARNING: 32 MAX_TORS EXCEEDED!!!
REMARK  36 active torsions:
REMARK  status: ('A' for Active; 'I' for Inactive)
REMARK    1  A    between atoms: N_1  and  CA_2 
REMARK    2  A    between atoms: CA_2  and  CB_3 
REMARK    3  A    between atoms: CA_2  and  C_10 
REMARK    4  A    between atoms: CB_3  and  CG_4 
REMARK    5  A    between atoms: CG_4  and  CD_5 
REMARK    6  A    between atoms: CD_5  and  NE_6 
REMARK    7  A    between atoms: NE_6  and  CZ_7 
REMARK    8  A    between atoms: CZ_7  and  CH1_8 
REMARK       I    between atoms: C_10  and  N_12 
REMARK    9  A    between atoms: N_12  and  CA_13 
REMARK   10  A    between atoms: CA_13  and  C_14 
REMARK   11  A    between atoms: CA_13  and  CB_16 
REMARK       I    between atoms: C_14  and  N_19 
REMARK   12  A    between atoms: CB_16  and  CG1_17 
REMARK   13  A    between atoms: CB_16  and  CG2_18 
REMARK   14  A    between atoms: N_19  and  C1_20 
REMARK   15  A    between atoms: C1_20  and  C2_21 
REMARK   16  A    between atoms: C1_20  and  C3_22 
REMARK   17  A    between atoms: C2_21  and  N2_29 
REMARK   18  A    between atoms: C3_22  and  C4_23 
REMARK   19  A    between atoms: N2_29  and  C10_30 
REMARK   20  A    between atoms: C10_30  and  C_31 
REMARK   21  A    between atoms: C10_30  and  C12_33 
REMARK       I    between atoms: C_31  and  N_40 
REMARK   22  A    between atoms: C12_33  and  C13_34 
REMARK   23  A    between atoms: N_40  and  CA_41 
REMARK   24  A    between atoms: CA_41  and  C_42 
REMARK   25  A    between atoms: CA_41  and  CB_44 
REMARK       I    between atoms: C_42  and  N_49 
REMARK   26  A    between atoms: CB_44  and  CG_45 
REMARK   27  A    between atoms: CG_45  and  CD_46 
REMARK   28  A    between atoms: N_49  and  CA_50 
REMARK   29  A    between atoms: CA_50  and  C_51 
REMARK   30  A    between atoms: CA_50  and  CB_53 
REMARK       I    between atoms: C_51  and  N_54 
REMARK   31  A    between atoms: N_54  and  CA_55 
REMARK   32  A    between atoms: CA_55  and  C_56 
REMARK   33  A    between atoms: CA_55  and  CB_59 
REMARK   34  A    between atoms: CB_59  and  CG_60 
REMARK   35  A    between atoms: CG_60  and  CD_61 
REMARK   36  A    between atoms: CD_61  and  CE_62 
ROOT
ATOM      1  N2  PUK d   1      -9.085  16.929   0.632  0.00  0.00    -0.060 N 
ATOM      2  H37 PUK d   1      -8.689  16.088   1.021  0.00  0.00     0.278 HD
ATOM      3  H38 PUK d   1      -9.126  17.642   1.344  0.00  0.00     0.278 HD
ENDROOT
BRANCH   1   4
ATOM      4  C2  PUK d   1     -10.469  16.611   0.290  0.00  0.00     0.101 C 
ATOM      5  H28 PUK d   1     -11.123  17.434   0.612  0.00  0.00     0.079 H 
ATOM      6  H29 PUK d   1     -10.555  16.478  -0.798  0.00  0.00     0.079 H 
BRANCH   4   7
ATOM      7  C1  PUK d   1     -10.888  15.330   0.990  0.00  0.00     0.039 C 
ATOM      8  H27 PUK d   1     -10.160  14.542   0.747  0.00  0.00     0.075 H 
BRANCH   7   9
ATOM      9  N   PUK d   1     -10.916  15.530   2.435  0.00  0.00    -0.353 N 
ATOM     10  C   VAL d   1     -10.036  14.996   3.253  0.00  0.00     0.241 C 
ATOM     11  O   VAL d   1      -9.126  14.320   2.757  0.00  0.00    -0.271 OA
ATOM     12  H26 PUK d   1     -11.640  16.101   2.822  0.00  0.00     0.163 HD
BRANCH  10  13
ATOM     13  CA  VAL d   1     -10.284  15.314   4.727  0.00  0.00     0.092 C 
ATOM     14  H18 VAL d   1     -11.201  15.921   4.750  0.00  0.00     0.088 H 
BRANCH  13  15
ATOM     15  N   VAL d   1     -10.480  14.200   5.620  0.00  0.00    -0.346 N 
ATOM     16  C   ILO d   1     -11.349  13.509   6.380  0.00  0.00     0.249 C 
ATOM     17  OA2 ILO d   1     -10.887  12.588   7.010  0.00  0.00    -0.271 OA
ATOM     18  H17 VAL d   1      -9.593  13.749   5.715  0.00  0.00     0.163 HD
BRANCH  16  19
ATOM     19  CA  ILO d   1     -12.796  13.587   6.651  0.00  0.00     0.176 C 
ATOM     20  H4  ILO d   1     -13.295  14.449   6.184  0.00  0.00     0.099 H 
BRANCH  19  21
ATOM     21  N   ILO d   1     -13.377  12.309   6.239  0.00  0.00    -0.067 N 
ATOM     22  H1  ILO d   1     -14.370  12.321   6.409  0.00  0.00     0.275 HD
ATOM     23  H2  ILO d   1     -12.955  11.562   6.768  0.00  0.00     0.275 HD
ATOM     24  H3  ILO d   1     -13.206  12.163   5.256  0.00  0.00     0.275 HD
ENDBRANCH  19  21
BRANCH  19  25
ATOM     25  CB  ILO d   1     -12.793  13.624   8.178  0.00  0.00    -0.029 C 
ATOM     26  H5  ILO d   1     -12.953  14.665   8.496  0.00  0.00     0.036 H 
ATOM     27  H6  ILO d   1     -11.808  13.282   8.527  0.00  0.00     0.036 H 
BRANCH  25  28
ATOM     28  CG  ILO d   1     -13.858  12.757   8.839  0.00  0.00    -0.048 C 
ATOM     29  H7  ILO d   1     -13.980  11.835   8.251  0.00  0.00     0.035 H 
ATOM     30  H8  ILO d   1     -14.808  13.311   8.854  0.00  0.00     0.035 H 
BRANCH  28  31
ATOM     31  CD  ILO d   1     -13.485  12.382  10.271  0.00  0.00    -0.006 C 
ATOM     32  H9  ILO d   1     -14.368  12.484  10.919  0.00  0.00     0.064 H 
ATOM     33  H10 ILO d   1     -12.688  13.050  10.630  0.00  0.00     0.064 H 
BRANCH  31  34
ATOM     34  NE  ILO d   1     -13.015  11.004  10.303  0.00  0.00    -0.380 N 
ATOM     35  H11 ILO d   1     -13.630  10.263   9.938  0.00  0.00     0.160 HD
BRANCH  34  36
ATOM     36  CZ  ILO d   1     -11.839  10.669  10.778  0.00  0.00     0.066 C 
ATOM     37  NH2 ILO d   1     -11.493   9.463  10.779  0.00  0.00    -0.389 N 
ATOM     38  H15 ILO d   1     -10.571   9.192  11.150  0.00  0.00     0.157 HD
ATOM     39  H16 ILO d   1     -12.131   8.744  10.409  0.00  0.00     0.157 HD
BRANCH  36  40
ATOM     40  CH1 ILO d   1     -10.929  11.731  11.334  0.00  0.00    -0.024 C 
ATOM     41  H12 ILO d   1      -9.995  11.267  11.683  0.00  0.00     0.037 H 
ATOM     42  H13 ILO d   1     -11.425  12.235  12.176  0.00  0.00     0.037 H 
ATOM     43  H14 ILO d   1     -10.702  12.467  10.549  0.00  0.00     0.037 H 
ENDBRANCH  36  40
ENDBRANCH  34  36
ENDBRANCH  31  34
ENDBRANCH  28  31
ENDBRANCH  25  28
ENDBRANCH  19  25
ENDBRANCH  16  19
ENDBRANCH  13  15
BRANCH  13  44
ATOM     44  CB  VAL d   1      -9.153  16.126   5.382  0.00  0.00    -0.033 C 
ATOM     45  H19 VAL d   1      -9.683  16.956   5.871  0.00  0.00     0.042 H 
BRANCH  44  46
ATOM     46  CG1 VAL d   1      -8.382  15.430   6.492  0.00  0.00    -0.071 C 
ATOM     47  H20 VAL d   1      -7.605  16.106   6.879  0.00  0.00     0.028 H 
ATOM     48  H21 VAL d   1      -7.910  14.519   6.095  0.00  0.00     0.028 H 
ATOM     49  H22 VAL d   1      -9.072  15.161   7.305  0.00  0.00     0.028 H 
ENDBRANCH  44  46
BRANCH  44  50
ATOM     50  CG2 VAL d   1      -8.137  16.791   4.461  0.00  0.00    -0.071 C 
ATOM     51  H23 VAL d   1      -8.664  17.305   3.644  0.00  0.00     0.028 H 
ATOM     52  H24 VAL d   1      -7.467  16.026   4.041  0.00  0.00     0.028 H 
ATOM     53  H25 VAL d   1      -7.546  17.521   5.033  0.00  0.00     0.028 H 
ENDBRANCH  44  50
ENDBRANCH  13  44
ENDBRANCH  10  13
ENDBRANCH   7   9
BRANCH   7  54
ATOM     54  C3  PUK d   1     -12.272  14.884   0.540  0.00  0.00    -0.021 C 
ATOM     55  H30 PUK d   1     -12.204  14.481  -0.481  0.00  0.00     0.043 H 
ATOM     56  H31 PUK d   1     -12.948  15.752   0.548  0.00  0.00     0.043 H 
BRANCH  54  57
ATOM     57  C4  PUK d   1     -12.839  13.800   1.468  0.00  0.00    -0.056 A 
ATOM     58  C5  PUK d   1     -12.377  12.475   1.430  0.00  0.00    -0.077 A 
ATOM     59  C7  PUK d   1     -12.909  11.496   2.286  0.00  0.00    -0.082 A 
ATOM     60  H32 PUK d   1     -11.597  12.203   0.729  0.00  0.00     0.084 H 
ATOM     61  C9  PUK d   1     -13.923  11.785   3.209  0.00  0.00    -0.083 A 
ATOM     62  H34 PUK d   1     -12.523  10.485   2.231  0.00  0.00     0.083 H 
ATOM     63  C8  PUK d   1     -14.382  13.111   3.267  0.00  0.00    -0.082 A 
ATOM     64  H36 PUK d   1     -14.336  11.016   3.852  0.00  0.00     0.083 H 
ATOM     65  C6  PUK d   1     -13.859  14.099   2.392  0.00  0.00    -0.077 A 
ATOM     66  H35 PUK d   1     -15.144  13.383   3.988  0.00  0.00     0.083 H 
ATOM     67  H33 PUK d   1     -14.254  15.107   2.436  0.00  0.00     0.084 H 
ENDBRANCH  54  57
ENDBRANCH   7  54
ENDBRANCH   4   7
ENDBRANCH   1   4
BRANCH   1  68
ATOM     68  C10 PUK d   1      -8.138  17.403  -0.369  0.00  0.00     0.181 C 
ATOM     69  H39 PUK d   1      -8.508  18.360  -0.764  0.00  0.00     0.100 H 
BRANCH  68  70
ATOM     70  C   PUK d   1      -7.992  16.478  -1.559  0.00  0.00     0.249 C 
ATOM     71  O   PUK d   1      -7.950  15.248  -1.495  0.00  0.00    -0.271 OA
ATOM     72  N   GLU d   1      -7.897  17.037  -2.749  0.00  0.00    -0.346 N 
ATOM     73  H47 GLU d   1      -7.944  18.034  -2.810  0.00  0.00     0.163 HD
BRANCH  72  74
ATOM     74  CA  GLU d   1      -7.726  16.274  -3.985  0.00  0.00     0.090 C 
ATOM     75  H48 GLU d   1      -7.088  15.399  -3.789  0.00  0.00     0.087 H 
BRANCH  74  76
ATOM     76  C   GLU d   1      -7.043  17.155  -4.990  0.00  0.00     0.241 C 
ATOM     77  O   GLU d   1      -7.484  18.278  -5.217  0.00  0.00    -0.271 OA
ATOM     78  N   ALA d   1      -5.968  16.673  -5.608  0.00  0.00    -0.346 N 
ATOM     79  H53 ALA d   1      -5.657  15.764  -5.330  0.00  0.00     0.163 HD
BRANCH  78  80
ATOM     80  CA  ALA d   1      -5.201  17.339  -6.648  0.00  0.00     0.086 C 
ATOM     81  H54 ALA d   1      -5.803  18.111  -7.149  0.00  0.00     0.086 H 
BRANCH  80  82
ATOM     82  C   ALA d   1      -4.721  16.294  -7.663  0.00  0.00     0.240 C 
ATOM     83  O   ALA d   1      -4.717  15.092  -7.373  0.00  0.00    -0.271 OA
ATOM     84  N   NLE d   1      -4.266  16.654  -8.877  0.00  0.00    -0.345 N 
ATOM     85  H58 NLE d   1      -4.266  17.615  -9.152  0.00  0.00     0.163 HD
BRANCH  84  86
ATOM     86  CA  NLE d   1      -3.776  15.634  -9.780  0.00  0.00     0.096 C 
ATOM     87  H59 NLE d   1      -4.298  14.684  -9.594  0.00  0.00     0.089 H 
BRANCH  86  88
ATOM     88  C   NLE d   1      -2.323  15.506  -9.495  0.00  0.00     0.196 C 
ATOM     89  O   NLE d   1      -1.632  14.377  -9.749  0.00  0.00    -0.646 OA
ATOM     90  OXT NLE d   1      -1.754  16.470  -9.017  0.00  0.00    -0.646 OA
ENDBRANCH  86  88
BRANCH  86  91
ATOM     91  CB  NLE d   1      -3.934  16.024 -11.239  0.00  0.00    -0.037 C 
ATOM     92  H60 NLE d   1      -3.174  15.500 -11.838  0.00  0.00     0.036 H 
ATOM     93  H61 NLE d   1      -3.795  17.110 -11.340  0.00  0.00     0.036 H 
BRANCH  91  94
ATOM     94  CG  NLE d   1      -5.322  15.646 -11.748  0.00  0.00    -0.063 C 
ATOM     95  H62 NLE d   1      -5.962  16.541 -11.760  0.00  0.00     0.033 H 
ATOM     96  H63 NLE d   1      -5.761  14.890 -11.081  0.00  0.00     0.033 H 
BRANCH  94  97
ATOM     97  CD  NLE d   1      -5.222  15.074 -13.166  0.00  0.00    -0.068 C 
ATOM     98  H64 NLE d   1      -4.581  14.180 -13.146  0.00  0.00     0.032 H 
ATOM     99  H65 NLE d   1      -4.774  15.832 -13.826  0.00  0.00     0.032 H 
BRANCH  97 100
ATOM    100  CE  NLE d   1      -6.577  14.693 -13.708  0.00  0.00    -0.077 C 
ATOM    101  H66 NLE d   1      -6.465  14.288 -14.724  0.00  0.00     0.027 H 
ATOM    102  H67 NLE d   1      -7.223  15.582 -13.737  0.00  0.00     0.027 H 
ATOM    103  H68 NLE d   1      -7.031  13.931 -13.058  0.00  0.00     0.027 H 
ENDBRANCH  97 100
ENDBRANCH  94  97
ENDBRANCH  91  94
ENDBRANCH  86  91
ENDBRANCH  84  86
ENDBRANCH  80  82
BRANCH  80 104
ATOM    104  CB  ALA d   1      -4.002  17.952  -5.951  0.00  0.00    -0.049 C 
ATOM    105  H55 ALA d   1      -3.377  18.475  -6.689  0.00  0.00     0.030 H 
ATOM    106  H56 ALA d   1      -3.413  17.158  -5.468  0.00  0.00     0.030 H 
ATOM    107  H57 ALA d   1      -4.346  18.668  -5.190  0.00  0.00     0.030 H 
ENDBRANCH  80 104
ENDBRANCH  78  80
ENDBRANCH  74  76
BRANCH  74 108
ATOM    108  CB  GLU d   1      -9.090  15.782  -4.472  0.00  0.00    -0.029 C 
ATOM    109  H49 GLU d   1      -9.730  16.666  -4.606  0.00  0.00     0.037 H 
ATOM    110  H50 GLU d   1      -9.510  15.142  -3.682  0.00  0.00     0.037 H 
BRANCH 108 111
ATOM    111  CG  GLU d   1      -9.131  14.979  -5.787  0.00  0.00     0.018 C 
ATOM    112  H51 GLU d   1     -10.134  14.545  -5.909  0.00  0.00     0.049 H 
ATOM    113  H52 GLU d   1      -8.386  14.171  -5.735  0.00  0.00     0.049 H 
BRANCH 111 114
ATOM    114  CD  GLU d   1      -8.823  15.859  -6.995  0.00  0.00     0.172 C 
ATOM    115  OE1 GLU d   1      -8.036  15.442  -8.009  0.00  0.00    -0.648 OA
ATOM    116  OE2 GLU d   1      -9.257  17.013  -7.060  0.00  0.00    -0.648 OA
ENDBRANCH 111 114
ENDBRANCH 108 111
ENDBRANCH  74 108
ENDBRANCH  72  74
ENDBRANCH  68  70
BRANCH  68 117
ATOM    117  C12 PUK d   1      -6.845  17.676   0.385  0.00  0.00    -0.006 C 
ATOM    118  H40 PUK d   1      -6.627  16.805   1.021  0.00  0.00     0.043 H 
ATOM    119  H41 PUK d   1      -6.997  18.563   1.018  0.00  0.00     0.043 H 
BRANCH 117 120
ATOM    120  C13 PUK d   1      -5.644  17.927  -0.501  0.00  0.00    -0.056 A 
ATOM    121  C14 PUK d   1      -5.454  19.160  -1.132  0.00  0.00    -0.077 A 
ATOM    122  C16 PUK d   1      -4.330  19.328  -1.958  0.00  0.00    -0.082 A 
ATOM    123  H42 PUK d   1      -6.160  19.970  -0.987  0.00  0.00     0.084 H 
ATOM    124  C18 PUK d   1      -3.376  18.308  -2.144  0.00  0.00    -0.083 A 
ATOM    125  H44 PUK d   1      -4.192  20.274  -2.469  0.00  0.00     0.083 H 
ATOM    126  C17 PUK d   1      -3.548  17.094  -1.495  0.00  0.00    -0.082 A 
ATOM    127  H46 PUK d   1      -2.518  18.470  -2.786  0.00  0.00     0.083 H 
ATOM    128  C15 PUK d   1      -4.676  16.919  -0.687  0.00  0.00    -0.077 A 
ATOM    129  H45 PUK d   1      -2.823  16.297  -1.612  0.00  0.00     0.083 H 
ATOM    130  H43 PUK d   1      -4.812  15.969  -0.183  0.00  0.00     0.084 H 
ENDBRANCH 117 120
ENDBRANCH  68 117
ENDBRANCH   1  68
TORSDOF 36
