REMARK  8 active torsions:
REMARK  status: ('A' for Active; 'I' for Inactive)
REMARK    1  A    between atoms: N1_1  and  C1'_9 
REMARK    2  A    between atoms: C2'_10  and  O2'_11 
REMARK    3  A    between atoms: C3'_12  and  O3'_15 
REMARK    4  A    between atoms: C4'_13  and  C5'_16 
REMARK    5  A    between atoms: C5'_16  and  O5'_17 
REMARK    6  A    between atoms: O5'_17  and  PA_18 
REMARK    7  A    between atoms: PA_18  and  O3A_21 
REMARK    8  A    between atoms: O3A_21  and  PB_22 
ROOT
ATOM      1  C1' UDP d   1     -15.835  26.912  13.349  0.00  0.00     0.141 C 
ATOM      2  C2' UDP d   1     -17.305  26.568  13.462  0.00  0.00     0.105 C 
ATOM      3  C3' UDP d   1     -17.657  26.432  11.990  0.00  0.00     0.091 C 
ATOM      4  C4' UDP d   1     -16.767  27.457  11.306  0.00  0.00     0.089 C 
ATOM      5  O4' UDP d   1     -15.719  27.737  12.199  0.00  0.00    -0.353 OA
ATOM      6  H4  UDP d   1     -15.257  25.983  13.232  0.00  0.00     0.123 H 
ATOM      7  H5  UDP d   1     -17.872  27.383  13.935  0.00  0.00     0.093 H 
ATOM      8  H7  UDP d   1     -18.724  26.634  11.815  0.00  0.00     0.091 H 
ATOM      9  H8  UDP d   1     -16.367  27.039  10.370  0.00  0.00     0.090 H 
ENDROOT
BRANCH   4  10
ATOM     10  C5' UDP d   1     -17.529  28.739  10.997  0.00  0.00     0.058 C 
ATOM     11  H10 UDP d   1     -16.856  29.603  11.099  0.00  0.00     0.079 H 
ATOM     12  H11 UDP d   1     -18.372  28.846  11.695  0.00  0.00     0.079 H 
BRANCH  10  13
ATOM     13  O5' UDP d   1     -18.012  28.669   9.680  0.00  0.00    -0.287 OA
BRANCH  13  14
ATOM     14  PA  UDP d   1     -19.228  29.603   9.183  0.00  0.00     0.418 P 
ATOM     15  O1A UDP d   1     -19.410  29.429   7.730  0.00  0.00    -0.624 OA
ATOM     16  O2A UDP d   1     -19.006  31.003   9.591  0.00  0.00    -0.624 OA
BRANCH  14  17
ATOM     17  O3A UDP d   1     -20.411  28.926  10.048  0.00  0.00    -0.173 OA
BRANCH  17  18
ATOM     18  PB  UDP d   1     -21.995  29.024   9.784  0.00  0.00     0.431 P 
ATOM     19  O1B UDP d   1     -22.373  30.109   8.840  0.00  0.00    -0.616 OA
ATOM     20  O2B UDP d   1     -22.453  27.735   9.239  0.00  0.00    -0.616 OA
ATOM     21  O3B UDP d   1     -22.595  29.279  11.111  0.00  0.00    -0.616 OA
ENDBRANCH  17  18
ENDBRANCH  14  17
ENDBRANCH  13  14
ENDBRANCH  10  13
ENDBRANCH   4  10
BRANCH   3  22
ATOM     22  O3' UDP d   1     -17.312  25.156  11.504  0.00  0.00    -0.390 OA
ATOM     23  H9  UDP d   1     -16.399  24.980  11.700  0.00  0.00     0.210 HD
ENDBRANCH   3  22
BRANCH   2  24
ATOM     24  O2' UDP d   1     -17.528  25.374  14.188  0.00  0.00    -0.388 OA
ATOM     25  H6  UDP d   1     -18.461  25.201  14.232  0.00  0.00     0.210 HD
ENDBRANCH   2  24
BRANCH   1  26
ATOM     26  N1  UDP d   1     -15.268  27.693  14.453  0.00  0.00    -0.280 N 
ATOM     27  C2  UDP d   1     -14.135  27.222  15.072  0.00  0.00     0.331 A 
ATOM     28  N3  UDP d   1     -13.557  27.967  16.073  0.00  0.00    -0.275 N 
ATOM     29  O2  UDP d   1     -13.656  26.133  14.733  0.00  0.00    -0.246 OA
ATOM     30  C4  UDP d   1     -14.105  29.184  16.443  0.00  0.00     0.250 A 
ATOM     31  H1  UDP d   1     -12.738  27.629  16.536  0.00  0.00     0.173 HD
ATOM     32  C5  UDP d   1     -15.241  29.669  15.801  0.00  0.00    -0.002 A 
ATOM     33  O4  UDP d   1     -13.577  29.844  17.334  0.00  0.00    -0.268 OA
ATOM     34  C6  UDP d   1     -15.838  28.886  14.817  0.00  0.00    -0.008 A 
ATOM     35  H2  UDP d   1     -15.655  30.642  16.063  0.00  0.00     0.094 H 
ATOM     36  H3  UDP d   1     -16.756  29.220  14.337  0.00  0.00     0.112 H 
ENDBRANCH   1  26
TORSDOF 8
