REMARK WARNING: 32 MAX_TORS EXCEEDED!!!
REMARK  38 active torsions:
REMARK  status: ('A' for Active; 'I' for Inactive)
REMARK    1  A    between atoms: N_1  and  CA_2 
REMARK    2  A    between atoms: CA_2  and  CB_3 
REMARK    3  A    between atoms: CA_2  and  C_10 
REMARK    4  A    between atoms: CB_3  and  CG_4 
REMARK    5  A    between atoms: CG_4  and  CD_5 
REMARK    6  A    between atoms: CD_5  and  NE_6 
REMARK    7  A    between atoms: NE_6  and  CZ_7 
REMARK    8  A    between atoms: CZ_7  and  CH1_8 
REMARK       I    between atoms: C_10  and  N_12 
REMARK    9  A    between atoms: N_12  and  CA_13 
REMARK   10  A    between atoms: CA_13  and  C_14 
REMARK   11  A    between atoms: CA_13  and  CB_16 
REMARK       I    between atoms: C_14  and  N_19 
REMARK   12  A    between atoms: CB_16  and  CG1_17 
REMARK   13  A    between atoms: CB_16  and  CG2_18 
REMARK   14  A    between atoms: N_19  and  C1_20 
REMARK   15  A    between atoms: C1_20  and  C2_21 
REMARK   16  A    between atoms: C1_20  and  C3_22 
REMARK   17  A    between atoms: C2_21  and  N2_26 
REMARK   18  A    between atoms: C3_22  and  C4_23 
REMARK   19  A    between atoms: C4_23  and  C5_24 
REMARK   20  A    between atoms: C4_23  and  C6_25 
REMARK   21  A    between atoms: N2_26  and  C7_27 
REMARK   22  A    between atoms: C7_27  and  C_28 
REMARK   23  A    between atoms: C7_27  and  C9_30 
REMARK       I    between atoms: C_28  and  N_37 
REMARK   24  A    between atoms: C9_30  and  C10_31 
REMARK   25  A    between atoms: N_37  and  CA_38 
REMARK   26  A    between atoms: CA_38  and  C_39 
REMARK   27  A    between atoms: CA_38  and  CB_41 
REMARK       I    between atoms: C_39  and  N_46 
REMARK   28  A    between atoms: CB_41  and  CG_42 
REMARK   29  A    between atoms: CG_42  and  CD_43 
REMARK   30  A    between atoms: N_46  and  CA_47 
REMARK   31  A    between atoms: CA_47  and  C_48 
REMARK   32  A    between atoms: CA_47  and  CB_50 
REMARK       I    between atoms: C_48  and  N_51 
REMARK   33  A    between atoms: N_51  and  CA_52 
REMARK   34  A    between atoms: CA_52  and  C_53 
REMARK   35  A    between atoms: CA_52  and  CB_56 
REMARK   36  A    between atoms: CB_56  and  CG_57 
REMARK   37  A    between atoms: CG_57  and  CD_58 
REMARK   38  A    between atoms: CD_58  and  CE_59 
ROOT
ATOM      1  N2  DC0 d   1     -10.151  16.213   0.439  0.00  0.00    -0.060 N 
ATOM      2  H39 DC0 d   1      -9.625  15.379   0.232  0.00  0.00     0.278 HD
ATOM      3  H40 DC0 d   1     -10.667  16.497  -0.379  0.00  0.00     0.278 HD
ENDROOT
BRANCH   1   4
ATOM      4  C2  DC0 d   1      -9.189  17.263   0.719  0.00  0.00     0.101 C 
ATOM      5  H28 DC0 d   1      -9.622  18.236   0.444  0.00  0.00     0.078 H 
ATOM      6  H29 DC0 d   1      -8.948  17.259   1.792  0.00  0.00     0.078 H 
BRANCH   4   7
ATOM      7  C1  DC0 d   1      -7.922  17.035  -0.079  0.00  0.00     0.035 C 
ATOM      8  H27 DC0 d   1      -7.451  16.083   0.208  0.00  0.00     0.075 H 
BRANCH   7   9
ATOM      9  N   DC0 d   1      -8.162  17.049  -1.523  0.00  0.00    -0.353 N 
ATOM     10  C   VAL d   1      -8.166  15.989  -2.349  0.00  0.00     0.241 C 
ATOM     11  O   VAL d   1      -8.144  14.836  -1.916  0.00  0.00    -0.271 OA
ATOM     12  H26 DC0 d   1      -8.342  17.941  -1.938  0.00  0.00     0.163 HD
BRANCH  10  13
ATOM     13  CA  VAL d   1      -8.232  16.287  -3.868  0.00  0.00     0.092 C 
ATOM     14  H18 VAL d   1      -8.744  17.255  -3.971  0.00  0.00     0.088 H 
BRANCH  13  15
ATOM     15  N   VAL d   1      -6.903  16.435  -4.419  0.00  0.00    -0.346 N 
ATOM     16  C   ILO d   1      -6.522  17.504  -5.106  0.00  0.00     0.249 C 
ATOM     17  OA1 ILO d   1      -7.239  18.488  -5.187  0.00  0.00    -0.271 OA
ATOM     18  H17 VAL d   1      -6.242  15.699  -4.276  0.00  0.00     0.163 HD
BRANCH  16  19
ATOM     19  CA  ILO d   1      -5.184  17.531  -5.810  0.00  0.00     0.176 C 
ATOM     20  H4  ILO d   1      -5.024  18.540  -6.218  0.00  0.00     0.099 H 
BRANCH  19  21
ATOM     21  N   ILO d   1      -4.196  17.305  -4.776  0.00  0.00    -0.067 N 
ATOM     22  H1  ILO d   1      -3.275  17.311  -5.185  0.00  0.00     0.275 HD
ATOM     23  H2  ILO d   1      -4.364  16.412  -4.340  0.00  0.00     0.275 HD
ATOM     24  H3  ILO d   1      -4.262  18.034  -4.083  0.00  0.00     0.275 HD
ENDBRANCH  19  21
BRANCH  19  25
ATOM     25  CB  ILO d   1      -5.125  16.571  -6.986  0.00  0.00    -0.029 C 
ATOM     26  H5  ILO d   1      -5.501  17.114  -7.866  0.00  0.00     0.036 H 
ATOM     27  H6  ILO d   1      -5.801  15.735  -6.755  0.00  0.00     0.036 H 
BRANCH  25  28
ATOM     28  CG  ILO d   1      -3.760  15.958  -7.378  0.00  0.00    -0.048 C 
ATOM     29  H7  ILO d   1      -3.822  14.864  -7.280  0.00  0.00     0.035 H 
ATOM     30  H8  ILO d   1      -2.990  16.344  -6.694  0.00  0.00     0.035 H 
BRANCH  28  31
ATOM     31  CD  ILO d   1      -3.356  16.304  -8.827  0.00  0.00    -0.006 C 
ATOM     32  H9  ILO d   1      -3.740  17.305  -9.072  0.00  0.00     0.064 H 
ATOM     33  H10 ILO d   1      -3.803  15.563  -9.506  0.00  0.00     0.064 H 
BRANCH  31  34
ATOM     34  NE  ILO d   1      -1.895  16.297  -9.013  0.00  0.00    -0.380 N 
ATOM     35  H11 ILO d   1      -1.389  17.155  -8.750  0.00  0.00     0.160 HD
BRANCH  34  36
ATOM     36  CZ  ILO d   1      -1.145  15.265  -9.500  0.00  0.00     0.066 C 
ATOM     37  NH2 ILO d   1      -1.626  14.217 -10.019  0.00  0.00    -0.389 N 
ATOM     38  H15 ILO d   1      -0.997  13.479 -10.366  0.00  0.00     0.157 HD
ATOM     39  H16 ILO d   1      -2.647  14.102 -10.095  0.00  0.00     0.157 HD
BRANCH  36  40
ATOM     40  CH1 ILO d   1       0.366  15.314  -9.442  0.00  0.00    -0.024 C 
ATOM     41  H12 ILO d   1       0.780  14.395  -9.882  0.00  0.00     0.037 H 
ATOM     42  H13 ILO d   1       0.690  15.398  -8.394  0.00  0.00     0.037 H 
ATOM     43  H14 ILO d   1       0.727  16.186 -10.008  0.00  0.00     0.037 H 
ENDBRANCH  36  40
ENDBRANCH  34  36
ENDBRANCH  31  34
ENDBRANCH  28  31
ENDBRANCH  25  28
ENDBRANCH  19  25
ENDBRANCH  16  19
ENDBRANCH  13  15
BRANCH  13  44
ATOM     44  CB  VAL d   1      -9.031  15.274  -4.718  0.00  0.00    -0.033 C 
ATOM     45  H19 VAL d   1      -8.488  14.319  -4.653  0.00  0.00     0.042 H 
BRANCH  44  46
ATOM     46  CG1 VAL d   1     -10.477  15.014  -4.217  0.00  0.00    -0.071 C 
ATOM     47  H20 VAL d   1     -10.968  14.285  -4.878  0.00  0.00     0.028 H 
ATOM     48  H21 VAL d   1     -11.043  15.957  -4.226  0.00  0.00     0.028 H 
ATOM     49  H22 VAL d   1     -10.444  14.616  -3.192  0.00  0.00     0.028 H 
ENDBRANCH  44  46
BRANCH  44  50
ATOM     50  CG2 VAL d   1      -9.098  15.669  -6.201  0.00  0.00    -0.071 C 
ATOM     51  H23 VAL d   1      -8.081  15.858  -6.576  0.00  0.00     0.028 H 
ATOM     52  H24 VAL d   1      -9.705  16.580  -6.311  0.00  0.00     0.028 H 
ATOM     53  H25 VAL d   1      -9.556  14.852  -6.778  0.00  0.00     0.028 H 
ENDBRANCH  44  50
ENDBRANCH  13  44
ENDBRANCH  10  13
ENDBRANCH   7   9
BRANCH   7  54
ATOM     54  C3  DC0 d   1      -7.049  18.204   0.278  0.00  0.00    -0.042 C 
ATOM     55  H30 DC0 d   1      -6.802  18.164   1.349  0.00  0.00     0.036 H 
ATOM     56  H31 DC0 d   1      -7.582  19.141   0.059  0.00  0.00     0.036 H 
BRANCH  54  57
ATOM     57  C4  DC0 d   1      -5.773  18.147  -0.537  0.00  0.00    -0.059 C 
ATOM     58  H32 DC0 d   1      -6.066  18.141  -1.597  0.00  0.00     0.038 H 
BRANCH  57  59
ATOM     59  C5  DC0 d   1      -4.918  19.388  -0.294  0.00  0.00    -0.073 C 
ATOM     60  H33 DC0 d   1      -3.999  19.324  -0.895  0.00  0.00     0.028 H 
ATOM     61  H34 DC0 d   1      -4.655  19.449   0.772  0.00  0.00     0.028 H 
ATOM     62  H35 DC0 d   1      -5.484  20.286  -0.584  0.00  0.00     0.028 H 
ENDBRANCH  57  59
BRANCH  57  63
ATOM     63  C6  DC0 d   1      -4.946  16.897  -0.290  0.00  0.00    -0.073 C 
ATOM     64  H36 DC0 d   1      -5.566  16.006  -0.466  0.00  0.00     0.028 H 
ATOM     65  H37 DC0 d   1      -4.588  16.894   0.750  0.00  0.00     0.028 H 
ATOM     66  H38 DC0 d   1      -4.085  16.886  -0.975  0.00  0.00     0.028 H 
ENDBRANCH  57  63
ENDBRANCH  54  57
ENDBRANCH   7  54
ENDBRANCH   4   7
ENDBRANCH   1   4
BRANCH   1  67
ATOM     67  C7  DC0 d   1     -11.121  15.860   1.449  0.00  0.00     0.181 C 
ATOM     68  H41 DC0 d   1     -11.544  16.789   1.859  0.00  0.00     0.100 H 
BRANCH  67  69
ATOM     69  C   DC0 d   1     -10.474  15.141   2.616  0.00  0.00     0.249 C 
ATOM     70  O   DC0 d   1      -9.438  14.545   2.487  0.00  0.00    -0.271 OA
ATOM     71  N   GLU d   1     -11.090  15.117   3.818  0.00  0.00    -0.346 N 
ATOM     72  H49 GLU d   1     -12.017  15.488   3.882  0.00  0.00     0.163 HD
BRANCH  71  73
ATOM     73  CA  GLU d   1     -10.472  14.575   5.038  0.00  0.00     0.090 C 
ATOM     74  H50 GLU d   1      -9.996  13.602   4.849  0.00  0.00     0.087 H 
BRANCH  73  75
ATOM     75  C   GLU d   1     -11.555  14.444   6.068  0.00  0.00     0.241 C 
ATOM     76  O   GLU d   1     -12.349  15.341   6.257  0.00  0.00    -0.271 OA
ATOM     77  N   ALA d   1     -11.603  13.320   6.767  0.00  0.00    -0.346 N 
ATOM     78  H55 ALA d   1     -10.886  12.639   6.619  0.00  0.00     0.163 HD
BRANCH  77  79
ATOM     79  CA  ALA d   1     -12.630  13.030   7.725  0.00  0.00     0.086 C 
ATOM     80  H56 ALA d   1     -12.804  13.887   8.393  0.00  0.00     0.086 H 
BRANCH  79  81
ATOM     81  C   ALA d   1     -12.196  11.817   8.523  0.00  0.00     0.240 C 
ATOM     82  O   ALA d   1     -11.181  11.177   8.200  0.00  0.00    -0.271 OA
ATOM     83  N   NLE d   1     -13.006  11.469   9.559  0.00  0.00    -0.345 N 
ATOM     84  H60 NLE d   1     -13.849  11.992   9.683  0.00  0.00     0.163 HD
BRANCH  83  85
ATOM     85  CA  NLE d   1     -12.738  10.398  10.495  0.00  0.00     0.096 C 
ATOM     86  H61 NLE d   1     -13.513  10.406  11.275  0.00  0.00     0.089 H 
BRANCH  85  87
ATOM     87  C   NLE d   1     -11.423  10.722  11.138  0.00  0.00     0.196 C 
ATOM     88  O   NLE d   1     -10.300  10.393  10.506  0.00  0.00    -0.646 OA
ATOM     89  OXT NLE d   1     -11.355  11.327  12.216  0.00  0.00    -0.646 OA
ENDBRANCH  85  87
BRANCH  85  90
ATOM     90  CB  NLE d   1     -12.796   9.023   9.811  0.00  0.00    -0.037 C 
ATOM     91  H62 NLE d   1     -11.864   8.479  10.024  0.00  0.00     0.036 H 
ATOM     92  H63 NLE d   1     -12.896   9.168   8.725  0.00  0.00     0.036 H 
BRANCH  90  93
ATOM     93  CG  NLE d   1     -13.982   8.193  10.313  0.00  0.00    -0.063 C 
ATOM     94  H64 NLE d   1     -14.904   8.591   9.864  0.00  0.00     0.033 H 
ATOM     95  H65 NLE d   1     -14.037   8.287  11.408  0.00  0.00     0.033 H 
BRANCH  93  96
ATOM     96  CD  NLE d   1     -13.868   6.705   9.956  0.00  0.00    -0.068 C 
ATOM     97  H66 NLE d   1     -13.318   6.605   9.008  0.00  0.00     0.032 H 
ATOM     98  H67 NLE d   1     -14.878   6.286   9.840  0.00  0.00     0.032 H 
BRANCH  96  99
ATOM     99  CE  NLE d   1     -13.133   5.933  11.039  0.00  0.00    -0.077 C 
ATOM    100  H68 NLE d   1     -13.068   4.873  10.754  0.00  0.00     0.027 H 
ATOM    101  H69 NLE d   1     -13.679   6.024  11.989  0.00  0.00     0.027 H 
ATOM    102  H70 NLE d   1     -12.119   6.343  11.158  0.00  0.00     0.027 H 
ENDBRANCH  96  99
ENDBRANCH  93  96
ENDBRANCH  90  93
ENDBRANCH  85  90
ENDBRANCH  83  85
ENDBRANCH  79  81
BRANCH  79 103
ATOM    103  CB  ALA d   1     -13.892  12.704   6.919  0.00  0.00    -0.049 C 
ATOM    104  H57 ALA d   1     -14.717  12.472   7.608  0.00  0.00     0.030 H 
ATOM    105  H58 ALA d   1     -13.700  11.835   6.272  0.00  0.00     0.030 H 
ATOM    106  H59 ALA d   1     -14.165  13.570   6.298  0.00  0.00     0.030 H 
ENDBRANCH  79 103
ENDBRANCH  77  79
ENDBRANCH  73  75
BRANCH  73 107
ATOM    107  CB  GLU d   1      -9.440  15.608   5.491  0.00  0.00    -0.029 C 
ATOM    108  H51 GLU d   1      -9.965  16.566   5.625  0.00  0.00     0.037 H 
ATOM    109  H52 GLU d   1      -8.695  15.707   4.688  0.00  0.00     0.037 H 
BRANCH 107 110
ATOM    110  CG  GLU d   1      -8.690  15.311   6.780  0.00  0.00     0.018 C 
ATOM    111  H53 GLU d   1      -7.796  15.949   6.848  0.00  0.00     0.049 H 
ATOM    112  H54 GLU d   1      -8.388  14.254   6.801  0.00  0.00     0.049 H 
BRANCH 110 113
ATOM    113  CD  GLU d   1      -9.625  15.605   7.948  0.00  0.00     0.172 C 
ATOM    114  OE1 GLU d   1     -10.430  16.680   7.907  0.00  0.00    -0.648 OA
ATOM    115  OE2 GLU d   1      -9.693  14.849   8.930  0.00  0.00    -0.648 OA
ENDBRANCH 110 113
ENDBRANCH 107 110
ENDBRANCH  73 107
ENDBRANCH  71  73
ENDBRANCH  67  69
BRANCH  67 116
ATOM    116  C9  DC0 d   1     -12.248  15.136   0.725  0.00  0.00    -0.006 C 
ATOM    117  H42 DC0 d   1     -11.886  14.857  -0.276  0.00  0.00     0.043 H 
ATOM    118  H43 DC0 d   1     -13.093  15.833   0.628  0.00  0.00     0.043 H 
BRANCH 116 119
ATOM    119  C10 DC0 d   1     -12.747  13.892   1.401  0.00  0.00    -0.056 A 
ATOM    120  C11 DC0 d   1     -12.128  12.670   1.206  0.00  0.00    -0.077 A 
ATOM    121  C13 DC0 d   1     -12.614  11.518   1.852  0.00  0.00    -0.082 A 
ATOM    122  H44 DC0 d   1     -11.265  12.600   0.553  0.00  0.00     0.084 H 
ATOM    123  C15 DC0 d   1     -13.729  11.573   2.706  0.00  0.00    -0.083 A 
ATOM    124  H46 DC0 d   1     -12.118  10.568   1.688  0.00  0.00     0.083 H 
ATOM    125  C14 DC0 d   1     -14.340  12.811   2.893  0.00  0.00    -0.082 A 
ATOM    126  H48 DC0 d   1     -14.101  10.683   3.202  0.00  0.00     0.083 H 
ATOM    127  C12 DC0 d   1     -13.884  13.971   2.227  0.00  0.00    -0.077 A 
ATOM    128  H47 DC0 d   1     -15.186  12.886   3.566  0.00  0.00     0.083 H 
ATOM    129  H45 DC0 d   1     -14.405  14.913   2.351  0.00  0.00     0.084 H 
ENDBRANCH 116 119
ENDBRANCH  67 116
ENDBRANCH   1  67
TORSDOF 38
