REMARK  4 active torsions:
REMARK  status: ('A' for Active; 'I' for Inactive)
REMARK    1  A    between atoms: C8_8  and  C1_1 
REMARK    2  A    between atoms: N3_3  and  C29_29 
REMARK       I    between atoms: N7_7  and  C10_10 
REMARK    3  A    between atoms: C10_10  and  C17_17 
REMARK    4  A    between atoms: C18_18  and  C13_13 
ROOT
ATOM      1  C16 10J d   1      28.154  10.313  20.699  0.00  0.00     0.045 A 
ATOM      2  C18 10J d   1      26.060  10.785  19.522  0.00  0.00    -0.024 A 
ATOM      3  N19 10J d   1      29.361   9.712  22.872  0.00  0.00    -0.191 NA
ATOM      4  C20 10J d   1      28.821   9.981  21.899  0.00  0.00     0.099 C 
ATOM      5  C22 10J d   1      26.748  10.442  20.719  0.00  0.00    -0.052 A 
ATOM      6  C24 10J d   1      28.886  10.486  19.503  0.00  0.00    -0.063 A 
ATOM      7  C27 10J d   1      26.812  10.948  18.309  0.00  0.00    -0.072 A 
ATOM      8  C28 10J d   1      28.210  10.788  18.293  0.00  0.00    -0.081 A 
ATOM      9  H   10J d   1      26.194  10.280  21.644  0.00  0.00     0.087 H 
ATOM     10  H   10J d   1      29.971  10.387  19.510  0.00  0.00     0.085 H 
ATOM     11  H   10J d   1      26.291  11.200  17.385  0.00  0.00     0.084 H 
ATOM     12  H   10J d   1      28.767  10.895  17.362  0.00  0.00     0.083 H 
ENDROOT
BRANCH   2  13
ATOM     13  C13 10J d   1      24.618  10.917  19.558  0.00  0.00    -0.018 A 
ATOM     14  C12 10J d   1      23.782  10.509  20.628  0.00  0.00    -0.057 A 
ATOM     15  C8  10J d   1      22.434  10.742  20.436  0.00  0.00     0.015 A 
ATOM     16  H   10J d   1      24.174  10.046  21.534  0.00  0.00     0.086 H 
ATOM     17  S14 10J d   1      22.210  11.432  18.881  0.00  0.00    -0.103 SA
ATOM     18  C15 10J d   1      23.868  11.435  18.513  0.00  0.00    -0.034 A 
ATOM     19  H   10J d   1      24.289  11.798  17.575  0.00  0.00     0.096 H 
BRANCH  15  20
ATOM     20  C1  10J d   1      21.289  10.451  21.373  0.00  0.00     0.110 C 
ATOM     21  C2  10J d   1      20.678  11.726  22.009  0.00  0.00     0.071 C 
ATOM     22  C5  10J d   1      21.586  12.313  23.102  0.00  0.00     0.246 C 
ATOM     23  C11 10J d   1      19.340  11.252  22.522  0.00  0.00     0.012 C 
ATOM     24  H   10J d   1      20.570  12.553  21.307  0.00  0.00     0.061 H 
ATOM     25  N3  10J d   1      22.400  11.399  23.845  0.00  0.00    -0.156 N 
ATOM     26  O23 10J d   1      21.539  13.539  23.241  0.00  0.00    -0.272 OA
ATOM     27  C4  10J d   1      22.355  10.010  23.613  0.00  0.00     0.677 C 
ATOM     28  N6  10J d   1      21.671   9.578  22.471  0.00  0.00    -0.210 N 
ATOM     29  N21 10J d   1      22.803   9.118  24.445  0.00  0.00    -0.234 N 
ATOM     30  H   10J d   1      21.425   8.590  22.405  0.00  0.00     0.179 HD
ATOM     31  H   10J d   1      22.653   8.126  24.259  0.00  0.00     0.174 HD
ATOM     32  H   10J d   1      23.305   9.409  25.284  0.00  0.00     0.174 HD
ATOM     33  N7  10J d   1      18.901  10.374  21.443  0.00  0.00    -0.344 N 
ATOM     34  H   10J d   1      18.643  12.064  22.731  0.00  0.00     0.065 H 
ATOM     35  H   10J d   1      19.398  10.754  23.490  0.00  0.00     0.065 H 
ATOM     36  C9  10J d   1      20.042   9.831  20.689  0.00  0.00     0.027 C 
ATOM     37  C10 10J d   1      17.626   9.865  21.258  0.00  0.00     0.253 C 
ATOM     38  H   10J d   1      20.064   8.741  20.709  0.00  0.00     0.068 H 
ATOM     39  H   10J d   1      19.989  10.083  19.630  0.00  0.00     0.068 H 
ATOM     40  O25 10J d   1      17.302   9.251  20.232  0.00  0.00    -0.267 OA
BRANCH  25  41
ATOM     41  C29 10J d   1      23.297  11.949  24.915  0.00  0.00     0.005 C 
ATOM     42  H   10J d   1      24.001  12.653  24.471  0.00  0.00     0.058 H 
ATOM     43  H   10J d   1      22.694  12.460  25.665  0.00  0.00     0.058 H 
ATOM     44  H   10J d   1      23.846  11.132  25.383  0.00  0.00     0.058 H 
ENDBRANCH  25  41
BRANCH  37  45
ATOM     45  C17 10J d   1      16.614  10.143  22.286  0.00  0.00     0.032 A 
ATOM     46  C26 10J d   1      16.712   9.664  23.634  0.00  0.00    -0.068 A 
ATOM     47  C30 10J d   1      15.684   9.991  24.551  0.00  0.00    -0.082 A 
ATOM     48  H   10J d   1      17.563   9.059  23.947  0.00  0.00     0.085 H 
ATOM     49  C33 10J d   1      14.564  10.760  24.108  0.00  0.00    -0.083 A 
ATOM     50  H   10J d   1      15.746   9.659  25.587  0.00  0.00     0.083 H 
ATOM     51  C32 10J d   1      14.480  11.252  22.749  0.00  0.00    -0.082 A 
ATOM     52  H   10J d   1      13.757  10.980  24.807  0.00  0.00     0.083 H 
ATOM     53  C31 10J d   1      15.497  10.956  21.837  0.00  0.00    -0.068 A 
ATOM     54  H   10J d   1      13.625  11.852  22.438  0.00  0.00     0.083 H 
ATOM     55  H   10J d   1      15.453  11.326  20.813  0.00  0.00     0.085 H 
ENDBRANCH  37  45
ENDBRANCH  15  20
ENDBRANCH   2  13
TORSDOF 4
