REMARK  12 active torsions:
REMARK  status: ('A' for Active; 'I' for Inactive)
REMARK    1  A    between atoms: C16_16  and  C1_1 
REMARK    2  A    between atoms: C17_17  and  C2_2 
REMARK    3  A    between atoms: C26_26  and  C3_3 
REMARK    4  A    between atoms: C26_26  and  C4_4 
REMARK    5  A    between atoms: C26_26  and  C5_5 
REMARK    6  A    between atoms: O34_34  and  C6_6 
REMARK    7  A    between atoms: N32_32  and  C18_18 
REMARK    8  A    between atoms: C19_19  and  O34_34 
REMARK    9  A    between atoms: C21_21  and  C20_20 
REMARK   10  A    between atoms: C22_22  and  C26_26 
REMARK   11  A    between atoms: N30_30  and  C23_23 
REMARK   12  A    between atoms: N31_31  and  C24_24 
REMARK       I    between atoms: C25_25  and  N30_30 
REMARK       I    between atoms: C25_25  and  N31_31 
ROOT
ATOM      1  C15 0YH d   1      -5.921   0.037  10.070  0.00  0.00    -0.012 A 
ATOM      2  C22 0YH d   1      -6.276   1.391  10.001  0.00  0.00     0.066 A 
ATOM      3  C24 0YH d   1      -6.299  -0.447  11.301  0.00  0.00     0.135 A 
ATOM      4  N29 0YH d   1      -6.851   1.706  11.136  0.00  0.00    -0.169 NA
ATOM      5  N32 0YH d   1      -6.870   0.596  11.985  0.00  0.00    -0.217 N 
ATOM      6  H   0YH d   1      -5.429  -0.535   9.283  0.00  0.00     0.092 H 
ENDROOT
BRANCH   3   7
ATOM      7  N31 0YH d   1      -6.163  -1.752  11.801  0.00  0.00    -0.293 N 
ATOM      8  C25 0YH d   1      -5.234  -2.657  11.427  0.00  0.00     0.327 C 
ATOM      9  N30 0YH d   1      -5.273  -3.847  12.058  0.00  0.00    -0.293 N 
ATOM     10  O33 0YH d   1      -4.405  -2.425  10.567  0.00  0.00    -0.247 OA
ATOM     11  H   0YH d   1      -6.030  -3.983  12.728  0.00  0.00     0.172 HD
ATOM     12  H   0YH d   1      -6.830  -2.044  12.515  0.00  0.00     0.172 HD
BRANCH   9  13
ATOM     13  C23 0YH d   1      -4.390  -4.910  11.892  0.00  0.00     0.127 A 
ATOM     14  C14 0YH d   1      -3.869  -5.438  10.750  0.00  0.00    -0.009 A 
ATOM     15  C21 0YH d   1      -3.053  -6.531  11.135  0.00  0.00     0.091 A 
ATOM     16  H   0YH d   1      -4.046  -5.087   9.733  0.00  0.00     0.093 H 
ATOM     17  N28 0YH d   1      -3.130  -6.656  12.436  0.00  0.00    -0.172 NA
ATOM     18  N27 0YH d   1      -3.940  -5.646  12.936  0.00  0.00    -0.262 N 
ATOM     19  H   0YH d   1      -4.159  -5.486  13.919  0.00  0.00     0.191 HD
BRANCH  15  20
ATOM     20  C20 0YH d   1      -2.287  -7.443  10.241  0.00  0.00     0.001 A 
ATOM     21  C12 0YH d   1      -2.934  -7.897   9.080  0.00  0.00    -0.068 A 
ATOM     22  C11 0YH d   1      -2.306  -8.789   8.225  0.00  0.00    -0.050 A 
ATOM     23  H   0YH d   1      -3.939  -7.545   8.849  0.00  0.00     0.085 H 
ATOM     24  C19 0YH d   1      -1.014  -9.238   8.499  0.00  0.00     0.068 A 
ATOM     25  H   0YH d   1      -2.825  -9.142   7.333  0.00  0.00     0.087 H 
ATOM     26  C13 0YH d   1      -0.363  -8.786   9.659  0.00  0.00    -0.044 A 
ATOM     27  C17 0YH d   1      -0.984  -7.908  10.538  0.00  0.00    -0.047 A 
ATOM     28  H   0YH d   1       0.649  -9.131   9.873  0.00  0.00     0.088 H 
BRANCH  24  29
ATOM     29  O34 0YH d   1      -0.423 -10.101   7.615  0.00  0.00    -0.356 OA
BRANCH  29  30
ATOM     30  C6  0YH d   1       0.948 -10.501   7.784  0.00  0.00     0.010 C 
ATOM     31  H   0YH d   1       1.589  -9.620   7.750  0.00  0.00     0.066 H 
ATOM     32  H   0YH d   1       1.064 -11.000   8.746  0.00  0.00     0.066 H 
ATOM     33  H   0YH d   1       1.227 -11.185   6.983  0.00  0.00     0.066 H 
ENDBRANCH  29  30
ENDBRANCH  24  29
BRANCH  27  34
ATOM     34  C2  0YH d   1      -0.192  -7.486  11.750  0.00  0.00    -0.050 C 
ATOM     35  H   0YH d   1       0.062  -8.366  12.341  0.00  0.00     0.033 H 
ATOM     36  H   0YH d   1       0.722  -6.986  11.429  0.00  0.00     0.033 H 
ATOM     37  H   0YH d   1      -0.789  -6.802  12.353  0.00  0.00     0.033 H 
ENDBRANCH  27  34
ENDBRANCH  15  20
ENDBRANCH   9  13
ENDBRANCH   3   7
BRANCH   5  38
ATOM     38  C18 0YH d   1      -7.485   0.613  13.246  0.00  0.00     0.060 A 
ATOM     39  C9  0YH d   1      -6.873   0.093  14.392  0.00  0.00    -0.055 A 
ATOM     40  C7  0YH d   1      -7.536   0.164  15.621  0.00  0.00    -0.075 A 
ATOM     41  H   0YH d   1      -5.886  -0.364  14.327  0.00  0.00     0.087 H 
ATOM     42  C16 0YH d   1      -8.771   0.798  15.715  0.00  0.00    -0.062 A 
ATOM     43  H   0YH d   1      -7.084  -0.279  16.508  0.00  0.00     0.084 H 
ATOM     44  C8  0YH d   1      -9.382   1.330  14.579  0.00  0.00    -0.075 A 
ATOM     45  C10 0YH d   1      -8.747   1.227  13.346  0.00  0.00    -0.055 A 
ATOM     46  H   0YH d   1     -10.351   1.823  14.657  0.00  0.00     0.084 H 
ATOM     47  H   0YH d   1      -9.229   1.624  12.453  0.00  0.00     0.087 H 
BRANCH  42  48
ATOM     48  C1  0YH d   1      -9.464   0.905  17.056  0.00  0.00    -0.051 C 
ATOM     49  H   0YH d   1      -9.617   1.956  17.301  0.00  0.00     0.033 H 
ATOM     50  H   0YH d   1     -10.427   0.398  17.007  0.00  0.00     0.033 H 
ATOM     51  H   0YH d   1      -8.845   0.438  17.822  0.00  0.00     0.033 H 
ENDBRANCH  42  48
ENDBRANCH   5  38
BRANCH   2  52
ATOM     52  C26 0YH d   1      -6.097   2.365   8.853  0.00  0.00    -0.005 C 
BRANCH  52  53
ATOM     53  C3  0YH d   1      -7.418   2.390   8.078  0.00  0.00    -0.064 C 
ATOM     54  H   0YH d   1      -7.638   1.390   7.705  0.00  0.00     0.028 H 
ATOM     55  H   0YH d   1      -8.220   2.717   8.740  0.00  0.00     0.028 H 
ATOM     56  H   0YH d   1      -7.333   3.081   7.240  0.00  0.00     0.028 H 
ENDBRANCH  52  53
BRANCH  52  57
ATOM     57  C4  0YH d   1      -4.957   1.995   7.888  0.00  0.00    -0.064 C 
ATOM     58  H   0YH d   1      -4.015   1.966   8.435  0.00  0.00     0.028 H 
ATOM     59  H   0YH d   1      -5.155   1.016   7.451  0.00  0.00     0.028 H 
ATOM     60  H   0YH d   1      -4.896   2.742   7.096  0.00  0.00     0.028 H 
ENDBRANCH  52  57
BRANCH  52  61
ATOM     61  C5  0YH d   1      -5.812   3.763   9.408  0.00  0.00    -0.064 C 
ATOM     62  H   0YH d   1      -6.648   4.083  10.029  0.00  0.00     0.028 H 
ATOM     63  H   0YH d   1      -4.902   3.736  10.007  0.00  0.00     0.028 H 
ATOM     64  H   0YH d   1      -5.684   4.462   8.581  0.00  0.00     0.028 H 
ENDBRANCH  52  61
ENDBRANCH   2  52
TORSDOF 12
