REMARK  12 active torsions:
REMARK  status: ('A' for Active; 'I' for Inactive)
REMARK    1  A    between atoms: C16_16  and  C1_1 
REMARK    2  A    between atoms: C24_24  and  C2_2 
REMARK    3  A    between atoms: C24_24  and  C3_3 
REMARK    4  A    between atoms: C27_27  and  C4_4 
REMARK    5  A    between atoms: C27_27  and  C5_5 
REMARK    6  A    between atoms: C27_27  and  C6_6 
REMARK    7  A    between atoms: N33_33  and  C17_17 
REMARK    8  A    between atoms: N30_30  and  C19_19 
REMARK    9  A    between atoms: C20_20  and  C25_25 
REMARK   10  A    between atoms: C21_21  and  C27_27 
REMARK   11  A    between atoms: N31_31  and  C22_22 
REMARK   12  A    between atoms: N32_32  and  C24_24 
REMARK       I    between atoms: C25_25  and  N32_32 
REMARK       I    between atoms: C26_26  and  N30_30 
REMARK       I    between atoms: C26_26  and  N31_31 
ROOT
ATOM      1  C26 0YJ d   1      -4.709  -2.947  11.773  0.00  0.00     0.326 C 
ATOM      2  N30 0YJ d   1      -4.725  -4.153  12.395  0.00  0.00    -0.306 N 
ATOM      3  N31 0YJ d   1      -5.480  -1.994  12.321  0.00  0.00    -0.293 N 
ATOM      4  O35 0YJ d   1      -4.046  -2.726  10.765  0.00  0.00    -0.247 OA
ATOM      5  H30 0YJ d   1      -5.328  -4.256  13.186  0.00  0.00     0.170 HD
ATOM      6  H31 0YJ d   1      -6.001  -2.243  13.137  0.00  0.00     0.172 HD
ENDROOT
BRANCH   3   7
ATOM      7  C22 0YJ d   1      -5.620  -0.686  11.853  0.00  0.00     0.135 A 
ATOM      8  C15 0YJ d   1      -5.390  -0.193  10.599  0.00  0.00    -0.012 A 
ATOM      9  C21 0YJ d   1      -5.719   1.165  10.589  0.00  0.00     0.066 A 
ATOM     10  H27 0YJ d   1      -5.014  -0.763   9.751  0.00  0.00     0.092 H 
ATOM     11  N29 0YJ d   1      -6.122   1.462  11.792  0.00  0.00    -0.169 NA
ATOM     12  N33 0YJ d   1      -6.105   0.332  12.604  0.00  0.00    -0.217 N 
BRANCH   9  13
ATOM     13  C27 0YJ d   1      -5.618   2.161   9.443  0.00  0.00    -0.005 C 
BRANCH  13  14
ATOM     14  C4  0YJ d   1      -7.013   2.606   9.015  0.00  0.00    -0.064 C 
ATOM     15  H10 0YJ d   1      -6.930   3.325   8.187  0.00  0.00     0.028 H 
ATOM     16  H11 0YJ d   1      -7.523   3.083   9.865  0.00  0.00     0.028 H 
ATOM     17  H12 0YJ d   1      -7.592   1.731   8.684  0.00  0.00     0.028 H 
ENDBRANCH  13  14
BRANCH  13  18
ATOM     18  C5  0YJ d   1      -4.914   1.607   8.201  0.00  0.00    -0.064 C 
ATOM     19  H13 0YJ d   1      -3.901   1.275   8.471  0.00  0.00     0.028 H 
ATOM     20  H14 0YJ d   1      -4.849   2.393   7.435  0.00  0.00     0.028 H 
ATOM     21  H15 0YJ d   1      -5.486   0.755   7.805  0.00  0.00     0.028 H 
ENDBRANCH  13  18
BRANCH  13  22
ATOM     22  C6  0YJ d   1      -4.872   3.405   9.931  0.00  0.00    -0.064 C 
ATOM     23  H16 0YJ d   1      -5.374   3.807  10.823  0.00  0.00     0.028 H 
ATOM     24  H17 0YJ d   1      -4.870   4.166   9.137  0.00  0.00     0.028 H 
ATOM     25  H18 0YJ d   1      -3.836   3.136  10.183  0.00  0.00     0.028 H 
ENDBRANCH  13  22
ENDBRANCH   9  13
BRANCH  12  26
ATOM     26  C17 0YJ d   1      -6.501   0.303  13.958  0.00  0.00     0.060 A 
ATOM     27  C12 0YJ d   1      -5.631  -0.166  14.941  0.00  0.00    -0.055 A 
ATOM     28  C10 0YJ d   1      -6.017  -0.121  16.273  0.00  0.00    -0.075 A 
ATOM     29  H24 0YJ d   1      -4.660  -0.563  14.667  0.00  0.00     0.087 H 
ATOM     30  C16 0YJ d   1      -7.264   0.394  16.621  0.00  0.00    -0.062 A 
ATOM     31  H22 0YJ d   1      -5.348  -0.487  17.043  0.00  0.00     0.084 H 
ATOM     32  C11 0YJ d   1      -8.136   0.876  15.648  0.00  0.00    -0.075 A 
ATOM     33  C13 0YJ d   1      -7.758   0.818  14.317  0.00  0.00    -0.055 A 
ATOM     34  H23 0YJ d   1      -9.097   1.291  15.929  0.00  0.00     0.084 H 
ATOM     35  H25 0YJ d   1      -8.435   1.172  13.548  0.00  0.00     0.087 H 
BRANCH  30  36
ATOM     36  C1  0YJ d   1      -7.665   0.422  18.077  0.00  0.00    -0.051 C 
ATOM     37  H1  0YJ d   1      -6.853   0.003  18.689  0.00  0.00     0.033 H 
ATOM     38  H2  0YJ d   1      -8.577  -0.177  18.218  0.00  0.00     0.033 H 
ATOM     39  H3  0YJ d   1      -7.857   1.460  18.384  0.00  0.00     0.033 H 
ENDBRANCH  30  36
ENDBRANCH  12  26
ENDBRANCH   3   7
BRANCH   2  40
ATOM     40  C19 0YJ d   1      -3.963  -5.263  12.016  0.00  0.00     0.064 A 
ATOM     41  C9  0YJ d   1      -4.058  -5.863  10.763  0.00  0.00    -0.055 A 
ATOM     42  C7  0YJ d   1      -3.264  -6.973  10.455  0.00  0.00    -0.080 A 
ATOM     43  H21 0YJ d   1      -4.748  -5.470  10.025  0.00  0.00     0.087 H 
ATOM     44  C8  0YJ d   1      -2.384  -7.488  11.377  0.00  0.00    -0.071 A 
ATOM     45  H19 0YJ d   1      -3.344  -7.433   9.477  0.00  0.00     0.083 H 
ATOM     46  C18 0YJ d   1      -2.287  -6.903  12.655  0.00  0.00    -0.005 A 
ATOM     47  H20 0YJ d   1      -1.767  -8.342  11.121  0.00  0.00     0.084 H 
ATOM     48  C14 0YJ d   1      -1.518  -7.185  13.808  0.00  0.00    -0.040 A 
ATOM     49  C23 0YJ d   1      -3.085  -5.788  12.972  0.00  0.00     0.070 A 
ATOM     50  C20 0YJ d   1      -1.836  -6.269  14.757  0.00  0.00     0.102 A 
ATOM     51  H26 0YJ d   1      -0.798  -7.995  13.915  0.00  0.00     0.088 H 
ATOM     52  N28 0YJ d   1      -2.799  -5.420  14.262  0.00  0.00    -0.349 N 
ATOM     53  H29 0YJ d   1      -3.233  -4.639  14.774  0.00  0.00     0.166 HD
BRANCH  50  54
ATOM     54  C25 0YJ d   1      -1.262  -6.194  16.097  0.00  0.00     0.268 C 
ATOM     55  N32 0YJ d   1      -0.041  -6.747  16.299  0.00  0.00    -0.352 N 
ATOM     56  H32 0YJ d   1       0.426  -7.151  15.512  0.00  0.00     0.163 HD
ATOM     57  O34 0YJ d   1      -1.865  -5.598  16.980  0.00  0.00    -0.266 OA
BRANCH  55  58
ATOM     58  C24 0YJ d   1       0.638  -6.791  17.597  0.00  0.00     0.005 C 
ATOM     59  H28 0YJ d   1      -0.126  -6.877  18.384  0.00  0.00     0.071 H 
BRANCH  58  60
ATOM     60  C2  0YJ d   1       1.465  -5.538  17.887  0.00  0.00    -0.058 C 
ATOM     61  H4  0YJ d   1       1.946  -5.636  18.872  0.00  0.00     0.030 H 
ATOM     62  H5  0YJ d   1       0.807  -4.656  17.886  0.00  0.00     0.030 H 
ATOM     63  H6  0YJ d   1       2.237  -5.421  17.112  0.00  0.00     0.030 H 
ENDBRANCH  58  60
BRANCH  58  64
ATOM     64  C3  0YJ d   1       1.514  -8.042  17.623  0.00  0.00    -0.058 C 
ATOM     65  H7  0YJ d   1       0.896  -8.927  17.412  0.00  0.00     0.030 H 
ATOM     66  H8  0YJ d   1       1.976  -8.146  18.616  0.00  0.00     0.030 H 
ATOM     67  H9  0YJ d   1       2.301  -7.954  16.860  0.00  0.00     0.030 H 
ENDBRANCH  58  64
ENDBRANCH  55  58
ENDBRANCH  50  54
ENDBRANCH   2  40
TORSDOF 12
