REMARK  7 active torsions:
REMARK  status: ('A' for Active; 'I' for Inactive)
REMARK    1  A    between atoms: CBC_5  and  CBG_6 
REMARK    2  A    between atoms: CBE_11  and  NAW_12 
REMARK       I    between atoms: NAW_12  and  CBA_13 
REMARK    3  A    between atoms: CBA_13  and  CBI_15 
REMARK    4  A    between atoms: CBJ_16  and  NBK_18 
REMARK    5  A    between atoms: CBH_23  and  CAZ_24 
REMARK       I    between atoms: CAZ_24  and  NAV_26 
REMARK    6  A    between atoms: NAV_26  and  CBD_27 
REMARK    7  A    between atoms: CBF_32  and  CBB_33 
ROOT
ATOM      1  CBI 0YU d   1      43.714  29.150  59.520  0.00  0.00     0.063 A 
ATOM      2  CBJ 0YU d   1      43.722  29.898  58.364  0.00  0.00     0.110 A 
ATOM      3  CAO 0YU d   1      43.848  31.277  58.316  0.00  0.00    -0.036 A 
ATOM      4  CAN 0YU d   1      43.772  29.902  60.684  0.00  0.00    -0.064 A 
ATOM      5  CAM 0YU d   1      43.894  31.292  60.662  0.00  0.00    -0.067 A 
ATOM      6  CBH 0YU d   1      43.944  31.989  59.474  0.00  0.00     0.034 A 
ATOM      7  H   0YU d   1      43.870  31.791  57.355  0.00  0.00     0.088 H 
ATOM      8  H   0YU d   1      43.721  29.392  61.646  0.00  0.00     0.085 H 
ATOM      9  H   0YU d   1      43.951  31.838  61.604  0.00  0.00     0.085 H 
ENDROOT
BRANCH   1  10
ATOM     10  CBA 0YU d   1      43.498  27.757  59.574  0.00  0.00     0.258 C 
ATOM     11  NAW 0YU d   1      44.195  27.037  60.456  0.00  0.00    -0.323 N 
ATOM     12  H   0YU d   1      45.021  27.469  60.869  0.00  0.00     0.169 HD
ATOM     13  OAB 0YU d   1      42.624  27.283  58.909  0.00  0.00    -0.267 OA
BRANCH  11  14
ATOM     14  CBE 0YU d   1      43.893  25.796  60.838  0.00  0.00     0.035 A 
ATOM     15  CAH 0YU d   1      42.696  25.143  60.580  0.00  0.00    -0.056 A 
ATOM     16  CAL 0YU d   1      42.393  23.889  61.104  0.00  0.00    -0.067 A 
ATOM     17  H   0YU d   1      41.962  25.633  59.940  0.00  0.00     0.086 H 
ATOM     18  CBG 0YU d   1      43.277  23.232  61.925  0.00  0.00     0.009 A 
ATOM     19  H   0YU d   1      41.439  23.421  60.859  0.00  0.00     0.085 H 
ATOM     20  CAK 0YU d   1      44.450  23.897  62.212  0.00  0.00    -0.067 A 
ATOM     21  CAG 0YU d   1      44.767  25.145  61.701  0.00  0.00    -0.056 A 
ATOM     22  H   0YU d   1      45.167  23.415  62.877  0.00  0.00     0.085 H 
ATOM     23  H   0YU d   1      45.708  25.620  61.978  0.00  0.00     0.086 H 
BRANCH  18  24
ATOM     24  CBC 0YU d   1      43.034  22.038  62.479  0.00  0.00     0.128 C 
ATOM     25  NAU 0YU d   1      41.856  21.498  62.804  0.00  0.00    -0.271 NA
ATOM     26  CAQ 0YU d   1      42.072  20.385  63.728  0.00  0.00     0.032 C 
ATOM     27  CAS 0YU d   1      43.505  20.083  63.499  0.00  0.00     0.011 C 
ATOM     28  H   0YU d   1      41.413  19.535  63.548  0.00  0.00     0.069 H 
ATOM     29  H   0YU d   1      41.838  20.627  64.765  0.00  0.00     0.069 H 
ATOM     30  NAY 0YU d   1      44.018  21.269  62.931  0.00  0.00    -0.373 N 
ATOM     31  H   0YU d   1      43.646  19.219  62.849  0.00  0.00     0.066 H 
ATOM     32  H   0YU d   1      44.021  19.809  64.419  0.00  0.00     0.066 H 
ATOM     33  H   0YU d   1      45.009  21.503  62.875  0.00  0.00     0.161 HD
ENDBRANCH  18  24
ENDBRANCH  11  14
ENDBRANCH   1  10
BRANCH   2  34
ATOM     34  NBK 0YU d   1      43.635  29.237  57.272  0.00  0.00    -0.057 N 
ATOM     35  OAD 0YU d   1      43.787  28.449  57.305  0.00  0.00    -0.054 OA
ATOM     36  OAC 0YU d   1      43.426  29.762  56.344  0.00  0.00    -0.054 OA
ENDBRANCH   2  34
BRANCH   6  37
ATOM     37  CAZ 0YU d   1      44.048  33.375  59.410  0.00  0.00     0.256 C 
ATOM     38  OAA 0YU d   1      43.343  33.979  58.617  0.00  0.00    -0.267 OA
ATOM     39  NAV 0YU d   1      44.895  33.954  60.261  0.00  0.00    -0.323 N 
ATOM     40  H   0YU d   1      45.478  33.366  60.856  0.00  0.00     0.169 HD
BRANCH  39  41
ATOM     41  CBD 0YU d   1      45.004  35.295  60.358  0.00  0.00     0.035 A 
ATOM     42  CAF 0YU d   1      44.630  36.180  59.377  0.00  0.00    -0.056 A 
ATOM     43  CAJ 0YU d   1      44.765  37.546  59.569  0.00  0.00    -0.067 A 
ATOM     44  H   0YU d   1      44.223  35.805  58.438  0.00  0.00     0.086 H 
ATOM     45  CBF 0YU d   1      45.259  38.042  60.755  0.00  0.00     0.009 A 
ATOM     46  H   0YU d   1      44.477  38.234  58.774  0.00  0.00     0.085 H 
ATOM     47  CAI 0YU d   1      45.632  37.177  61.734  0.00  0.00    -0.067 A 
ATOM     48  CAE 0YU d   1      45.500  35.827  61.528  0.00  0.00    -0.056 A 
ATOM     49  H   0YU d   1      46.033  37.553  62.675  0.00  0.00     0.085 H 
ATOM     50  H   0YU d   1      45.800  35.146  62.324  0.00  0.00     0.086 H 
BRANCH  45  51
ATOM     51  CBB 0YU d   1      45.413  39.350  60.969  0.00  0.00     0.128 C 
ATOM     52  NAX 0YU d   1      45.275  40.220  59.979  0.00  0.00    -0.271 NA
ATOM     53  CAR 0YU d   1      45.532  41.523  60.490  0.00  0.00     0.032 C 
ATOM     54  CAP 0YU d   1      45.572  41.326  61.985  0.00  0.00     0.011 C 
ATOM     55  H   0YU d   1      44.772  42.243  60.188  0.00  0.00     0.069 H 
ATOM     56  H   0YU d   1      46.460  41.943  60.103  0.00  0.00     0.069 H 
ATOM     57  NAT 0YU d   1      45.795  39.905  62.123  0.00  0.00    -0.373 N 
ATOM     58  H   0YU d   1      44.659  41.659  62.478  0.00  0.00     0.066 H 
ATOM     59  H   0YU d   1      46.346  41.923  62.468  0.00  0.00     0.066 H 
ATOM     60  H   0YU d   1      46.170  39.422  62.939  0.00  0.00     0.161 HD
ENDBRANCH  45  51
ENDBRANCH  39  41
ENDBRANCH   6  37
TORSDOF 7
