REMARK  10 active torsions:
REMARK  status: ('A' for Active; 'I' for Inactive)
REMARK    1  A    between atoms: NAA_1  and  CAS_2 
REMARK    2  A    between atoms: CAS_2  and  CAU_3 
REMARK    3  A    between atoms: CAU_3  and  CBC_4 
REMARK    4  A    between atoms: CBA_10  and  CAG_11 
REMARK    5  A    between atoms: CAE_12  and  CAY_13 
REMARK    6  A    between atoms: CAZ_18  and  CAF_19 
REMARK    7  A    between atoms: CAH_20  and  CBB_21 
REMARK    8  A    between atoms: CBD_27  and  CAV_28 
REMARK    9  A    between atoms: CAV_28  and  CAT_29 
REMARK   10  A    between atoms: CAT_29  and  NAB_30 
ROOT
ATOM      1  CAY 0YV d   1      43.670  28.673  59.020  0.00  0.00    -0.035 A 
ATOM      2  CAP 0YV d   1      43.983  29.880  59.615  0.00  0.00    -0.055 A 
ATOM      3  CAJ 0YV d   1      43.541  28.647  57.658  0.00  0.00    -0.073 A 
ATOM      4  CAI 0YV d   1      43.742  29.763  56.870  0.00  0.00    -0.081 A 
ATOM      5  CAK 0YV d   1      44.050  30.970  57.472  0.00  0.00    -0.065 A 
ATOM      6  CAZ 0YV d   1      44.175  31.032  58.849  0.00  0.00     0.018 A 
ATOM      7  H   0YV d   1      44.082  29.934  60.699  0.00  0.00     0.087 H 
ATOM      8  H   0YV d   1      43.269  27.708  57.176  0.00  0.00     0.084 H 
ATOM      9  H   0YV d   1      43.659  29.694  55.785  0.00  0.00     0.083 H 
ATOM     10  H   0YV d   1      44.193  31.865  56.867  0.00  0.00     0.085 H 
ENDROOT
BRANCH   1  11
ATOM     11  CAE 0YV d   1      43.470  27.511  59.744  0.00  0.00    -0.072 C 
ATOM     12  CAG 0YV d   1      43.271  26.402  60.390  0.00  0.00    -0.072 C 
ATOM     13  H   0YV d   1      43.540  26.878  61.333  0.00  0.00     0.084 H 
ATOM     14  H   0YV d   1      43.778  28.010  60.663  0.00  0.00     0.084 H 
BRANCH  12  15
ATOM     15  CBA 0YV d   1      43.039  25.161  61.051  0.00  0.00    -0.034 A 
ATOM     16  CAQ 0YV d   1      43.306  25.006  62.387  0.00  0.00    -0.067 A 
ATOM     17  CBC 0YV d   1      43.053  23.821  63.027  0.00  0.00    -0.054 A 
ATOM     18  H   0YV d   1      43.727  25.840  62.950  0.00  0.00     0.085 H 
ATOM     19  CAN 0YV d   1      42.543  22.731  62.324  0.00  0.00    -0.060 A 
ATOM     20  CAW 0YV d   1      42.270  22.843  60.992  0.00  0.00     0.012 A 
ATOM     21  H   0YV d   1      42.362  21.788  62.839  0.00  0.00     0.086 H 
ATOM     22 BRC  0YV d   1      41.587  21.385  59.969  0.00  0.00    -0.051 Br
ATOM     23  CAL 0YV d   1      42.528  24.066  60.399  0.00  0.00    -0.056 A 
ATOM     24  H   0YV d   1      42.309  24.168  59.336  0.00  0.00     0.086 H 
BRANCH  17  25
ATOM     25  CAU 0YV d   1      43.346  23.736  64.383  0.00  0.00    -0.019 C 
ATOM     26  H   0YV d   1      44.428  23.704  64.507  0.00  0.00     0.042 H 
ATOM     27  H   0YV d   1      42.923  24.604  64.888  0.00  0.00     0.042 H 
BRANCH  25  28
ATOM     28  CAS 0YV d   1      42.746  22.476  64.989  0.00  0.00     0.083 C 
ATOM     29  H   0YV d   1      41.824  22.764  65.494  0.00  0.00     0.075 H 
ATOM     30  H   0YV d   1      42.597  21.763  64.178  0.00  0.00     0.075 H 
BRANCH  28  31
ATOM     31  NAA 0YV d   1      43.614  21.829  65.991  0.00  0.00    -0.079 N 
ATOM     32  H   0YV d   1      43.151  20.995  66.353  0.00  0.00     0.274 HD
ATOM     33  H   0YV d   1      44.498  21.566  65.555  0.00  0.00     0.274 HD
ATOM     34  H   0YV d   1      43.792  22.480  66.756  0.00  0.00     0.274 HD
ENDBRANCH  28  31
ENDBRANCH  25  28
ENDBRANCH  17  25
ENDBRANCH  12  15
ENDBRANCH   1  11
BRANCH   6  35
ATOM     35  CAF 0YV d   1      44.483  32.291  59.493  0.00  0.00    -0.061 C 
ATOM     36  CAH 0YV d   1      44.695  33.070  59.920  0.00  0.00    -0.061 C 
BRANCH  36  37
ATOM     37  CBB 0YV d   1      45.057  34.357  60.665  0.00  0.00     0.019 A 
ATOM     38  CAR 0YV d   1      45.741  34.302  61.876  0.00  0.00    -0.059 A 
ATOM     39  CBD 0YV d   1      46.043  35.482  62.551  0.00  0.00    -0.054 A 
ATOM     40  H   0YV d   1      46.039  33.340  62.294  0.00  0.00     0.086 H 
ATOM     41  CAO 0YV d   1      45.688  36.715  62.015  0.00  0.00    -0.060 A 
ATOM     42  CAX 0YV d   1      45.023  36.783  60.821  0.00  0.00     0.012 A 
ATOM     43  H   0YV d   1      45.941  37.631  62.548  0.00  0.00     0.086 H 
ATOM     44  CAM 0YV d   1      44.713  35.602  60.149  0.00  0.00    -0.048 A 
ATOM     45 BRD  0YV d   1      44.566  38.448  60.120  0.00  0.00    -0.051 Br
ATOM     46  H   0YV d   1      44.188  35.655  59.195  0.00  0.00     0.087 H 
BRANCH  39  47
ATOM     47  CAV 0YV d   1      46.705  35.447  63.765  0.00  0.00    -0.019 C 
ATOM     48  H   0YV d   1      47.488  36.205  63.768  0.00  0.00     0.042 H 
ATOM     49  H   0YV d   1      47.141  34.458  63.907  0.00  0.00     0.042 H 
BRANCH  47  50
ATOM     50  CAT 0YV d   1      45.726  35.732  64.905  0.00  0.00     0.083 C 
ATOM     51  H   0YV d   1      44.788  36.021  64.431  0.00  0.00     0.075 H 
ATOM     52  H   0YV d   1      46.206  36.482  65.534  0.00  0.00     0.075 H 
BRANCH  50  53
ATOM     53  NAB 0YV d   1      45.404  34.605  65.791  0.00  0.00    -0.079 N 
ATOM     54  H   0YV d   1      44.747  34.914  66.507  0.00  0.00     0.274 HD
ATOM     55  H   0YV d   1      44.984  33.853  65.244  0.00  0.00     0.274 HD
ATOM     56  H   0YV d   1      46.258  34.268  66.235  0.00  0.00     0.274 HD
ENDBRANCH  50  53
ENDBRANCH  47  50
ENDBRANCH  39  47
ENDBRANCH  36  37
ENDBRANCH   6  35
TORSDOF 10
