REMARK  15 active torsions:
REMARK  status: ('A' for Active; 'I' for Inactive)
REMARK    1  A    between atoms: CAY_2  and  CBE_4 
REMARK    2  A    between atoms: CBC_6  and  NBF_7 
REMARK    3  A    between atoms: CBD_12  and  NAW_13 
REMARK       I    between atoms: NAW_13  and  CAZ_14 
REMARK    4  A    between atoms: CAZ_14  and  CBB_16 
REMARK    5  A    between atoms: CBA_21  and  OAX_22 
REMARK    6  A    between atoms: OAX_22  and  CAV_23 
REMARK    7  A    between atoms: CAV_23  and  CAU_24 
REMARK    8  A    between atoms: CAU_24  and  CAT_25 
REMARK    9  A    between atoms: CAT_25  and  CAS_26 
REMARK   10  A    between atoms: CAS_26  and  CAR_27 
REMARK   11  A    between atoms: CAR_27  and  CAQ_28 
REMARK   12  A    between atoms: CAQ_28  and  CAP_29 
REMARK   13  A    between atoms: CAP_29  and  CAO_30 
REMARK   14  A    between atoms: CAO_30  and  CAN_31 
REMARK   15  A    between atoms: CAN_31  and  CAA_32 
ROOT
ATOM      1  CAV 0YW d   1     -13.114  -9.378  -4.088  0.00  0.00     0.026 C 
ATOM      2  H   0YW d   1     -12.914  -9.791  -3.099  0.00  0.00     0.075 H 
ATOM      3  H   0YW d   1     -14.173  -9.501  -4.313  0.00  0.00     0.075 H 
ENDROOT
BRANCH   1   4
ATOM      4  OAX 0YW d   1     -12.347 -10.048  -5.044  0.00  0.00    -0.351 OA
BRANCH   4   5
ATOM      5  CBA 0YW d   1     -11.819 -11.235  -4.667  0.00  0.00     0.069 A 
ATOM      6  CAL 0YW d   1     -11.211 -12.063  -5.587  0.00  0.00    -0.035 A 
ATOM      7  CBB 0YW d   1     -10.636 -13.260  -5.218  0.00  0.00     0.035 A 
ATOM      8  H   0YW d   1     -11.184 -11.763  -6.635  0.00  0.00     0.089 H 
ATOM      9  CAI 0YW d   1     -10.697 -13.664  -3.917  0.00  0.00    -0.068 A 
ATOM     10  CAG 0YW d   1     -11.295 -12.855  -2.998  0.00  0.00    -0.079 A 
ATOM     11  H   0YW d   1     -10.273 -14.622  -3.616  0.00  0.00     0.085 H 
ATOM     12  CAH 0YW d   1     -11.855 -11.650  -3.366  0.00  0.00    -0.051 A 
ATOM     13  H   0YW d   1     -11.331 -13.166  -1.954  0.00  0.00     0.083 H 
ATOM     14  H   0YW d   1     -12.331 -11.023  -2.612  0.00  0.00     0.087 H 
BRANCH   7  15
ATOM     15  CAZ 0YW d   1     -10.073 -14.085  -6.164  0.00  0.00     0.256 C 
ATOM     16  NAW 0YW d   1     -10.007 -13.528  -7.365  0.00  0.00    -0.322 N 
ATOM     17  H   0YW d   1     -10.225 -12.537  -7.471  0.00  0.00     0.169 HD
ATOM     18  OAC 0YW d   1      -9.778 -15.236  -5.888  0.00  0.00    -0.267 OA
BRANCH  16  19
ATOM     19  CBD 0YW d   1      -9.664 -14.235  -8.429  0.00  0.00     0.052 A 
ATOM     20  CBE 0YW d   1     -10.440 -13.970  -9.557  0.00  0.00     0.069 A 
ATOM     21  CAM 0YW d   1     -10.207 -14.670 -10.754  0.00  0.00    -0.032 A 
ATOM     22  CBC 0YW d   1      -9.189 -15.626 -10.815  0.00  0.00     0.104 A 
ATOM     23  H   0YW d   1     -10.819 -14.467 -11.633  0.00  0.00     0.089 H 
ATOM     24  CAJ 0YW d   1      -8.434 -15.885  -9.665  0.00  0.00    -0.049 A 
ATOM     25  CAK 0YW d   1      -8.674 -15.209  -8.476  0.00  0.00    -0.054 A 
ATOM     26  H   0YW d   1      -7.642 -16.633  -9.704  0.00  0.00     0.087 H 
ATOM     27  H   0YW d   1      -8.090 -15.441  -7.585  0.00  0.00     0.087 H 
BRANCH  20  28
ATOM     28  CAY 0YW d   1     -11.432 -12.992  -9.474  0.00  0.00     0.211 C 
ATOM     29  OAB 0YW d   1     -12.069 -12.840  -8.428  0.00  0.00    -0.644 OA
ATOM     30  OAE 0YW d   1     -11.662 -12.226 -10.416  0.00  0.00    -0.644 OA
ENDBRANCH  20  28
BRANCH  22  31
ATOM     31  NBF 0YW d   1      -8.946 -16.309 -11.941  0.00  0.00    -0.116 N 
ATOM     32  OAF 0YW d   1      -9.117 -17.553 -11.928  0.00  0.00    -0.532 OA
ATOM     33  OAD 0YW d   1      -8.500 -15.652 -13.119  0.00  0.00    -0.532 OA
ENDBRANCH  22  31
ENDBRANCH  16  19
ENDBRANCH   7  15
ENDBRANCH   4   5
ENDBRANCH   1   4
BRANCH   1  34
ATOM     34  CAU 0YW d   1     -12.755  -7.919  -4.112  0.00  0.00    -0.045 C 
ATOM     35  H   0YW d   1     -13.514  -7.372  -4.671  0.00  0.00     0.036 H 
ATOM     36  H   0YW d   1     -11.782  -7.796  -4.588  0.00  0.00     0.036 H 
BRANCH  34  37
ATOM     37  CAT 0YW d   1     -12.690  -7.380  -2.700  0.00  0.00    -0.063 C 
ATOM     38  H   0YW d   1     -11.709  -7.583  -2.271  0.00  0.00     0.033 H 
ATOM     39  H   0YW d   1     -13.448  -7.864  -2.084  0.00  0.00     0.033 H 
BRANCH  37  40
ATOM     40  CAS 0YW d   1     -12.932  -5.905  -2.738  0.00  0.00    -0.065 C 
ATOM     41  H   0YW d   1     -13.935  -5.731  -3.127  0.00  0.00     0.033 H 
ATOM     42  H   0YW d   1     -12.171  -5.448  -3.370  0.00  0.00     0.033 H 
BRANCH  40  43
ATOM     43  CAR 0YW d   1     -12.841  -5.291  -1.363  0.00  0.00    -0.065 C 
ATOM     44  H   0YW d   1     -12.196  -4.412  -1.364  0.00  0.00     0.033 H 
ATOM     45  H   0YW d   1     -12.399  -5.985  -0.648  0.00  0.00     0.033 H 
BRANCH  43  46
ATOM     46  CAQ 0YW d   1     -14.247  -4.934  -0.978  0.00  0.00    -0.065 C 
ATOM     47  H   0YW d   1     -14.742  -5.820  -0.579  0.00  0.00     0.033 H 
ATOM     48  H   0YW d   1     -14.774  -4.568  -1.859  0.00  0.00     0.033 H 
BRANCH  46  49
ATOM     49  CAP 0YW d   1     -14.246  -3.857   0.075  0.00  0.00    -0.065 C 
ATOM     50  H   0YW d   1     -14.596  -2.916  -0.349  0.00  0.00     0.033 H 
ATOM     51  H   0YW d   1     -13.236  -3.701   0.453  0.00  0.00     0.033 H 
BRANCH  49  52
ATOM     52  CAO 0YW d   1     -15.148  -4.292   1.179  0.00  0.00    -0.065 C 
ATOM     53  H   0YW d   1     -14.637  -4.219   2.139  0.00  0.00     0.033 H 
ATOM     54  H   0YW d   1     -15.443  -5.332   1.041  0.00  0.00     0.033 H 
BRANCH  52  55
ATOM     55  CAN 0YW d   1     -16.337  -3.411   1.159  0.00  0.00    -0.069 C 
ATOM     56  H   0YW d   1     -17.221  -3.976   0.863  0.00  0.00     0.032 H 
ATOM     57  H   0YW d   1     -16.198  -2.605   0.438  0.00  0.00     0.032 H 
BRANCH  55  58
ATOM     58  CAA 0YW d   1     -16.516  -2.852   2.531  0.00  0.00    -0.077 C 
ATOM     59  H   0YW d   1     -16.662  -3.668   3.238  0.00  0.00     0.027 H 
ATOM     60  H   0YW d   1     -15.629  -2.283   2.809  0.00  0.00     0.027 H 
ATOM     61  H   0YW d   1     -17.387  -2.197   2.544  0.00  0.00     0.027 H 
ENDBRANCH  55  58
ENDBRANCH  52  55
ENDBRANCH  49  52
ENDBRANCH  46  49
ENDBRANCH  43  46
ENDBRANCH  40  43
ENDBRANCH  37  40
ENDBRANCH  34  37
ENDBRANCH   1  34
TORSDOF 15
