REMARK WARNING: 32 MAX_TORS EXCEEDED!!!
REMARK  40 active torsions:
REMARK  status: ('A' for Active; 'I' for Inactive)
REMARK    1  A    between atoms: N_1  and  CA_2 
REMARK    2  A    between atoms: CA_2  and  C_3 
REMARK    3  A    between atoms: CA_2  and  CB_5 
REMARK       I    between atoms: C_3  and  N_10 
REMARK    4  A    between atoms: CB_5  and  CG_6 
REMARK    5  A    between atoms: CG_6  and  CD_7 
REMARK    6  A    between atoms: CD_7  and  CE_8 
REMARK    7  A    between atoms: CE_8  and  NZ_9 
REMARK    8  A    between atoms: N_10  and  CA_11 
REMARK    9  A    between atoms: CA_11  and  C_12 
REMARK   10  A    between atoms: CA_11  and  CB_14 
REMARK       I    between atoms: C_12  and  N_20 
REMARK   11  A    between atoms: CB_14  and  CG_15 
REMARK   12  A    between atoms: N_20  and  CA_21 
REMARK   13  A    between atoms: CA_21  and  C_22 
REMARK   14  A    between atoms: CA_21  and  CB_24 
REMARK       I    between atoms: C_22  and  N_29 
REMARK   15  A    between atoms: CB_24  and  CG_25 
REMARK   16  A    between atoms: CG_25  and  CD_26 
REMARK   17  A    between atoms: N_29  and  CA_30 
REMARK   18  A    between atoms: CA_30  and  C_31 
REMARK   19  A    between atoms: CA_30  and  CB_33 
REMARK       I    between atoms: C_31  and  N_37 
REMARK   20  A    between atoms: CB_33  and  CG_34 
REMARK   21  A    between atoms: CG_34  and  SD_35 
REMARK   22  A    between atoms: SD_35  and  CE_36 
REMARK   23  A    between atoms: N_37  and  CA_38 
REMARK   24  A    between atoms: CA_38  and  C_39 
REMARK   25  A    between atoms: CA_38  and  CB_41 
REMARK       I    between atoms: C_39  and  N_44 
REMARK   26  A    between atoms: CB_41  and  OG1_42 
REMARK   27  A    between atoms: CB_41  and  CG2_43 
REMARK   28  A    between atoms: N_44  and  CA_45 
REMARK   29  A    between atoms: CA_45  and  C_46 
REMARK   30  A    between atoms: CA_45  and  CB_48 
REMARK       I    between atoms: C_46  and  N_52 
REMARK   31  A    between atoms: CB_48  and  CG_49 
REMARK   32  A    between atoms: CG_49  and  CD1_50 
REMARK   33  A    between atoms: CG_49  and  CD2_51 
REMARK   34  A    between atoms: N_52  and  CA_53 
REMARK   35  A    between atoms: CA_53  and  C_54 
REMARK   36  A    between atoms: CA_53  and  CB_56 
REMARK       I    between atoms: C_54  and  N_57 
REMARK   37  A    between atoms: N_57  and  CA_58 
REMARK   38  A    between atoms: CA_58  and  C_59 
REMARK   39  A    between atoms: CA_58  and  CB_61 
REMARK   40  A    between atoms: CB_61  and  CG_62 
ROOT
ATOM      1  CA  MET d   1     -15.881  26.000 -23.313  0.00  0.00     0.090 C 
ATOM      2  H   MET d   1     -15.424  25.688 -24.252  0.00  0.00     0.087 H 
ENDROOT
BRANCH   1   3
ATOM      3  N   MET d   1     -16.346  27.372 -23.469  0.00  0.00    -0.346 N 
ATOM      4  C   GLU d   1     -16.566  27.910 -24.664  0.00  0.00     0.241 C 
ATOM      5  O   GLU d   1     -16.360  27.312 -25.721  0.00  0.00    -0.271 OA
ATOM      6  H   MET d   1     -16.508  27.937 -22.635  0.00  0.00     0.163 HD
BRANCH   4   7
ATOM      7  CA  GLU d   1     -17.105  29.337 -24.658  0.00  0.00     0.090 C 
ATOM      8  H   GLU d   1     -18.040  29.318 -24.098  0.00  0.00     0.087 H 
BRANCH   7   9
ATOM      9  N   GLU d   1     -16.215  30.267 -23.967  0.00  0.00    -0.346 N 
ATOM     10  C   HIS d   1     -16.489  30.672 -22.732  0.00  0.00     0.241 C 
ATOM     11  O   HIS d   1     -17.491  30.299 -22.122  0.00  0.00    -0.271 OA
ATOM     12  H   GLU d   1     -15.376  30.608 -24.437  0.00  0.00     0.163 HD
BRANCH  10  13
ATOM     13  CA  HIS d   1     -15.498  31.634 -22.069  0.00  0.00     0.094 C 
ATOM     14  H   HIS d   1     -15.156  31.129 -21.166  0.00  0.00     0.088 H 
BRANCH  13  15
ATOM     15  N   HIS d   1     -14.238  31.862 -22.802  0.00  0.00    -0.346 N 
ATOM     16  C   LYS d   1     -14.046  32.778 -23.756  0.00  0.00     0.249 C 
ATOM     17  O   LYS d   1     -14.918  33.548 -24.165  0.00  0.00    -0.271 OA
ATOM     18  H   HIS d   1     -13.444  31.269 -22.559  0.00  0.00     0.163 HD
BRANCH  16  19
ATOM     19  CA  LYS d   1     -12.640  32.828 -24.352  0.00  0.00     0.176 C 
ATOM     20  H   LYS d   1     -12.575  33.737 -24.950  0.00  0.00     0.099 H 
BRANCH  19  21
ATOM     21  N   LYS d   1     -11.607  32.914 -23.325  0.00  0.00    -0.067 N 
ATOM     22  H   LYS d   1     -11.784  33.726 -22.734  0.00  0.00     0.275 HD
ATOM     23  H   LYS d   1     -11.623  32.068 -22.756  0.00  0.00     0.275 HD
ATOM     24  H   LYS d   1     -10.694  33.008 -23.770  0.00  0.00     0.275 HD
ENDBRANCH  19  21
BRANCH  19  25
ATOM     25  CB  LYS d   1     -12.398  31.615 -25.256  0.00  0.00    -0.030 C 
ATOM     26  H   LYS d   1     -11.906  31.977 -26.159  0.00  0.00     0.036 H 
ATOM     27  H   LYS d   1     -13.366  31.148 -25.437  0.00  0.00     0.036 H 
BRANCH  25  28
ATOM     28  CG  LYS d   1     -11.494  30.559 -24.642  0.00  0.00    -0.061 C 
ATOM     29  H   LYS d   1     -11.973  30.184 -23.737  0.00  0.00     0.033 H 
ATOM     30  H   LYS d   1     -10.528  31.017 -24.432  0.00  0.00     0.033 H 
BRANCH  28  31
ATOM     31  CD  LYS d   1     -11.270  29.385 -25.583  0.00  0.00    -0.043 C 
ATOM     32  H   LYS d   1     -10.511  28.734 -25.149  0.00  0.00     0.035 H 
ATOM     33  H   LYS d   1     -10.955  29.774 -26.552  0.00  0.00     0.035 H 
BRANCH  31  34
ATOM     34  CE  LYS d   1     -12.543  28.578 -25.778  0.00  0.00     0.080 C 
ATOM     35  H   LYS d   1     -13.171  29.096 -26.503  0.00  0.00     0.075 H 
ATOM     36  H   LYS d   1     -13.040  28.480 -24.813  0.00  0.00     0.075 H 
BRANCH  34  37
ATOM     37  NZ  LYS d   1     -12.253  27.212 -26.298  0.00  0.00    -0.079 N 
ATOM     38  H   LYS d   1     -13.128  26.701 -26.416  0.00  0.00     0.274 HD
ATOM     39  H   LYS d   1     -11.777  27.286 -27.197  0.00  0.00     0.274 HD
ATOM     40  H   LYS d   1     -11.656  26.717 -25.636  0.00  0.00     0.274 HD
ENDBRANCH  34  37
ENDBRANCH  31  34
ENDBRANCH  28  31
ENDBRANCH  25  28
ENDBRANCH  19  25
ENDBRANCH  16  19
ENDBRANCH  13  15
BRANCH  13  41
ATOM     41  CB  HIS d   1     -16.207  32.939 -21.673  0.00  0.00     0.004 C 
ATOM     42  H   HIS d   1     -17.261  32.703 -21.526  0.00  0.00     0.046 H 
ATOM     43  H   HIS d   1     -16.022  33.662 -22.468  0.00  0.00     0.046 H 
BRANCH  41  44
ATOM     44  CG  HIS d   1     -15.705  33.541 -20.399  0.00  0.00     0.053 A 
ATOM     45  ND1 HIS d   1     -14.428  34.042 -20.264  0.00  0.00    -0.247 NA
ATOM     46  CE1 HIS d   1     -14.269  34.508 -19.038  0.00  0.00     0.064 A 
ATOM     47  NE2 HIS d   1     -15.396  34.329 -18.374  0.00  0.00    -0.359 N 
ATOM     48  H   HIS d   1     -13.361  34.963 -18.642  0.00  0.00     0.143 H 
ATOM     49  CD2 HIS d   1     -16.310  33.726 -19.203  0.00  0.00     0.002 A 
ATOM     50  H   HIS d   1     -15.561  34.595 -17.403  0.00  0.00     0.166 HD
ATOM     51  H   HIS d   1     -17.332  33.448 -18.945  0.00  0.00     0.114 H 
ENDBRANCH  41  44
ENDBRANCH  13  41
ENDBRANCH  10  13
ENDBRANCH   7   9
BRANCH   7  52
ATOM     52  CB  GLU d   1     -17.404  29.819 -26.080  0.00  0.00    -0.029 C 
ATOM     53  H   GLU d   1     -17.931  29.016 -26.596  0.00  0.00     0.037 H 
ATOM     54  H   GLU d   1     -16.454  30.080 -26.546  0.00  0.00     0.037 H 
BRANCH  52  55
ATOM     55  CG  GLU d   1     -18.291  31.053 -26.123  0.00  0.00     0.018 C 
ATOM     56  H   GLU d   1     -17.759  31.863 -25.624  0.00  0.00     0.049 H 
ATOM     57  H   GLU d   1     -19.234  30.803 -25.637  0.00  0.00     0.049 H 
BRANCH  55  58
ATOM     58  CD  GLU d   1     -18.603  31.504 -27.535  0.00  0.00     0.172 C 
ATOM     59  OE1 GLU d   1     -17.993  30.967 -28.483  0.00  0.00    -0.648 OA
ATOM     60  OE2 GLU d   1     -19.462  32.397 -27.696  0.00  0.00    -0.648 OA
ENDBRANCH  55  58
ENDBRANCH  52  55
ENDBRANCH   7  52
ENDBRANCH   4   7
ENDBRANCH   1   3
BRANCH   1  61
ATOM     61  C   MET d   1     -17.044  25.058 -23.022  0.00  0.00     0.241 C 
ATOM     62  O   MET d   1     -18.154  25.500 -22.723  0.00  0.00    -0.271 OA
ATOM     63  N   THR d   1     -16.781  23.759 -23.113  0.00  0.00    -0.344 N 
ATOM     64  H   THR d   1     -15.825  23.460 -23.308  0.00  0.00     0.163 HD
BRANCH  63  65
ATOM     65  CA  THR d   1     -17.816  22.748 -22.943  0.00  0.00     0.113 C 
ATOM     66  H   THR d   1     -18.714  23.233 -22.559  0.00  0.00     0.091 H 
BRANCH  65  67
ATOM     67  C   THR d   1     -17.333  21.685 -21.963  0.00  0.00     0.243 C 
ATOM     68  O   THR d   1     -16.175  21.699 -21.552  0.00  0.00    -0.271 OA
ATOM     69  N   LEU d   1     -18.231  20.784 -21.574  0.00  0.00    -0.346 N 
ATOM     70  H   LEU d   1     -19.214  20.949 -21.789  0.00  0.00     0.163 HD
BRANCH  69  71
ATOM     71  CA  LEU d   1     -17.866  19.568 -20.852  0.00  0.00     0.089 C 
ATOM     72  H   LEU d   1     -16.989  19.140 -21.337  0.00  0.00     0.087 H 
BRANCH  71  73
ATOM     73  C   LEU d   1     -18.999  18.547 -20.929  0.00  0.00     0.241 C 
ATOM     74  O   LEU d   1     -20.161  18.874 -20.687  0.00  0.00    -0.271 OA
ATOM     75  N   LYS d   1     -18.655  17.314 -21.286  0.00  0.00    -0.346 N 
ATOM     76  H   LYS d   1     -17.667  17.081 -21.383  0.00  0.00     0.163 HD
BRANCH  75  77
ATOM     77  CA  LYS d   1     -19.657  16.285 -21.542  0.00  0.00     0.086 C 
ATOM     78  H   LYS d   1     -20.622  16.790 -21.586  0.00  0.00     0.086 H 
BRANCH  77  79
ATOM     79  C   LYS d   1     -19.738  15.251 -20.425  0.00  0.00     0.240 C 
ATOM     80  O   LYS d   1     -18.743  14.954 -19.763  0.00  0.00    -0.271 OA
ATOM     81  N   PHE d   1     -20.933  14.704 -20.224  0.00  0.00    -0.344 N 
ATOM     82  H   PHE d   1     -21.723  15.019 -20.788  0.00  0.00     0.163 HD
BRANCH  81  83
ATOM     83  CA  PHE d   1     -21.147  13.668 -19.222  0.00  0.00     0.100 C 
ATOM     84  H   PHE d   1     -20.219  13.531 -18.667  0.00  0.00     0.090 H 
BRANCH  83  85
ATOM     85  C   PHE d   1     -21.522  12.351 -19.894  0.00  0.00     0.197 C 
ATOM     86  O   PHE d   1     -21.183  11.248 -19.388  0.00  0.00    -0.646 OA
ATOM     87  O   PHE d   1     -22.179  12.366 -20.969  0.00  0.00    -0.646 OA
ENDBRANCH  83  85
BRANCH  83  88
ATOM     88  CB  PHE d   1     -22.246  14.085 -18.245  0.00  0.00    -0.013 C 
ATOM     89  H   PHE d   1     -22.135  13.472 -17.350  0.00  0.00     0.043 H 
ATOM     90  H   PHE d   1     -23.201  13.952 -18.754  0.00  0.00     0.043 H 
BRANCH  88  91
ATOM     91  CG  PHE d   1     -22.163  15.522 -17.817  0.00  0.00    -0.056 A 
ATOM     92  CD1 PHE d   1     -21.260  15.919 -16.846  0.00  0.00    -0.077 A 
ATOM     93  CE1 PHE d   1     -21.182  17.241 -16.454  0.00  0.00    -0.082 A 
ATOM     94  H   PHE d   1     -20.604  15.181 -16.386  0.00  0.00     0.084 H 
ATOM     95  CZ  PHE d   1     -22.018  18.178 -17.028  0.00  0.00    -0.083 A 
ATOM     96  H   PHE d   1     -20.462  17.544 -15.693  0.00  0.00     0.083 H 
ATOM     97  CE2 PHE d   1     -22.920  17.796 -17.997  0.00  0.00    -0.082 A 
ATOM     98  H   PHE d   1     -21.964  19.221 -16.714  0.00  0.00     0.083 H 
ATOM     99  CD2 PHE d   1     -22.992  16.474 -18.386  0.00  0.00    -0.077 A 
ATOM    100  H   PHE d   1     -23.575  18.537 -18.455  0.00  0.00     0.083 H 
ATOM    101  H   PHE d   1     -23.710  16.176 -19.150  0.00  0.00     0.084 H 
ENDBRANCH  88  91
ENDBRANCH  83  88
ENDBRANCH  81  83
ENDBRANCH  77  79
BRANCH  77 102
ATOM    102  CB  LYS d   1     -19.374  15.588 -22.876  0.00  0.00    -0.049 C 
ATOM    103  H   LYS d   1     -19.403  16.322 -23.681  0.00  0.00     0.030 H 
ATOM    104  H   LYS d   1     -18.388  15.124 -22.840  0.00  0.00     0.030 H 
ATOM    105  H   LYS d   1     -20.130  14.823 -23.052  0.00  0.00     0.030 H 
ENDBRANCH  77 102
ENDBRANCH  75  77
ENDBRANCH  71  73
BRANCH  71 106
ATOM    106  CB  LEU d   1     -17.454  19.859 -19.401  0.00  0.00    -0.035 C 
ATOM    107  H   LEU d   1     -16.476  20.332 -19.494  0.00  0.00     0.037 H 
ATOM    108  H   LEU d   1     -17.568  18.900 -18.896  0.00  0.00     0.037 H 
BRANCH 106 109
ATOM    109  CG  LEU d   1     -18.256  20.832 -18.534  0.00  0.00    -0.059 C 
ATOM    110  H   LEU d   1     -18.662  21.609 -19.181  0.00  0.00     0.038 H 
BRANCH 109 111
ATOM    111  CD1 LEU d   1     -19.420  20.139 -17.861  0.00  0.00    -0.073 C 
ATOM    112  H   LEU d   1     -20.083  19.724 -18.620  0.00  0.00     0.028 H 
ATOM    113  H   LEU d   1     -19.045  19.336 -17.226  0.00  0.00     0.028 H 
ATOM    114  H   LEU d   1     -19.968  20.859 -17.253  0.00  0.00     0.028 H 
ENDBRANCH 109 111
BRANCH 109 115
ATOM    115  CD2 LEU d   1     -17.348  21.469 -17.496  0.00  0.00    -0.073 C 
ATOM    116  H   LEU d   1     -16.920  20.691 -16.863  0.00  0.00     0.028 H 
ATOM    117  H   LEU d   1     -16.547  22.011 -17.999  0.00  0.00     0.028 H 
ATOM    118  H   LEU d   1     -17.927  22.160 -16.884  0.00  0.00     0.028 H 
ENDBRANCH 109 115
ENDBRANCH 106 109
ENDBRANCH  71 106
ENDBRANCH  69  71
ENDBRANCH  65  67
BRANCH  65 119
ATOM    119  CB  THR d   1     -18.146  22.073 -24.295  0.00  0.00     0.060 C 
ATOM    120  H   THR d   1     -17.464  21.233 -24.428  0.00  0.00     0.086 H 
BRANCH 119 121
ATOM    121  OG1 THR d   1     -17.979  23.018 -25.359  0.00  0.00    -0.393 OA
ATOM    122  H   THR d   1     -18.185  22.595 -26.196  0.00  0.00     0.210 HD
ENDBRANCH 119 121
BRANCH 119 123
ATOM    123  CG2 THR d   1     -19.575  21.542 -24.315  0.00  0.00    -0.050 C 
ATOM    124  H   THR d   1     -19.699  20.806 -23.520  0.00  0.00     0.031 H 
ATOM    125  H   THR d   1     -20.270  22.367 -24.160  0.00  0.00     0.031 H 
ATOM    126  H   THR d   1     -19.774  21.074 -25.279  0.00  0.00     0.031 H 
ENDBRANCH 119 123
ENDBRANCH  65 119
ENDBRANCH  63  65
ENDBRANCH   1  61
BRANCH   1 127
ATOM    127  CB  MET d   1     -14.826  25.914 -22.208  0.00  0.00    -0.030 C 
ATOM    128  H   MET d   1     -13.868  25.719 -22.689  0.00  0.00     0.037 H 
ATOM    129  H   MET d   1     -15.142  25.131 -21.519  0.00  0.00     0.037 H 
BRANCH 127 130
ATOM    130  CG  MET d   1     -14.674  27.193 -21.400  0.00  0.00    -0.021 C 
ATOM    131  H   MET d   1     -15.432  27.191 -20.617  0.00  0.00     0.049 H 
ATOM    132  H   MET d   1     -14.785  28.038 -22.080  0.00  0.00     0.049 H 
BRANCH 130 133
ATOM    133  SD  MET d   1     -13.057  27.316 -20.613  0.00  0.00    -0.173 SA
BRANCH 133 134
ATOM    134  CE  MET d   1     -11.985  27.216 -22.045  0.00  0.00    -0.035 C 
ATOM    135  H   MET d   1     -12.153  26.269 -22.557  0.00  0.00     0.041 H 
ATOM    136  H   MET d   1     -12.207  28.041 -22.722  0.00  0.00     0.041 H 
ATOM    137  H   MET d   1     -10.945  27.278 -21.724  0.00  0.00     0.041 H 
ENDBRANCH 133 134
ENDBRANCH 130 133
ENDBRANCH 127 130
ENDBRANCH   1 127
TORSDOF 40
