REMARK  13 active torsions:
REMARK  status: ('A' for Active; 'I' for Inactive)
REMARK    1  A    between atoms: PBB_2  and  CBA_5 
REMARK    2  A    between atoms: CAZ_11  and  OAV_12 
REMARK    3  A    between atoms: OAV_12  and  CAT_13 
REMARK    4  A    between atoms: CAT_13  and  CAX_14 
REMARK    5  A    between atoms: CAY_19  and  OAU_20 
REMARK    6  A    between atoms: OAU_20  and  CAS_21 
REMARK    7  A    between atoms: CAS_21  and  CAR_22 
REMARK    8  A    between atoms: CAR_22  and  CAQ_23 
REMARK    9  A    between atoms: CAQ_23  and  CAP_24 
REMARK   10  A    between atoms: CAP_24  and  CAO_25 
REMARK   11  A    between atoms: CAO_25  and  CAN_26 
REMARK   12  A    between atoms: CAN_26  and  CAM_27 
REMARK   13  A    between atoms: CAM_27  and  CAA_28 
ROOT
ATOM      1  CAX 0YX d   1      43.621  28.398  58.886  0.00  0.00    -0.031 A 
ATOM      2  CAK 0YX d   1      43.705  29.438  59.767  0.00  0.00    -0.043 A 
ATOM      3  CAG 0YX d   1      43.683  28.636  57.531  0.00  0.00    -0.075 A 
ATOM      4  CAF 0YX d   1      43.842  29.911  57.038  0.00  0.00    -0.080 A 
ATOM      5  CAH 0YX d   1      43.915  30.976  57.927  0.00  0.00    -0.051 A 
ATOM      6  CAY 0YX d   1      43.845  30.722  59.283  0.00  0.00     0.069 A 
ATOM      7  H   0YX d   1      43.662  29.256  60.841  0.00  0.00     0.088 H 
ATOM      8  H   0YX d   1      43.605  27.799  56.837  0.00  0.00     0.084 H 
ATOM      9  H   0YX d   1      43.910  30.083  55.964  0.00  0.00     0.083 H 
ATOM     10  H   0YX d   1      44.026  31.996  57.560  0.00  0.00     0.087 H 
ENDROOT
BRANCH   6  11
ATOM     11  OAU 0YX d   1      43.932  31.751  60.106  0.00  0.00    -0.351 OA
BRANCH  11  12
ATOM     12  CAS 0YX d   1      43.474  32.787  59.277  0.00  0.00     0.026 C 
ATOM     13  H   0YX d   1      42.693  33.337  59.802  0.00  0.00     0.075 H 
ATOM     14  H   0YX d   1      43.090  32.354  58.353  0.00  0.00     0.075 H 
BRANCH  12  15
ATOM     15  CAR 0YX d   1      44.595  33.740  58.938  0.00  0.00    -0.045 C 
ATOM     16  H   0YX d   1      44.235  34.452  58.195  0.00  0.00     0.036 H 
ATOM     17  H   0YX d   1      45.438  33.165  58.554  0.00  0.00     0.036 H 
BRANCH  15  18
ATOM     18  CAQ 0YX d   1      45.049  34.506  60.164  0.00  0.00    -0.063 C 
ATOM     19  H   0YX d   1      46.093  34.276  60.377  0.00  0.00     0.033 H 
ATOM     20  H   0YX d   1      44.442  34.220  61.023  0.00  0.00     0.033 H 
BRANCH  18  21
ATOM     21  CAP 0YX d   1      44.894  36.006  59.898  0.00  0.00    -0.065 C 
ATOM     22  H   0YX d   1      43.832  36.245  59.961  0.00  0.00     0.033 H 
ATOM     23  H   0YX d   1      45.323  36.214  58.918  0.00  0.00     0.033 H 
BRANCH  21  24
ATOM     24  CAO 0YX d   1      45.626  36.877  60.918  0.00  0.00    -0.065 C 
ATOM     25  H   0YX d   1      46.654  37.066  60.607  0.00  0.00     0.033 H 
ATOM     26  H   0YX d   1      45.686  36.380  61.886  0.00  0.00     0.033 H 
BRANCH  24  27
ATOM     27  CAN 0YX d   1      44.844  38.163  61.015  0.00  0.00    -0.065 C 
ATOM     28  H   0YX d   1      44.536  38.254  62.057  0.00  0.00     0.033 H 
ATOM     29  H   0YX d   1      44.043  38.087  60.280  0.00  0.00     0.033 H 
BRANCH  27  30
ATOM     30  CAM 0YX d   1      45.600  39.435  60.686  0.00  0.00    -0.069 C 
ATOM     31  H   0YX d   1      45.139  39.932  59.833  0.00  0.00     0.032 H 
ATOM     32  H   0YX d   1      46.633  39.199  60.431  0.00  0.00     0.032 H 
BRANCH  30  33
ATOM     33  CAA 0YX d   1      45.561  40.347  61.903  0.00  0.00    -0.077 C 
ATOM     34  H   0YX d   1      44.525  40.581  62.147  0.00  0.00     0.027 H 
ATOM     35  H   0YX d   1      46.029  39.843  62.748  0.00  0.00     0.027 H 
ATOM     36  H   0YX d   1      46.101  41.268  61.683  0.00  0.00     0.027 H 
ENDBRANCH  30  33
ENDBRANCH  27  30
ENDBRANCH  24  27
ENDBRANCH  21  24
ENDBRANCH  18  21
ENDBRANCH  15  18
ENDBRANCH  12  15
ENDBRANCH  11  12
ENDBRANCH   6  11
BRANCH   1  37
ATOM     37  CAT 0YX d   1      43.472  27.123  59.332  0.00  0.00     0.050 C 
ATOM     38  H   0YX d   1      42.417  26.856  59.277  0.00  0.00     0.082 H 
ATOM     39  H   0YX d   1      44.077  26.463  58.710  0.00  0.00     0.082 H 
BRANCH  37  40
ATOM     40  OAV 0YX d   1      43.899  26.999  60.668  0.00  0.00    -0.345 OA
BRANCH  40  41
ATOM     41  CAZ 0YX d   1      43.847  25.730  61.139  0.00  0.00     0.089 A 
ATOM     42  CBA 0YX d   1      44.463  25.414  62.387  0.00  0.00     0.102 A 
ATOM     43  CAL 0YX d   1      44.339  24.131  62.812  0.00  0.00    -0.044 A 
ATOM     44  CAW 0YX d   1      43.679  23.155  62.126  0.00  0.00     0.012 A 
ATOM     45  H   0YX d   1      44.797  23.863  63.764  0.00  0.00     0.087 H 
ATOM     46 BRE  0YX d   1      43.740  21.461  62.988  0.00  0.00    -0.051 Br
ATOM     47  CAI 0YX d   1      43.073  23.449  60.936  0.00  0.00    -0.064 A 
ATOM     48  CAJ 0YX d   1      43.159  24.745  60.463  0.00  0.00    -0.048 A 
ATOM     49  H   0YX d   1      42.537  22.683  60.376  0.00  0.00     0.085 H 
ATOM     50  H   0YX d   1      42.666  24.997  59.524  0.00  0.00     0.087 H 
BRANCH  42  51
ATOM     51  PBB 0YX d   1      45.400  26.467  63.726  0.00  0.00     0.298 P 
ATOM     52  OAC 0YX d   1      44.713  27.976  63.804  0.00  0.00    -0.636 OA
ATOM     53  OAD 0YX d   1      44.892  25.904  65.099  0.00  0.00    -0.636 OA
ATOM     54  OAB 0YX d   1      46.872  26.480  63.798  0.00  0.00    -0.636 OA
ENDBRANCH  42  51
ENDBRANCH  40  41
ENDBRANCH  37  40
ENDBRANCH   1  37
TORSDOF 13
