REMARK WARNING: 32 MAX_TORS EXCEEDED!!!
REMARK  40 active torsions:
REMARK  status: ('A' for Active; 'I' for Inactive)
REMARK    1  A    between atoms: CA_2  and  C_3 
REMARK       I    between atoms: C_3  and  N_8 
REMARK    2  A    between atoms: N_8  and  CA_9 
REMARK    3  A    between atoms: CA_9  and  C_10 
REMARK    4  A    between atoms: CA_9  and  CB_12 
REMARK       I    between atoms: C_10  and  N_13 
REMARK    5  A    between atoms: N_13  and  CA_14 
REMARK    6  A    between atoms: CA_14  and  C_15 
REMARK    7  A    between atoms: CA_14  and  CB_17 
REMARK       I    between atoms: C_15  and  N_24 
REMARK    8  A    between atoms: CB_17  and  CG_18 
REMARK    9  A    between atoms: CG_18  and  CD_19 
REMARK   10  A    between atoms: CD_19  and  NE_20 
REMARK       I    between atoms: NE_20  and  CZ_21 
REMARK       I    between atoms: CZ_21  and  NH1_22 
REMARK   11  A    between atoms: CA_25  and  C_26 
REMARK       I    between atoms: C_26  and  N_31 
REMARK   12  A    between atoms: N_31  and  CA_32 
REMARK   13  A    between atoms: CA_32  and  C_33 
REMARK   14  A    between atoms: CA_32  and  CB_35 
REMARK       I    between atoms: C_33  and  N_38 
REMARK   15  A    between atoms: CB_35  and  OG1_36 
REMARK   16  A    between atoms: CB_35  and  CG2_37 
REMARK   17  A    between atoms: N_38  and  CA_39 
REMARK   18  A    between atoms: CA_39  and  C_40 
REMARK   19  A    between atoms: CA_39  and  CB_42 
REMARK       I    between atoms: C_40  and  N_45 
REMARK   20  A    between atoms: CB_42  and  OG1_43 
REMARK   21  A    between atoms: CB_42  and  CG2_44 
REMARK   22  A    between atoms: N_45  and  CA_46 
REMARK   23  A    between atoms: CA_46  and  C_47 
REMARK   24  A    between atoms: CA_46  and  CB_49 
REMARK       I    between atoms: C_47  and  N_53 
REMARK   25  A    between atoms: CB_49  and  CG_50 
REMARK   26  A    between atoms: CG_50  and  CD1_51 
REMARK   27  A    between atoms: CG_50  and  CD2_52 
REMARK   28  A    between atoms: N_53  and  CA_54 
REMARK   29  A    between atoms: CA_54  and  C_55 
REMARK   30  A    between atoms: CA_54  and  CB_57 
REMARK       I    between atoms: C_55  and  N_61 
REMARK   31  A    between atoms: CB_57  and  CG_58 
REMARK       I    between atoms: CG_58  and  ND2_60 
REMARK   32  A    between atoms: N_61  and  CA_62 
REMARK   33  A    between atoms: CA_62  and  C_63 
REMARK   34  A    between atoms: CA_62  and  CB_65 
REMARK       I    between atoms: C_63  and  N_69 
REMARK   35  A    between atoms: CB_65  and  CG_66 
REMARK   36  A    between atoms: CG_66  and  CD1_67 
REMARK   37  A    between atoms: CG_66  and  CD2_68 
REMARK   38  A    between atoms: N_69  and  CA_70 
REMARK   39  A    between atoms: CA_70  and  C_71 
REMARK   40  A    between atoms: CA_70  and  CB_73 
ROOT
ATOM      1  C   THR d   1     -14.332  10.814  -0.675  0.00  0.00     0.243 C 
ATOM      2  O   THR d   1     -13.405  10.089  -0.319  0.00  0.00    -0.271 OA
ATOM      3  N   THR d   1     -15.511  10.341  -1.066  0.00  0.00    -0.344 N 
ATOM      4  H   THR d   1     -16.248  10.995  -1.332  0.00  0.00     0.163 HD
ENDROOT
BRANCH   1   5
ATOM      5  CA  THR d   1     -14.176  12.327  -0.678  0.00  0.00     0.113 C 
ATOM      6  H   THR d   1     -13.338  12.600  -1.319  0.00  0.00     0.091 H 
BRANCH   5   7
ATOM      7  N   THR d   1     -15.354  12.980  -1.229  0.00  0.00    -0.344 N 
ATOM      8  C   PRO d   1     -15.290  13.709  -2.336  0.00  0.00     0.241 C 
ATOM      9  O   PRO d   1     -14.249  13.881  -2.973  0.00  0.00    -0.271 OA
ATOM     10  H   THR d   1     -16.250  12.875  -0.753  0.00  0.00     0.163 HD
BRANCH   8  11
ATOM     11  CA  PRO d   1     -16.586  14.350  -2.810  0.00  0.00     0.091 C 
ATOM     12  N   PRO d   1     -16.331  15.701  -3.314  0.00  0.00    -0.337 N 
ATOM     13  C   ARG d   1     -15.768  16.635  -2.534  0.00  0.00     0.243 C 
ATOM     14  CD  PRO d   1     -16.775  15.865  -4.709  0.00  0.00    -0.001 C 
ATOM     15  O   ARG d   1     -15.472  16.430  -1.360  0.00  0.00    -0.271 OA
ATOM     16  CG  PRO d   1     -17.675  14.684  -4.917  0.00  0.00    -0.048 C 
ATOM     17  H   PRO d   1     -15.946  15.894  -5.416  0.00  0.00     0.064 H 
ATOM     18  H   PRO d   1     -17.279  16.816  -4.883  0.00  0.00     0.064 H 
ATOM     19  CB  PRO d   1     -17.116  13.612  -4.043  0.00  0.00    -0.036 C 
ATOM     20  H   PRO d   1     -18.709  14.915  -4.661  0.00  0.00     0.035 H 
ATOM     21  H   PRO d   1     -17.704  14.378  -5.963  0.00  0.00     0.035 H 
ATOM     22  H   PRO d   1     -17.869  12.869  -3.779  0.00  0.00     0.036 H 
ATOM     23  H   PRO d   1     -16.332  13.046  -4.546  0.00  0.00     0.036 H 
ATOM     24  H   PRO d   1     -17.273  14.330  -1.964  0.00  0.00     0.087 H 
BRANCH  13  25
ATOM     25  CA  ARG d   1     -15.493  17.991  -3.174  0.00  0.00     0.089 C 
ATOM     26  H   ARG d   1     -16.203  18.134  -3.989  0.00  0.00     0.087 H 
BRANCH  25  27
ATOM     27  N   ARG d   1     -15.693  19.089  -2.230  0.00  0.00    -0.346 N 
ATOM     28  C   LYS d   1     -16.907  19.538  -1.932  0.00  0.00     0.240 C 
ATOM     29  O   LYS d   1     -17.937  19.043  -2.387  0.00  0.00    -0.271 OA
ATOM     30  H   ARG d   1     -14.881  19.521  -1.790  0.00  0.00     0.163 HD
BRANCH  28  31
ATOM     31  CA  LYS d   1     -16.979  20.719  -0.977  0.00  0.00     0.086 C 
ATOM     32  H   LYS d   1     -16.140  21.390  -1.158  0.00  0.00     0.086 H 
BRANCH  31  33
ATOM     33  N   LYS d   1     -18.226  21.433  -1.212  0.00  0.00    -0.346 N 
ATOM     34  C   PRO d   1     -18.339  22.337  -2.178  0.00  0.00     0.249 C 
ATOM     35  O   PRO d   1     -17.392  22.699  -2.874  0.00  0.00    -0.271 OA
ATOM     36  H   LYS d   1     -19.032  21.234  -0.620  0.00  0.00     0.163 HD
BRANCH  34  37
ATOM     37  CA  PRO d   1     -19.724  22.936  -2.396  0.00  0.00     0.178 C 
ATOM     38  N   PRO d   1     -19.670  24.200  -3.139  0.00  0.00    -0.062 N 
ATOM     39  CD  PRO d   1     -20.196  24.058  -4.508  0.00  0.00     0.083 C 
ATOM     40  H   PRO d   1     -18.695  24.492  -3.201  0.00  0.00     0.278 HD
ATOM     41  H   PRO d   1     -20.244  24.884  -2.646  0.00  0.00     0.278 HD
ATOM     42  CG  PRO d   1     -20.288  22.569  -4.686  0.00  0.00    -0.040 C 
ATOM     43  H   PRO d   1     -19.560  24.533  -5.255  0.00  0.00     0.075 H 
ATOM     44  H   PRO d   1     -21.155  24.558  -4.645  0.00  0.00     0.075 H 
ATOM     45  CB  PRO d   1     -20.541  22.030  -3.321  0.00  0.00    -0.028 C 
ATOM     46  H   PRO d   1     -21.081  22.294  -5.381  0.00  0.00     0.035 H 
ATOM     47  H   PRO d   1     -19.376  22.158  -5.119  0.00  0.00     0.035 H 
ATOM     48  H   PRO d   1     -21.601  22.037  -3.068  0.00  0.00     0.036 H 
ATOM     49  H   PRO d   1     -20.247  20.984  -3.233  0.00  0.00     0.036 H 
ATOM     50  H   PRO d   1     -20.148  23.063  -1.400  0.00  0.00     0.099 H 
ENDBRANCH  34  37
ENDBRANCH  31  33
BRANCH  31  51
ATOM     51  CB  LYS d   1     -16.877  20.249   0.475  0.00  0.00    -0.049 C 
ATOM     52  H   LYS d   1     -16.915  21.113   1.139  0.00  0.00     0.030 H 
ATOM     53  H   LYS d   1     -17.709  19.581   0.699  0.00  0.00     0.030 H 
ATOM     54  H   LYS d   1     -15.935  19.719   0.619  0.00  0.00     0.030 H 
ENDBRANCH  31  51
ENDBRANCH  28  31
ENDBRANCH  25  27
BRANCH  25  55
ATOM     55  CB  ARG d   1     -14.067  18.013  -3.721  0.00  0.00    -0.036 C 
ATOM     56  H   ARG d   1     -13.967  17.162  -4.394  0.00  0.00     0.036 H 
ATOM     57  H   ARG d   1     -13.393  17.985  -2.865  0.00  0.00     0.036 H 
BRANCH  55  58
ATOM     58  CG  ARG d   1     -13.730  19.254  -4.516  0.00  0.00    -0.048 C 
ATOM     59  H   ARG d   1     -13.914  20.132  -3.897  0.00  0.00     0.035 H 
ATOM     60  H   ARG d   1     -14.352  19.281  -5.411  0.00  0.00     0.035 H 
BRANCH  58  61
ATOM     61  CD  ARG d   1     -12.274  19.240  -4.929  0.00  0.00     0.009 C 
ATOM     62  H   ARG d   1     -12.059  18.274  -5.386  0.00  0.00     0.064 H 
ATOM     63  H   ARG d   1     -11.667  19.417  -4.041  0.00  0.00     0.064 H 
BRANCH  61  64
ATOM     64  NE  ARG d   1     -11.971  20.282  -5.903  0.00  0.00    -0.227 N 
ATOM     65  CZ  ARG d   1     -10.763  20.486  -6.414  0.00  0.00     0.665 C 
ATOM     66  NH1 ARG d   1      -9.749  19.717  -6.039  0.00  0.00    -0.235 N 
ATOM     67  NH2 ARG d   1     -10.568  21.455  -7.298  0.00  0.00    -0.235 N 
ATOM     68  H   ARG d   1      -9.899  18.971  -5.359  0.00  0.00     0.174 HD
ATOM     69  H   ARG d   1      -8.820  19.872  -6.430  0.00  0.00     0.174 HD
ATOM     70  H   ARG d   1     -11.347  22.046  -7.587  0.00  0.00     0.174 HD
ATOM     71  H   ARG d   1      -9.639  21.609  -7.689  0.00  0.00     0.174 HD
ATOM     72  H   ARG d   1     -12.731  20.889  -6.209  0.00  0.00     0.177 HD
ENDBRANCH  61  64
ENDBRANCH  58  61
ENDBRANCH  55  58
ENDBRANCH  25  55
ENDBRANCH  13  25
ENDBRANCH   8  11
ENDBRANCH   5   7
BRANCH   5  73
ATOM     73  CB  THR d   1     -13.892  12.802   0.758  0.00  0.00     0.060 C 
ATOM     74  H   THR d   1     -13.068  12.216   1.166  0.00  0.00     0.086 H 
BRANCH  73  75
ATOM     75  OG1 THR d   1     -15.065  12.621   1.561  0.00  0.00    -0.393 OA
ATOM     76  H   THR d   1     -15.787  13.133   1.190  0.00  0.00     0.210 HD
ENDBRANCH  73  75
BRANCH  73  77
ATOM     77  CG2 THR d   1     -13.504  14.276   0.761  0.00  0.00    -0.050 C 
ATOM     78  H   THR d   1     -12.608  14.416   0.156  0.00  0.00     0.031 H 
ATOM     79  H   THR d   1     -14.321  14.866   0.345  0.00  0.00     0.031 H 
ATOM     80  H   THR d   1     -13.306  14.596   1.784  0.00  0.00     0.031 H 
ENDBRANCH  73  77
ENDBRANCH   5  73
ENDBRANCH   1   5
BRANCH   3  81
ATOM     81  CA  THR d   1     -15.774   8.908  -1.123  0.00  0.00     0.113 C 
ATOM     82  H   THR d   1     -14.812   8.425  -0.954  0.00  0.00     0.091 H 
BRANCH  81  83
ATOM     83  C   THR d   1     -16.329   8.487  -2.476  0.00  0.00     0.243 C 
ATOM     84  O   THR d   1     -17.090   9.222  -3.109  0.00  0.00    -0.271 OA
ATOM     85  N   LEU d   1     -15.943   7.292  -2.906  0.00  0.00    -0.346 N 
ATOM     86  H   LEU d   1     -15.265   6.765  -2.355  0.00  0.00     0.163 HD
BRANCH  85  87
ATOM     87  CA  LEU d   1     -16.455   6.709  -4.137  0.00  0.00     0.089 C 
ATOM     88  H   LEU d   1     -17.418   7.161  -4.376  0.00  0.00     0.087 H 
BRANCH  87  89
ATOM     89  C   LEU d   1     -16.631   5.210  -3.942  0.00  0.00     0.241 C 
ATOM     90  O   LEU d   1     -15.654   4.479  -3.793  0.00  0.00    -0.271 OA
ATOM     91  N   ASN d   1     -17.876   4.752  -3.954  0.00  0.00    -0.346 N 
ATOM     92  H   ASN d   1     -18.645   5.396  -4.138  0.00  0.00     0.163 HD
BRANCH  91  93
ATOM     93  CA  ASN d   1     -18.164   3.343  -3.708  0.00  0.00     0.097 C 
ATOM     94  H   ASN d   1     -17.433   2.997  -2.977  0.00  0.00     0.088 H 
BRANCH  93  95
ATOM     95  C   ASN d   1     -17.983   2.476  -4.947  0.00  0.00     0.241 C 
ATOM     96  O   ASN d   1     -18.818   2.479  -5.846  0.00  0.00    -0.271 OA
ATOM     97  N   LEU d   1     -16.883   1.734  -4.979  0.00  0.00    -0.346 N 
ATOM     98  H   LEU d   1     -16.234   1.782  -4.194  0.00  0.00     0.163 HD
BRANCH  97  99
ATOM     99  CA  LEU d   1     -16.570   0.853  -6.096  0.00  0.00     0.089 C 
ATOM    100  H   LEU d   1     -16.823   1.370  -7.021  0.00  0.00     0.087 H 
BRANCH  99 101
ATOM    101  C   LEU d   1     -17.386  -0.433  -6.027  0.00  0.00     0.241 C 
ATOM    102  O   LEU d   1     -17.436  -1.200  -6.989  0.00  0.00    -0.271 OA
ATOM    103  N   PHE d   1     -18.019  -0.660  -4.880  0.00  0.00    -0.345 N 
ATOM    104  H   PHE d   1     -17.973   0.047  -4.146  0.00  0.00     0.163 HD
BRANCH 103 105
ATOM    105  CA  PHE d   1     -18.777  -1.883  -4.631  0.00  0.00     0.093 C 
ATOM    106  H   PHE d   1     -19.278  -1.770  -3.669  0.00  0.00     0.089 H 
BRANCH 105 107
ATOM    107  C   PHE d   1     -17.854  -3.095  -4.548  0.00  0.00     0.196 C 
ATOM    108  O   PHE d   1     -16.866  -3.099  -3.766  0.00  0.00    -0.646 OA
ATOM    109  O   PHE d   1     -18.082  -4.103  -5.269  0.00  0.00    -0.646 OA
ENDBRANCH 105 107
BRANCH 105 110
ATOM    110  CB  PHE d   1     -19.846  -2.097  -5.707  0.00  0.00    -0.048 C 
ATOM    111  H   PHE d   1     -20.535  -1.252  -5.706  0.00  0.00     0.030 H 
ATOM    112  H   PHE d   1     -19.367  -2.175  -6.683  0.00  0.00     0.030 H 
ATOM    113  H   PHE d   1     -20.394  -3.015  -5.495  0.00  0.00     0.030 H 
ENDBRANCH 105 110
ENDBRANCH 103 105
ENDBRANCH  99 101
BRANCH  99 114
ATOM    114  CB  LEU d   1     -15.082   0.515  -6.079  0.00  0.00    -0.035 C 
ATOM    115  H   LEU d   1     -14.819   0.197  -7.088  0.00  0.00     0.037 H 
ATOM    116  H   LEU d   1     -14.939  -0.242  -5.308  0.00  0.00     0.037 H 
BRANCH 114 117
ATOM    117  CG  LEU d   1     -14.162   1.684  -5.729  0.00  0.00    -0.059 C 
ATOM    118  H   LEU d   1     -14.539   2.154  -4.821  0.00  0.00     0.038 H 
BRANCH 117 119
ATOM    119  CD1 LEU d   1     -12.753   1.196  -5.448  0.00  0.00    -0.073 C 
ATOM    120  H   LEU d   1     -12.771   0.500  -4.610  0.00  0.00     0.028 H 
ATOM    121  H   LEU d   1     -12.361   0.692  -6.332  0.00  0.00     0.028 H 
ATOM    122  H   LEU d   1     -12.118   2.047  -5.201  0.00  0.00     0.028 H 
ENDBRANCH 117 119
BRANCH 117 123
ATOM    123  CD2 LEU d   1     -14.173   2.734  -6.835  0.00  0.00    -0.073 C 
ATOM    124  H   LEU d   1     -13.829   2.283  -7.766  0.00  0.00     0.028 H 
ATOM    125  H   LEU d   1     -15.187   3.112  -6.965  0.00  0.00     0.028 H 
ATOM    126  H   LEU d   1     -13.510   3.555  -6.561  0.00  0.00     0.028 H 
ENDBRANCH 117 123
ENDBRANCH 114 117
ENDBRANCH  99 114
ENDBRANCH  97  99
ENDBRANCH  93  95
BRANCH  93 127
ATOM    127  CB  ASN d   1     -19.570   3.172  -3.126  0.00  0.00     0.036 C 
ATOM    128  H   ASN d   1     -20.288   3.437  -3.902  0.00  0.00     0.051 H 
ATOM    129  H   ASN d   1     -19.647   3.810  -2.246  0.00  0.00     0.051 H 
BRANCH 127 130
ATOM    130  CG  ASN d   1     -19.857   1.742  -2.693  0.00  0.00     0.217 C 
ATOM    131  OD1 ASN d   1     -19.012   0.857  -2.821  0.00  0.00    -0.274 OA
ATOM    132  ND2 ASN d   1     -21.053   1.514  -2.165  0.00  0.00    -0.370 N 
ATOM    133  H   ASN d   1     -21.300   0.577  -1.847  0.00  0.00     0.159 HD
ATOM    134  H   ASN d   1     -21.725   2.276  -2.077  0.00  0.00     0.159 HD
ENDBRANCH 127 130
ENDBRANCH  93 127
ENDBRANCH  91  93
ENDBRANCH  87  89
BRANCH  87 135
ATOM    135  CB  LEU d   1     -15.501   6.985  -5.301  0.00  0.00    -0.035 C 
ATOM    136  H   LEU d   1     -14.573   6.466  -5.062  0.00  0.00     0.037 H 
ATOM    137  H   LEU d   1     -15.440   8.069  -5.392  0.00  0.00     0.037 H 
BRANCH 135 138
ATOM    138  CG  LEU d   1     -15.937   6.466  -6.676  0.00  0.00    -0.059 C 
ATOM    139  H   LEU d   1     -16.002   5.379  -6.620  0.00  0.00     0.038 H 
BRANCH 138 140
ATOM    140  CD1 LEU d   1     -17.307   7.013  -7.044  0.00  0.00    -0.073 C 
ATOM    141  H   LEU d   1     -18.036   6.695  -6.298  0.00  0.00     0.028 H 
ATOM    142  H   LEU d   1     -17.266   8.102  -7.073  0.00  0.00     0.028 H 
ATOM    143  H   LEU d   1     -17.598   6.633  -8.023  0.00  0.00     0.028 H 
ENDBRANCH 138 140
BRANCH 138 144
ATOM    144  CD2 LEU d   1     -14.913   6.818  -7.746  0.00  0.00    -0.073 C 
ATOM    145  H   LEU d   1     -14.804   7.901  -7.801  0.00  0.00     0.028 H 
ATOM    146  H   LEU d   1     -13.954   6.367  -7.491  0.00  0.00     0.028 H 
ATOM    147  H   LEU d   1     -15.251   6.436  -8.710  0.00  0.00     0.028 H 
ENDBRANCH 138 144
ENDBRANCH 135 138
ENDBRANCH  87 135
ENDBRANCH  85  87
ENDBRANCH  81  83
BRANCH  81 148
ATOM    148  CB  THR d   1     -16.773   8.467  -0.042  0.00  0.00     0.060 C 
ATOM    149  H   THR d   1     -16.890   7.385  -0.098  0.00  0.00     0.086 H 
BRANCH 148 150
ATOM    150  OG1 THR d   1     -18.036   9.104  -0.269  0.00  0.00    -0.393 OA
ATOM    151  H   THR d   1     -18.369   8.853  -1.134  0.00  0.00     0.210 HD
ENDBRANCH 148 150
BRANCH 148 152
ATOM    152  CG2 THR d   1     -16.262   8.826   1.346  0.00  0.00    -0.050 C 
ATOM    153  H   THR d   1     -15.310   8.326   1.522  0.00  0.00     0.031 H 
ATOM    154  H   THR d   1     -16.125   9.905   1.413  0.00  0.00     0.031 H 
ATOM    155  H   THR d   1     -16.987   8.503   2.093  0.00  0.00     0.031 H 
ENDBRANCH 148 152
ENDBRANCH  81 148
ENDBRANCH   3  81
TORSDOF 40
