REMARK  14 active torsions:
REMARK  status: ('A' for Active; 'I' for Inactive)
REMARK    1  A    between atoms: CAS_2  and  CAU_4 
REMARK    2  A    between atoms: CAU_4  and  OAE_5 
REMARK    3  A    between atoms: CAU_4  and  CAF_6 
REMARK    4  A    between atoms: CAF_6  and  CAT_7 
REMARK    5  A    between atoms: CAT_7  and  CAW_9 
REMARK    6  A    between atoms: CAV_14  and  OAR_15 
REMARK    7  A    between atoms: OAR_15  and  CAQ_16 
REMARK    8  A    between atoms: CAQ_16  and  CAP_17 
REMARK    9  A    between atoms: CAP_17  and  CAO_18 
REMARK   10  A    between atoms: CAO_18  and  CAN_19 
REMARK   11  A    between atoms: CAN_19  and  CAM_20 
REMARK   12  A    between atoms: CAM_20  and  CAL_21 
REMARK   13  A    between atoms: CAL_21  and  CAK_22 
REMARK   14  A    between atoms: CAK_22  and  CAA_23 
ROOT
ATOM      1  CAQ 0YY d   1      44.165  27.457  59.758  0.00  0.00     0.026 C 
ATOM      2  H   0YY d   1      45.184  27.079  59.841  0.00  0.00     0.075 H 
ATOM      3  H   0YY d   1      43.978  28.086  60.629  0.00  0.00     0.075 H 
ENDROOT
BRANCH   1   4
ATOM      4  OAR 0YY d   1      43.265  26.413  59.714  0.00  0.00    -0.351 OA
BRANCH   4   5
ATOM      5  CAV 0YY d   1      43.360  25.675  60.802  0.00  0.00     0.068 A 
ATOM      6  CAH 0YY d   1      44.399  25.893  61.653  0.00  0.00    -0.050 A 
ATOM      7  CAJ 0YY d   1      44.465  25.118  62.798  0.00  0.00    -0.067 A 
ATOM      8  H   0YY d   1      45.153  26.651  61.441  0.00  0.00     0.087 H 
ATOM      9  CAW 0YY d   1      43.549  24.115  63.082  0.00  0.00     0.010 A 
ATOM     10  H   0YY d   1      45.272  25.304  63.507  0.00  0.00     0.085 H 
ATOM     11  CAI 0YY d   1      42.495  23.923  62.207  0.00  0.00    -0.067 A 
ATOM     12  CAG 0YY d   1      42.420  24.708  61.067  0.00  0.00    -0.050 A 
ATOM     13  H   0YY d   1      41.736  23.167  62.410  0.00  0.00     0.085 H 
ATOM     14  H   0YY d   1      41.599  24.555  60.367  0.00  0.00     0.087 H 
BRANCH   9  15
ATOM     15  CAT 0YY d   1      43.695  23.443  64.297  0.00  0.00     0.162 C 
ATOM     16  OAC 0YY d   1      43.313  22.305  64.546  0.00  0.00    -0.292 OA
BRANCH  15  17
ATOM     17  CAF 0YY d   1      44.213  24.414  65.365  0.00  0.00     0.028 C 
ATOM     18  H   0YY d   1      45.224  24.622  65.015  0.00  0.00     0.049 H 
ATOM     19  H   0YY d   1      43.403  25.141  65.426  0.00  0.00     0.049 H 
BRANCH  17  20
ATOM     20  CAU 0YY d   1      44.447  24.070  66.836  0.00  0.00     0.125 C 
ATOM     21  H   0YY d   1      43.875  23.149  66.729  0.00  0.00     0.100 H 
BRANCH  20  22
ATOM     22  CAS 0YY d   1      45.005  25.192  67.675  0.00  0.00     0.203 C 
ATOM     23  OAB 0YY d   1      45.225  26.284  67.137  0.00  0.00    -0.646 OA
ATOM     24  OAD 0YY d   1      45.228  25.020  68.878  0.00  0.00    -0.646 OA
ENDBRANCH  20  22
BRANCH  20  25
ATOM     25  OAE 0YY d   1      44.215  22.852  67.401  0.00  0.00    -0.384 OA
ATOM     26  H   0YY d   1      43.863  22.255  66.737  0.00  0.00     0.210 HD
ENDBRANCH  20  25
ENDBRANCH  17  20
ENDBRANCH  15  17
ENDBRANCH   9  15
ENDBRANCH   4   5
ENDBRANCH   1   4
BRANCH   1  27
ATOM     27  CAP 0YY d   1      43.997  28.252  58.485  0.00  0.00    -0.045 C 
ATOM     28  H   0YY d   1      42.951  28.233  58.180  0.00  0.00     0.036 H 
ATOM     29  H   0YY d   1      44.612  27.814  57.699  0.00  0.00     0.036 H 
BRANCH  27  30
ATOM     30  CAO 0YY d   1      44.428  29.687  58.725  0.00  0.00    -0.063 C 
ATOM     31  H   0YY d   1      44.084  30.308  57.898  0.00  0.00     0.033 H 
ATOM     32  H   0YY d   1      45.515  29.728  58.795  0.00  0.00     0.033 H 
BRANCH  30  33
ATOM     33  CAN 0YY d   1      43.820  30.206  60.030  0.00  0.00    -0.065 C 
ATOM     34  H   0YY d   1      44.188  29.586  60.847  0.00  0.00     0.033 H 
ATOM     35  H   0YY d   1      42.734  30.163  59.941  0.00  0.00     0.033 H 
BRANCH  33  36
ATOM     36  CAM 0YY d   1      44.217  31.648  60.311  0.00  0.00    -0.065 C 
ATOM     37  H   0YY d   1      45.223  31.803  59.921  0.00  0.00     0.033 H 
ATOM     38  H   0YY d   1      44.159  31.810  61.387  0.00  0.00     0.033 H 
BRANCH  36  39
ATOM     39  CAL 0YY d   1      43.295  32.641  59.637  0.00  0.00    -0.065 C 
ATOM     40  H   0YY d   1      42.593  33.029  60.375  0.00  0.00     0.033 H 
ATOM     41  H   0YY d   1      42.763  32.138  58.830  0.00  0.00     0.033 H 
BRANCH  39  42
ATOM     42  CAK 0YY d   1      44.091  33.800  59.056  0.00  0.00    -0.069 C 
ATOM     43  H   0YY d   1      43.438  34.665  58.946  0.00  0.00     0.032 H 
ATOM     44  H   0YY d   1      44.490  33.510  58.084  0.00  0.00     0.032 H 
BRANCH  42  45
ATOM     45  CAA 0YY d   1      45.243  34.156  59.987  0.00  0.00    -0.077 C 
ATOM     46  H   0YY d   1      44.846  34.444  60.961  0.00  0.00     0.027 H 
ATOM     47  H   0YY d   1      45.897  33.291  60.101  0.00  0.00     0.027 H 
ATOM     48  H   0YY d   1      45.807  34.987  59.563  0.00  0.00     0.027 H 
ENDBRANCH  42  45
ENDBRANCH  39  42
ENDBRANCH  36  39
ENDBRANCH  33  36
ENDBRANCH  30  33
ENDBRANCH  27  30
ENDBRANCH   1  27
TORSDOF 14
