REMARK WARNING: 32 MAX_TORS EXCEEDED!!!
REMARK  40 active torsions:
REMARK  status: ('A' for Active; 'I' for Inactive)
REMARK    1  A    between atoms: N_1  and  CA_2 
REMARK    2  A    between atoms: CA_2  and  C_3 
REMARK    3  A    between atoms: CA_2  and  CB_5 
REMARK       I    between atoms: C_3  and  N_8 
REMARK    4  A    between atoms: CB_5  and  CG1_6 
REMARK    5  A    between atoms: CB_5  and  CG2_7 
REMARK    6  A    between atoms: N_8  and  CA_9 
REMARK    7  A    between atoms: CA_9  and  C_10 
REMARK    8  A    between atoms: CA_9  and  CB_12 
REMARK       I    between atoms: C_10  and  N_15 
REMARK    9  A    between atoms: CB_12  and  CG1_13 
REMARK   10  A    between atoms: CB_12  and  CG2_14 
REMARK   11  A    between atoms: N_15  and  CA_16 
REMARK   12  A    between atoms: CA_16  and  C_17 
REMARK   13  A    between atoms: CA_16  and  CB_19 
REMARK       I    between atoms: C_17  and  N_26 
REMARK   14  A    between atoms: CB_19  and  CG_20 
REMARK   15  A    between atoms: CG_20  and  CD_21 
REMARK   16  A    between atoms: CD_21  and  NE_22 
REMARK       I    between atoms: NE_22  and  CZ_23 
REMARK       I    between atoms: CZ_23  and  NH1_24 
REMARK   17  A    between atoms: CA_27  and  C_28 
REMARK       I    between atoms: C_28  and  N_33 
REMARK   18  A    between atoms: N_33  and  CA_34 
REMARK   19  A    between atoms: CA_34  and  C_35 
REMARK       I    between atoms: C_35  and  N_37 
REMARK   20  A    between atoms: N_37  and  CA_38 
REMARK   21  A    between atoms: CA_38  and  C_39 
REMARK   22  A    between atoms: CA_38  and  CB_41 
REMARK       I    between atoms: C_39  and  N_43 
REMARK   23  A    between atoms: CB_41  and  OG_42 
REMARK   24  A    between atoms: N_43  and  CA_44 
REMARK   25  A    between atoms: CA_44  and  C_45 
REMARK   26  A    between atoms: CA_44  and  CB_47 
REMARK       I    between atoms: C_45  and  N_51 
REMARK   27  A    between atoms: CB_47  and  CG_48 
REMARK   28  A    between atoms: CG_48  and  CD1_49 
REMARK   29  A    between atoms: CG_48  and  CD2_50 
REMARK   30  A    between atoms: N_51  and  CA_52 
REMARK   31  A    between atoms: CA_52  and  C_53 
REMARK   32  A    between atoms: CA_52  and  CB_55 
REMARK       I    between atoms: C_53  and  N_59 
REMARK   33  A    between atoms: CB_55  and  CG_56 
REMARK   34  A    between atoms: N_59  and  CA_60 
REMARK   35  A    between atoms: CA_60  and  C_61 
REMARK   36  A    between atoms: CA_60  and  CB_63 
REMARK       I    between atoms: C_61  and  N_67 
REMARK   37  A    between atoms: CB_63  and  CG_64 
REMARK   38  A    between atoms: CG_64  and  CD1_65 
REMARK   39  A    between atoms: CG_64  and  CD2_66 
REMARK   40  A    between atoms: CA_68  and  C_69 
ROOT
ATOM      1  C   GLY d   1     -10.432  21.089  23.175  0.00  0.00     0.236 C 
ATOM      2  O   GLY d   1      -9.934  19.996  23.440  0.00  0.00    -0.272 OA
ATOM      3  N   SER d   1     -11.724  21.257  22.896  0.00  0.00    -0.344 N 
ATOM      4  H   SER d   1     -12.083  22.194  22.714  0.00  0.00     0.163 HD
ENDROOT
BRANCH   1   5
ATOM      5  CA  GLY d   1      -9.584  22.330  23.157  0.00  0.00     0.069 C 
ATOM      6  H   GLY d   1      -9.016  22.393  24.085  0.00  0.00     0.078 H 
ATOM      7  H   GLY d   1      -8.900  22.288  22.309  0.00  0.00     0.078 H 
BRANCH   5   8
ATOM      8  N   GLY d   1     -10.431  23.499  23.033  0.00  0.00    -0.351 N 
ATOM      9  C   PRO d   1     -10.329  24.303  21.985  0.00  0.00     0.241 C 
ATOM     10  O   PRO d   1      -9.562  24.098  21.038  0.00  0.00    -0.271 OA
ATOM     11  H   GLY d   1     -11.114  23.706  23.762  0.00  0.00     0.163 HD
BRANCH   9  12
ATOM     12  CA  PRO d   1     -11.180  25.557  21.999  0.00  0.00     0.091 C 
ATOM     13  N   PRO d   1     -10.368  26.651  21.477  0.00  0.00    -0.337 N 
ATOM     14  C   ARG d   1      -9.202  26.946  22.058  0.00  0.00     0.243 C 
ATOM     15  CD  PRO d   1     -10.985  27.311  20.313  0.00  0.00    -0.001 C 
ATOM     16  O   ARG d   1      -8.798  26.382  23.069  0.00  0.00    -0.271 OA
ATOM     17  CG  PRO d   1     -12.390  26.806  20.341  0.00  0.00    -0.048 C 
ATOM     18  H   PRO d   1     -10.473  27.081  19.378  0.00  0.00     0.064 H 
ATOM     19  H   PRO d   1     -10.927  28.398  20.366  0.00  0.00     0.064 H 
ATOM     20  CB  PRO d   1     -12.317  25.448  20.980  0.00  0.00    -0.036 C 
ATOM     21  H   PRO d   1     -13.043  27.476  20.900  0.00  0.00     0.035 H 
ATOM     22  H   PRO d   1     -12.815  26.753  19.339  0.00  0.00     0.035 H 
ATOM     23  H   PRO d   1     -13.260  25.170  21.451  0.00  0.00     0.036 H 
ATOM     24  H   PRO d   1     -12.131  24.663  20.247  0.00  0.00     0.036 H 
ATOM     25  H   PRO d   1     -11.549  25.703  23.014  0.00  0.00     0.087 H 
BRANCH  14  26
ATOM     26  CA  ARG d   1      -8.395  28.056  21.429  0.00  0.00     0.089 C 
ATOM     27  H   ARG d   1      -9.048  28.691  20.831  0.00  0.00     0.087 H 
BRANCH  26  28
ATOM     28  N   ARG d   1      -7.785  28.835  22.493  0.00  0.00    -0.346 N 
ATOM     29  C   VAL d   1      -8.484  29.749  23.154  0.00  0.00     0.241 C 
ATOM     30  O   VAL d   1      -9.640  30.060  22.844  0.00  0.00    -0.271 OA
ATOM     31  H   ARG d   1      -6.807  28.677  22.735  0.00  0.00     0.163 HD
BRANCH  29  32
ATOM     32  CA  VAL d   1      -7.755  30.439  24.308  0.00  0.00     0.092 C 
ATOM     33  H   VAL d   1      -6.684  30.277  24.184  0.00  0.00     0.088 H 
BRANCH  32  34
ATOM     34  N   VAL d   1      -7.986  31.876  24.269  0.00  0.00    -0.346 N 
ATOM     35  C   VAL d   1      -7.244  32.665  23.497  0.00  0.00     0.249 C 
ATOM     36  O   VAL d   1      -6.278  32.252  22.852  0.00  0.00    -0.271 OA
ATOM     37  H   VAL d   1      -8.726  32.283  24.841  0.00  0.00     0.163 HD
BRANCH  35  38
ATOM     38  CA  VAL d   1      -7.629  34.138  23.451  0.00  0.00     0.178 C 
ATOM     39  H   VAL d   1      -7.867  34.497  24.452  0.00  0.00     0.099 H 
BRANCH  38  40
ATOM     40  N   VAL d   1      -6.502  34.913  22.940  0.00  0.00    -0.066 N 
ATOM     41  H   VAL d   1      -5.692  34.771  23.543  0.00  0.00     0.275 HD
ATOM     42  H   VAL d   1      -6.280  34.605  21.993  0.00  0.00     0.275 HD
ATOM     43  H   VAL d   1      -6.749  35.903  22.928  0.00  0.00     0.275 HD
ENDBRANCH  38  40
BRANCH  38  44
ATOM     44  CB  VAL d   1      -8.889  34.320  22.566  0.00  0.00    -0.025 C 
ATOM     45  H   VAL d   1      -8.776  33.681  21.690  0.00  0.00     0.042 H 
BRANCH  44  46
ATOM     46  CG1 VAL d   1     -10.153  33.893  23.312  0.00  0.00    -0.071 C 
ATOM     47  H   VAL d   1     -10.292  34.532  24.184  0.00  0.00     0.028 H 
ATOM     48  H   VAL d   1     -11.014  33.987  22.650  0.00  0.00     0.028 H 
ATOM     49  H   VAL d   1     -10.051  32.856  23.633  0.00  0.00     0.028 H 
ENDBRANCH  44  46
BRANCH  44  50
ATOM     50  CG2 VAL d   1      -9.016  35.765  22.112  0.00  0.00    -0.071 C 
ATOM     51  H   VAL d   1      -9.875  35.862  21.448  0.00  0.00     0.028 H 
ATOM     52  H   VAL d   1      -9.154  36.407  22.982  0.00  0.00     0.028 H 
ATOM     53  H   VAL d   1      -8.110  36.059  21.582  0.00  0.00     0.028 H 
ENDBRANCH  44  50
ENDBRANCH  38  44
ENDBRANCH  35  38
ENDBRANCH  32  34
BRANCH  32  54
ATOM     54  CB  VAL d   1      -8.130  29.809  25.686  0.00  0.00    -0.033 C 
ATOM     55  H   VAL d   1      -7.821  30.507  26.464  0.00  0.00     0.042 H 
BRANCH  54  56
ATOM     56  CG1 VAL d   1      -9.646  29.605  25.824  0.00  0.00    -0.071 C 
ATOM     57  H   VAL d   1     -10.150  30.567  25.738  0.00  0.00     0.028 H 
ATOM     58  H   VAL d   1      -9.995  28.939  25.035  0.00  0.00     0.028 H 
ATOM     59  H   VAL d   1      -9.865  29.165  26.797  0.00  0.00     0.028 H 
ENDBRANCH  54  56
BRANCH  54  60
ATOM     60  CG2 VAL d   1      -7.396  28.497  25.884  0.00  0.00    -0.071 C 
ATOM     61  H   VAL d   1      -7.672  27.804  25.089  0.00  0.00     0.028 H 
ATOM     62  H   VAL d   1      -6.321  28.675  25.855  0.00  0.00     0.028 H 
ATOM     63  H   VAL d   1      -7.669  28.072  26.850  0.00  0.00     0.028 H 
ENDBRANCH  54  60
ENDBRANCH  32  54
ENDBRANCH  29  32
ENDBRANCH  26  28
BRANCH  26  64
ATOM     64  CB  ARG d   1      -7.330  27.495  20.489  0.00  0.00    -0.036 C 
ATOM     65  H   ARG d   1      -7.811  26.788  19.812  0.00  0.00     0.036 H 
ATOM     66  H   ARG d   1      -6.557  27.020  21.094  0.00  0.00     0.036 H 
BRANCH  64  67
ATOM     67  CG  ARG d   1      -6.680  28.579  19.657  0.00  0.00    -0.048 C 
ATOM     68  H   ARG d   1      -6.563  29.462  20.286  0.00  0.00     0.035 H 
ATOM     69  H   ARG d   1      -7.315  28.766  18.791  0.00  0.00     0.035 H 
BRANCH  67  70
ATOM     70  CD  ARG d   1      -5.315  28.180  19.156  0.00  0.00     0.009 C 
ATOM     71  H   ARG d   1      -5.388  27.209  18.666  0.00  0.00     0.064 H 
ATOM     72  H   ARG d   1      -4.628  28.132  20.001  0.00  0.00     0.064 H 
BRANCH  70  73
ATOM     73  NE  ARG d   1      -4.816  29.157  18.196  0.00  0.00    -0.227 N 
ATOM     74  CZ  ARG d   1      -3.948  28.867  17.237  0.00  0.00     0.665 C 
ATOM     75  NH1 ARG d   1      -3.479  27.631  17.133  0.00  0.00    -0.235 N 
ATOM     76  NH2 ARG d   1      -3.547  29.809  16.389  0.00  0.00    -0.235 N 
ATOM     77  H   ARG d   1      -3.786  26.912  17.788  0.00  0.00     0.174 HD
ATOM     78  H   ARG d   1      -2.811  27.399  16.398  0.00  0.00     0.174 HD
ATOM     79  H   ARG d   1      -3.907  30.759  16.475  0.00  0.00     0.174 HD
ATOM     80  H   ARG d   1      -2.879  29.581  15.653  0.00  0.00     0.174 HD
ATOM     81  H   ARG d   1      -5.154  30.117  18.266  0.00  0.00     0.177 HD
ENDBRANCH  70  73
ENDBRANCH  67  70
ENDBRANCH  64  67
ENDBRANCH  26  64
ENDBRANCH  14  26
ENDBRANCH   9  12
ENDBRANCH   5   8
ENDBRANCH   1   5
BRANCH   3  82
ATOM     82  CA  SER d   1     -12.635  20.111  22.848  0.00  0.00     0.109 C 
ATOM     83  H   SER d   1     -12.026  19.247  22.582  0.00  0.00     0.090 H 
BRANCH  82  84
ATOM     84  C   SER d   1     -13.715  20.262  21.786  0.00  0.00     0.243 C 
ATOM     85  O   SER d   1     -14.106  21.374  21.433  0.00  0.00    -0.271 OA
ATOM     86  N   LEU d   1     -14.210  19.129  21.304  0.00  0.00    -0.346 N 
ATOM     87  H   LEU d   1     -13.843  18.243  21.650  0.00  0.00     0.163 HD
BRANCH  86  88
ATOM     88  CA  LEU d   1     -15.260  19.111  20.297  0.00  0.00     0.089 C 
ATOM     89  H   LEU d   1     -15.841  20.031  20.360  0.00  0.00     0.087 H 
BRANCH  88  90
ATOM     90  C   LEU d   1     -16.163  17.919  20.557  0.00  0.00     0.241 C 
ATOM     91  O   LEU d   1     -15.736  16.758  20.505  0.00  0.00    -0.271 OA
ATOM     92  N   ASP d   1     -17.422  18.220  20.836  0.00  0.00    -0.346 N 
ATOM     93  H   ASP d   1     -17.751  19.171  20.667  0.00  0.00     0.163 HD
BRANCH  92  94
ATOM     94  CA  ASP d   1     -18.352  17.240  21.375  0.00  0.00     0.098 C 
ATOM     95  H   ASP d   1     -17.819  16.614  22.091  0.00  0.00     0.088 H 
BRANCH  94  96
ATOM     96  C   ASP d   1     -18.884  16.295  20.299  0.00  0.00     0.241 C 
ATOM     97  O   ASP d   1     -20.059  16.347  19.930  0.00  0.00    -0.271 OA
ATOM     98  N   LEU d   1     -18.013  15.425  19.803  0.00  0.00    -0.346 N 
ATOM     99  H   LEU d   1     -17.066  15.393  20.181  0.00  0.00     0.163 HD
BRANCH  98 100
ATOM    100  CA  LEU d   1     -18.385  14.513  18.726  0.00  0.00     0.090 C 
ATOM    101  H   LEU d   1     -19.034  15.065  18.046  0.00  0.00     0.087 H 
BRANCH 100 102
ATOM    102  C   LEU d   1     -19.137  13.306  19.267  0.00  0.00     0.243 C 
ATOM    103  O   LEU d   1     -18.828  12.819  20.354  0.00  0.00    -0.271 OA
ATOM    104  N   PRO d   1     -20.128  12.821  18.502  0.00  0.00    -0.336 N 
ATOM    105  CA  PRO d   1     -20.809  11.556  18.797  0.00  0.00     0.098 C 
ATOM    106  CD  PRO d   1     -20.754  13.539  17.375  0.00  0.00    -0.001 C 
ATOM    107  CB  PRO d   1     -22.083  11.648  17.960  0.00  0.00    -0.035 C 
ATOM    108  H   PRO d   1     -20.988  11.414  19.863  0.00  0.00     0.089 H 
ATOM    109  CG  PRO d   1     -21.700  12.522  16.806  0.00  0.00    -0.048 C 
ATOM    110  H   PRO d   1     -22.919  12.057  18.527  0.00  0.00     0.036 H 
ATOM    111  H   PRO d   1     -22.435  10.668  17.636  0.00  0.00     0.036 H 
ATOM    112  H   PRO d   1     -22.572  12.995  16.354  0.00  0.00     0.035 H 
ATOM    113  H   PRO d   1     -21.236  11.947  16.005  0.00  0.00     0.035 H 
ATOM    114  H   PRO d   1     -20.026  13.892  16.645  0.00  0.00     0.064 H 
ATOM    115  H   PRO d   1     -21.257  14.454  17.686  0.00  0.00     0.064 H 
BRANCH 105 116
ATOM    116  C   PRO d   1     -19.977  10.362  18.342  0.00  0.00     0.196 C 
ATOM    117  O   PRO d   1     -19.177   9.819  19.151  0.00  0.00    -0.646 OA
ATOM    118  O   PRO d   1     -20.088   9.921  17.167  0.00  0.00    -0.646 OA
ENDBRANCH 105 116
ENDBRANCH 100 102
BRANCH 100 119
ATOM    119  CB  LEU d   1     -17.143  14.028  17.964  0.00  0.00    -0.035 C 
ATOM    120  H   LEU d   1     -17.533  13.425  17.144  0.00  0.00     0.037 H 
ATOM    121  H   LEU d   1     -16.519  13.549  18.718  0.00  0.00     0.037 H 
BRANCH 119 122
ATOM    122  CG  LEU d   1     -16.235  15.063  17.298  0.00  0.00    -0.059 C 
ATOM    123  H   LEU d   1     -16.043  15.873  18.002  0.00  0.00     0.038 H 
BRANCH 122 124
ATOM    124  CD1 LEU d   1     -14.916  14.415  16.921  0.00  0.00    -0.073 C 
ATOM    125  H   LEU d   1     -14.431  14.031  17.819  0.00  0.00     0.028 H 
ATOM    126  H   LEU d   1     -15.101  13.595  16.227  0.00  0.00     0.028 H 
ATOM    127  H   LEU d   1     -14.271  15.155  16.447  0.00  0.00     0.028 H 
ENDBRANCH 122 124
BRANCH 122 128
ATOM    128  CD2 LEU d   1     -16.910  15.659  16.075  0.00  0.00    -0.073 C 
ATOM    129  H   LEU d   1     -17.127  14.866  15.359  0.00  0.00     0.028 H 
ATOM    130  H   LEU d   1     -17.839  16.144  16.375  0.00  0.00     0.028 H 
ATOM    131  H   LEU d   1     -16.247  16.393  15.617  0.00  0.00     0.028 H 
ENDBRANCH 122 128
ENDBRANCH 119 122
ENDBRANCH 100 119
ENDBRANCH  98 100
ENDBRANCH  94  96
BRANCH  94 132
ATOM    132  CB  ASP d   1     -19.495  17.973  22.087  0.00  0.00     0.043 C 
ATOM    133  H   ASP d   1     -20.162  18.372  21.323  0.00  0.00     0.052 H 
ATOM    134  H   ASP d   1     -19.054  18.749  22.713  0.00  0.00     0.052 H 
BRANCH 132 135
ATOM    135  CG  ASP d   1     -20.310  17.064  22.983  0.00  0.00     0.175 C 
ATOM    136  OD1 ASP d   1     -21.443  17.460  23.342  0.00  0.00    -0.648 OA
ATOM    137  OD2 ASP d   1     -19.824  15.961  23.325  0.00  0.00    -0.648 OA
ENDBRANCH 132 135
ENDBRANCH  94 132
ENDBRANCH  92  94
ENDBRANCH  88  90
BRANCH  88 138
ATOM    138  CB  LEU d   1     -14.662  19.041  18.886  0.00  0.00    -0.035 C 
ATOM    139  H   LEU d   1     -14.155  18.078  18.820  0.00  0.00     0.037 H 
ATOM    140  H   LEU d   1     -14.036  19.927  18.779  0.00  0.00     0.037 H 
BRANCH 138 141
ATOM    141  CG  LEU d   1     -15.658  19.079  17.719  0.00  0.00    -0.059 C 
ATOM    142  H   LEU d   1     -16.424  18.327  17.906  0.00  0.00     0.038 H 
BRANCH 141 143
ATOM    143  CD1 LEU d   1     -16.344  20.435  17.630  0.00  0.00    -0.073 C 
ATOM    144  H   LEU d   1     -16.884  20.629  18.557  0.00  0.00     0.028 H 
ATOM    145  H   LEU d   1     -15.594  21.211  17.475  0.00  0.00     0.028 H 
ATOM    146  H   LEU d   1     -17.044  20.433  16.794  0.00  0.00     0.028 H 
ENDBRANCH 141 143
BRANCH 141 147
ATOM    147  CD2 LEU d   1     -14.961  18.735  16.399  0.00  0.00    -0.073 C 
ATOM    148  H   LEU d   1     -14.168  19.458  16.209  0.00  0.00     0.028 H 
ATOM    149  H   LEU d   1     -14.534  17.734  16.465  0.00  0.00     0.028 H 
ATOM    150  H   LEU d   1     -15.687  18.768  15.587  0.00  0.00     0.028 H 
ENDBRANCH 141 147
ENDBRANCH 138 141
ENDBRANCH  88 138
ENDBRANCH  86  88
ENDBRANCH  82  84
BRANCH  82 151
ATOM    151  CB  SER d   1     -13.293  19.887  24.211  0.00  0.00     0.044 C 
ATOM    152  H   SER d   1     -12.530  19.596  24.933  0.00  0.00     0.077 H 
ATOM    153  H   SER d   1     -14.043  19.101  24.122  0.00  0.00     0.077 H 
BRANCH 151 154
ATOM    154  OG  SER d   1     -13.919  21.078  24.650  0.00  0.00    -0.398 OA
ATOM    155  H   SER d   1     -14.328  20.927  25.505  0.00  0.00     0.209 HD
ENDBRANCH 151 154
ENDBRANCH  82 151
ENDBRANCH   3  82
TORSDOF 40
