REMARK  16 active torsions:
REMARK  status: ('A' for Active; 'I' for Inactive)
REMARK    1  A    between atoms: CAU_2  and  CAW_4 
REMARK    2  A    between atoms: CAW_4  and  OAE_5 
REMARK    3  A    between atoms: CAW_4  and  CAF_6 
REMARK    4  A    between atoms: CAF_6  and  CAV_7 
REMARK    5  A    between atoms: CAV_7  and  CAY_9 
REMARK    6  A    between atoms: CAX_14  and  OAT_15 
REMARK    7  A    between atoms: OAT_15  and  CAS_16 
REMARK    8  A    between atoms: CAS_16  and  CAR_17 
REMARK    9  A    between atoms: CAR_17  and  CAQ_18 
REMARK   10  A    between atoms: CAQ_18  and  CAP_19 
REMARK   11  A    between atoms: CAP_19  and  CAO_20 
REMARK   12  A    between atoms: CAO_20  and  CAN_21 
REMARK   13  A    between atoms: CAN_21  and  CAM_22 
REMARK   14  A    between atoms: CAM_22  and  CAL_23 
REMARK   15  A    between atoms: CAL_23  and  CAK_24 
REMARK   16  A    between atoms: CAK_24  and  CAA_25 
ROOT
ATOM      1  CAR 0YZ d   1      44.227  25.318  60.927  0.00  0.00    -0.045 C 
ATOM      2  H   0YZ d   1      45.035  24.800  60.411  0.00  0.00     0.036 H 
ATOM      3  H   0YZ d   1      44.619  25.935  61.736  0.00  0.00     0.036 H 
ENDROOT
BRANCH   1   4
ATOM      4  CAS 0YZ d   1      43.267  24.276  61.518  0.00  0.00     0.026 C 
ATOM      5  H   0YZ d   1      43.618  23.924  62.488  0.00  0.00     0.075 H 
ATOM      6  H   0YZ d   1      42.279  24.704  61.688  0.00  0.00     0.075 H 
BRANCH   4   7
ATOM      7  OAT 0YZ d   1      43.210  23.243  60.606  0.00  0.00    -0.351 OA
BRANCH   7   8
ATOM      8  CAX 0YZ d   1      42.474  22.134  60.741  0.00  0.00     0.069 A 
ATOM      9  CAJ 0YZ d   1      42.054  21.593  61.935  0.00  0.00    -0.037 A 
ATOM     10  CAY 0YZ d   1      41.303  20.440  61.937  0.00  0.00     0.012 A 
ATOM     11  H   0YZ d   1      42.316  22.076  62.876  0.00  0.00     0.089 H 
ATOM     12  CAI 0YZ d   1      41.003  19.813  60.761  0.00  0.00    -0.069 A 
ATOM     13  CAG 0YZ d   1      41.429  20.364  59.583  0.00  0.00    -0.079 A 
ATOM     14  H   0YZ d   1      40.431  18.885  60.761  0.00  0.00     0.085 H 
ATOM     15  CAH 0YZ d   1      42.180  21.497  59.575  0.00  0.00    -0.051 A 
ATOM     16  H   0YZ d   1      41.163  19.888  58.639  0.00  0.00     0.083 H 
ATOM     17  H   0YZ d   1      42.548  21.897  58.630  0.00  0.00     0.087 H 
BRANCH  10  18
ATOM     18  CAV 0YZ d   1      40.909  19.885  63.132  0.00  0.00     0.162 C 
ATOM     19  OAC 0YZ d   1      39.928  19.195  63.314  0.00  0.00    -0.292 OA
BRANCH  18  20
ATOM     20  CAF 0YZ d   1      41.901  20.080  64.210  0.00  0.00     0.028 C 
ATOM     21  H   0YZ d   1      42.794  19.555  63.872  0.00  0.00     0.049 H 
ATOM     22  H   0YZ d   1      41.954  21.159  64.356  0.00  0.00     0.049 H 
BRANCH  20  23
ATOM     23  CAW 0YZ d   1      41.605  19.515  65.570  0.00  0.00     0.125 C 
ATOM     24  H   0YZ d   1      40.650  19.553  66.095  0.00  0.00     0.100 H 
BRANCH  23  25
ATOM     25  CAU 0YZ d   1      42.677  19.797  66.628  0.00  0.00     0.203 C 
ATOM     26  OAB 0YZ d   1      43.683  20.474  66.335  0.00  0.00    -0.646 OA
ATOM     27  OAD 0YZ d   1      42.528  19.379  67.781  0.00  0.00    -0.646 OA
ENDBRANCH  23  25
BRANCH  23  28
ATOM     28  OAE 0YZ d   1      40.494  18.741  65.799  0.00  0.00    -0.384 OA
ATOM     29  H   0YZ d   1      39.963  18.701  65.000  0.00  0.00     0.210 HD
ENDBRANCH  23  28
ENDBRANCH  20  23
ENDBRANCH  18  20
ENDBRANCH  10  18
ENDBRANCH   7   8
ENDBRANCH   4   7
ENDBRANCH   1   4
BRANCH   1  30
ATOM     30  CAQ 0YZ d   1      43.510  26.204  59.943  0.00  0.00    -0.063 C 
ATOM     31  H   0YZ d   1      42.571  26.535  60.386  0.00  0.00     0.033 H 
ATOM     32  H   0YZ d   1      43.327  25.640  59.029  0.00  0.00     0.033 H 
BRANCH  30  33
ATOM     33  CAP 0YZ d   1      44.341  27.410  59.611  0.00  0.00    -0.065 C 
ATOM     34  H   0YZ d   1      45.364  27.081  59.430  0.00  0.00     0.033 H 
ATOM     35  H   0YZ d   1      44.280  28.108  60.446  0.00  0.00     0.033 H 
BRANCH  33  36
ATOM     36  CAO 0YZ d   1      43.849  28.104  58.385  0.00  0.00    -0.065 C 
ATOM     37  H   0YZ d   1      42.881  28.576  58.553  0.00  0.00     0.033 H 
ATOM     38  H   0YZ d   1      43.691  27.404  57.565  0.00  0.00     0.033 H 
BRANCH  36  39
ATOM     39  CAN 0YZ d   1      44.901  29.113  58.051  0.00  0.00    -0.065 C 
ATOM     40  H   0YZ d   1      45.861  28.705  58.366  0.00  0.00     0.033 H 
ATOM     41  H   0YZ d   1      44.640  30.041  58.559  0.00  0.00     0.033 H 
BRANCH  39  42
ATOM     42  CAM 0YZ d   1      44.994  29.409  56.585  0.00  0.00    -0.065 C 
ATOM     43  H   0YZ d   1      44.142  29.979  56.214  0.00  0.00     0.033 H 
ATOM     44  H   0YZ d   1      44.973  28.509  55.970  0.00  0.00     0.033 H 
BRANCH  42  45
ATOM     45  CAL 0YZ d   1      46.279  30.153  56.475  0.00  0.00    -0.065 C 
ATOM     46  H   0YZ d   1      46.980  29.717  57.187  0.00  0.00     0.033 H 
ATOM     47  H   0YZ d   1      46.075  31.205  56.676  0.00  0.00     0.033 H 
BRANCH  45  48
ATOM     48  CAK 0YZ d   1      46.882  30.056  55.125  0.00  0.00    -0.069 C 
ATOM     49  H   0YZ d   1      46.115  29.855  54.377  0.00  0.00     0.032 H 
ATOM     50  H   0YZ d   1      47.598  29.235  55.083  0.00  0.00     0.032 H 
BRANCH  48  51
ATOM     51  CAA 0YZ d   1      47.559  31.357  54.847  0.00  0.00    -0.077 C 
ATOM     52  H   0YZ d   1      46.825  32.162  54.882  0.00  0.00     0.027 H 
ATOM     53  H   0YZ d   1      48.328  31.533  55.599  0.00  0.00     0.027 H 
ATOM     54  H   0YZ d   1      48.016  31.323  53.858  0.00  0.00     0.027 H 
ENDBRANCH  48  51
ENDBRANCH  45  48
ENDBRANCH  42  45
ENDBRANCH  39  42
ENDBRANCH  36  39
ENDBRANCH  33  36
ENDBRANCH  30  33
ENDBRANCH   1  30
TORSDOF 16
