REMARK  6 active torsions:
REMARK  status: ('A' for Active; 'I' for Inactive)
REMARK    1  A    between atoms: C7_7  and  C5_5 
REMARK    2  A    between atoms: C11_12  and  C9_9 
REMARK    3  A    between atoms: N1_15  and  C16_20 
REMARK    4  A    between atoms: C21_28  and  N5_25 
REMARK    5  A    between atoms: C20_27  and  O2_32 
REMARK    6  A    between atoms: O2_32  and  C25_31 
ROOT
ATOM      1  C1  10V d   1      28.394  10.915  18.284  0.00  0.00    -0.081 A 
ATOM      2  C2  10V d   1      29.080  10.553  19.474  0.00  0.00    -0.063 A 
ATOM      3  C3  10V d   1      28.319  10.315  20.650  0.00  0.00     0.045 A 
ATOM      4  C4  10V d   1      26.915  10.436  20.635  0.00  0.00    -0.052 A 
ATOM      5  C5  10V d   1      26.207  10.794  19.460  0.00  0.00    -0.024 A 
ATOM      6  C6  10V d   1      26.974  11.033  18.282  0.00  0.00    -0.072 A 
ATOM      7  C17 10V d   1      28.963   9.947  21.880  0.00  0.00     0.099 C 
ATOM      8  N4  10V d   1      29.452   9.648  22.888  0.00  0.00    -0.191 NA
ATOM      9  H   10V d   1      28.956  11.103  17.369  0.00  0.00     0.083 H 
ATOM     10  H   10V d   1      30.166  10.460  19.485  0.00  0.00     0.085 H 
ATOM     11  H   10V d   1      26.358  10.249  21.553  0.00  0.00     0.087 H 
ATOM     12  H   10V d   1      26.463  11.312  17.360  0.00  0.00     0.084 H 
ENDROOT
BRANCH   5  13
ATOM     13  C7  10V d   1      24.703  10.915  19.484  0.00  0.00    -0.018 A 
ATOM     14  C8  10V d   1      23.890  10.470  20.564  0.00  0.00    -0.057 A 
ATOM     15  C9  10V d   1      22.468  10.690  20.366  0.00  0.00     0.015 A 
ATOM     16  H   10V d   1      24.299  10.005  21.461  0.00  0.00     0.086 H 
ATOM     17  S1  10V d   1      22.243  11.432  18.852  0.00  0.00    -0.103 SA
ATOM     18  C10 10V d   1      23.912  11.471  18.459  0.00  0.00    -0.034 A 
ATOM     19  H   10V d   1      24.312  11.876  17.530  0.00  0.00     0.096 H 
BRANCH  15  20
ATOM     20  C11 10V d   1      21.348  10.336  21.317  0.00  0.00     0.110 C 
ATOM     21  C12 10V d   1      20.734  11.629  21.887  0.00  0.00     0.071 C 
ATOM     22  C13 10V d   1      21.506  12.233  23.101  0.00  0.00     0.246 C 
ATOM     23  C18 10V d   1      19.302  11.259  22.236  0.00  0.00     0.011 C 
ATOM     24  H   10V d   1      20.791  12.431  21.151  0.00  0.00     0.061 H 
ATOM     25  N1  10V d   1      22.277  11.344  23.860  0.00  0.00    -0.156 N 
ATOM     26  O1  10V d   1      21.418  13.435  23.348  0.00  0.00    -0.272 OA
ATOM     27  C14 10V d   1      22.316   9.977  23.618  0.00  0.00     0.677 C 
ATOM     28  N2  10V d   1      21.835   9.483  22.430  0.00  0.00    -0.210 N 
ATOM     29  N3  10V d   1      22.806   9.134  24.526  0.00  0.00    -0.234 N 
ATOM     30  H   10V d   1      21.811   8.471  22.305  0.00  0.00     0.179 HD
ATOM     31  H   10V d   1      23.160   9.490  25.414  0.00  0.00     0.174 HD
ATOM     32  H   10V d   1      22.828   8.133  24.333  0.00  0.00     0.174 HD
ATOM     33  N5  10V d   1      18.981  10.153  21.318  0.00  0.00    -0.360 N 
ATOM     34  H   10V d   1      18.620  12.101  22.120  0.00  0.00     0.065 H 
ATOM     35  H   10V d   1      19.195  10.970  23.282  0.00  0.00     0.065 H 
ATOM     36  C15 10V d   1      20.164   9.603  20.652  0.00  0.00     0.026 C 
ATOM     37  H   10V d   1      20.234   8.521  20.765  0.00  0.00     0.068 H 
ATOM     38  H   10V d   1      20.138   9.758  19.573  0.00  0.00     0.068 H 
BRANCH  25  39
ATOM     39  C16 10V d   1      23.071  11.948  24.974  0.00  0.00     0.005 C 
ATOM     40  H   10V d   1      23.768  12.681  24.566  0.00  0.00     0.058 H 
ATOM     41  H   10V d   1      22.396  12.438  25.676  0.00  0.00     0.058 H 
ATOM     42  H   10V d   1      23.626  11.164  25.489  0.00  0.00     0.058 H 
ENDBRANCH  25  39
BRANCH  33  43
ATOM     43  C21 10V d   1      17.684   9.677  21.062  0.00  0.00     0.159 A 
ATOM     44  C20 10V d   1      16.640   9.627  22.060  0.00  0.00     0.114 A 
ATOM     45  C19 10V d   1      15.371   9.118  21.651  0.00  0.00    -0.046 A 
ATOM     46  C24 10V d   1      15.160   8.683  20.331  0.00  0.00    -0.063 A 
ATOM     47  H   10V d   1      14.555   9.066  22.372  0.00  0.00     0.088 H 
ATOM     48  C23 10V d   1      16.228   8.763  19.430  0.00  0.00     0.005 A 
ATOM     49  H   10V d   1      14.191   8.294  20.018  0.00  0.00     0.085 H 
ATOM     50  N6  10V d   1      17.447   9.245  19.785  0.00  0.00    -0.241 NA
ATOM     51  H   10V d   1      16.076   8.426  18.405  0.00  0.00     0.114 H 
BRANCH  44  52
ATOM     52  O2  10V d   1      16.892  10.072  23.377  0.00  0.00    -0.352 OA
BRANCH  52  53
ATOM     53  C25 10V d   1      16.055   9.682  24.453  0.00  0.00     0.011 C 
ATOM     54  H   10V d   1      15.037  10.021  24.261  0.00  0.00     0.067 H 
ATOM     55  H   10V d   1      16.067   8.596  24.545  0.00  0.00     0.067 H 
ATOM     56  H   10V d   1      16.420  10.130  25.377  0.00  0.00     0.067 H 
ENDBRANCH  52  53
ENDBRANCH  44  52
ENDBRANCH  33  43
ENDBRANCH  15  20
ENDBRANCH   5  13
TORSDOF 6
