REMARK WARNING: 32 MAX_TORS EXCEEDED!!!
REMARK  52 active torsions:
REMARK  status: ('A' for Active; 'I' for Inactive)
REMARK    1  A    between atoms: N_1  and  CA_2 
REMARK    2  A    between atoms: CA_2  and  C_3 
REMARK    3  A    between atoms: CA_2  and  CB_5 
REMARK       I    between atoms: C_3  and  N_6 
REMARK    4  A    between atoms: N_6  and  CA_7 
REMARK    5  A    between atoms: CA_7  and  C_8 
REMARK    6  A    between atoms: CA_7  and  CB_10 
REMARK       I    between atoms: C_8  and  N_17 
REMARK    7  A    between atoms: CB_10  and  CG_11 
REMARK    8  A    between atoms: CG_11  and  CD_12 
REMARK    9  A    between atoms: CD_12  and  NE_13 
REMARK       I    between atoms: NE_13  and  CZ_14 
REMARK       I    between atoms: CZ_14  and  NH1_15 
REMARK   10  A    between atoms: N_17  and  CA_18 
REMARK   11  A    between atoms: CA_18  and  C_19 
REMARK   12  A    between atoms: CA_18  and  CB_21 
REMARK       I    between atoms: C_19  and  N_26 
REMARK   13  A    between atoms: CB_21  and  CG_22 
REMARK   14  A    between atoms: CG_22  and  CD_23 
REMARK   15  A    between atoms: CD_23  and  CE_24 
REMARK   16  A    between atoms: CE_24  and  NZ_25 
REMARK   17  A    between atoms: CA_27  and  C_28 
REMARK       I    between atoms: C_28  and  N_33 
REMARK   18  A    between atoms: N_33  and  CA_34 
REMARK   19  A    between atoms: CA_34  and  C_35 
REMARK   20  A    between atoms: CA_34  and  CB_37 
REMARK       I    between atoms: C_35  and  N_40 
REMARK   21  A    between atoms: CB_37  and  CG1_38 
REMARK   22  A    between atoms: CB_37  and  CG2_39 
REMARK   23  A    between atoms: N_40  and  CA_41 
REMARK   24  A    between atoms: CA_41  and  C_42 
REMARK   25  A    between atoms: CA_41  and  CB_44 
REMARK       I    between atoms: C_42  and  N_48 
REMARK   26  A    between atoms: CB_44  and  CG_45 
REMARK   27  A    between atoms: CG_45  and  CD1_46 
REMARK   28  A    between atoms: CG_45  and  CD2_47 
REMARK   29  A    between atoms: CA_49  and  C_50 
REMARK       I    between atoms: C_50  and  N_55 
REMARK   30  A    between atoms: N_55  and  CA_56 
REMARK   31  A    between atoms: CA_56  and  C_57 
REMARK   32  A    between atoms: CA_56  and  CB_59 
REMARK       I    between atoms: C_57  and  N_60 
REMARK   33  A    between atoms: N_60  and  CA_61 
REMARK   34  A    between atoms: CA_61  and  C_62 
REMARK   35  A    between atoms: CA_61  and  CB_64 
REMARK       I    between atoms: C_62  and  N_68 
REMARK   36  A    between atoms: CB_64  and  CG_65 
REMARK   37  A    between atoms: CG_65  and  CD1_66 
REMARK   38  A    between atoms: CG_65  and  CD2_67 
REMARK   39  A    between atoms: N_68  and  CA_69 
REMARK   40  A    between atoms: CA_69  and  C_70 
REMARK   41  A    between atoms: CA_69  and  CB_72 
REMARK       I    between atoms: C_70  and  N_75 
REMARK   42  A    between atoms: CB_72  and  OG1_73 
REMARK   43  A    between atoms: CB_72  and  CG2_74 
REMARK   44  A    between atoms: N_75  and  CA_76 
REMARK   45  A    between atoms: CA_76  and  C_77 
REMARK   46  A    between atoms: CA_76  and  CB_79 
REMARK       I    between atoms: C_77  and  N_83 
REMARK   47  A    between atoms: CB_79  and  CG1_80 
REMARK   48  A    between atoms: CB_79  and  CG2_81 
REMARK   49  A    between atoms: CG1_80  and  CD1_82 
REMARK   50  A    between atoms: N_83  and  CA_84 
REMARK   51  A    between atoms: CA_84  and  C_85 
REMARK   52  A    between atoms: CA_84  and  CB_87 
ROOT
ATOM      1  CA  LEU d   1      -4.725  16.391  29.319  0.00  0.00     0.090 C 
ATOM      2  H51 LEU d   1      -4.237  15.832  30.131  0.00  0.00     0.087 H 
ENDROOT
BRANCH   1   3
ATOM      3  N   LEU d   1      -5.603  17.361  30.037  0.00  0.00    -0.346 N 
ATOM      4  C   VAL d   1      -6.710  18.027  29.657  0.00  0.00     0.241 C 
ATOM      5  O   VAL d   1      -7.227  18.847  30.421  0.00  0.00    -0.271 OA
ATOM      6  H50 LEU d   1      -5.316  17.552  30.976  0.00  0.00     0.163 HD
BRANCH   4   7
ATOM      7  CA  VAL d   1      -7.401  17.739  28.300  0.00  0.00     0.092 C 
ATOM      8  H42 VAL d   1      -6.928  16.821  27.921  0.00  0.00     0.088 H 
BRANCH   7   9
ATOM      9  N   VAL d   1      -8.816  17.421  28.481  0.00  0.00    -0.346 N 
ATOM     10  C   PRO d   1      -9.303  16.267  28.038  0.00  0.00     0.241 C 
ATOM     11  O   PRO d   1      -8.654  15.496  27.328  0.00  0.00    -0.271 OA
ATOM     12  H41 VAL d   1      -9.419  18.074  28.939  0.00  0.00     0.163 HD
BRANCH  10  13
ATOM     13  CA  PRO d   1     -10.731  15.921  28.439  0.00  0.00     0.091 C 
ATOM     14  N   PRO d   1     -11.631  15.699  27.290  0.00  0.00    -0.337 N 
ATOM     15  C   LYS d   1     -12.291  16.754  26.758  0.00  0.00     0.243 C 
ATOM     16  CD  PRO d   1     -11.731  14.265  26.958  0.00  0.00    -0.001 C 
ATOM     17  O   LYS d   1     -12.071  17.890  27.146  0.00  0.00    -0.271 OA
ATOM     18  CG  PRO d   1     -10.837  13.612  27.983  0.00  0.00    -0.048 C 
ATOM     19  H39 PRO d   1     -11.370  14.070  25.938  0.00  0.00     0.064 H 
ATOM     20  H40 PRO d   1     -12.767  13.909  27.054  0.00  0.00     0.064 H 
ATOM     21  CB  PRO d   1     -10.730  14.561  29.130  0.00  0.00    -0.036 C 
ATOM     22  H37 PRO d   1     -11.277  12.661  28.318  0.00  0.00     0.035 H 
ATOM     23  H38 PRO d   1      -9.842  13.424  27.553  0.00  0.00     0.035 H 
ATOM     24  H35 PRO d   1     -11.589  14.460  29.810  0.00  0.00     0.036 H 
ATOM     25  H36 PRO d   1      -9.797  14.402  29.691  0.00  0.00     0.036 H 
ATOM     26  H34 PRO d   1     -11.128  16.709  29.095  0.00  0.00     0.087 H 
BRANCH  15  27
ATOM     27  CA  LYS d   1     -13.293  16.492  25.606  0.00  0.00     0.089 C 
ATOM     28  H22 LYS d   1     -13.379  15.402  25.485  0.00  0.00     0.087 H 
BRANCH  27  29
ATOM     29  N   LYS d   1     -14.651  17.010  25.900  0.00  0.00    -0.346 N 
ATOM     30  C   ARG d   1     -15.591  16.253  26.491  0.00  0.00     0.241 C 
ATOM     31  O   ARG d   1     -15.348  15.131  26.924  0.00  0.00    -0.271 OA
ATOM     32  H21 LYS d   1     -14.874  17.952  25.651  0.00  0.00     0.163 HD
BRANCH  30  33
ATOM     33  CA  ARG d   1     -17.063  16.760  26.586  0.00  0.00     0.089 C 
ATOM     34  H9  ARG d   1     -17.573  15.957  27.139  0.00  0.00     0.087 H 
BRANCH  33  35
ATOM     35  N   ARG d   1     -17.519  17.978  27.261  0.00  0.00    -0.346 N 
ATOM     36  C   ARG d   1     -16.897  18.704  28.178  0.00  0.00     0.248 C 
ATOM     37  O   ARG d   1     -15.785  18.448  28.657  0.00  0.00    -0.271 OA
ATOM     38  H8  ARG d   1     -18.424  18.306  26.992  0.00  0.00     0.163 HD
BRANCH  36  39
ATOM     39  CA  ARG d   1     -17.709  19.944  28.551  0.00  0.00     0.172 C 
ATOM     40  H4  ARG d   1     -17.128  20.853  28.336  0.00  0.00     0.098 H 
BRANCH  39  41
ATOM     41  N   ARG d   1     -18.907  19.885  27.716  0.00  0.00    -0.067 N 
ATOM     42  H1  ARG d   1     -19.493  20.681  27.913  0.00  0.00     0.275 HD
ATOM     43  H2  ARG d   1     -19.414  19.037  27.915  0.00  0.00     0.275 HD
ATOM     44  H3  ARG d   1     -18.640  19.896  26.744  0.00  0.00     0.275 HD
ENDBRANCH  39  41
BRANCH  39  45
ATOM     45  CB  ARG d   1     -18.131  19.949  30.022  0.00  0.00    -0.042 C 
ATOM     46  H5  ARG d   1     -17.236  19.993  30.660  0.00  0.00     0.030 H 
ATOM     47  H6  ARG d   1     -18.695  19.031  30.245  0.00  0.00     0.030 H 
ATOM     48  H7  ARG d   1     -18.765  20.826  30.219  0.00  0.00     0.030 H 
ENDBRANCH  39  45
ENDBRANCH  36  39
ENDBRANCH  33  35
BRANCH  33  49
ATOM     49  CB  ARG d   1     -17.648  16.772  25.163  0.00  0.00    -0.036 C 
ATOM     50  H10 ARG d   1     -17.138  17.552  24.578  0.00  0.00     0.036 H 
ATOM     51  H11 ARG d   1     -18.722  17.003  25.225  0.00  0.00     0.036 H 
BRANCH  49  52
ATOM     52  CG  ARG d   1     -17.476  15.444  24.456  0.00  0.00    -0.048 C 
ATOM     53  H12 ARG d   1     -18.467  15.034  24.211  0.00  0.00     0.035 H 
ATOM     54  H13 ARG d   1     -16.944  14.747  25.120  0.00  0.00     0.035 H 
BRANCH  52  55
ATOM     55  CD  ARG d   1     -16.681  15.619  23.180  0.00  0.00     0.009 C 
ATOM     56  H14 ARG d   1     -15.865  14.882  23.157  0.00  0.00     0.064 H 
ATOM     57  H15 ARG d   1     -16.259  16.634  23.152  0.00  0.00     0.064 H 
BRANCH  55  58
ATOM     58  NE  ARG d   1     -17.539  15.423  22.020  0.00  0.00    -0.227 N 
ATOM     59  CZ  ARG d   1     -17.657  14.265  21.390  0.00  0.00     0.665 C 
ATOM     60  NH1 ARG d   1     -18.470  14.147  20.348  0.00  0.00    -0.235 N 
ATOM     61  NH2 ARG d   1     -16.944  13.224  21.800  0.00  0.00    -0.235 N 
ATOM     62  H17 ARG d   1     -18.557  13.243  19.862  0.00  0.00     0.174 HD
ATOM     63  H18 ARG d   1     -19.014  14.960  20.025  0.00  0.00     0.174 HD
ATOM     64  H19 ARG d   1     -16.314  13.318  22.609  0.00  0.00     0.174 HD
ATOM     65  H20 ARG d   1     -17.021  12.322  21.309  0.00  0.00     0.174 HD
ATOM     66  H16 ARG d   1     -18.082  16.226  21.672  0.00  0.00     0.177 HD
ENDBRANCH  55  58
ENDBRANCH  52  55
ENDBRANCH  49  52
ENDBRANCH  33  49
ENDBRANCH  30  33
ENDBRANCH  27  29
BRANCH  27  67
ATOM     67  CB  LYS d   1     -12.753  17.068  24.287  0.00  0.00    -0.038 C 
ATOM     68  H23 LYS d   1     -12.112  17.927  24.533  0.00  0.00     0.036 H 
ATOM     69  H24 LYS d   1     -13.613  17.410  23.693  0.00  0.00     0.036 H 
BRANCH  67  70
ATOM     70  CG  LYS d   1     -11.920  16.090  23.401  0.00  0.00    -0.061 C 
ATOM     71  H25 LYS d   1     -11.836  15.127  23.926  0.00  0.00     0.033 H 
ATOM     72  H26 LYS d   1     -10.917  16.517  23.256  0.00  0.00     0.033 H 
BRANCH  70  73
ATOM     73  CD  LYS d   1     -12.548  15.841  22.022  0.00  0.00    -0.043 C 
ATOM     74  H27 LYS d   1     -13.630  16.028  22.085  0.00  0.00     0.035 H 
ATOM     75  H28 LYS d   1     -12.373  14.794  21.735  0.00  0.00     0.035 H 
BRANCH  73  76
ATOM     76  CE  LYS d   1     -11.952  16.750  20.956  0.00  0.00     0.080 C 
ATOM     77  H29 LYS d   1     -11.342  17.520  21.451  0.00  0.00     0.075 H 
ATOM     78  H30 LYS d   1     -12.773  17.231  20.405  0.00  0.00     0.075 H 
BRANCH  76  79
ATOM     79  NZ  LYS d   1     -11.095  16.014  19.987  0.00  0.00    -0.079 N 
ATOM     80  H31 LYS d   1     -10.727  16.660  19.306  0.00  0.00     0.274 HD
ATOM     81  H32 LYS d   1     -11.644  15.310  19.520  0.00  0.00     0.274 HD
ATOM     82  H33 LYS d   1     -10.333  15.574  20.479  0.00  0.00     0.274 HD
ENDBRANCH  76  79
ENDBRANCH  73  76
ENDBRANCH  70  73
ENDBRANCH  67  70
ENDBRANCH  27  67
ENDBRANCH  15  27
ENDBRANCH  10  13
ENDBRANCH   7   9
BRANCH   7  83
ATOM     83  CB  VAL d   1      -7.174  18.822  27.168  0.00  0.00    -0.033 C 
ATOM     84  H43 VAL d   1      -6.301  18.502  26.581  0.00  0.00     0.042 H 
BRANCH  83  85
ATOM     85  CG1 VAL d   1      -8.382  18.872  26.217  0.00  0.00    -0.071 C 
ATOM     86  H44 VAL d   1      -8.205  19.629  25.439  0.00  0.00     0.028 H 
ATOM     87  H45 VAL d   1      -9.286  19.135  26.786  0.00  0.00     0.028 H 
ATOM     88  H46 VAL d   1      -8.519  17.887  25.746  0.00  0.00     0.028 H 
ENDBRANCH  83  85
BRANCH  83  89
ATOM     89  CG2 VAL d   1      -6.859  20.209  27.726  0.00  0.00    -0.071 C 
ATOM     90  H47 VAL d   1      -5.993  20.145  28.401  0.00  0.00     0.028 H 
ATOM     91  H48 VAL d   1      -7.730  20.587  28.282  0.00  0.00     0.028 H 
ATOM     92  H49 VAL d   1      -6.627  20.894  26.897  0.00  0.00     0.028 H 
ENDBRANCH  83  89
ENDBRANCH   7  83
ENDBRANCH   4   7
ENDBRANCH   1   3
BRANCH   1  93
ATOM     93  C   LEU d   1      -3.571  17.019  28.535  0.00  0.00     0.243 C 
ATOM     94  O   LEU d   1      -3.775  17.566  27.455  0.00  0.00    -0.271 OA
ATOM     95  N   PRO d   1      -2.350  16.933  29.092  0.00  0.00    -0.337 N 
ATOM     96  CA  PRO d   1      -1.123  17.426  28.457  0.00  0.00     0.091 C 
ATOM     97  CD  PRO d   1      -2.089  16.427  30.449  0.00  0.00    -0.001 C 
ATOM     98  CB  PRO d   1      -0.030  17.044  29.463  0.00  0.00    -0.036 C 
ATOM     99  H61 PRO d   1      -1.173  18.517  28.326  0.00  0.00     0.087 H 
ATOM    100  CG  PRO d   1      -0.656  16.038  30.376  0.00  0.00    -0.048 C 
ATOM    101  H62 PRO d   1       0.295  17.928  30.031  0.00  0.00     0.036 H 
ATOM    102  H63 PRO d   1       0.834  16.605  28.943  0.00  0.00     0.036 H 
ATOM    103  H64 PRO d   1      -0.193  16.079  31.373  0.00  0.00     0.035 H 
ATOM    104  H65 PRO d   1      -0.551  15.023  29.964  0.00  0.00     0.035 H 
ATOM    105  H66 PRO d   1      -2.725  15.560  30.679  0.00  0.00     0.064 H 
ATOM    106  H67 PRO d   1      -2.250  17.211  31.204  0.00  0.00     0.064 H 
BRANCH  96 107
ATOM    107  C   PRO d   1      -0.842  16.776  27.105  0.00  0.00     0.241 C 
ATOM    108  O   PRO d   1      -1.173  15.606  26.904  0.00  0.00    -0.271 OA
ATOM    109  N   ALA d   1      -0.224  17.535  26.201  0.00  0.00    -0.346 N 
ATOM    110  H68 ALA d   1       0.036  18.467  26.453  0.00  0.00     0.163 HD
BRANCH 109 111
ATOM    111  CA  ALA d   1       0.088  17.057  24.854  0.00  0.00     0.086 C 
ATOM    112  H69 ALA d   1      -0.821  16.596  24.440  0.00  0.00     0.086 H 
BRANCH 111 113
ATOM    113  C   ALA d   1       1.192  16.001  24.853  0.00  0.00     0.240 C 
ATOM    114  O   ALA d   1       2.148  16.096  25.617  0.00  0.00    -0.271 OA
ATOM    115  N   LEU d   1       1.055  14.995  23.996  0.00  0.00    -0.346 N 
ATOM    116  H73 LEU d   1       0.218  14.930  23.452  0.00  0.00     0.163 HD
BRANCH 115 117
ATOM    117  CA  LEU d   1       2.094  13.982  23.827  0.00  0.00     0.089 C 
ATOM    118  H74 LEU d   1       2.597  13.810  24.790  0.00  0.00     0.087 H 
BRANCH 117 119
ATOM    119  C   LEU d   1       3.101  14.484  22.808  0.00  0.00     0.241 C 
ATOM    120  O   LEU d   1       2.780  15.357  22.003  0.00  0.00    -0.271 OA
ATOM    121  N   THR d   1       4.318  13.946  22.843  0.00  0.00    -0.344 N 
ATOM    122  H84 THR d   1       4.551  13.294  23.564  0.00  0.00     0.163 HD
BRANCH 121 123
ATOM    123  CA  THR d   1       5.316  14.300  21.837  0.00  0.00     0.113 C 
ATOM    124  H85 THR d   1       4.920  15.135  21.240  0.00  0.00     0.091 H 
BRANCH 123 125
ATOM    125  C   THR d   1       5.556  13.116  20.934  0.00  0.00     0.243 C 
ATOM    126  O   THR d   1       5.869  12.026  21.404  0.00  0.00    -0.271 OA
ATOM    127  N   ILE d   1       5.417  13.338  19.633  0.00  0.00    -0.346 N 
ATOM    128  H91 ILE d   1       5.239  14.268  19.311  0.00  0.00     0.163 HD
BRANCH 127 129
ATOM    129  CA  ILE d   1       5.519  12.256  18.665  0.00  0.00     0.092 C 
ATOM    130  H92 ILE d   1       5.628  11.317  19.227  0.00  0.00     0.088 H 
BRANCH 129 131
ATOM    131  C   ILE d   1       6.716  12.392  17.736  0.00  0.00     0.241 C 
ATOM    132  O   ILE d   1       6.820  13.355  16.977  0.00  0.00    -0.271 OA
ATOM    133  N   ASN d   1       7.603  11.406  17.805  0.00  0.00    -0.345 N 
ATOM    134 2H10 ASN d   1       7.459  10.684  18.481  0.00  0.00     0.163 HD
BRANCH 133 135
ATOM    135  CA  ASN d   1       8.774  11.324  16.946  0.00  0.00     0.093 C 
ATOM    136 3H10 ASN d   1       9.488  12.092  17.277  0.00  0.00     0.089 H 
BRANCH 135 137
ATOM    137  C   ASN d   1       8.472  11.575  15.472  0.00  0.00     0.196 C 
ATOM    138  O   ASN d   1       8.590  12.725  14.972  0.00  0.00    -0.646 OA
ATOM    139  O   ASN d   1       8.099  10.617  14.743  0.00  0.00    -0.646 OA
ENDBRANCH 135 137
BRANCH 135 140
ATOM    140  CB  ASN d   1       9.424   9.951  17.108  0.00  0.00    -0.048 C 
ATOM    141 4H10 ASN d   1      10.310   9.886  16.459  0.00  0.00     0.030 H 
ATOM    142 5H10 ASN d   1       8.704   9.169  16.825  0.00  0.00     0.030 H 
ATOM    143 6H10 ASN d   1       9.726   9.809  18.156  0.00  0.00     0.030 H 
ENDBRANCH 135 140
ENDBRANCH 133 135
ENDBRANCH 129 131
BRANCH 129 144
ATOM    144  CB  ILE d   1       4.252  12.167  17.807  0.00  0.00    -0.030 C 
ATOM    145  H93 ILE d   1       4.151  13.097  17.229  0.00  0.00     0.043 H 
BRANCH 144 146
ATOM    146  CG1 ILE d   1       3.026  12.019  18.706  0.00  0.00    -0.063 C 
ATOM    147  H94 ILE d   1       3.113  12.740  19.532  0.00  0.00     0.033 H 
ATOM    148  H95 ILE d   1       3.015  10.997  19.112  0.00  0.00     0.033 H 
BRANCH 146 149
ATOM    149  CD1 ILE d   1       1.725  12.262  18.001  0.00  0.00    -0.076 C 
ATOM    150  H99 ILE d   1       0.894  12.137  18.711  0.00  0.00     0.027 H 
ATOM    151 0H10 ILE d   1       1.614  11.542  17.177  0.00  0.00     0.027 H 
ATOM    152 1H10 ILE d   1       1.712  13.285  17.598  0.00  0.00     0.027 H 
ENDBRANCH 146 149
ENDBRANCH 144 146
BRANCH 144 153
ATOM    153  CG2 ILE d   1       4.360  11.007  16.837  0.00  0.00    -0.071 C 
ATOM    154  H96 ILE d   1       5.250  11.140  16.204  0.00  0.00     0.028 H 
ATOM    155  H97 ILE d   1       3.461  10.974  16.204  0.00  0.00     0.028 H 
ATOM    156  H98 ILE d   1       4.447  10.066  17.399  0.00  0.00     0.028 H 
ENDBRANCH 144 153
ENDBRANCH 129 144
ENDBRANCH 127 129
ENDBRANCH 123 125
BRANCH 123 157
ATOM    157  CB  THR d   1       6.662  14.734  22.444  0.00  0.00     0.060 C 
ATOM    158  H86 THR d   1       7.088  13.898  23.018  0.00  0.00     0.086 H 
BRANCH 157 159
ATOM    159  OG1 THR d   1       6.461  15.858  23.310  0.00  0.00    -0.393 OA
ATOM    160  H87 THR d   1       7.294  16.122  23.682  0.00  0.00     0.210 HD
ENDBRANCH 157 159
BRANCH 157 161
ATOM    161  CG2 THR d   1       7.632  15.137  21.335  0.00  0.00    -0.050 C 
ATOM    162  H88 THR d   1       8.590  15.445  21.780  0.00  0.00     0.031 H 
ATOM    163  H89 THR d   1       7.207  15.975  20.763  0.00  0.00     0.031 H 
ATOM    164  H90 THR d   1       7.798  14.281  20.664  0.00  0.00     0.031 H 
ENDBRANCH 157 161
ENDBRANCH 123 157
ENDBRANCH 121 123
ENDBRANCH 117 119
BRANCH 117 165
ATOM    165  CB  LEU d   1       1.486  12.670  23.334  0.00  0.00    -0.035 C 
ATOM    166  H75 LEU d   1       2.319  11.999  23.077  0.00  0.00     0.037 H 
ATOM    167  H76 LEU d   1       0.905  12.898  22.428  0.00  0.00     0.037 H 
BRANCH 165 168
ATOM    168  CG  LEU d   1       0.566  11.910  24.285  0.00  0.00    -0.059 C 
ATOM    169  H77 LEU d   1       0.048  12.641  24.923  0.00  0.00     0.038 H 
BRANCH 168 170
ATOM    170  CD1 LEU d   1      -0.484  11.125  23.518  0.00  0.00    -0.073 C 
ATOM    171  H78 LEU d   1      -1.131  10.588  24.227  0.00  0.00     0.028 H 
ATOM    172  H79 LEU d   1       0.011  10.401  22.854  0.00  0.00     0.028 H 
ATOM    173  H80 LEU d   1      -1.093  11.817  22.917  0.00  0.00     0.028 H 
ENDBRANCH 168 170
BRANCH 168 174
ATOM    174  CD2 LEU d   1       1.383  11.002  25.171  0.00  0.00    -0.073 C 
ATOM    175  H81 LEU d   1       2.133  11.597  25.713  0.00  0.00     0.028 H 
ATOM    176  H82 LEU d   1       1.890  10.246  24.553  0.00  0.00     0.028 H 
ATOM    177  H83 LEU d   1       0.721  10.501  25.893  0.00  0.00     0.028 H 
ENDBRANCH 168 174
ENDBRANCH 165 168
ENDBRANCH 117 165
ENDBRANCH 115 117
ENDBRANCH 111 113
BRANCH 111 178
ATOM    178  CB  ALA d   1       0.480  18.227  23.963  0.00  0.00    -0.049 C 
ATOM    179  H70 ALA d   1       0.712  17.857  22.953  0.00  0.00     0.030 H 
ATOM    180  H71 ALA d   1       1.365  18.727  24.383  0.00  0.00     0.030 H 
ATOM    181  H72 ALA d   1      -0.354  18.942  23.909  0.00  0.00     0.030 H 
ENDBRANCH 111 178
ENDBRANCH 109 111
ENDBRANCH  96 107
ENDBRANCH   1  93
BRANCH   1 182
ATOM    182  CB  LEU d   1      -5.446  15.307  28.487  0.00  0.00    -0.035 C 
ATOM    183  H52 LEU d   1      -5.056  15.383  27.461  0.00  0.00     0.037 H 
ATOM    184  H53 LEU d   1      -6.516  15.563  28.492  0.00  0.00     0.037 H 
BRANCH 182 185
ATOM    185  CG  LEU d   1      -5.342  13.831  28.892  0.00  0.00    -0.059 C 
ATOM    186  H54 LEU d   1      -5.788  13.226  28.089  0.00  0.00     0.038 H 
BRANCH 185 187
ATOM    187  CD1 LEU d   1      -3.893  13.431  29.031  0.00  0.00    -0.073 C 
ATOM    188  H55 LEU d   1      -3.831  12.372  29.321  0.00  0.00     0.028 H 
ATOM    189  H56 LEU d   1      -3.414  14.051  29.803  0.00  0.00     0.028 H 
ATOM    190  H57 LEU d   1      -3.378  13.578  28.070  0.00  0.00     0.028 H 
ENDBRANCH 185 187
BRANCH 185 191
ATOM    191  CD2 LEU d   1      -6.108  13.545  30.169  0.00  0.00    -0.073 C 
ATOM    192  H58 LEU d   1      -7.159  13.845  30.041  0.00  0.00     0.028 H 
ATOM    193  H59 LEU d   1      -5.663  14.113  30.999  0.00  0.00     0.028 H 
ATOM    194  H60 LEU d   1      -6.059  12.469  30.393  0.00  0.00     0.028 H 
ENDBRANCH 185 191
ENDBRANCH 182 185
ENDBRANCH   1 182
TORSDOF 52
