REMARK  2 active torsions:
REMARK  status: ('A' for Active; 'I' for Inactive)
REMARK    1  A    between atoms: S02_2  and  C05_5 
REMARK    2  A    between atoms: C15_15  and  S17_17 
ROOT
ATOM      1  C05 11H d   1      -2.902  18.037  56.668  0.00  0.00     0.081 A 
ATOM      2  C06 11H d   1      -2.883  16.899  57.498  0.00  0.00    -0.058 A 
ATOM      3  C07 11H d   1      -2.300  15.717  57.037  0.00  0.00    -0.067 A 
ATOM      4  C08 11H d   1      -1.724  15.691  55.731  0.00  0.00     0.029 A 
ATOM      5  C09 11H d   1      -1.078  14.422  55.209  0.00  0.00     0.194 A 
ATOM      6  O10 11H d   1      -1.052  13.416  55.906  0.00  0.00    -0.287 OA
ATOM      7  C11 11H d   1      -0.463  14.419  53.817  0.00  0.00     0.031 A 
ATOM      8  C12 11H d   1      -0.480  15.551  53.012  0.00  0.00     0.029 A 
ATOM      9  C13 11H d   1       0.104  15.523  51.714  0.00  0.00    -0.067 A 
ATOM     10  C14 11H d   1       0.698  14.352  51.239  0.00  0.00    -0.058 A 
ATOM     11  C15 11H d   1       0.710  13.205  52.056  0.00  0.00     0.081 A 
ATOM     12  C16 11H d   1       0.142  13.233  53.333  0.00  0.00    -0.045 A 
ATOM     13  C21 11H d   1      -1.132  16.818  53.532  0.00  0.00     0.194 A 
ATOM     14  O22 11H d   1      -1.161  17.828  52.848  0.00  0.00    -0.287 OA
ATOM     15  C23 11H d   1      -1.742  16.825  54.923  0.00  0.00     0.031 A 
ATOM     16  C24 11H d   1      -2.335  18.014  55.401  0.00  0.00    -0.045 A 
ATOM     17  H   11H d   1      -3.321  16.941  58.495  0.00  0.00     0.086 H 
ATOM     18  H   11H d   1      -2.285  14.827  57.666  0.00  0.00     0.085 H 
ATOM     19  H   11H d   1       0.087  16.417  51.090  0.00  0.00     0.085 H 
ATOM     20  H   11H d   1       1.148  14.326  50.246  0.00  0.00     0.086 H 
ATOM     21  H   11H d   1       0.165  12.340  53.958  0.00  0.00     0.087 H 
ATOM     22  H   11H d   1      -2.348  18.909  54.779  0.00  0.00     0.087 H 
ENDROOT
BRANCH   1  23
ATOM     23  S02 11H d   1      -3.540  19.580  57.218  0.00  0.00     0.137 S 
ATOM     24  O01 11H d   1      -2.351  20.306  57.676  0.00  0.00    -0.591 OA
ATOM     25  O03 11H d   1      -4.164  20.373  56.192  0.00  0.00    -0.591 OA
ATOM     26  O04 11H d   1      -4.466  19.522  58.324  0.00  0.00    -0.591 OA
ENDBRANCH   1  23
BRANCH  11  27
ATOM     27  S17 11H d   1       1.476  11.693  51.550  0.00  0.00     0.137 S 
ATOM     28  O18 11H d   1       0.490  10.719  51.042  0.00  0.00    -0.591 OA
ATOM     29  O19 11H d   1       2.222  11.202  52.695  0.00  0.00    -0.591 OA
ATOM     30  O20 11H d   1       2.542  11.956  50.598  0.00  0.00    -0.591 OA
ENDBRANCH  11  27
TORSDOF 2
