REMARK  8 active torsions:
REMARK  status: ('A' for Active; 'I' for Inactive)
REMARK    1  A    between atoms: P12_2  and  O11_5 
REMARK    2  A    between atoms: O11_5  and  P8_6 
REMARK    3  A    between atoms: P8_6  and  O7_9 
REMARK    4  A    between atoms: O7_9  and  C6_10 
REMARK    5  A    between atoms: C6_10  and  C5_11 
REMARK    6  A    between atoms: C3_12  and  C4_13 
REMARK    7  A    between atoms: C3_12  and  C1_14 
REMARK    8  A    between atoms: C1_14  and  N2_15 
ROOT
ATOM      1  C5  10E d   1     -27.894  -0.816 -14.202  0.00  0.00    -0.076 C 
ATOM      2  C3  10E d   1     -29.135  -0.453 -14.504  0.00  0.00    -0.060 C 
ATOM      3  H3  10E d   1     -27.217  -0.015 -13.908  0.00  0.00     0.080 H 
ENDROOT
BRANCH   1   4
ATOM      4  C6  10E d   1     -27.331  -2.164 -14.218  0.00  0.00     0.047 C 
ATOM      5  H1  10E d   1     -26.986  -2.438 -13.210  0.00  0.00     0.081 H 
ATOM      6  H2  10E d   1     -28.092  -2.884 -14.553  0.00  0.00     0.081 H 
BRANCH   4   7
ATOM      7  O7  10E d   1     -26.161  -2.163 -15.182  0.00  0.00    -0.286 OA
BRANCH   7   8
ATOM      8  P8  10E d   1     -26.314  -2.080 -16.774  0.00  0.00     0.418 P 
ATOM      9  O9  10E d   1     -27.373  -3.002 -17.260  0.00  0.00    -0.624 OA
ATOM     10  O10 10E d   1     -24.924  -2.300 -17.235  0.00  0.00    -0.624 OA
BRANCH   8  11
ATOM     11  O11 10E d   1     -26.775  -0.619 -17.072  0.00  0.00    -0.173 OA
BRANCH  11  12
ATOM     12  P12 10E d   1     -26.189   0.856 -17.113  0.00  0.00     0.431 P 
ATOM     13  O13 10E d   1     -25.817   1.063 -18.582  0.00  0.00    -0.616 OA
ATOM     14  O14 10E d   1     -27.403   1.727 -16.701  0.00  0.00    -0.616 OA
ATOM     15  O15 10E d   1     -25.009   0.892 -16.115  0.00  0.00    -0.616 OA
ENDBRANCH  11  12
ENDBRANCH   8  11
ENDBRANCH   7   8
ENDBRANCH   4   7
ENDBRANCH   1   4
BRANCH   2  16
ATOM     16  C4  10E d   1     -30.228  -1.344 -14.741  0.00  0.00    -0.053 C 
ATOM     17  H4  10E d   1     -31.133  -0.762 -14.969  0.00  0.00     0.033 H 
ATOM     18  H5  10E d   1     -30.402  -1.957 -13.844  0.00  0.00     0.033 H 
ATOM     19  H6  10E d   1     -29.989  -1.999 -15.592  0.00  0.00     0.033 H 
ENDBRANCH   2  16
BRANCH   2  20
ATOM     20  C1  10E d   1     -29.528   1.013 -14.364  0.00  0.00     0.099 C 
ATOM     21  H7  10E d   1     -30.412   1.230 -14.982  0.00  0.00     0.082 H 
ATOM     22  H8  10E d   1     -28.695   1.661 -14.676  0.00  0.00     0.082 H 
BRANCH  20  23
ATOM     23  N2  10E d   1     -29.836   1.231 -12.942  0.00  0.00    -0.076 N 
ATOM     24  H9  10E d   1     -30.103   2.193 -12.800  0.00  0.00     0.274 HD
ATOM     25  H10 10E d   1     -29.021   1.022 -12.386  0.00  0.00     0.274 HD
ATOM     26  H11 10E d   1     -30.595   0.627 -12.666  0.00  0.00     0.274 HD
ENDBRANCH  20  23
ENDBRANCH   2  20
TORSDOF 8
