REMARK  8 active torsions:
REMARK  status: ('A' for Active; 'I' for Inactive)
REMARK    1  A    between atoms: P12_2  and  O11_5 
REMARK    2  A    between atoms: O11_5  and  P8_6 
REMARK    3  A    between atoms: P8_6  and  O7_9 
REMARK    4  A    between atoms: O7_9  and  C6_10 
REMARK    5  A    between atoms: C6_10  and  C5_11 
REMARK    6  A    between atoms: C3_12  and  C4_13 
REMARK    7  A    between atoms: C3_12  and  C1_14 
REMARK    8  A    between atoms: C1_14  and  S2_15 
ROOT
ATOM      1  C6  10G d   1      -8.203  -2.258  14.116  0.00  0.00     0.047 C 
ATOM      2  H1  10G d   1      -8.515  -2.450  13.079  0.00  0.00     0.081 H 
ATOM      3  H2  10G d   1      -7.529  -3.060  14.450  0.00  0.00     0.081 H 
ENDROOT
BRANCH   1   4
ATOM      4  O7  10G d   1      -9.370  -2.186  14.988  0.00  0.00    -0.286 OA
BRANCH   4   5
ATOM      5  P8  10G d   1      -9.176  -2.068  16.624  0.00  0.00     0.418 P 
ATOM      6  O9  10G d   1     -10.565  -2.281  17.167  0.00  0.00    -0.624 OA
ATOM      7  O10 10G d   1      -8.112  -2.975  17.111  0.00  0.00    -0.624 OA
BRANCH   5   8
ATOM      8  O11 10G d   1      -8.652  -0.596  16.928  0.00  0.00    -0.173 OA
BRANCH   8   9
ATOM      9  P12 10G d   1      -9.379   0.819  16.986  0.00  0.00     0.431 P 
ATOM     10  O13 10G d   1     -10.545   0.930  16.022  0.00  0.00    -0.616 OA
ATOM     11  O14 10G d   1      -9.707   1.028  18.430  0.00  0.00    -0.616 OA
ATOM     12  O15 10G d   1      -8.230   1.774  16.572  0.00  0.00    -0.616 OA
ENDBRANCH   8   9
ENDBRANCH   5   8
ENDBRANCH   4   5
ENDBRANCH   1   4
BRANCH   1  13
ATOM     13  C5  10G d   1      -7.529  -0.959  14.209  0.00  0.00    -0.077 C 
ATOM     14  C3  10G d   1      -6.266  -0.631  14.414  0.00  0.00    -0.076 C 
ATOM     15  H3  10G d   1      -8.194  -0.105  14.086  0.00  0.00     0.080 H 
BRANCH  14  16
ATOM     16  C4  10G d   1      -5.029  -1.421  14.593  0.00  0.00    -0.054 C 
ATOM     17  H4  10G d   1      -4.177  -0.740  14.740  0.00  0.00     0.033 H 
ATOM     18  H5  10G d   1      -4.855  -2.038  13.699  0.00  0.00     0.033 H 
ATOM     19  H6  10G d   1      -5.134  -2.072  15.473  0.00  0.00     0.033 H 
ENDBRANCH  14  16
BRANCH  14  20
ATOM     20  C1  10G d   1      -5.909   0.844  14.541  0.00  0.00    -0.006 C 
ATOM     21  H7  10G d   1      -5.206   1.017  15.369  0.00  0.00     0.055 H 
ATOM     22  H8  10G d   1      -6.807   1.463  14.687  0.00  0.00     0.055 H 
BRANCH  20  23
ATOM     23  S2  10G d   1      -5.161   1.161  12.994  0.00  0.00    -0.178 SA
ATOM     24  H9  10G d   1      -4.874   2.126  12.952  0.00  0.00     0.101 HD
ENDBRANCH  20  23
ENDBRANCH  14  20
ENDBRANCH   1  13
TORSDOF 8
