REMARK  8 active torsions:
REMARK  status: ('A' for Active; 'I' for Inactive)
REMARK    1  A    between atoms: C04_5  and  O0A_8 
REMARK    2  A    between atoms: C05_6  and  O0B_9 
REMARK    3  A    between atoms: O0A_8  and  C0C_10 
REMARK    4  A    between atoms: O0B_9  and  C0O_18 
REMARK    5  A    between atoms: C0G_14  and  C0M_17 
REMARK    6  A    between atoms: C0M_17  and  C15_28 
REMARK    7  A    between atoms: C0O_18  and  C0P_19 
REMARK    8  A    between atoms: C0P_19  and  N0S_20 
ROOT
ATOM      1  C15 494 d   1     273.854 -23.859  27.811  0.00  0.00    -0.006 C 
ATOM      2  C17 494 d   1     274.670 -23.832  28.980  0.00  0.00     0.087 C 
ATOM      3  N19 494 d   1     275.330 -23.810  29.929  0.00  0.00    -0.192 NA
ATOM      4  H   494 d   1     273.903 -24.728  27.155  0.00  0.00     0.100 H 
ENDROOT
BRANCH   1   5
ATOM      5  C0M 494 d   1     273.027 -22.851  27.491  0.00  0.00    -0.063 C 
ATOM      6  H   494 d   1     272.764 -22.132  28.267  0.00  0.00     0.085 H 
BRANCH   5   7
ATOM      7  C0G 494 d   1     272.465 -22.668  26.168  0.00  0.00    -0.031 A 
ATOM      8  C0F 494 d   1     271.725 -21.478  25.947  0.00  0.00    -0.052 A 
ATOM      9  C0E 494 d   1     271.135 -21.195  24.697  0.00  0.00     0.037 A 
ATOM     10  H   494 d   1     271.609 -20.765  26.763  0.00  0.00     0.087 H 
ATOM     11  C0D 494 d   1     271.275 -22.111  23.645  0.00  0.00    -0.029 A 
ATOM     12 CL0  494 d   1     270.241 -19.752  24.426  0.00  0.00    -0.084 Cl
ATOM     13  C0C 494 d   1     272.006 -23.313  23.822  0.00  0.00     0.078 A 
ATOM     14  H   494 d   1     270.817 -21.897  22.680  0.00  0.00     0.090 H 
ATOM     15  C0H 494 d   1     272.595 -23.585  25.082  0.00  0.00    -0.040 A 
ATOM     16  H   494 d   1     273.156 -24.509  25.224  0.00  0.00     0.089 H 
BRANCH  13  17
ATOM     17  O0A 494 d   1     272.174 -24.240  22.817  0.00  0.00    -0.308 OA
BRANCH  17  18
ATOM     18  C04 494 d   1     271.770 -23.946  21.533  0.00  0.00     0.109 A 
ATOM     19  C03 494 d   1     272.640 -23.139  20.746  0.00  0.00    -0.046 A 
ATOM     20  C02 494 d   1     272.309 -22.777  19.429  0.00  0.00    -0.059 A 
ATOM     21  H   494 d   1     273.582 -22.795  21.174  0.00  0.00     0.087 H 
ATOM     22  C01 494 d   1     271.088 -23.223  18.885  0.00  0.00     0.036 A 
ATOM     23  H   494 d   1     272.986 -22.161  18.837  0.00  0.00     0.086 H 
ATOM     24  C00 494 d   1     270.210 -24.019  19.649  0.00  0.00    -0.027 A 
ATOM     25 CL7  494 d   1     270.651 -22.797  17.281  0.00  0.00    -0.084 Cl
ATOM     26  C05 494 d   1     270.516 -24.400  20.978  0.00  0.00     0.104 A 
ATOM     27  H   494 d   1     269.271 -24.350  19.205  0.00  0.00     0.090 H 
BRANCH  26  28
ATOM     28  O0B 494 d   1     269.510 -25.181  21.540  0.00  0.00    -0.347 OA
BRANCH  28  29
ATOM     29  C0O 494 d   1     269.552 -25.717  22.859  0.00  0.00     0.041 C 
ATOM     30  H   494 d   1     269.295 -24.925  23.562  0.00  0.00     0.077 H 
ATOM     31  H   494 d   1     270.554 -26.104  23.043  0.00  0.00     0.077 H 
BRANCH  29  32
ATOM     32  C0P 494 d   1     268.546 -26.868  23.031  0.00  0.00     0.024 C 
ATOM     33  H   494 d   1     267.681 -26.674  22.396  0.00  0.00     0.068 H 
ATOM     34  H   494 d   1     268.256 -26.925  24.080  0.00  0.00     0.068 H 
BRANCH  32  35
ATOM     35  N0S 494 d   1     269.144 -28.157  22.635  0.00  0.00    -0.308 N 
ATOM     36  C0V 494 d   1     268.854 -28.756  21.433  0.00  0.00     0.329 A 
ATOM     37  N0W 494 d   1     269.475 -29.940  21.204  0.00  0.00    -0.275 N 
ATOM     38  O10 494 d   1     268.086 -28.281  20.596  0.00  0.00    -0.246 OA
ATOM     39  C0X 494 d   1     270.346 -30.603  22.007  0.00  0.00     0.250 A 
ATOM     40  H   494 d   1     269.260 -30.390  20.314  0.00  0.00     0.173 HD
ATOM     41  C0Y 494 d   1     270.634 -29.938  23.286  0.00  0.00    -0.002 A 
ATOM     42  O12 494 d   1     270.837 -31.680  21.665  0.00  0.00    -0.268 OA
ATOM     43  C0Z 494 d   1     270.038 -28.749  23.567  0.00  0.00    -0.011 A 
ATOM     44  H   494 d   1     271.318 -30.394  24.002  0.00  0.00     0.094 H 
ATOM     45  H   494 d   1     270.247 -28.247  24.512  0.00  0.00     0.112 H 
ENDBRANCH  32  35
ENDBRANCH  29  32
ENDBRANCH  28  29
ENDBRANCH  26  28
ENDBRANCH  17  18
ENDBRANCH  13  17
ENDBRANCH   5   7
ENDBRANCH   1   5
TORSDOF 8
