REMARK  9 active torsions:
REMARK  status: ('A' for Active; 'I' for Inactive)
REMARK    1  A    between atoms: C29_1  and  O28_2 
REMARK    2  A    between atoms: O28_2  and  C27_3 
REMARK    3  A    between atoms: C27_3  and  C26_4 
REMARK    4  A    between atoms: C26_4  and  N25_5 
REMARK    5  A    between atoms: N25_5  and  C24_6 
REMARK    6  A    between atoms: C24_6  and  C18_7 
REMARK    7  A    between atoms: C23_10  and  N17_13 
REMARK    8  A    between atoms: N17_13  and  C8_14 
REMARK    9  A    between atoms: C15_19  and  C2_24 
ROOT
ATOM      1  C18 10Z d   1      30.425 122.089  77.082  0.00  0.00    -0.033 A 
ATOM      2  C20 10Z d   1      29.718 120.895  77.265  0.00  0.00    -0.073 A 
ATOM      3  C22 10Z d   1      28.425 120.897  77.803  0.00  0.00    -0.056 A 
ATOM      4  C23 10Z d   1      27.829 122.106  78.153  0.00  0.00     0.049 A 
ATOM      5  C21 10Z d   1      28.542 123.285  77.964  0.00  0.00    -0.056 A 
ATOM      6  C19 10Z d   1      29.821 123.280  77.435  0.00  0.00    -0.073 A 
ATOM      7  H12 10Z d   1      30.178 119.954  76.986  0.00  0.00     0.084 H 
ATOM      8  H13 10Z d   1      27.892 119.964  77.946  0.00  0.00     0.086 H 
ATOM      9  H14 10Z d   1      28.086 124.230  78.237  0.00  0.00     0.086 H 
ATOM     10  H15 10Z d   1      30.351 124.215  77.297  0.00  0.00     0.084 H 
ENDROOT
BRANCH   4  11
ATOM     11  N17 10Z d   1      26.539 122.301  78.730  0.00  0.00    -0.188 N 
ATOM     12  H16 10Z d   1      26.305 123.298  78.836  0.00  0.00     0.184 HD
BRANCH  11  13
ATOM     13  C8  10Z d   1      25.496 121.448  79.195  0.00  0.00     0.727 A 
ATOM     14  N10 10Z d   1      25.594 120.066  79.154  0.00  0.00    -0.062 NA
ATOM     15  C12 10Z d   1      24.552 119.269  79.610  0.00  0.00     0.087 A 
ATOM     16  C14 10Z d   1      24.667 117.895  79.555  0.00  0.00    -0.053 A 
ATOM     17  C11 10Z d   1      23.382 119.820  80.120  0.00  0.00     0.012 A 
ATOM     18  C13 10Z d   1      23.639 117.078  80.002  0.00  0.00    -0.070 A 
ATOM     19  H17 10Z d   1      25.572 117.449  79.158  0.00  0.00     0.087 H 
ATOM     20  C15 10Z d   1      22.471 117.618  80.524  0.00  0.00    -0.025 A 
ATOM     21  H18 10Z d   1      23.749 116.001  79.943  0.00  0.00     0.084 H 
ATOM     22  C16 10Z d   1      22.341 119.006  80.570  0.00  0.00    -0.059 A 
ATOM     23  H19 10Z d   1      21.431 119.453  80.955  0.00  0.00     0.086 H 
ATOM     24  C9  10Z d   1      23.281 121.196  80.164  0.00  0.00     0.033 A 
ATOM     25  N7  10Z d   1      24.329 121.995  79.707  0.00  0.00    -0.074 NA
ATOM     26  H20 10Z d   1      22.382 121.658  80.556  0.00  0.00     0.117 H 
BRANCH  20  27
ATOM     27  C2  10Z d   1      21.398 116.692  80.955  0.00  0.00    -0.023 A 
ATOM     28  C4  10Z d   1      21.688 115.472  81.549  0.00  0.00    -0.055 A 
ATOM     29  C6  10Z d   1      20.650 114.625  81.913  0.00  0.00     0.003 A 
ATOM     30  H21 10Z d   1      22.717 115.182  81.728  0.00  0.00     0.087 H 
ATOM     31  N5  10Z d   1      19.324 114.977  81.683  0.00  0.00    -0.273 NA
ATOM     32  H22 10Z d   1      20.876 113.675  82.383  0.00  0.00     0.114 H 
ATOM     33  C3  10Z d   1      19.036 116.183  81.080  0.00  0.00     0.003 A 
ATOM     34  C1  10Z d   1      20.070 117.030  80.712  0.00  0.00    -0.055 A 
ATOM     35  H23 10Z d   1      18.006 116.467  80.895  0.00  0.00     0.114 H 
ATOM     36  H24 10Z d   1      19.840 117.972  80.227  0.00  0.00     0.087 H 
ENDBRANCH  20  27
ENDBRANCH  11  13
ENDBRANCH   4  11
BRANCH   1  37
ATOM     37  C24 10Z d   1      31.843 122.098  76.505  0.00  0.00     0.105 C 
ATOM     38  H10 10Z d   1      32.082 121.079  76.166  0.00  0.00     0.083 H 
ATOM     39  H11 10Z d   1      31.859 122.784  75.645  0.00  0.00     0.083 H 
BRANCH  37  40
ATOM     40  N25 10Z d   1      32.902 122.530  77.465  0.00  0.00    -0.069 N 
ATOM     41  H8  10Z d   1      32.617 123.406  77.873  0.00  0.00     0.277 HD
ATOM     42  H9  10Z d   1      32.974 121.831  78.188  0.00  0.00     0.277 HD
BRANCH  40  43
ATOM     43  C26 10Z d   1      34.250 122.716  76.865  0.00  0.00     0.101 C 
ATOM     44  H6  10Z d   1      34.170 122.546  75.781  0.00  0.00     0.079 H 
ATOM     45  H7  10Z d   1      34.569 123.752  77.052  0.00  0.00     0.079 H 
BRANCH  43  46
ATOM     46  C27 10Z d   1      35.335 121.771  77.421  0.00  0.00     0.041 C 
ATOM     47  H4  10Z d   1      34.919 121.218  78.276  0.00  0.00     0.076 H 
ATOM     48  H5  10Z d   1      35.625 121.062  76.632  0.00  0.00     0.076 H 
BRANCH  46  49
ATOM     49  O28 10Z d   1      36.504 122.485  77.855  0.00  0.00    -0.394 OA
BRANCH  49  50
ATOM     50  C29 10Z d   1      37.543 121.673  78.414  0.00  0.00     0.004 C 
ATOM     51  H1  10Z d   1      38.387 122.312  78.713  0.00  0.00     0.066 H 
ATOM     52  H2  10Z d   1      37.883 120.944  77.663  0.00  0.00     0.066 H 
ATOM     53  H3  10Z d   1      37.157 121.139  79.295  0.00  0.00     0.066 H 
ENDBRANCH  49  50
ENDBRANCH  46  49
ENDBRANCH  43  46
ENDBRANCH  40  43
ENDBRANCH  37  40
ENDBRANCH   1  37
TORSDOF 9
