REMARK  9 active torsions:
REMARK  status: ('A' for Active; 'I' for Inactive)
REMARK    1  A    between atoms: P2_2  and  C13_5 
REMARK    2  A    between atoms: C13_5  and  P1_6 
REMARK    3  A    between atoms: C13_5  and  N1_10 
REMARK    4  A    between atoms: N1_10  and  C12_11 
REMARK    5  A    between atoms: C10_16  and  C9_17 
REMARK    6  A    between atoms: C4_22  and  O1_23 
REMARK    7  A    between atoms: O1_23  and  C2_24 
REMARK    8  A    between atoms: C2_24  and  C1_25 
REMARK    9  A    between atoms: C2_24  and  C3_26 
ROOT
ATOM      1  C12 YS4 d   1      14.890  31.474  -7.526  0.00  0.00     0.125 A 
ATOM      2  C11 YS4 d   1      15.589  30.340  -7.009  0.00  0.00    -0.028 A 
ATOM      3  N2  YS4 d   1      13.892  31.286  -8.366  0.00  0.00    -0.244 NA
ATOM      4  C14 YS4 d   1      13.568  30.014  -8.849  0.00  0.00     0.005 A 
ATOM      5  C15 YS4 d   1      14.274  28.895  -8.380  0.00  0.00    -0.055 A 
ATOM      6  C10 YS4 d   1      15.337  29.077  -7.443  0.00  0.00    -0.021 A 
ATOM      7  H3  YS4 d   1      16.344  30.492  -6.246  0.00  0.00     0.090 H 
ATOM      8  H4  YS4 d   1      12.777  29.893  -9.581  0.00  0.00     0.114 H 
ATOM      9  H5  YS4 d   1      14.015  27.901  -8.726  0.00  0.00     0.087 H 
ENDROOT
BRANCH   6  10
ATOM     10  C9  YS4 d   1      16.117  27.973  -6.947  0.00  0.00    -0.026 A 
ATOM     11  C6  YS4 d   1      16.159  26.771  -7.678  0.00  0.00    -0.070 A 
ATOM     12  C5  YS4 d   1      16.868  25.635  -7.200  0.00  0.00    -0.050 A 
ATOM     13  H6  YS4 d   1      15.639  26.710  -8.627  0.00  0.00     0.085 H 
ATOM     14  C4  YS4 d   1      17.586  25.732  -5.992  0.00  0.00     0.069 A 
ATOM     15  H7  YS4 d   1      16.856  24.706  -7.758  0.00  0.00     0.087 H 
ATOM     16  C7  YS4 d   1      17.565  26.933  -5.235  0.00  0.00    -0.050 A 
ATOM     17  C8  YS4 d   1      16.825  28.030  -5.708  0.00  0.00    -0.070 A 
ATOM     18  H9  YS4 d   1      18.114  27.003  -4.303  0.00  0.00     0.087 H 
ATOM     19  H8  YS4 d   1      16.791  28.940  -5.119  0.00  0.00     0.085 H 
BRANCH  14  20
ATOM     20  O1  YS4 d   1      18.319  24.604  -5.621  0.00  0.00    -0.347 OA
BRANCH  20  21
ATOM     21  C2  YS4 d   1      19.146  24.636  -4.422  0.00  0.00     0.038 C 
ATOM     22  H10 YS4 d   1      18.654  25.119  -3.565  0.00  0.00     0.082 H 
BRANCH  21  23
ATOM     23  C1  YS4 d   1      20.464  25.251  -4.768  0.00  0.00    -0.052 C 
ATOM     24  H11 YS4 d   1      21.101  25.282  -3.872  0.00  0.00     0.030 H 
ATOM     25  H12 YS4 d   1      20.305  26.274  -5.141  0.00  0.00     0.030 H 
ATOM     26  H13 YS4 d   1      20.956  24.650  -5.546  0.00  0.00     0.030 H 
ENDBRANCH  21  23
BRANCH  21  27
ATOM     27  C3  YS4 d   1      19.481  23.184  -4.211  0.00  0.00    -0.052 C 
ATOM     28  H14 YS4 d   1      20.114  23.080  -3.317  0.00  0.00     0.030 H 
ATOM     29  H15 YS4 d   1      20.021  22.801  -5.089  0.00  0.00     0.030 H 
ATOM     30  H16 YS4 d   1      18.553  22.610  -4.072  0.00  0.00     0.030 H 
ENDBRANCH  21  27
ENDBRANCH  20  21
ENDBRANCH  14  20
ENDBRANCH   6  10
BRANCH   1  31
ATOM     31  N1  YS4 d   1      15.191  32.711  -7.118  0.00  0.00    -0.347 N 
ATOM     32  H2  YS4 d   1      15.590  32.862  -6.180  0.00  0.00     0.162 HD
BRANCH  31  33
ATOM     33  C13 YS4 d   1      14.948  33.876  -8.024  0.00  0.00     0.228 C 
ATOM     34  H1  YS4 d   1      13.935  33.790  -8.444  0.00  0.00     0.117 H 
BRANCH  33  35
ATOM     35  P2  YS4 d   1      15.043  35.367  -7.113  0.00  0.00     0.297 P 
ATOM     36  O5  YS4 d   1      16.365  35.551  -6.313  0.00  0.00    -0.638 OA
ATOM     37  O6  YS4 d   1      14.107  35.414  -5.775  0.00  0.00    -0.638 OA
ATOM     38  O7  YS4 d   1      14.830  36.591  -7.987  0.00  0.00    -0.638 OA
ENDBRANCH  33  35
BRANCH  33  39
ATOM     39  P1  YS4 d   1      16.175  33.858  -9.435  0.00  0.00     0.297 P 
ATOM     40  O3  YS4 d   1      17.662  33.815  -8.643  0.00  0.00    -0.638 OA
ATOM     41  O2  YS4 d   1      15.907  32.604 -10.251  0.00  0.00    -0.638 OA
ATOM     42  O4  YS4 d   1      15.951  35.091 -10.270  0.00  0.00    -0.638 OA
ENDBRANCH  33  39
ENDBRANCH  31  33
ENDBRANCH   1  31
TORSDOF 9
