REMARK  8 active torsions:
REMARK  status: ('A' for Active; 'I' for Inactive)
REMARK    1  A    between atoms: P11_1  and  O10_5 
REMARK    2  A    between atoms: O10_5  and  P7_6 
REMARK    3  A    between atoms: P7_6  and  O6_9 
REMARK    4  A    between atoms: O6_9  and  C5_10 
REMARK    5  A    between atoms: C5_10  and  C4_11 
REMARK    6  A    between atoms: C4_11  and  C2_12 
REMARK    7  A    between atoms: C2_12  and  C1_13 
REMARK    8  A    between atoms: C2_12  and  C3_14 
ROOT
ATOM      1  C4  IPR d   1      11.571  32.842  -6.381  0.00  0.00    -0.042 C 
ATOM      2  H   IPR d   1      11.384  31.876  -5.911  0.00  0.00     0.036 H 
ATOM      3  H   IPR d   1      12.650  32.993  -6.338  0.00  0.00     0.036 H 
ENDROOT
BRANCH   1   4
ATOM      4  C5  IPR d   1      10.806  33.993  -5.638  0.00  0.00     0.032 C 
ATOM      5  H   IPR d   1      11.220  34.085  -4.634  0.00  0.00     0.075 H 
ATOM      6  H   IPR d   1      10.927  34.910  -6.215  0.00  0.00     0.075 H 
BRANCH   4   7
ATOM      7  O6  IPR d   1       9.332  33.704  -5.515  0.00  0.00    -0.290 OA
BRANCH   7   8
ATOM      8  P7  IPR d   1       8.269  34.735  -4.862  0.00  0.00     0.418 P 
ATOM      9  O8  IPR d   1       8.568  35.847  -5.745  0.00  0.00    -0.624 OA
ATOM     10  O9  IPR d   1       7.171  33.743  -5.093  0.00  0.00    -0.624 OA
BRANCH   8  11
ATOM     11  O10 IPR d   1       8.847  34.856  -3.429  0.00  0.00    -0.173 OA
BRANCH  11  12
ATOM     12  P11 IPR d   1       8.071  34.914  -1.975  0.00  0.00     0.431 P 
ATOM     13  O14 IPR d   1       6.742  35.497  -2.355  0.00  0.00    -0.616 OA
ATOM     14  O12 IPR d   1       9.005  35.795  -1.287  0.00  0.00    -0.616 OA
ATOM     15  O13 IPR d   1       8.062  33.493  -1.586  0.00  0.00    -0.616 OA
ENDBRANCH  11  12
ENDBRANCH   8  11
ENDBRANCH   7   8
ENDBRANCH   4   7
ENDBRANCH   1   4
BRANCH   1  16
ATOM     16  C2  IPR d   1      11.077  32.862  -7.791  0.00  0.00    -0.059 C 
ATOM     17  H   IPR d   1      12.071  32.712  -8.213  0.00  0.00     0.038 H 
BRANCH  16  18
ATOM     18  C1  IPR d   1      10.688  31.603  -8.461  0.00  0.00    -0.073 C 
ATOM     19  H   IPR d   1      11.545  30.930  -8.493  0.00  0.00     0.028 H 
ATOM     20  H   IPR d   1       9.876  31.133  -7.906  0.00  0.00     0.028 H 
ATOM     21  H   IPR d   1      10.357  31.821  -9.476  0.00  0.00     0.028 H 
ENDBRANCH  16  18
BRANCH  16  22
ATOM     22  C3  IPR d   1      10.847  34.207  -8.489  0.00  0.00    -0.073 C 
ATOM     23  H   IPR d   1      10.104  34.780  -7.934  0.00  0.00     0.028 H 
ATOM     24  H   IPR d   1      11.784  34.762  -8.524  0.00  0.00     0.028 H 
ATOM     25  H   IPR d   1      10.489  34.032  -9.504  0.00  0.00     0.028 H 
ENDBRANCH  16  22
ENDBRANCH   1  16
TORSDOF 8
