REMARK  5 active torsions:
REMARK  status: ('A' for Active; 'I' for Inactive)
REMARK    1  A    between atoms: OAA_1  and  NAB_2 
REMARK    2  A    between atoms: CAE_5  and  CAK_11 
REMARK    3  A    between atoms: CAH_8  and  CAJ_10 
REMARK    4  A    between atoms: CAK_11  and  CAL_12 
REMARK    5  A    between atoms: CAK_11  and  CAM_13 
ROOT
ATOM      1  NAB PXE d   1      -0.558 -12.628  -2.699  0.00  0.00    -0.136 NA
ATOM      2  CAC PXE d   1      -1.781 -12.259  -3.183  0.00  0.00     0.090 A 
ATOM      3  CAD PXE d   1      -1.958 -11.930  -4.509  0.00  0.00    -0.042 A 
ATOM      4  CAE PXE d   1      -3.195 -11.611  -5.001  0.00  0.00    -0.002 A 
ATOM      5  CAF PXE d   1      -4.284 -11.567  -4.060  0.00  0.00     0.179 A 
ATOM      6  CAG PXE d   1      -4.117 -11.817  -2.766  0.00  0.00    -0.026 A 
ATOM      7  CAH PXE d   1      -2.928 -12.169  -2.303  0.00  0.00    -0.027 A 
ATOM      8  OAI PXE d   1      -5.374 -11.297  -4.426  0.00  0.00    -0.288 OA
ATOM      9  H2  PXE d   1      -1.099 -11.924  -5.178  0.00  0.00     0.088 H 
ATOM     10  H3  PXE d   1      -4.962 -11.732  -2.084  0.00  0.00     0.090 H 
ENDROOT
BRANCH   4  11
ATOM     11  CAK PXE d   1      -3.548 -11.224  -6.335  0.00  0.00    -0.032 C 
ATOM     12  H7  PXE d   1      -4.259 -11.912  -6.816  0.00  0.00     0.046 H 
BRANCH  11  13
ATOM     13  CAL PXE d   1      -2.371 -10.946  -7.200  0.00  0.00    -0.069 C 
ATOM     14  H8  PXE d   1      -2.714 -10.656  -8.204  0.00  0.00     0.028 H 
ATOM     15  H9  PXE d   1      -1.748 -11.849  -7.272  0.00  0.00     0.028 H 
ATOM     16  H10 PXE d   1      -1.781 -10.127  -6.764  0.00  0.00     0.028 H 
ENDBRANCH  11  13
BRANCH  11  17
ATOM     17  CAM PXE d   1      -4.086  -9.889  -6.002  0.00  0.00    -0.069 C 
ATOM     18  H11 PXE d   1      -4.970 -10.000  -5.357  0.00  0.00     0.028 H 
ATOM     19  H12 PXE d   1      -4.371  -9.367  -6.927  0.00  0.00     0.028 H 
ATOM     20  H13 PXE d   1      -3.318  -9.305  -5.474  0.00  0.00     0.028 H 
ENDBRANCH  11  17
ENDBRANCH   4  11
BRANCH   1  21
ATOM     21  OAA PXE d   1       0.483 -12.700  -3.556  0.00  0.00    -0.266 OA
ATOM     22  H1  PXE d   1       1.263 -12.967  -3.083  0.00  0.00     0.247 HD
ENDBRANCH   1  21
BRANCH   7  23
ATOM     23  CAJ PXE d   1      -2.930 -12.452  -0.859  0.00  0.00    -0.049 C 
ATOM     24  H4  PXE d   1      -1.917 -12.737  -0.540  0.00  0.00     0.033 H 
ATOM     25  H5  PXE d   1      -3.627 -13.277  -0.648  0.00  0.00     0.033 H 
ATOM     26  H6  PXE d   1      -3.248 -11.554  -0.310  0.00  0.00     0.033 H 
ENDBRANCH   7  23
TORSDOF 5
