REMARK  7 active torsions:
REMARK  status: ('A' for Active; 'I' for Inactive)
REMARK       I    between atoms: C9_2  and  N8_3 
REMARK    1  A    between atoms: C9_2  and  C10_11 
REMARK    2  A    between atoms: N8_3  and  C7_4 
REMARK    3  A    between atoms: N13_14  and  S14_17 
REMARK    4  A    between atoms: S14_17  and  C16_20 
REMARK    5  A    between atoms: C23_21  and  C24_22 
REMARK    6  A    between atoms: C20_24  and  C21_25 
REMARK    7  A    between atoms: C17_27  and  C18_28 
ROOT
ATOM      1  C10 I23 d   1      16.649  10.315  14.927  0.00  0.00     0.026 C 
ATOM      2  C27 I23 d   1      17.706  11.258  14.365  0.00  0.00    -0.038 C 
ATOM      3  C26 I23 d   1      18.531  10.585  13.263  0.00  0.00     0.006 C 
ATOM      4  N13 I23 d   1      17.713   9.679  12.440  0.00  0.00    -0.307 N 
ATOM      5  C12 I23 d   1      16.236   9.763  12.436  0.00  0.00     0.006 C 
ATOM      6  C11 I23 d   1      15.627  10.159  13.795  0.00  0.00    -0.038 C 
ATOM      7  H   I23 d   1      17.053   9.338  15.192  0.00  0.00     0.054 H 
ATOM      8  H   I23 d   1      18.379  11.544  15.174  0.00  0.00     0.036 H 
ATOM      9  H   I23 d   1      17.203  12.126  13.938  0.00  0.00     0.036 H 
ATOM     10  H   I23 d   1      19.319   9.999  13.736  0.00  0.00     0.065 H 
ATOM     11  H   I23 d   1      18.935  11.363  12.616  0.00  0.00     0.065 H 
ATOM     12  H   I23 d   1      15.857   8.772  12.188  0.00  0.00     0.065 H 
ATOM     13  H   I23 d   1      15.958  10.536  11.720  0.00  0.00     0.065 H 
ATOM     14  H   I23 d   1      15.149  11.129  13.660  0.00  0.00     0.036 H 
ATOM     15  H   I23 d   1      14.948   9.358  14.086  0.00  0.00     0.036 H 
ENDROOT
BRANCH   1  16
ATOM     16  C9  I23 d   1      16.100  10.750  16.292  0.00  0.00     0.222 C 
ATOM     17  O28 I23 d   1      16.889  10.712  17.210  0.00  0.00    -0.273 OA
ATOM     18  N8  I23 d   1      14.802  11.098  16.482  0.00  0.00    -0.356 N 
ATOM     19  H   I23 d   1      14.240  11.178  15.635  0.00  0.00     0.162 HD
BRANCH  18  20
ATOM     20  C7  I23 d   1      14.086  11.379  17.756  0.00  0.00     0.012 C 
ATOM     21  C6  I23 d   1      14.869  12.096  18.860  0.00  0.00    -0.046 C 
ATOM     22  C5  I23 d   1      13.940  12.971  19.711  0.00  0.00    -0.063 C 
ATOM     23  H   I23 d   1      15.623  12.733  18.398  0.00  0.00     0.035 H 
ATOM     24  H   I23 d   1      15.332  11.348  19.503  0.00  0.00     0.035 H 
ATOM     25  C4  I23 d   1      13.174  12.242  20.821  0.00  0.00    -0.065 C 
ATOM     26  H   I23 d   1      13.189  13.376  19.032  0.00  0.00     0.033 H 
ATOM     27  H   I23 d   1      14.575  13.706  20.205  0.00  0.00     0.033 H 
ATOM     28  C3  I23 d   1      12.199  11.225  20.258  0.00  0.00    -0.065 C 
ATOM     29  H   I23 d   1      12.609  12.981  21.389  0.00  0.00     0.033 H 
ATOM     30  H   I23 d   1      13.895  11.716  21.446  0.00  0.00     0.033 H 
ATOM     31  C2  I23 d   1      12.978  10.006  19.766  0.00  0.00    -0.063 C 
ATOM     32  H   I23 d   1      11.646  11.666  19.429  0.00  0.00     0.033 H 
ATOM     33  H   I23 d   1      11.496  10.922  21.034  0.00  0.00     0.033 H 
ATOM     34  C1  I23 d   1      13.483  10.069  18.305  0.00  0.00    -0.046 C 
ATOM     35  H   I23 d   1      12.290   9.162  19.816  0.00  0.00     0.033 H 
ATOM     36  H   I23 d   1      13.866   9.936  20.394  0.00  0.00     0.033 H 
ATOM     37  H   I23 d   1      14.304   9.353  18.268  0.00  0.00     0.035 H 
ATOM     38  H   I23 d   1      12.591   9.904  17.700  0.00  0.00     0.035 H 
ATOM     39  H   I23 d   1      13.321  12.103  17.476  0.00  0.00     0.072 H 
ENDBRANCH  18  20
ENDBRANCH   1  16
BRANCH   4  40
ATOM     40  S14 I23 d   1      18.484   8.653  11.557  0.00  0.00     0.261 S 
ATOM     41  O15 I23 d   1      19.506   9.380  10.851  0.00  0.00    -0.200 OA
ATOM     42  O25 I23 d   1      19.154   7.719  12.431  0.00  0.00    -0.200 OA
BRANCH  40  43
ATOM     43  C16 I23 d   1      17.628   7.847  10.430  0.00  0.00     0.091 A 
ATOM     44  C23 I23 d   1      17.495   6.343  10.403  0.00  0.00    -0.038 A 
ATOM     45  C22 I23 d   1      16.745   5.733   9.396  0.00  0.00    -0.070 A 
ATOM     46  C20 I23 d   1      16.115   6.473   8.391  0.00  0.00    -0.061 A 
ATOM     47  H   I23 d   1      16.648   4.647   9.393  0.00  0.00     0.085 H 
ATOM     48  C19 I23 d   1      16.209   7.866   8.354  0.00  0.00    -0.070 A 
ATOM     49  C17 I23 d   1      16.933   8.577   9.315  0.00  0.00    -0.038 A 
ATOM     50  H   I23 d   1      15.705   8.412   7.556  0.00  0.00     0.085 H 
BRANCH  44  51
ATOM     51  C24 I23 d   1      18.129   5.435  11.429  0.00  0.00    -0.050 C 
ATOM     52  H   I23 d   1      19.210   5.571  11.414  0.00  0.00     0.033 H 
ATOM     53  H   I23 d   1      17.744   5.683  12.418  0.00  0.00     0.033 H 
ATOM     54  H   I23 d   1      17.888   4.398  11.193  0.00  0.00     0.033 H 
ENDBRANCH  44  51
BRANCH  46  55
ATOM     55  C21 I23 d   1      15.319   5.760   7.324  0.00  0.00    -0.051 C 
ATOM     56  H   I23 d   1      15.972   5.075   6.782  0.00  0.00     0.033 H 
ATOM     57  H   I23 d   1      14.509   5.199   7.790  0.00  0.00     0.033 H 
ATOM     58  H   I23 d   1      14.904   6.492   6.632  0.00  0.00     0.033 H 
ENDBRANCH  46  55
BRANCH  49  59
ATOM     59  C18 I23 d   1      16.981  10.080   9.196  0.00  0.00    -0.050 C 
ATOM     60  H   I23 d   1      17.431  10.353   8.242  0.00  0.00     0.033 H 
ATOM     61  H   I23 d   1      15.969  10.480   9.250  0.00  0.00     0.033 H 
ATOM     62  H   I23 d   1      17.578  10.489  10.011  0.00  0.00     0.033 H 
ENDBRANCH  49  59
ENDBRANCH  40  43
ENDBRANCH   4  40
TORSDOF 7
