REMARK  2 active torsions:
REMARK  status: ('A' for Active; 'I' for Inactive)
REMARK    1  A    between atoms: C2'_10  and  O2'_11 
REMARK    2  A    between atoms: C1'_12  and  N9_13 
ROOT
ATOM      1  P   CMP d   1     -26.240  -4.788  44.749  0.00  0.00     0.408 P 
ATOM      2  O1P CMP d   1     -26.326  -5.378  46.141  0.00  0.00    -0.624 OA
ATOM      3  O2P CMP d   1     -24.834  -4.343  44.409  0.00  0.00    -0.624 OA
ATOM      4  O5' CMP d   1     -26.739  -5.851  43.651  0.00  0.00    -0.287 OA
ATOM      5  C5' CMP d   1     -28.117  -6.042  43.358  0.00  0.00     0.058 C 
ATOM      6  C4' CMP d   1     -28.653  -4.639  43.159  0.00  0.00     0.090 C 
ATOM      7  O4' CMP d   1     -30.032  -4.622  42.836  0.00  0.00    -0.353 OA
ATOM      8  C3' CMP d   1     -28.598  -3.879  44.465  0.00  0.00     0.106 C 
ATOM      9  O3' CMP d   1     -27.245  -3.532  44.675  0.00  0.00    -0.279 OA
ATOM     10  C2' CMP d   1     -29.537  -2.722  44.214  0.00  0.00     0.106 C 
ATOM     11  C1' CMP d   1     -30.539  -3.366  43.267  0.00  0.00     0.140 C 
ATOM     12  H1  CMP d   1     -28.628  -6.540  44.195  0.00  0.00     0.079 H 
ATOM     13  H2  CMP d   1     -28.242  -6.641  42.444  0.00  0.00     0.079 H 
ATOM     14  H3  CMP d   1     -28.066  -4.133  42.379  0.00  0.00     0.090 H 
ATOM     15  H4  CMP d   1     -28.957  -4.483  45.311  0.00  0.00     0.092 H 
ATOM     16  H5  CMP d   1     -30.007  -2.349  45.136  0.00  0.00     0.093 H 
ATOM     17  H7  CMP d   1     -30.750  -2.705  42.413  0.00  0.00     0.122 H 
ENDROOT
BRANCH  11  18
ATOM     18  N9  CMP d   1     -31.760  -3.672  44.025  0.00  0.00    -0.294 N 
ATOM     19  C8  CMP d   1     -31.865  -4.556  45.025  0.00  0.00     0.071 A 
ATOM     20  N7  CMP d   1     -33.133  -4.589  45.502  0.00  0.00    -0.236 NA
ATOM     21  H8  CMP d   1     -31.045  -5.165  45.403  0.00  0.00     0.144 H 
ATOM     22  C5  CMP d   1     -33.859  -3.711  44.782  0.00  0.00     0.149 A 
ATOM     23  C6  CMP d   1     -35.270  -3.247  44.762  0.00  0.00     0.155 A 
ATOM     24  C4  CMP d   1     -32.942  -3.120  43.794  0.00  0.00     0.167 A 
ATOM     25  N6  CMP d   1     -36.178  -3.759  45.630  0.00  0.00    -0.382 N 
ATOM     26  N1  CMP d   1     -35.613  -2.321  43.836  0.00  0.00    -0.222 NA
ATOM     27  H9  CMP d   1     -37.154  -3.430  45.608  0.00  0.00     0.157 HD
ATOM     28  H10 CMP d   1     -35.892  -4.476  46.311  0.00  0.00     0.157 HD
ATOM     29  C2  CMP d   1     -34.703  -1.844  42.958  0.00  0.00     0.091 A 
ATOM     30  N3  CMP d   1     -33.409  -2.214  42.910  0.00  0.00    -0.222 NA
ATOM     31  H11 CMP d   1     -35.040  -1.108  42.238  0.00  0.00     0.146 H 
ENDBRANCH  11  18
BRANCH  10  32
ATOM     32  O2' CMP d   1     -28.835  -1.676  43.542  0.00  0.00    -0.388 OA
ATOM     33  H6  CMP d   1     -28.110  -1.385  44.082  0.00  0.00     0.210 HD
ENDBRANCH  10  32
TORSDOF 2
