REMARK  2 active torsions:
REMARK  status: ('A' for Active; 'I' for Inactive)
REMARK       I    between atoms: C2_1  and  N10_3 
REMARK    1  A    between atoms: N13_6  and  C16_9 
REMARK    2  A    between atoms: C18_12  and  C21_14 
ROOT
ATOM      1  C2  17J d   1     -26.147 -44.931 -42.875  0.00  0.00     0.171 C 
ATOM      2  O1  17J d   1     -25.542 -44.591 -43.918  0.00  0.00    -0.284 OA
ATOM      3  N10 17J d   1     -27.339 -45.513 -42.954  0.00  0.00    -0.356 N 
ATOM      4  C15 17J d   1     -27.939 -45.804 -44.260  0.00  0.00     0.012 C 
ATOM      5  C14 17J d   1     -29.284 -45.094 -44.269  0.00  0.00     0.012 C 
ATOM      6  N13 17J d   1     -29.898 -45.778 -43.150  0.00  0.00    -0.356 N 
ATOM      7  C12 17J d   1     -29.464 -45.272 -41.857  0.00  0.00     0.012 C 
ATOM      8  C11 17J d   1     -28.078 -45.912 -41.749  0.00  0.00     0.012 C 
ATOM      9  H1  17J d   1     -25.695 -44.749 -41.901  0.00  0.00     0.180 H 
ATOM     10  H2  17J d   1     -28.078 -46.888 -44.384  0.00  0.00     0.066 H 
ATOM     11  H3  17J d   1     -27.299 -45.421 -45.069  0.00  0.00     0.066 H 
ATOM     12  H4  17J d   1     -29.833 -45.260 -45.208  0.00  0.00     0.066 H 
ATOM     13  H5  17J d   1     -29.183 -44.014 -44.089  0.00  0.00     0.066 H 
ATOM     14  H6  17J d   1     -30.129 -45.607 -41.047  0.00  0.00     0.066 H 
ATOM     15  H7  17J d   1     -29.404 -44.174 -41.851  0.00  0.00     0.066 H 
ATOM     16  H8  17J d   1     -27.561 -45.549 -40.849  0.00  0.00     0.066 H 
ATOM     17  H9  17J d   1     -28.168 -47.007 -41.704  0.00  0.00     0.066 H 
ENDROOT
BRANCH   6  18
ATOM     18  C16 17J d   1     -31.196 -46.162 -43.311  0.00  0.00     0.189 A 
ATOM     19  S20 17J d   1     -32.328 -46.302 -42.029  0.00  0.00     0.052 SA
ATOM     20  N19 17J d   1     -33.538 -46.822 -43.098  0.00  0.00    -0.187 NA
ATOM     21  C18 17J d   1     -33.042 -46.883 -44.375  0.00  0.00     0.170 A 
ATOM     22  N17 17J d   1     -31.725 -46.516 -44.500  0.00  0.00    -0.202 NA
BRANCH  21  23
ATOM     23  C21 17J d   1     -33.880 -47.297 -45.534  0.00  0.00     0.012 A 
ATOM     24  C26 17J d   1     -34.898 -48.238 -45.362  0.00  0.00    -0.069 A 
ATOM     25  C25 17J d   1     -35.688 -48.609 -46.453  0.00  0.00    -0.082 A 
ATOM     26  H10 17J d   1     -35.074 -48.678 -44.387  0.00  0.00     0.085 H 
ATOM     27  C24 17J d   1     -35.455 -48.038 -47.708  0.00  0.00    -0.083 A 
ATOM     28  H11 17J d   1     -36.480 -49.338 -46.327  0.00  0.00     0.083 H 
ATOM     29  C23 17J d   1     -34.438 -47.097 -47.879  0.00  0.00    -0.082 A 
ATOM     30  H12 17J d   1     -36.068 -48.328 -48.554  0.00  0.00     0.083 H 
ATOM     31  C22 17J d   1     -33.652 -46.725 -46.789  0.00  0.00    -0.069 A 
ATOM     32  H13 17J d   1     -34.260 -46.658 -48.854  0.00  0.00     0.083 H 
ATOM     33  H14 17J d   1     -32.864 -45.992 -46.915  0.00  0.00     0.085 H 
ENDBRANCH  21  23
ENDBRANCH   6  18
TORSDOF 2
