REMARK  1 active torsions:
REMARK  status: ('A' for Active; 'I' for Inactive)
REMARK    1  A    between atoms: NAI_12  and  CAL_13 
ROOT
ATOM      1  OAM 15E d   1      32.214  18.299   0.058  0.00  0.00    -0.247 OA
ATOM      2  CAH 15E d   1      31.103  17.698   0.015  0.00  0.00     0.322 C 
ATOM      3  NAG 15E d   1      30.951  16.460  -0.694  0.00  0.00    -0.308 N 
ATOM      4  CAD 15E d   1      29.677  15.976  -1.064  0.00  0.00     0.044 A 
ATOM      5  CAC 15E d   1      29.528  15.069  -2.134  0.00  0.00    -0.055 A 
ATOM      6  CAB 15E d   1      28.290  14.618  -2.511  0.00  0.00    -0.064 A 
ATOM      7  CAA 15E d   1      27.160  15.039  -1.835  0.00  0.00     0.011 A 
ATOM      8 BR   15E d   1      25.425  14.331  -2.322  0.00  0.00    -0.051 Br
ATOM      9  CAF 15E d   1      27.297  15.889  -0.734  0.00  0.00    -0.056 A 
ATOM     10  CAE 15E d   1      28.549  16.404  -0.364  0.00  0.00    -0.012 A 
ATOM     11  CAJ 15E d   1      28.746  17.274   0.757  0.00  0.00     0.025 C 
ATOM     12  NAI 15E d   1      29.993  18.153   0.647  0.00  0.00    -0.334 N 
ATOM     13  H1  15E d   1      31.764  15.929  -0.931  0.00  0.00     0.170 HD
ATOM     14  H2  15E d   1      30.407  14.723  -2.667  0.00  0.00     0.087 H 
ATOM     15  H3  15E d   1      28.197  13.929  -3.342  0.00  0.00     0.085 H 
ATOM     16  H4  15E d   1      26.420  16.155  -0.155  0.00  0.00     0.086 H 
ATOM     17  H5  15E d   1      28.836  16.657   1.663  0.00  0.00     0.071 H 
ATOM     18  H6  15E d   1      27.867  17.929   0.846  0.00  0.00     0.071 H 
ENDROOT
BRANCH  12  19
ATOM     19  CAL 15E d   1      30.035  19.340   1.512  0.00  0.00    -0.014 C 
ATOM     20  H7  15E d   1      30.975  19.885   1.341  0.00  0.00     0.056 H 
ATOM     21  H8  15E d   1      29.978  19.028   2.565  0.00  0.00     0.056 H 
ATOM     22  H9  15E d   1      29.183  19.995   1.277  0.00  0.00     0.056 H 
ENDBRANCH  12  19
TORSDOF 1
