REMARK  5 active torsions:
REMARK  status: ('A' for Active; 'I' for Inactive)
REMARK    1  A    between atoms: CAO_1  and  CAN_2 
REMARK    2  A    between atoms: CAN_2  and  NAM_3 
REMARK    3  A    between atoms: NAM_3  and  SAP_4 
REMARK    4  A    between atoms: SAP_4  and  CAA_7 
REMARK    5  A    between atoms: NAI_11  and  CAL_12 
ROOT
ATOM      1  CAA 14Z d   1      28.873  15.195  -2.272  0.00  0.00     0.080 A 
ATOM      2  CAF 14Z d   1      28.868  15.912  -1.047  0.00  0.00    -0.051 A 
ATOM      3  CAE 14Z d   1      30.092  16.385  -0.553  0.00  0.00    -0.012 A 
ATOM      4  CAJ 14Z d   1      30.032  17.205   0.752  0.00  0.00     0.025 C 
ATOM      5  NAI 14Z d   1      31.251  18.071   0.845  0.00  0.00    -0.334 N 
ATOM      6  CAH 14Z d   1      32.447  17.769   0.180  0.00  0.00     0.322 C 
ATOM      7  OAK 14Z d   1      33.440  18.476   0.333  0.00  0.00    -0.247 OA
ATOM      8  NAG 14Z d   1      32.494  16.742  -0.773  0.00  0.00    -0.308 N 
ATOM      9  CAD 14Z d   1      31.295  16.152  -1.202  0.00  0.00     0.044 A 
ATOM     10  CAC 14Z d   1      31.273  15.522  -2.441  0.00  0.00    -0.055 A 
ATOM     11  CAB 14Z d   1      30.080  15.013  -2.936  0.00  0.00    -0.058 A 
ATOM     12  H7  14Z d   1      27.944  16.089  -0.509  0.00  0.00     0.086 H 
ATOM     13  H8  14Z d   1      29.999  16.523   1.614  0.00  0.00     0.071 H 
ATOM     14  H9  14Z d   1      29.131  17.837   0.749  0.00  0.00     0.071 H 
ATOM     15  H13 14Z d   1      33.371  16.434  -1.142  0.00  0.00     0.170 HD
ATOM     16  H14 14Z d   1      32.185  15.428  -3.019  0.00  0.00     0.087 H 
ATOM     17  H15 14Z d   1      30.090  14.458  -3.867  0.00  0.00     0.086 H 
ENDROOT
BRANCH   1  18
ATOM     18  SAP 14Z d   1      27.317  14.602  -2.921  0.00  0.00     0.258 S 
ATOM     19  OAQ 14Z d   1      27.727  13.209  -3.299  0.00  0.00    -0.201 OA
ATOM     20  OAR 14Z d   1      26.464  14.855  -1.789  0.00  0.00    -0.201 OA
BRANCH  18  21
ATOM     21  NAM 14Z d   1      27.224  15.587  -4.150  0.00  0.00    -0.316 N 
ATOM     22  H6  14Z d   1      27.319  15.268  -5.093  0.00  0.00     0.172 HD
BRANCH  21  23
ATOM     23  CAN 14Z d   1      26.990  17.003  -3.826  0.00  0.00    -0.001 C 
ATOM     24  H4  14Z d   1      26.036  17.104  -3.288  0.00  0.00     0.064 H 
ATOM     25  H5  14Z d   1      27.809  17.375  -3.193  0.00  0.00     0.064 H 
BRANCH  23  26
ATOM     26  CAO 14Z d   1      26.935  17.817  -5.124  0.00  0.00    -0.061 C 
ATOM     27  H1  14Z d   1      26.760  18.876  -4.885  0.00  0.00     0.029 H 
ATOM     28  H2  14Z d   1      26.116  17.444  -5.756  0.00  0.00     0.029 H 
ATOM     29  H3  14Z d   1      27.889  17.715  -5.662  0.00  0.00     0.029 H 
ENDBRANCH  23  26
ENDBRANCH  21  23
ENDBRANCH  18  21
ENDBRANCH   1  18
BRANCH   5  30
ATOM     30  CAL 14Z d   1      31.154  19.145   1.910  0.00  0.00    -0.014 C 
ATOM     31  H10 14Z d   1      32.081  19.737   1.919  0.00  0.00     0.056 H 
ATOM     32  H11 14Z d   1      31.011  18.674   2.894  0.00  0.00     0.056 H 
ATOM     33  H12 14Z d   1      30.300  19.803   1.690  0.00  0.00     0.056 H 
ENDBRANCH   5  30
TORSDOF 5
