REMARK  3 active torsions:
REMARK  status: ('A' for Active; 'I' for Inactive)
REMARK    1  A    between atoms: S_14  and  C4_1 
REMARK    2  A    between atoms: N2_11  and  S_14 
REMARK    3  A    between atoms: N_19  and  C_20 
ROOT
ATOM      1  C4  14X d   1      50.332   2.294  21.586  0.00  0.00     0.080 A 
ATOM      2  C5  14X d   1      50.130   3.458  22.357  0.00  0.00    -0.058 A 
ATOM      3  C6  14X d   1      50.580   4.697  21.960  0.00  0.00    -0.055 A 
ATOM      4  C7  14X d   1      51.302   4.755  20.769  0.00  0.00     0.044 A 
ATOM      5  C8  14X d   1      52.887   6.133  19.374  0.00  0.00     0.322 C 
ATOM      6  N1  14X d   1      51.975   5.996  20.434  0.00  0.00    -0.308 N 
ATOM      7  C3  14X d   1      50.990   2.390  20.356  0.00  0.00    -0.051 A 
ATOM      8  C2  14X d   1      51.456   3.635  19.953  0.00  0.00    -0.012 A 
ATOM      9  C1  14X d   1      52.074   3.902  18.596  0.00  0.00     0.025 C 
ATOM     10  O   14X d   1      53.565   7.141  19.403  0.00  0.00    -0.247 OA
ATOM     11  N   14X d   1      53.059   5.050  18.602  0.00  0.00    -0.334 N 
ATOM     12  H1  14X d   1      49.600   3.373  23.299  0.00  0.00     0.086 H 
ATOM     13  H2  14X d   1      50.382   5.587  22.547  0.00  0.00     0.087 H 
ATOM     14  H11 14X d   1      51.778   6.803  20.991  0.00  0.00     0.170 HD
ATOM     15  H12 14X d   1      51.133   1.515  19.733  0.00  0.00     0.086 H 
ATOM     16  H13 14X d   1      51.268   4.138  17.886  0.00  0.00     0.071 H 
ATOM     17  H14 14X d   1      52.599   2.993  18.267  0.00  0.00     0.071 H 
ENDROOT
BRANCH   1  18
ATOM     18  S   14X d   1      49.816   0.752  22.162  0.00  0.00     0.260 S 
ATOM     19  O2  14X d   1      48.820   1.077  23.152  0.00  0.00    -0.200 OA
ATOM     20  O1  14X d   1      49.812  -0.101  21.090  0.00  0.00    -0.200 OA
BRANCH  18  21
ATOM     21  N2  14X d   1      51.157   0.297  22.953  0.00  0.00    -0.307 N 
ATOM     22  C9  14X d   1      52.345  -0.286  22.236  0.00  0.00     0.005 C 
ATOM     23  C10 14X d   1      53.271  -0.642  23.361  0.00  0.00    -0.048 C 
ATOM     24  H5  14X d   1      52.061  -1.179  21.659  0.00  0.00     0.065 H 
ATOM     25  H6  14X d   1      52.804   0.454  21.564  0.00  0.00     0.065 H 
ATOM     26  C11 14X d   1      53.015   0.469  24.379  0.00  0.00    -0.048 C 
ATOM     27  H7  14X d   1      53.023  -1.628  23.781  0.00  0.00     0.035 H 
ATOM     28  H8  14X d   1      54.319  -0.639  23.027  0.00  0.00     0.035 H 
ATOM     29  C12 14X d   1      51.526   0.550  24.380  0.00  0.00     0.005 C 
ATOM     30  H3  14X d   1      53.467   1.419  24.057  0.00  0.00     0.035 H 
ATOM     31  H4  14X d   1      53.401   0.198  25.373  0.00  0.00     0.035 H 
ATOM     32  H9  14X d   1      51.187   1.546  24.702  0.00  0.00     0.065 H 
ATOM     33  H10 14X d   1      51.092  -0.216  25.039  0.00  0.00     0.065 H 
ENDBRANCH  18  21
ENDBRANCH   1  18
BRANCH  11  34
ATOM     34  C   14X d   1      54.192   5.051  17.601  0.00  0.00    -0.014 C 
ATOM     35  H15 14X d   1      54.807   5.951  17.745  0.00  0.00     0.056 H 
ATOM     36  H16 14X d   1      53.780   5.047  16.581  0.00  0.00     0.056 H 
ATOM     37  H17 14X d   1      54.813   4.155  17.749  0.00  0.00     0.056 H 
ENDBRANCH  11  34
TORSDOF 3
