REMARK  4 active torsions:
REMARK  status: ('A' for Active; 'I' for Inactive)
REMARK    1  A    between atoms: S_20  and  C5_3 
REMARK    2  A    between atoms: N2_13  and  C6_4 
REMARK    3  A    between atoms: N2_13  and  S_20 
REMARK    4  A    between atoms: N_18  and  C_19 
ROOT
ATOM      1  C4  13F d   1       6.586   3.900  22.121  0.00  0.00    -0.058 A 
ATOM      2  C14 13F d   1       8.909   4.054  18.723  0.00  0.00     0.025 C 
ATOM      3  C5  13F d   1       6.747   2.791  21.375  0.00  0.00     0.080 A 
ATOM      4  C12 13F d   1       7.519   2.887  20.231  0.00  0.00    -0.051 A 
ATOM      5  C13 13F d   1       8.090   4.000  19.919  0.00  0.00    -0.012 A 
ATOM      6  N1  13F d   1       8.696   6.109  20.458  0.00  0.00    -0.308 N 
ATOM      7  C3  13F d   1       7.181   5.066  21.788  0.00  0.00    -0.055 A 
ATOM      8  O2  13F d   1      10.165   7.099  19.550  0.00  0.00    -0.247 OA
ATOM      9  C1  13F d   1       9.594   6.217  19.525  0.00  0.00     0.322 C 
ATOM     10  C2  13F d   1       7.977   5.062  20.664  0.00  0.00     0.044 A 
ATOM     11  N   13F d   1       9.772   5.160  18.769  0.00  0.00    -0.334 N 
ATOM     12  H   13F d   1       5.962   3.856  23.013  0.00  0.00     0.086 H 
ATOM     13  H   13F d   1       8.260   4.147  17.852  0.00  0.00     0.071 H 
ATOM     14  H   13F d   1       9.504   3.143  18.659  0.00  0.00     0.071 H 
ATOM     15  H   13F d   1       7.645   2.015  19.589  0.00  0.00     0.086 H 
ATOM     16  H   13F d   1       8.551   6.911  21.071  0.00  0.00     0.170 HD
ATOM     17  H   13F d   1       7.038   5.969  22.382  0.00  0.00     0.087 H 
ENDROOT
BRANCH   3  18
ATOM     18  S   13F d   1       6.036   1.428  21.872  0.00  0.00     0.263 S 
ATOM     19  O   13F d   1       4.760   1.730  22.204  0.00  0.00    -0.200 OA
ATOM     20  O1  13F d   1       6.290   0.180  21.037  0.00  0.00    -0.200 OA
BRANCH  18  21
ATOM     21  N2  13F d   1       6.592   1.140  23.417  0.00  0.00    -0.281 N 
ATOM     22  H   13F d   1       5.981   1.453  24.171  0.00  0.00     0.179 HD
BRANCH  21  23
ATOM     23  C6  13F d   1       7.821   0.507  23.831  0.00  0.00     0.042 A 
ATOM     24  C11 13F d   1       8.426  -0.422  23.058  0.00  0.00    -0.057 A 
ATOM     25  C10 13F d   1       9.738  -0.736  23.262  0.00  0.00    -0.081 A 
ATOM     26  H   13F d   1       7.864  -0.922  22.269  0.00  0.00     0.086 H 
ATOM     27  C9  13F d   1      10.399  -0.120  24.278  0.00  0.00    -0.083 A 
ATOM     28  H   13F d   1      10.244  -1.463  22.626  0.00  0.00     0.083 H 
ATOM     29  C8  13F d   1       9.737   0.710  25.055  0.00  0.00    -0.081 A 
ATOM     30  H   13F d   1      11.459  -0.310  24.446  0.00  0.00     0.083 H 
ATOM     31  C7  13F d   1       8.445   1.013  24.830  0.00  0.00    -0.057 A 
ATOM     32  H   13F d   1      10.248   1.164  25.904  0.00  0.00     0.083 H 
ATOM     33  H   13F d   1       7.925   1.694  25.503  0.00  0.00     0.086 H 
ENDBRANCH  21  23
ENDBRANCH  18  21
ENDBRANCH   3  18
BRANCH  11  34
ATOM     34  C   13F d   1      10.886   5.117  17.867  0.00  0.00    -0.014 C 
ATOM     35  H   13F d   1      10.812   5.944  17.161  0.00  0.00     0.056 H 
ATOM     36  H   13F d   1      11.814   5.203  18.433  0.00  0.00     0.056 H 
ATOM     37  H   13F d   1      10.876   4.172  17.324  0.00  0.00     0.056 H 
ENDBRANCH  11  34
TORSDOF 4
