REMARK  10 active torsions:
REMARK  status: ('A' for Active; 'I' for Inactive)
REMARK       I    between atoms: N1_2  and  C1_1 
REMARK    1  A    between atoms: C1_1  and  C15_24 
REMARK    2  A    between atoms: C25_34  and  N1_2 
REMARK       I    between atoms: N2_4  and  C2_5 
REMARK    3  A    between atoms: C2_5  and  C19_28 
REMARK    4  A    between atoms: N5_16  and  C3_7 
REMARK    5  A    between atoms: C9_15  and  N7_21 
REMARK    6  A    between atoms: C13_22  and  C10_18 
REMARK    7  A    between atoms: C21_30  and  C24_33 
REMARK    8  A    between atoms: C24_33  and  C27_36 
REMARK    9  A    between atoms: C24_33  and  C28_37 
REMARK   10  A    between atoms: C24_33  and  C29_38 
ROOT
ATOM      1  C13 18R d   1       1.887   6.790  20.134  0.00  0.00    -0.004 A 
ATOM      2  C14 18R d   1       1.996   8.125  19.763  0.00  0.00    -0.055 A 
ATOM      3  C15 18R d   1       1.379   8.599  18.608  0.00  0.00     0.033 A 
ATOM      4  C16 18R d   1       0.526   7.753  17.901  0.00  0.00    -0.068 A 
ATOM      5  C17 18R d   1       0.326   6.446  18.328  0.00  0.00    -0.081 A 
ATOM      6  C18 18R d   1       1.036   5.948  19.414  0.00  0.00    -0.071 A 
ATOM      7  H   18R d   1       2.572   8.810  20.385  0.00  0.00     0.086 H 
ATOM      8  H   18R d   1       0.014   8.118  17.010  0.00  0.00     0.085 H 
ATOM      9  H   18R d   1      -0.390   5.809  17.809  0.00  0.00     0.083 H 
ATOM     10  H   18R d   1       0.929   4.903  19.703  0.00  0.00     0.084 H 
ENDROOT
BRANCH   1  11
ATOM     11  C10 18R d   1       2.789   6.263  21.195  0.00  0.00     0.105 A 
ATOM     12  N6  18R d   1       4.102   6.644  21.240  0.00  0.00    -0.169 NA
ATOM     13  N5  18R d   1       4.634   5.918  22.270  0.00  0.00    -0.244 N 
ATOM     14  C12 18R d   1       3.746   5.110  22.907  0.00  0.00     0.164 A 
ATOM     15  N4  18R d   1       3.983   4.262  23.922  0.00  0.00    -0.222 NA
ATOM     16  C11 18R d   1       2.530   5.327  22.230  0.00  0.00     0.088 A 
ATOM     17  C8  18R d   1       2.892   3.569  24.265  0.00  0.00     0.091 A 
ATOM     18  N3  18R d   1       1.656   3.667  23.758  0.00  0.00    -0.224 NA
ATOM     19  H   18R d   1       3.025   2.832  25.057  0.00  0.00     0.146 H 
ATOM     20  C9  18R d   1       1.441   4.533  22.743  0.00  0.00     0.139 A 
BRANCH  13  21
ATOM     21  C3  18R d   1       6.076   5.973  22.597  0.00  0.00     0.052 C 
ATOM     22  C4  18R d   1       6.602   7.412  22.592  0.00  0.00    -0.041 C 
ATOM     23  C5  18R d   1       8.134   7.447  22.612  0.00  0.00    -0.048 C 
ATOM     24  H   18R d   1       6.232   7.919  23.483  0.00  0.00     0.036 H 
ATOM     25  H   18R d   1       6.256   7.904  21.683  0.00  0.00     0.036 H 
ATOM     26  C6  18R d   1       8.709   6.466  21.587  0.00  0.00    -0.002 C 
ATOM     27  H   18R d   1       8.481   7.163  23.606  0.00  0.00     0.035 H 
ATOM     28  H   18R d   1       8.467   8.454  22.362  0.00  0.00     0.035 H 
ATOM     29  N2  18R d   1       8.180   5.121  21.849  0.00  0.00    -0.347 N 
ATOM     30  H   18R d   1       8.424   6.780  20.583  0.00  0.00     0.064 H 
ATOM     31  H   18R d   1       9.796   6.452  21.667  0.00  0.00     0.064 H 
ATOM     32  C2  18R d   1       8.856   4.028  22.260  0.00  0.00     0.242 C 
ATOM     33  C7  18R d   1       6.748   5.106  21.557  0.00  0.00     0.019 C 
ATOM     34  O2  18R d   1       8.257   3.042  22.708  0.00  0.00    -0.268 OA
ATOM     35  H   18R d   1       6.358   4.089  21.592  0.00  0.00     0.067 H 
ATOM     36  H   18R d   1       6.555   5.487  20.554  0.00  0.00     0.067 H 
ATOM     37  H   18R d   1       6.282   5.610  23.604  0.00  0.00     0.078 H 
BRANCH  32  38
ATOM     38  C19 18R d   1      10.341   4.057  22.237  0.00  0.00    -0.026 C 
ATOM     39  C20 18R d   1      11.007   3.602  21.197  0.00  0.00    -0.116 C 
ATOM     40  H   18R d   1      10.469   3.198  20.340  0.00  0.00     0.067 H 
ATOM     41  H   18R d   1      12.097   3.629  21.193  0.00  0.00     0.067 H 
ATOM     42  H   18R d   1      10.885   4.460  23.091  0.00  0.00     0.090 H 
ENDBRANCH  32  38
ENDBRANCH  13  21
BRANCH  20  43
ATOM     43  N7  18R d   1       0.197   4.651  22.250  0.00  0.00    -0.383 N 
ATOM     44  H   18R d   1       0.007   5.313  21.497  0.00  0.00     0.157 HD
ATOM     45  H   18R d   1      -0.558   4.079  22.628  0.00  0.00     0.157 HD
ENDBRANCH  20  43
ENDBRANCH   1  11
BRANCH   3  46
ATOM     46  C1  18R d   1       1.564  10.049  18.305  0.00  0.00     0.256 C 
ATOM     47  N1  18R d   1       1.204  10.471  17.069  0.00  0.00    -0.323 N 
ATOM     48  H   18R d   1       0.904   9.753  16.410  0.00  0.00     0.169 HD
ATOM     49  O1  18R d   1       1.889  10.826  19.199  0.00  0.00    -0.267 OA
BRANCH  47  50
ATOM     50  C25 18R d   1       1.202  11.816  16.596  0.00  0.00     0.035 A 
ATOM     51  C22 18R d   1       1.908  12.224  15.463  0.00  0.00    -0.050 A 
ATOM     52  C21 18R d   1       1.839  13.546  15.009  0.00  0.00    -0.048 A 
ATOM     53  H   18R d   1       2.522  11.502  14.924  0.00  0.00     0.087 H 
ATOM     54  C23 18R d   1       1.048  14.450  15.716  0.00  0.00    -0.076 A 
ATOM     55  C26 18R d   1       0.341  14.048  16.842  0.00  0.00    -0.080 A 
ATOM     56  H   18R d   1       0.983  15.485  15.381  0.00  0.00     0.084 H 
ATOM     57  C30 18R d   1       0.418  12.735  17.285  0.00  0.00    -0.057 A 
ATOM     58  H   18R d   1      -0.277  14.767  17.380  0.00  0.00     0.083 H 
ATOM     59  H   18R d   1      -0.135  12.425  18.172  0.00  0.00     0.086 H 
BRANCH  52  60
ATOM     60  C24 18R d   1       2.587  14.011  13.747  0.00  0.00    -0.024 C 
BRANCH  60  61
ATOM     61  C27 18R d   1       3.726  14.975  14.110  0.00  0.00    -0.066 C 
ATOM     62  H   18R d   1       3.314  15.848  14.616  0.00  0.00     0.028 H 
ATOM     63  H   18R d   1       4.431  14.470  14.770  0.00  0.00     0.028 H 
ATOM     64  H   18R d   1       4.239  15.289  13.201  0.00  0.00     0.028 H 
ENDBRANCH  60  61
BRANCH  60  65
ATOM     65  C28 18R d   1       3.196  12.844  12.965  0.00  0.00    -0.066 C 
ATOM     66  H   18R d   1       3.905  12.313  13.600  0.00  0.00     0.028 H 
ATOM     67  H   18R d   1       2.403  12.163  12.655  0.00  0.00     0.028 H 
ATOM     68  H   18R d   1       3.712  13.228  12.085  0.00  0.00     0.028 H 
ENDBRANCH  60  65
BRANCH  60  69
ATOM     69  C29 18R d   1       1.638  14.764  12.789  0.00  0.00    -0.066 C 
ATOM     70  H   18R d   1       0.825  14.102  12.491  0.00  0.00     0.028 H 
ATOM     71  H   18R d   1       1.230  15.638  13.297  0.00  0.00     0.028 H 
ATOM     72  H   18R d   1       2.192  15.081  11.906  0.00  0.00     0.028 H 
ENDBRANCH  60  69
ENDBRANCH  52  60
ENDBRANCH  47  50
ENDBRANCH   3  46
TORSDOF 10
