REMARK  10 active torsions:
REMARK  status: ('A' for Active; 'I' for Inactive)
REMARK    1  A    between atoms: C13_5  and  C29_29 
REMARK    2  A    between atoms: C12_19  and  C18_9 
REMARK       I    between atoms: C18_9  and  N36_36 
REMARK    3  A    between atoms: C19_11  and  C28_28 
REMARK       I    between atoms: N34_34  and  C19_11 
REMARK    4  A    between atoms: C29_29  and  C26_12 
REMARK    5  A    between atoms: C15_21  and  C11_18 
REMARK    6  A    between atoms: N36_36  and  C14_20 
REMARK    7  A    between atoms: C17_22  and  N35_35 
REMARK    8  A    between atoms: C24_25  and  N33_33 
REMARK    9  A    between atoms: C28_28  and  C25_26 
REMARK   10  A    between atoms: C29_29  and  C27_27 
ROOT
ATOM      1  C9  13L d   1       2.979   3.617  24.399  0.00  0.00     0.091 A 
ATOM      2  C16 13L d   1       3.829   5.135  23.017  0.00  0.00     0.164 A 
ATOM      3  C10 13L d   1       2.608   5.344  22.397  0.00  0.00     0.088 A 
ATOM      4  C15 13L d   1       2.858   6.297  21.363  0.00  0.00     0.105 A 
ATOM      5  C17 13L d   1       1.530   4.597  22.888  0.00  0.00     0.139 A 
ATOM      6  N30 13L d   1       4.076   4.311  24.041  0.00  0.00    -0.222 NA
ATOM      7  N31 13L d   1       1.736   3.734  23.898  0.00  0.00    -0.224 NA
ATOM      8  N32 13L d   1       4.144   6.691  21.396  0.00  0.00    -0.169 NA
ATOM      9  N33 13L d   1       4.704   5.998  22.416  0.00  0.00    -0.244 N 
ATOM     10  H   13L d   1       3.114   2.875  25.186  0.00  0.00     0.146 H 
ENDROOT
BRANCH   4  11
ATOM     11  C11 13L d   1       1.999   6.814  20.293  0.00  0.00    -0.004 A 
ATOM     12  C8  13L d   1       2.151   8.121  19.859  0.00  0.00    -0.055 A 
ATOM     13  C12 13L d   1       1.413   8.610  18.789  0.00  0.00     0.033 A 
ATOM     14  H   13L d   1       2.861   8.775  20.365  0.00  0.00     0.086 H 
ATOM     15  C3  13L d   1       0.524   7.781  18.109  0.00  0.00    -0.068 A 
ATOM     16  C1  13L d   1       0.359   6.476  18.538  0.00  0.00    -0.081 A 
ATOM     17  H   13L d   1      -0.034   8.155  17.251  0.00  0.00     0.085 H 
ATOM     18  C2  13L d   1       1.105   5.995  19.601  0.00  0.00    -0.071 A 
ATOM     19  H   13L d   1      -0.359   5.826  18.039  0.00  0.00     0.083 H 
ATOM     20  H   13L d   1       0.992   4.954  19.904  0.00  0.00     0.084 H 
BRANCH  13  21
ATOM     21  C18 13L d   1       1.618  10.010  18.351  0.00  0.00     0.256 C 
ATOM     22  N36 13L d   1       1.417  10.264  17.019  0.00  0.00    -0.323 N 
ATOM     23  H   13L d   1       1.077   9.490  16.448  0.00  0.00     0.169 HD
ATOM     24  O37 13L d   1       1.965  10.878  19.140  0.00  0.00    -0.267 OA
BRANCH  22  25
ATOM     25  C14 13L d   1       1.638  11.508  16.354  0.00  0.00     0.035 A 
ATOM     26  C7  13L d   1       1.125  12.694  16.837  0.00  0.00    -0.057 A 
ATOM     27  C5  13L d   1       1.333  13.882  16.158  0.00  0.00    -0.074 A 
ATOM     28  H   13L d   1       0.550  12.695  17.763  0.00  0.00     0.086 H 
ATOM     29  C13 13L d   1       2.065  13.889  14.986  0.00  0.00    -0.055 A 
ATOM     30  H   13L d   1       0.919  14.812  16.548  0.00  0.00     0.084 H 
ATOM     31  C4  13L d   1       2.582  12.700  14.514  0.00  0.00    -0.074 A 
ATOM     32  C6  13L d   1       2.368  11.508  15.183  0.00  0.00    -0.057 A 
ATOM     33  H   13L d   1       3.170  12.700  13.596  0.00  0.00     0.084 H 
ATOM     34  H   13L d   1       2.773  10.576  14.788  0.00  0.00     0.086 H 
BRANCH  29  35
ATOM     35  C29 13L d   1       2.348  15.130  14.172  0.00  0.00    -0.036 C 
ATOM     36  H   13L d   1       3.319  14.939  13.714  0.00  0.00     0.046 H 
BRANCH  35  37
ATOM     37  C26 13L d   1       2.536  16.392  14.979  0.00  0.00    -0.069 C 
ATOM     38  H   13L d   1       2.878  17.193  14.324  0.00  0.00     0.028 H 
ATOM     39  H   13L d   1       1.587  16.674  15.436  0.00  0.00     0.028 H 
ATOM     40  H   13L d   1       3.278  16.216  15.758  0.00  0.00     0.028 H 
ENDBRANCH  35  37
BRANCH  35  41
ATOM     41  C27 13L d   1       1.315  15.330  13.066  0.00  0.00    -0.069 C 
ATOM     42  H   13L d   1       0.358  15.605  13.510  0.00  0.00     0.028 H 
ATOM     43  H   13L d   1       1.649  16.124  12.398  0.00  0.00     0.028 H 
ATOM     44  H   13L d   1       1.203  14.403  12.503  0.00  0.00     0.028 H 
ENDBRANCH  35  41
ENDBRANCH  29  35
ENDBRANCH  22  25
ENDBRANCH  13  21
ENDBRANCH   4  11
BRANCH   5  45
ATOM     45  N35 13L d   1       0.248   4.710  22.349  0.00  0.00    -0.383 N 
ATOM     46  H   13L d   1       0.075   5.351  21.575  0.00  0.00     0.157 HD
ATOM     47  H   13L d   1      -0.516   4.152  22.729  0.00  0.00     0.157 HD
ENDBRANCH   5  45
BRANCH   9  48
ATOM     48  C24 13L d   1       6.144   6.060  22.667  0.00  0.00     0.052 C 
ATOM     49  C21 13L d   1       6.699   7.480  22.579  0.00  0.00    -0.041 C 
ATOM     50  C20 13L d   1       8.233   7.492  22.578  0.00  0.00    -0.048 C 
ATOM     51  H   13L d   1       6.352   7.927  21.647  0.00  0.00     0.036 H 
ATOM     52  H   13L d   1       6.352   8.038  23.449  0.00  0.00     0.036 H 
ATOM     53  C22 13L d   1       8.770   6.514  21.536  0.00  0.00    -0.002 C 
ATOM     54  H   13L d   1       8.592   7.194  23.563  0.00  0.00     0.035 H 
ATOM     55  H   13L d   1       8.581   8.496  22.336  0.00  0.00     0.035 H 
ATOM     56  N34 13L d   1       8.233   5.182  21.784  0.00  0.00    -0.350 N 
ATOM     57  H   13L d   1       9.858   6.481  21.600  0.00  0.00     0.064 H 
ATOM     58  H   13L d   1       8.467   6.845  20.542  0.00  0.00     0.064 H 
ATOM     59  C19 13L d   1       8.907   4.139  22.399  0.00  0.00     0.219 C 
ATOM     60  C23 13L d   1       6.793   5.105  21.663  0.00  0.00     0.018 C 
ATOM     61  O38 13L d   1       8.378   3.179  22.965  0.00  0.00    -0.273 OA
ATOM     62  H   13L d   1       6.498   5.386  20.652  0.00  0.00     0.067 H 
ATOM     63  H   13L d   1       6.465   4.086  21.868  0.00  0.00     0.067 H 
ATOM     64  H   13L d   1       6.371   5.756  23.689  0.00  0.00     0.078 H 
BRANCH  59  65
ATOM     65  C28 13L d   1      10.408   4.228  22.356  0.00  0.00     0.006 C 
ATOM     66  H   13L d   1      10.815   3.656  23.190  0.00  0.00     0.046 H 
ATOM     67  H   13L d   1      10.697   5.277  22.421  0.00  0.00     0.046 H 
BRANCH  65  68
ATOM     68  C25 13L d   1      10.952   3.656  21.066  0.00  0.00    -0.068 C 
ATOM     69  H   13L d   1      10.662   2.608  20.984  0.00  0.00     0.028 H 
ATOM     70  H   13L d   1      10.545   4.214  20.223  0.00  0.00     0.028 H 
ATOM     71  H   13L d   1      12.039   3.735  21.065  0.00  0.00     0.028 H 
ENDBRANCH  65  68
ENDBRANCH  59  65
ENDBRANCH   9  48
TORSDOF 10
