REMARK  10 active torsions:
REMARK  status: ('A' for Active; 'I' for Inactive)
REMARK    1  A    between atoms: C13_5  and  C29_29 
REMARK    2  A    between atoms: C12_19  and  C18_9 
REMARK       I    between atoms: C18_9  and  N36_36 
REMARK    3  A    between atoms: C19_11  and  C28_28 
REMARK       I    between atoms: N34_34  and  C19_11 
REMARK    4  A    between atoms: C29_29  and  C26_12 
REMARK    5  A    between atoms: C15_21  and  C11_18 
REMARK    6  A    between atoms: N36_36  and  C14_20 
REMARK    7  A    between atoms: C17_22  and  N35_35 
REMARK    8  A    between atoms: C24_25  and  N33_33 
REMARK    9  A    between atoms: C28_28  and  C25_26 
REMARK   10  A    between atoms: C29_29  and  C27_27 
ROOT
ATOM      1  C9  13J d   1       4.316   3.520  24.075  0.00  0.00     0.091 A 
ATOM      2  C16 13J d   1       4.930   5.008  22.559  0.00  0.00     0.164 A 
ATOM      3  C10 13J d   1       3.657   5.110  22.028  0.00  0.00     0.088 A 
ATOM      4  C15 13J d   1       3.765   6.039  20.949  0.00  0.00     0.105 A 
ATOM      5  C17 13J d   1       2.687   4.313  22.624  0.00  0.00     0.139 A 
ATOM      6  N30 13J d   1       5.335   4.221  23.571  0.00  0.00    -0.222 NA
ATOM      7  N31 13J d   1       3.038   3.523  23.660  0.00  0.00    -0.224 NA
ATOM      8  N32 13J d   1       5.028   6.463  20.863  0.00  0.00    -0.169 NA
ATOM      9  N33 13J d   1       5.722   5.854  21.837  0.00  0.00    -0.244 N 
ATOM     10  H   13J d   1       4.548   2.871  24.920  0.00  0.00     0.146 H 
ENDROOT
BRANCH   4  11
ATOM     11  C11 13J d   1       2.822   6.517  19.951  0.00  0.00    -0.004 A 
ATOM     12  C8  13J d   1       2.867   7.835  19.502  0.00  0.00    -0.055 A 
ATOM     13  C12 13J d   1       2.012   8.268  18.496  0.00  0.00     0.033 A 
ATOM     14  H   13J d   1       3.579   8.532  19.944  0.00  0.00     0.086 H 
ATOM     15  C3  13J d   1       1.095   7.401  17.917  0.00  0.00    -0.068 A 
ATOM     16  C1  13J d   1       1.025   6.100  18.383  0.00  0.00    -0.081 A 
ATOM     17  H   13J d   1       0.443   7.739  17.111  0.00  0.00     0.085 H 
ATOM     18  C2  13J d   1       1.897   5.666  19.366  0.00  0.00    -0.071 A 
ATOM     19  H   13J d   1       0.281   5.415  17.975  0.00  0.00     0.083 H 
ATOM     20  H   13J d   1       1.855   4.626  19.689  0.00  0.00     0.084 H 
BRANCH  13  21
ATOM     21  C18 13J d   1       2.131   9.647  18.006  0.00  0.00     0.256 C 
ATOM     22  N36 13J d   1       1.786   9.841  16.692  0.00  0.00    -0.323 N 
ATOM     23  H   13J d   1       1.413   9.049  16.169  0.00  0.00     0.169 HD
ATOM     24  O37 13J d   1       2.537  10.529  18.750  0.00  0.00    -0.267 OA
BRANCH  22  25
ATOM     25  C14 13J d   1       1.920  11.078  16.025  0.00  0.00     0.035 A 
ATOM     26  C7  13J d   1       2.633  11.152  14.842  0.00  0.00    -0.057 A 
ATOM     27  C5  13J d   1       2.733  12.361  14.170  0.00  0.00    -0.074 A 
ATOM     28  H   13J d   1       3.115  10.262  14.439  0.00  0.00     0.086 H 
ATOM     29  C13 13J d   1       2.122  13.484  14.709  0.00  0.00    -0.055 A 
ATOM     30  H   13J d   1       3.284  12.428  13.232  0.00  0.00     0.084 H 
ATOM     31  C4  13J d   1       1.413  13.396  15.887  0.00  0.00    -0.074 A 
ATOM     32  C6  13J d   1       1.294  12.196  16.549  0.00  0.00    -0.057 A 
ATOM     33  H   13J d   1       0.941  14.288  16.299  0.00  0.00     0.084 H 
ATOM     34  H   13J d   1       0.716  12.127  17.471  0.00  0.00     0.086 H 
BRANCH  29  35
ATOM     35  C29 13J d   1       2.102  14.833  14.062  0.00  0.00    -0.036 C 
ATOM     36  H   13J d   1       1.410  15.393  14.691  0.00  0.00     0.046 H 
BRANCH  35  37
ATOM     37  C26 13J d   1       1.485  14.831  12.679  0.00  0.00    -0.069 C 
ATOM     38  H   13J d   1       1.223  15.851  12.398  0.00  0.00     0.028 H 
ATOM     39  H   13J d   1       2.202  14.429  11.963  0.00  0.00     0.028 H 
ATOM     40  H   13J d   1       0.588  14.212  12.684  0.00  0.00     0.028 H 
ENDBRANCH  35  37
BRANCH  35  41
ATOM     41  C27 13J d   1       3.351  15.655  14.186  0.00  0.00    -0.069 C 
ATOM     42  H   13J d   1       4.107  15.270  13.502  0.00  0.00     0.028 H 
ATOM     43  H   13J d   1       3.128  16.692  13.937  0.00  0.00     0.028 H 
ATOM     44  H   13J d   1       3.722  15.598  15.209  0.00  0.00     0.028 H 
ENDBRANCH  35  41
ENDBRANCH  29  35
ENDBRANCH  22  25
ENDBRANCH  13  21
ENDBRANCH   4  11
BRANCH   5  45
ATOM     45  N35 13J d   1       1.351   4.340  22.232  0.00  0.00    -0.383 N 
ATOM     46  H   13J d   1       1.052   4.962  21.480  0.00  0.00     0.157 HD
ATOM     47  H   13J d   1       0.671   3.738  22.696  0.00  0.00     0.157 HD
ENDBRANCH   5  45
BRANCH   9  48
ATOM     48  C24 13J d   1       7.156   6.080  21.911  0.00  0.00     0.052 C 
ATOM     49  C21 13J d   1       7.662   6.390  23.319  0.00  0.00    -0.041 C 
ATOM     50  C20 13J d   1       9.176   6.519  23.353  0.00  0.00    -0.048 C 
ATOM     51  H   13J d   1       7.228   7.337  23.640  0.00  0.00     0.036 H 
ATOM     52  H   13J d   1       7.371   5.572  23.978  0.00  0.00     0.036 H 
ATOM     53  C22 13J d   1       9.827   5.288  22.758  0.00  0.00    -0.002 C 
ATOM     54  H   13J d   1       9.499   6.625  24.389  0.00  0.00     0.035 H 
ATOM     55  H   13J d   1       9.470   7.392  22.770  0.00  0.00     0.035 H 
ATOM     56  N34 13J d   1       9.377   5.141  21.398  0.00  0.00    -0.350 N 
ATOM     57  H   13J d   1       9.552   4.407  23.337  0.00  0.00     0.064 H 
ATOM     58  H   13J d   1      10.912   5.395  22.780  0.00  0.00     0.064 H 
ATOM     59  C19 13J d   1      10.279   5.498  20.408  0.00  0.00     0.219 C 
ATOM     60  C23 13J d   1       7.934   4.938  21.244  0.00  0.00     0.018 C 
ATOM     61  O38 13J d   1      11.421   5.911  20.614  0.00  0.00    -0.273 OA
ATOM     62  H   13J d   1       7.691   4.917  20.182  0.00  0.00     0.067 H 
ATOM     63  H   13J d   1       7.656   3.997  21.718  0.00  0.00     0.067 H 
ATOM     64  H   13J d   1       7.350   6.989  21.342  0.00  0.00     0.078 H 
BRANCH  59  65
ATOM     65  C28 13J d   1       9.817   5.288  19.005  0.00  0.00     0.006 C 
ATOM     66  H   13J d   1       9.804   6.214  18.430  0.00  0.00     0.046 H 
ATOM     67  H   13J d   1       8.787   4.936  18.957  0.00  0.00     0.046 H 
BRANCH  65  68
ATOM     68  C25 13J d   1      10.806   4.269  18.442  0.00  0.00    -0.068 C 
ATOM     69  H   13J d   1      11.814   4.680  18.487  0.00  0.00     0.028 H 
ATOM     70  H   13J d   1      10.759   3.354  19.033  0.00  0.00     0.028 H 
ATOM     71  H   13J d   1      10.548   4.048  17.406  0.00  0.00     0.028 H 
ENDBRANCH  65  68
ENDBRANCH  59  65
ENDBRANCH   9  48
TORSDOF 10
