REMARK WARNING: 32 MAX_TORS EXCEEDED!!!
REMARK  46 active torsions:
REMARK  status: ('A' for Active; 'I' for Inactive)
REMARK    1  A    between atoms: N_1  and  CA_2 
REMARK    2  A    between atoms: CA_2  and  C_3 
REMARK    3  A    between atoms: CA_2  and  CB_5 
REMARK       I    between atoms: C_3  and  N_7 
REMARK    4  A    between atoms: CB_5  and  OG_6 
REMARK    5  A    between atoms: N_7  and  CA_8 
REMARK    6  A    between atoms: CA_8  and  C_9 
REMARK    7  A    between atoms: CA_8  and  CB_11 
REMARK       I    between atoms: C_9  and  N_14 
REMARK    8  A    between atoms: CB_11  and  OG1_12 
REMARK    9  A    between atoms: CB_11  and  CG2_13 
REMARK   10  A    between atoms: N_14  and  CA_15 
REMARK   11  A    between atoms: CA_15  and  C_16 
REMARK       I    between atoms: C_16  and  N_18 
REMARK   12  A    between atoms: N_18  and  CA_19 
REMARK   13  A    between atoms: CA_19  and  C_20 
REMARK       I    between atoms: C_20  and  N_22 
REMARK   14  A    between atoms: N_22  and  CA_23 
REMARK   15  A    between atoms: CA_23  and  C_24 
REMARK   16  A    between atoms: CA_23  and  CB_26 
REMARK       I    between atoms: C_24  and  N_29 
REMARK   17  A    between atoms: CB_26  and  CG1_27 
REMARK   18  A    between atoms: CB_26  and  CG2_28 
REMARK   19  A    between atoms: N_29  and  CA_30 
REMARK   20  A    between atoms: CA_30  and  CB_31 
REMARK   21  A    between atoms: CA_30  and  C_36 
REMARK   22  A    between atoms: CB_31  and  CG_32 
REMARK   23  A    between atoms: CG_32  and  CD_33 
REMARK   24  A    between atoms: CD_33  and  CE_34 
REMARK   25  A    between atoms: CE_34  and  NZ_35 
REMARK   26  A    between atoms: NZ_35  and  CM1_38 
REMARK   27  A    between atoms: NZ_35  and  CM2_39 
REMARK   28  A    between atoms: NZ_35  and  CM3_40 
REMARK       I    between atoms: C_36  and  N_41 
REMARK   29  A    between atoms: N_41  and  CA_42 
REMARK   30  A    between atoms: CA_42  and  C_43 
REMARK   31  A    between atoms: CA_42  and  CB_45 
REMARK       I    between atoms: C_43  and  N_50 
REMARK   32  A    between atoms: CB_45  and  CG_46 
REMARK   33  A    between atoms: CG_46  and  CD_47 
REMARK   34  A    between atoms: CD_47  and  CE_48 
REMARK   35  A    between atoms: CE_48  and  NZ_49 
REMARK   36  A    between atoms: CA_51  and  C_52 
REMARK       I    between atoms: C_52  and  N_57 
REMARK   37  A    between atoms: N_57  and  CA_58 
REMARK   38  A    between atoms: CA_58  and  C_59 
REMARK   39  A    between atoms: CA_58  and  CB_61 
REMARK       I    between atoms: C_59  and  N_67 
REMARK   40  A    between atoms: CB_61  and  CG_62 
REMARK   41  A    between atoms: N_67  and  CA_68 
REMARK   42  A    between atoms: CA_68  and  C_69 
REMARK   43  A    between atoms: CA_68  and  CB_71 
REMARK   44  A    between atoms: CB_71  and  CG_72 
REMARK   45  A    between atoms: CG_72  and  CD_73 
REMARK   46  A    between atoms: CD_73  and  NE_74 
REMARK       I    between atoms: NE_74  and  CZ_75 
REMARK       I    between atoms: CZ_75  and  NH1_76 
ROOT
ATOM      1  CA  M3L d   1       9.652  -2.333  14.294  0.00  0.00     0.089 C 
ATOM      2  H   M3L d   1       8.723  -1.801  14.087  0.00  0.00     0.087 H 
ENDROOT
BRANCH   1   3
ATOM      3  N   M3L d   1       9.897  -3.200  13.145  0.00  0.00    -0.346 N 
ATOM      4  C   VAL d   1       9.637  -2.803  11.903  0.00  0.00     0.241 C 
ATOM      5  O   VAL d   1       9.151  -1.703  11.644  0.00  0.00    -0.271 OA
ATOM      6  H   M3L d   1      10.277  -4.134  13.299  0.00  0.00     0.163 HD
BRANCH   4   7
ATOM      7  CA  VAL d   1       9.945  -3.804  10.785  0.00  0.00     0.092 C 
ATOM      8  H   VAL d   1      10.119  -4.785  11.227  0.00  0.00     0.088 H 
BRANCH   7   9
ATOM      9  N   VAL d   1       8.809  -3.898   9.876  0.00  0.00    -0.346 N 
ATOM     10  C   GLY d   1       8.307  -5.072   9.514  0.00  0.00     0.236 C 
ATOM     11  O   GLY d   1       8.753  -6.133   9.931  0.00  0.00    -0.272 OA
ATOM     12  H   VAL d   1       8.391  -3.043   9.510  0.00  0.00     0.163 HD
BRANCH  10  13
ATOM     13  CA  GLY d   1       7.134  -5.050   8.546  0.00  0.00     0.069 C 
ATOM     14  H   GLY d   1       6.241  -4.741   9.090  0.00  0.00     0.078 H 
ATOM     15  H   GLY d   1       7.365  -4.357   7.737  0.00  0.00     0.078 H 
BRANCH  13  16
ATOM     16  N   GLY d   1       6.895  -6.370   7.973  0.00  0.00    -0.351 N 
ATOM     17  C   GLY d   1       7.769  -6.951   7.151  0.00  0.00     0.235 C 
ATOM     18  O   GLY d   1       8.822  -6.415   6.815  0.00  0.00    -0.272 OA
ATOM     19  H   GLY d   1       6.034  -6.863   8.208  0.00  0.00     0.163 HD
BRANCH  17  20
ATOM     20  CA  GLY d   1       7.406  -8.334   6.630  0.00  0.00     0.069 C 
ATOM     21  H   GLY d   1       7.362  -8.288   5.542  0.00  0.00     0.078 H 
ATOM     22  H   GLY d   1       8.161  -9.039   6.978  0.00  0.00     0.078 H 
BRANCH  20  23
ATOM     23  N   GLY d   1       6.112  -8.777   7.119  0.00  0.00    -0.350 N 
ATOM     24  C   THR d   1       4.969  -8.418   6.538  0.00  0.00     0.243 C 
ATOM     25  O   THR d   1       4.920  -7.736   5.513  0.00  0.00    -0.271 OA
ATOM     26  H   GLY d   1       6.078  -9.385   7.937  0.00  0.00     0.163 HD
BRANCH  24  27
ATOM     27  CA  THR d   1       3.689  -8.882   7.246  0.00  0.00     0.113 C 
ATOM     28  H   THR d   1       3.975  -9.203   8.248  0.00  0.00     0.091 H 
BRANCH  27  29
ATOM     29  N   THR d   1       2.721  -7.788   7.429  0.00  0.00    -0.344 N 
ATOM     30  C   SER d   1       2.947  -6.870   8.358  0.00  0.00     0.251 C 
ATOM     31  O   SER d   1       3.934  -6.906   9.079  0.00  0.00    -0.271 OA
ATOM     32  H   THR d   1       1.885  -7.737   6.847  0.00  0.00     0.163 HD
BRANCH  30  33
ATOM     33  CA  SER d   1       1.945  -5.738   8.492  0.00  0.00     0.195 C 
ATOM     34  H   SER d   1       1.115  -5.936   7.814  0.00  0.00     0.102 H 
BRANCH  33  35
ATOM     35  N   SER d   1       1.391  -5.656   9.842  0.00  0.00    -0.064 N 
ATOM     36  H   SER d   1       0.941  -6.541  10.078  0.00  0.00     0.275 HD
ATOM     37  H   SER d   1       2.142  -5.467  10.506  0.00  0.00     0.275 HD
ATOM     38  H   SER d   1       0.704  -4.903   9.881  0.00  0.00     0.275 HD
ENDBRANCH  33  35
BRANCH  33  39
ATOM     39  CB  SER d   1       2.625  -4.417   8.120  0.00  0.00     0.051 C 
ATOM     40  H   SER d   1       3.087  -3.998   9.014  0.00  0.00     0.077 H 
ATOM     41  H   SER d   1       1.874  -3.740   7.714  0.00  0.00     0.077 H 
BRANCH  39  42
ATOM     42  OG  SER d   1       3.634  -4.621   7.138  0.00  0.00    -0.398 OA
ATOM     43  H   SER d   1       4.298  -5.223   7.483  0.00  0.00     0.209 HD
ENDBRANCH  39  42
ENDBRANCH  33  39
ENDBRANCH  30  33
ENDBRANCH  27  29
BRANCH  27  44
ATOM     44  CB  THR d   1       3.069 -10.094   6.539  0.00  0.00     0.060 C 
ATOM     45  H   THR d   1       3.605 -10.995   6.837  0.00  0.00     0.086 H 
BRANCH  44  46
ATOM     46  OG1 THR d   1       3.179  -9.943   5.120  0.00  0.00    -0.393 OA
ATOM     47  H   THR d   1       4.105  -9.875   4.877  0.00  0.00     0.210 HD
ENDBRANCH  44  46
BRANCH  44  48
ATOM     48  CG2 THR d   1       1.611 -10.229   6.940  0.00  0.00    -0.050 C 
ATOM     49  H   THR d   1       1.067  -9.336   6.632  0.00  0.00     0.031 H 
ATOM     50  H   THR d   1       1.181 -11.104   6.453  0.00  0.00     0.031 H 
ATOM     51  H   THR d   1       1.542 -10.343   8.022  0.00  0.00     0.031 H 
ENDBRANCH  44  48
ENDBRANCH  27  44
ENDBRANCH  24  27
ENDBRANCH  20  23
ENDBRANCH  17  20
ENDBRANCH  13  16
ENDBRANCH  10  13
ENDBRANCH   7   9
BRANCH   7  52
ATOM     52  CB  VAL d   1      11.234  -3.389  10.020  0.00  0.00    -0.033 C 
ATOM     53  H   VAL d   1      11.446  -4.160   9.280  0.00  0.00     0.042 H 
BRANCH  52  54
ATOM     54  CG1 VAL d   1      11.023  -2.071   9.287  0.00  0.00    -0.071 C 
ATOM     55  H   VAL d   1      10.208  -2.181   8.572  0.00  0.00     0.028 H 
ATOM     56  H   VAL d   1      10.774  -1.292  10.007  0.00  0.00     0.028 H 
ATOM     57  H   VAL d   1      11.937  -1.800   8.759  0.00  0.00     0.028 H 
ENDBRANCH  52  54
BRANCH  52  58
ATOM     58  CG2 VAL d   1      12.442  -3.311  10.959  0.00  0.00    -0.071 C 
ATOM     59  H   VAL d   1      12.249  -2.573  11.737  0.00  0.00     0.028 H 
ATOM     60  H   VAL d   1      12.609  -4.287  11.415  0.00  0.00     0.028 H 
ATOM     61  H   VAL d   1      13.325  -3.018  10.390  0.00  0.00     0.028 H 
ENDBRANCH  52  58
ENDBRANCH   7  52
ENDBRANCH   4   7
ENDBRANCH   1   3
BRANCH   1  62
ATOM     62  CB  M3L d   1       9.477  -3.113  15.594  0.00  0.00    -0.038 C 
ATOM     63  H   M3L d   1       9.313  -2.355  16.360  0.00  0.00     0.036 H 
ATOM     64  H   M3L d   1      10.361  -3.746  15.666  0.00  0.00     0.036 H 
BRANCH  62  65
ATOM     65  CG  M3L d   1       8.306  -4.058  15.720  0.00  0.00    -0.061 C 
ATOM     66  H   M3L d   1       8.368  -4.745  14.876  0.00  0.00     0.033 H 
ATOM     67  H   M3L d   1       7.409  -3.439  15.754  0.00  0.00     0.033 H 
BRANCH  65  68
ATOM     68  CD  M3L d   1       8.291  -4.925  16.993  0.00  0.00    -0.042 C 
ATOM     69  H   M3L d   1       9.184  -5.549  16.943  0.00  0.00     0.035 H 
ATOM     70  H   M3L d   1       7.332  -5.444  16.993  0.00  0.00     0.035 H 
BRANCH  68  71
ATOM     71  CE  M3L d   1       8.369  -4.185  18.325  0.00  0.00     0.084 C 
ATOM     72  H   M3L d   1       7.376  -3.764  18.483  0.00  0.00     0.076 H 
ATOM     73  H   M3L d   1       9.204  -3.491  18.225  0.00  0.00     0.076 H 
BRANCH  71  74
ATOM     74  NZ  M3L d   1       8.655  -4.970  19.520  0.00  0.00    -0.079 N 
BRANCH  74  75
ATOM     75  CM1 M3L d   1       8.145  -4.177  20.676  0.00  0.00     0.067 C 
ATOM     76  H   M3L d   1       8.656  -3.215  20.709  0.00  0.00     0.068 H 
ATOM     77  H   M3L d   1       7.073  -4.017  20.560  0.00  0.00     0.068 H 
ATOM     78  H   M3L d   1       8.335  -4.722  21.601  0.00  0.00     0.068 H 
ENDBRANCH  74  75
BRANCH  74  79
ATOM     79  CM2 M3L d   1      10.081  -5.132  19.698  0.00  0.00     0.067 C 
ATOM     80  H   M3L d   1      10.498  -5.645  18.831  0.00  0.00     0.068 H 
ATOM     81  H   M3L d   1      10.547  -4.152  19.801  0.00  0.00     0.068 H 
ATOM     82  H   M3L d   1      10.269  -5.721  20.596  0.00  0.00     0.068 H 
ENDBRANCH  74  79
BRANCH  74  83
ATOM     83  CM3 M3L d   1       8.092  -6.328  19.308  0.00  0.00     0.067 C 
ATOM     84  H   M3L d   1       7.016  -6.253  19.149  0.00  0.00     0.068 H 
ATOM     85  H   M3L d   1       8.559  -6.781  18.433  0.00  0.00     0.068 H 
ATOM     86  H   M3L d   1       8.289  -6.943  20.186  0.00  0.00     0.068 H 
ENDBRANCH  74  83
ENDBRANCH  71  74
ENDBRANCH  68  71
ENDBRANCH  65  68
ENDBRANCH  62  65
ENDBRANCH   1  62
BRANCH   1  87
ATOM     87  C   M3L d   1      10.784  -1.383  14.467  0.00  0.00     0.241 C 
ATOM     88  O   M3L d   1      11.972  -1.771  14.348  0.00  0.00    -0.271 OA
ATOM     89  N   LYS d   1      10.454  -0.131  14.752  0.00  0.00    -0.346 N 
ATOM     90  H   LYS d   1       9.478   0.159  14.686  0.00  0.00     0.163 HD
BRANCH  89  91
ATOM     91  CA  LYS d   1      11.464   0.835  15.157  0.00  0.00     0.089 C 
ATOM     92  H   LYS d   1      12.381   0.295  15.394  0.00  0.00     0.087 H 
BRANCH  91  93
ATOM     93  C   LYS d   1      10.987   1.577  16.393  0.00  0.00     0.243 C 
ATOM     94  O   LYS d   1       9.787   1.799  16.564  0.00  0.00    -0.271 OA
ATOM     95  N   PRO d   1      11.929   1.946  17.268  0.00  0.00    -0.337 N 
ATOM     96  CA  PRO d   1      11.597   2.713  18.470  0.00  0.00     0.091 C 
ATOM     97  CD  PRO d   1      13.347   1.545  17.232  0.00  0.00    -0.001 C 
ATOM     98  CB  PRO d   1      12.965   2.986  19.096  0.00  0.00    -0.036 C 
ATOM     99  H   PRO d   1      10.914   2.189  19.139  0.00  0.00     0.087 H 
ATOM    100  CG  PRO d   1      13.829   1.867  18.615  0.00  0.00    -0.048 C 
ATOM    101  H   PRO d   1      12.915   3.024  20.184  0.00  0.00     0.036 H 
ATOM    102  H   PRO d   1      13.359   3.960  18.805  0.00  0.00     0.036 H 
ATOM    103  H   PRO d   1      13.758   1.000  19.272  0.00  0.00     0.035 H 
ATOM    104  H   PRO d   1      14.881   2.151  18.612  0.00  0.00     0.035 H 
ATOM    105  H   PRO d   1      13.912   2.065  16.458  0.00  0.00     0.064 H 
ATOM    106  H   PRO d   1      13.481   0.494  16.974  0.00  0.00     0.064 H 
BRANCH  96 107
ATOM    107  C   PRO d   1      10.906   4.025  18.098  0.00  0.00     0.241 C 
ATOM    108  O   PRO d   1      11.333   4.705  17.170  0.00  0.00    -0.271 OA
ATOM    109  N   HIS d   1       9.833   4.353  18.803  0.00  0.00    -0.346 N 
ATOM    110  H   HIS d   1       9.548   3.759  19.582  0.00  0.00     0.163 HD
BRANCH 109 111
ATOM    111  CA  HIS d   1       9.050   5.544  18.491  0.00  0.00     0.094 C 
ATOM    112  H   HIS d   1       8.671   5.452  17.473  0.00  0.00     0.088 H 
BRANCH 111 113
ATOM    113  C   HIS d   1       9.916   6.792  18.569  0.00  0.00     0.241 C 
ATOM    114  O   HIS d   1      10.712   6.948  19.498  0.00  0.00    -0.271 OA
ATOM    115  N   ARG d   1       9.752   7.671  17.584  0.00  0.00    -0.345 N 
ATOM    116  H   ARG d   1       9.072   7.462  16.853  0.00  0.00     0.163 HD
BRANCH 115 117
ATOM    117  CA  ARG d   1      10.500   8.919  17.503  0.00  0.00     0.096 C 
ATOM    118  H   ARG d   1      10.383   9.299  16.488  0.00  0.00     0.089 H 
BRANCH 117 119
ATOM    119  C   ARG d   1      11.979   8.706  17.740  0.00  0.00     0.196 C 
ATOM    120  O   ARG d   1      12.736   9.691  17.949  0.00  0.00    -0.646 OA
ATOM    121  O   ARG d   1      12.455   7.540  17.728  0.00  0.00    -0.646 OA
ENDBRANCH 117 119
BRANCH 117 122
ATOM    122  CB  ARG d   1       9.938   9.962  18.476  0.00  0.00    -0.035 C 
ATOM    123  H   ARG d   1      10.500  10.884  18.331  0.00  0.00     0.036 H 
ATOM    124  H   ARG d   1      10.029   9.555  19.483  0.00  0.00     0.036 H 
BRANCH 122 125
ATOM    125  CG  ARG d   1       8.466  10.278  18.238  0.00  0.00    -0.047 C 
ATOM    126  H   ARG d   1       7.927   9.334  18.160  0.00  0.00     0.035 H 
ATOM    127  H   ARG d   1       8.393  10.876  17.330  0.00  0.00     0.035 H 
BRANCH 125 128
ATOM    128  CD  ARG d   1       7.850  11.078  19.379  0.00  0.00     0.009 C 
ATOM    129  H   ARG d   1       7.842  10.455  20.273  0.00  0.00     0.064 H 
ATOM    130  H   ARG d   1       6.841  11.373  19.089  0.00  0.00     0.064 H 
BRANCH 128 131
ATOM    131  NE  ARG d   1       8.621  12.285  19.663  0.00  0.00    -0.227 N 
ATOM    132  CZ  ARG d   1       9.054  12.628  20.870  0.00  0.00     0.665 C 
ATOM    133  NH1 ARG d   1       8.772  11.862  21.922  0.00  0.00    -0.235 N 
ATOM    134  NH2 ARG d   1       9.763  13.742  21.023  0.00  0.00    -0.235 N 
ATOM    135  H   ARG d   1       8.223  11.011  21.801  0.00  0.00     0.174 HD
ATOM    136  H   ARG d   1       9.105  12.126  22.849  0.00  0.00     0.174 HD
ATOM    137  H   ARG d   1       9.972  14.329  20.215  0.00  0.00     0.174 HD
ATOM    138  H   ARG d   1      10.098  14.010  21.948  0.00  0.00     0.174 HD
ATOM    139  H   ARG d   1       8.841  12.905  18.883  0.00  0.00     0.177 HD
ENDBRANCH 128 131
ENDBRANCH 125 128
ENDBRANCH 122 125
ENDBRANCH 117 122
ENDBRANCH 115 117
ENDBRANCH 111 113
BRANCH 111 140
ATOM    140  CB  HIS d   1       7.869   5.661  19.454  0.00  0.00     0.004 C 
ATOM    141  H   HIS d   1       8.274   5.924  20.431  0.00  0.00     0.046 H 
ATOM    142  H   HIS d   1       7.340   4.708  19.435  0.00  0.00     0.046 H 
BRANCH 140 143
ATOM    143  CG  HIS d   1       6.881   6.725  19.081  0.00  0.00     0.053 A 
ATOM    144  ND1 HIS d   1       6.103   6.654  17.947  0.00  0.00    -0.247 NA
ATOM    145  CE1 HIS d   1       5.319   7.720  17.886  0.00  0.00     0.064 A 
ATOM    146  NE2 HIS d   1       5.560   8.471  18.943  0.00  0.00    -0.359 N 
ATOM    147  H   HIS d   1       4.599   7.939  17.098  0.00  0.00     0.143 H 
ATOM    148  CD2 HIS d   1       6.536   7.874  19.709  0.00  0.00     0.002 A 
ATOM    149  H   HIS d   1       5.097   9.354  19.159  0.00  0.00     0.166 HD
ATOM    150  H   HIS d   1       6.952   8.254  20.642  0.00  0.00     0.114 H 
ENDBRANCH 140 143
ENDBRANCH 111 140
ENDBRANCH 109 111
ENDBRANCH  96 107
ENDBRANCH  91  93
BRANCH  91 151
ATOM    151  CB  LYS d   1      11.811   1.813  14.023  0.00  0.00    -0.038 C 
ATOM    152  H   LYS d   1      12.635   1.365  13.468  0.00  0.00     0.036 H 
ATOM    153  H   LYS d   1      12.029   2.771  14.495  0.00  0.00     0.036 H 
BRANCH 151 154
ATOM    154  CG  LYS d   1      10.701   2.070  13.016  0.00  0.00    -0.061 C 
ATOM    155  H   LYS d   1      10.217   1.118  12.799  0.00  0.00     0.033 H 
ATOM    156  H   LYS d   1      11.148   2.522  12.131  0.00  0.00     0.033 H 
BRANCH 154 157
ATOM    157  CD  LYS d   1       9.647   3.021  13.545  0.00  0.00    -0.043 C 
ATOM    158  H   LYS d   1      10.143   3.875  14.007  0.00  0.00     0.035 H 
ATOM    159  H   LYS d   1       9.030   2.494  14.273  0.00  0.00     0.035 H 
BRANCH 157 160
ATOM    160  CE  LYS d   1       8.757   3.521  12.414  0.00  0.00     0.080 C 
ATOM    161  H   LYS d   1       9.335   4.223  11.813  0.00  0.00     0.075 H 
ATOM    162  H   LYS d   1       7.876   3.986  12.856  0.00  0.00     0.075 H 
BRANCH 160 163
ATOM    163  NZ  LYS d   1       8.300   2.412  11.523  0.00  0.00    -0.079 N 
ATOM    164  H   LYS d   1       7.709   2.793  10.784  0.00  0.00     0.274 HD
ATOM    165  H   LYS d   1       9.112   1.954  11.109  0.00  0.00     0.274 HD
ATOM    166  H   LYS d   1       7.768   1.735  12.070  0.00  0.00     0.274 HD
ENDBRANCH 160 163
ENDBRANCH 157 160
ENDBRANCH 154 157
ENDBRANCH 151 154
ENDBRANCH  91 151
ENDBRANCH  89  91
ENDBRANCH   1  87
TORSDOF 46
