REMARK  11 active torsions:
REMARK  status: ('A' for Active; 'I' for Inactive)
REMARK    1  A    between atoms: C6_4  and  O8_8 
REMARK    2  A    between atoms: O8_8  and  C9_9 
REMARK    3  A    between atoms: C10_10  and  C37_35 
REMARK    4  A    between atoms: C13_13  and  C15_15 
REMARK    5  A    between atoms: C15_15  and  C16_16 
REMARK    6  A    between atoms: C15_15  and  N20_20 
REMARK    7  A    between atoms: C16_16  and  C17_17 
REMARK    8  A    between atoms: C17_17  and  C18_18 
REMARK    9  A    between atoms: C17_17  and  C19_19 
REMARK   10  A    between atoms: C25_24  and  N27_26 
REMARK   11  A    between atoms: C29_28  and  C36_34 
ROOT
ATOM      1  C15 13Y d   1      13.105   3.274   5.543  0.00  0.00     0.129 C 
ATOM      2  H8  13Y d   1      12.619   3.775   6.393  0.00  0.00     0.092 H 
ENDROOT
BRANCH   1   3
ATOM      3  C13 13Y d   1      14.216   2.482   6.222  0.00  0.00    -0.025 A 
ATOM      4  C12 13Y d   1      14.079   2.161   7.577  0.00  0.00    -0.074 A 
ATOM      5  C11 13Y d   1      15.073   1.467   8.246  0.00  0.00    -0.063 A 
ATOM      6  H6  13Y d   1      13.183   2.459   8.110  0.00  0.00     0.084 H 
ATOM      7  C10 13Y d   1      16.226   1.060   7.554  0.00  0.00     0.074 A 
ATOM      8  H5  13Y d   1      14.962   1.238   9.300  0.00  0.00     0.085 H 
ATOM      9  C9  13Y d   1      16.378   1.398   6.183  0.00  0.00     0.093 A 
ATOM     10  C14 13Y d   1      15.372   2.106   5.541  0.00  0.00    -0.041 A 
ATOM     11  H7  13Y d   1      15.487   2.370   4.496  0.00  0.00     0.088 H 
BRANCH   7  12
ATOM     12  C37 13Y d   1      17.258   0.284   8.262  0.00  0.00     0.212 C 
ATOM     13  O38 13Y d   1      17.737   0.688   9.327  0.00  0.00    -0.644 OA
ATOM     14  O39 13Y d   1      17.637  -0.865   7.732  0.00  0.00    -0.644 OA
ENDBRANCH   7  12
BRANCH   9  15
ATOM     15  O8  13Y d   1      17.522   1.125   5.508  0.00  0.00    -0.310 OA
BRANCH  15  16
ATOM     16  C6  13Y d   1      17.602   0.185   4.492  0.00  0.00     0.077 A 
ATOM     17  C5  13Y d   1      16.796  -0.963   4.475  0.00  0.00    -0.050 A 
ATOM     18  C4  13Y d   1      16.894  -1.897   3.445  0.00  0.00    -0.079 A 
ATOM     19  H2  13Y d   1      16.085  -1.127   5.277  0.00  0.00     0.087 H 
ATOM     20  C3  13Y d   1      17.829  -1.712   2.444  0.00  0.00    -0.062 A 
ATOM     21  H1  13Y d   1      16.241  -2.762   3.429  0.00  0.00     0.083 H 
ATOM     22  C2  13Y d   1      18.621  -0.564   2.455  0.00  0.00     0.036 A 
ATOM     23  H3  13Y d   1      17.945  -2.451   1.659  0.00  0.00     0.086 H 
ATOM     24 CL1  13Y d   1      19.699  -0.268   1.160  0.00  0.00    -0.084 Cl
ATOM     25  C7  13Y d   1      18.518   0.398   3.460  0.00  0.00    -0.029 A 
ATOM     26  H4  13Y d   1      19.134   1.290   3.440  0.00  0.00     0.090 H 
ENDBRANCH  15  16
ENDBRANCH   9  15
ENDBRANCH   1   3
BRANCH   1  27
ATOM     27  C16 13Y d   1      13.497   4.444   4.611  0.00  0.00    -0.032 C 
ATOM     28  H9  13Y d   1      12.591   5.033   4.407  0.00  0.00     0.037 H 
ATOM     29  H10 13Y d   1      13.876   4.016   3.671  0.00  0.00     0.037 H 
BRANCH  27  30
ATOM     30  C17 13Y d   1      14.567   5.397   5.162  0.00  0.00    -0.059 C 
ATOM     31  H11 13Y d   1      15.381   4.802   5.602  0.00  0.00     0.038 H 
BRANCH  30  32
ATOM     32  C18 13Y d   1      13.986   6.303   6.257  0.00  0.00    -0.073 C 
ATOM     33  H12 13Y d   1      14.772   6.974   6.633  0.00  0.00     0.028 H 
ATOM     34  H13 13Y d   1      13.607   5.683   7.083  0.00  0.00     0.028 H 
ATOM     35  H14 13Y d   1      13.163   6.901   5.840  0.00  0.00     0.028 H 
ENDBRANCH  30  32
BRANCH  30  36
ATOM     36  C19 13Y d   1      15.132   6.224   3.993  0.00  0.00    -0.073 C 
ATOM     37  H15 13Y d   1      15.539   5.547   3.228  0.00  0.00     0.028 H 
ATOM     38  H16 13Y d   1      15.932   6.883   4.363  0.00  0.00     0.028 H 
ATOM     39  H17 13Y d   1      14.329   6.833   3.553  0.00  0.00     0.028 H 
ENDBRANCH  30  36
ENDBRANCH  27  30
ENDBRANCH   1  27
BRANCH   1  40
ATOM     40  N20 13Y d   1      12.021   2.472   4.933  0.00  0.00    -0.061 N 
ATOM     41  C22 13Y d   1      11.272   1.653   5.937  0.00  0.00     0.084 C 
ATOM     42  C23 13Y d   1      10.015   1.055   5.323  0.00  0.00    -0.040 C 
ATOM     43  H19 13Y d   1      10.988   2.294   6.785  0.00  0.00     0.076 H 
ATOM     44  H20 13Y d   1      11.921   0.839   6.293  0.00  0.00     0.076 H 
ATOM     45  C24 13Y d   1      10.422   0.158   4.143  0.00  0.00    -0.043 C 
ATOM     46  H21 13Y d   1       9.358   1.861   4.965  0.00  0.00     0.035 H 
ATOM     47  H22 13Y d   1       9.483   0.456   6.077  0.00  0.00     0.035 H 
ATOM     48  C25 13Y d   1      11.231   0.984   3.118  0.00  0.00     0.044 C 
ATOM     49  H23 13Y d   1       9.519  -0.242   3.659  0.00  0.00     0.036 H 
ATOM     50  H24 13Y d   1      11.040  -0.674   4.512  0.00  0.00     0.036 H 
ATOM     51  C26 13Y d   1      12.452   1.594   3.811  0.00  0.00     0.103 C 
ATOM     52  H25 13Y d   1      10.583   1.805   2.778  0.00  0.00     0.076 H 
ATOM     53  H26 13Y d   1      13.087   0.787   4.205  0.00  0.00     0.079 H 
ATOM     54  H27 13Y d   1      13.024   2.189   3.083  0.00  0.00     0.079 H 
ATOM     55  H18 13Y d   1      11.368   3.136   4.546  0.00  0.00     0.280 HD
BRANCH  48  56
ATOM     56  N27 13Y d   1      11.656   0.237   1.910  0.00  0.00    -0.303 N 
ATOM     57  C28 13Y d   1      12.181  -1.040   2.060  0.00  0.00    -0.004 A 
ATOM     58  C29 13Y d   1      12.648  -1.761   1.018  0.00  0.00     0.022 A 
ATOM     59  H28 13Y d   1      12.217  -1.477   3.057  0.00  0.00     0.112 H 
ATOM     60  C30 13Y d   1      12.580  -1.177  -0.299  0.00  0.00     0.256 A 
ATOM     61  O31 13Y d   1      12.933  -1.742  -1.351  0.00  0.00    -0.267 OA
ATOM     62  N32 13Y d   1      12.032   0.091  -0.346  0.00  0.00    -0.275 N 
ATOM     63  C34 13Y d   1      11.582   0.833   0.680  0.00  0.00     0.329 A 
ATOM     64  H29 13Y d   1      11.962   0.506  -1.253  0.00  0.00     0.173 HD
ATOM     65  O35 13Y d   1      11.143   1.960   0.509  0.00  0.00    -0.246 OA
BRANCH  58  66
ATOM     66  C36 13Y d   1      13.211  -3.147   1.174  0.00  0.00    -0.045 C 
ATOM     67  H30 13Y d   1      13.189  -3.434   2.236  0.00  0.00     0.033 H 
ATOM     68  H31 13Y d   1      14.249  -3.164   0.811  0.00  0.00     0.033 H 
ATOM     69  H32 13Y d   1      12.607  -3.856   0.589  0.00  0.00     0.033 H 
ENDBRANCH  58  66
ENDBRANCH  48  56
ENDBRANCH   1  40
TORSDOF 11
