REMARK  17 active torsions:
REMARK  status: ('A' for Active; 'I' for Inactive)
REMARK    1  A    between atoms: C2_1  and  O39_38 
REMARK    2  A    between atoms: S8_7  and  C5_4 
REMARK    3  A    between atoms: N11_10  and  S8_7 
REMARK    4  A    between atoms: N11_10  and  C12_11 
REMARK    5  A    between atoms: C16_15  and  N11_10 
REMARK    6  A    between atoms: C12_11  and  C13_12 
REMARK    7  A    between atoms: C13_12  and  C14_13 
REMARK    8  A    between atoms: C13_12  and  C15_14 
REMARK    9  A    between atoms: C17_16  and  C16_15 
REMARK   10  A    between atoms: C17_16  and  O18_17 
REMARK   11  A    between atoms: C19_18  and  C17_16 
REMARK   12  A    between atoms: C19_18  and  N20_19 
REMARK   13  A    between atoms: C32_31  and  C19_18 
REMARK       I    between atoms: N20_19  and  C21_20 
REMARK   14  A    between atoms: C21_20  and  O23_22 
REMARK   15  A    between atoms: O23_22  and  C24_23 
REMARK   16  A    between atoms: C38_37  and  C32_31 
REMARK   17  A    between atoms: O39_38  and  C40_39 
ROOT
ATOM      1  C19 G52 d   1      14.353  19.938  16.984  0.00  0.00     0.044 C 
ATOM      2  H18 G52 d   1      13.432  20.473  16.708  0.00  0.00     0.077 H 
ENDROOT
BRANCH   1   3
ATOM      3  C17 G52 d   1      13.954  18.818  17.907  0.00  0.00     0.071 C 
ATOM      4  H16 G52 d   1      13.625  19.308  18.836  0.00  0.00     0.088 H 
BRANCH   3   5
ATOM      5  C16 G52 d   1      12.784  17.961  17.477  0.00  0.00     0.031 C 
ATOM      6  H14 G52 d   1      12.998  17.574  16.470  0.00  0.00     0.069 H 
ATOM      7  H15 G52 d   1      12.700  17.121  18.182  0.00  0.00     0.069 H 
BRANCH   5   8
ATOM      8  N11 G52 d   1      11.502  18.642  17.434  0.00  0.00    -0.304 N 
BRANCH   8   9
ATOM      9  S8  G52 d   1      10.802  18.972  16.009  0.00  0.00     0.260 S 
ATOM     10  O9  G52 d   1      11.875  19.045  14.989  0.00  0.00    -0.200 OA
ATOM     11  O10 G52 d   1       9.915  20.083  16.179  0.00  0.00    -0.200 OA
BRANCH   9  12
ATOM     12  C5  G52 d   1       9.843  17.588  15.507  0.00  0.00     0.079 C 
ATOM     13  C4  G52 d   1      10.432  16.500  14.866  0.00  0.00    -0.058 C 
ATOM     14  C3  G52 d   1       9.653  15.395  14.554  0.00  0.00    -0.049 C 
ATOM     15  H2  G52 d   1      11.486  16.517  14.614  0.00  0.00     0.086 H 
ATOM     16  C2  G52 d   1       8.308  15.337  14.938  0.00  0.00     0.068 C 
ATOM     17  H1  G52 d   1      10.091  14.568  14.007  0.00  0.00     0.087 H 
ATOM     18  C7  G52 d   1       7.706  16.464  15.495  0.00  0.00    -0.049 C 
ATOM     19  C6  G52 d   1       8.497  17.556  15.820  0.00  0.00    -0.058 C 
ATOM     20  H4  G52 d   1       6.637  16.487  15.671  0.00  0.00     0.087 H 
ATOM     21  H3  G52 d   1       8.050  18.402  16.330  0.00  0.00     0.086 H 
BRANCH  16  22
ATOM     22  O39 G52 d   1       7.677  14.158  14.741  0.00  0.00    -0.356 OA
BRANCH  22  23
ATOM     23  C40 G52 d   1       6.295  14.136  15.008  0.00  0.00     0.010 C 
ATOM     24  H34 G52 d   1       5.900  13.129  14.811  0.00  0.00     0.066 H 
ATOM     25  H35 G52 d   1       5.785  14.863  14.360  0.00  0.00     0.066 H 
ATOM     26  H36 G52 d   1       6.121  14.399  16.062  0.00  0.00     0.066 H 
ENDBRANCH  22  23
ENDBRANCH  16  22
ENDBRANCH   9  12
ENDBRANCH   8   9
BRANCH   8  27
ATOM     27  C12 G52 d   1      10.579  18.354  18.529  0.00  0.00     0.008 C 
ATOM     28  H5  G52 d   1      10.516  17.263  18.656  0.00  0.00     0.066 H 
ATOM     29  H6  G52 d   1       9.588  18.750  18.264  0.00  0.00     0.066 H 
BRANCH  27  30
ATOM     30  C13 G52 d   1      11.016  18.981  19.874  0.00  0.00    -0.045 C 
ATOM     31  H7  G52 d   1      12.006  18.598  20.162  0.00  0.00     0.041 H 
BRANCH  30  32
ATOM     32  C14 G52 d   1      11.073  20.505  19.755  0.00  0.00    -0.072 C 
ATOM     33  H8  G52 d   1      11.385  20.936  20.718  0.00  0.00     0.028 H 
ATOM     34  H9  G52 d   1      10.078  20.889  19.486  0.00  0.00     0.028 H 
ATOM     35  H10 G52 d   1      11.797  20.785  18.976  0.00  0.00     0.028 H 
ENDBRANCH  30  32
BRANCH  30  36
ATOM     36  C15 G52 d   1       9.966  18.581  20.933  0.00  0.00    -0.072 C 
ATOM     37  H11 G52 d   1       9.928  17.485  21.016  0.00  0.00     0.028 H 
ATOM     38  H12 G52 d   1       8.978  18.960  20.632  0.00  0.00     0.028 H 
ATOM     39  H13 G52 d   1      10.244  19.013  21.906  0.00  0.00     0.028 H 
ENDBRANCH  30  36
ENDBRANCH  27  30
ENDBRANCH   8  27
ENDBRANCH   5   8
ENDBRANCH   3   5
BRANCH   3  40
ATOM     40  O18 G52 d   1      15.088  18.031  18.247  0.00  0.00    -0.392 OA
ATOM     41  H17 G52 d   1      15.354  17.519  17.493  0.00  0.00     0.210 HD
ENDBRANCH   3  40
ENDBRANCH   1   3
BRANCH   1  42
ATOM     42  N20 G52 d   1      15.233  20.872  17.647  0.00  0.00    -0.329 N 
ATOM     43  C21 G52 d   1      14.956  22.131  17.993  0.00  0.00     0.361 C 
ATOM     44  O22 G52 d   1      13.873  22.725  17.745  0.00  0.00    -0.238 OA
ATOM     45  H19 G52 d   1      16.149  20.539  17.871  0.00  0.00     0.165 HD
BRANCH  43  46
ATOM     46  O23 G52 d   1      15.982  22.710  18.651  0.00  0.00    -0.296 OA
BRANCH  46  47
ATOM     47  C24 G52 d   1      15.837  24.129  18.975  0.00  0.00     0.078 C 
ATOM     48  C25 G52 d   1      16.418  24.298  20.379  0.00  0.00     0.048 C 
ATOM     49  O26 G52 d   1      17.826  24.374  20.195  0.00  0.00    -0.358 OA
ATOM     50  H21 G52 d   1      16.158  23.436  21.010  0.00  0.00     0.078 H 
ATOM     51  H22 G52 d   1      16.040  25.220  20.844  0.00  0.00     0.078 H 
ATOM     52  C27 G52 d   1      18.140  24.769  18.908  0.00  0.00     0.140 C 
ATOM     53  O28 G52 d   1      18.849  23.765  18.234  0.00  0.00    -0.331 OA
ATOM     54  C31 G52 d   1      16.851  24.952  18.140  0.00  0.00     0.030 C 
ATOM     55  H23 G52 d   1      18.722  25.702  18.932  0.00  0.00     0.129 H 
ATOM     56  C29 G52 d   1      18.288  23.443  16.981  0.00  0.00     0.138 C 
ATOM     57  C30 G52 d   1      17.118  24.383  16.760  0.00  0.00     0.006 C 
ATOM     58  O41 G52 d   1      19.258  23.663  15.962  0.00  0.00    -0.361 OA
ATOM     59  H24 G52 d   1      17.952  22.396  16.966  0.00  0.00     0.129 H 
ATOM     60  C43 G52 d   1      17.713  25.410  15.775  0.00  0.00    -0.037 C 
ATOM     61  H25 G52 d   1      16.224  23.892  16.347  0.00  0.00     0.048 H 
ATOM     62  C42 G52 d   1      19.202  25.094  15.856  0.00  0.00     0.023 C 
ATOM     63  H39 G52 d   1      17.504  26.441  16.097  0.00  0.00     0.036 H 
ATOM     64  H40 G52 d   1      17.326  25.259  14.756  0.00  0.00     0.036 H 
ATOM     65  H37 G52 d   1      19.723  25.438  14.950  0.00  0.00     0.074 H 
ATOM     66  H38 G52 d   1      19.653  25.568  16.740  0.00  0.00     0.074 H 
ATOM     67  H26 G52 d   1      16.542  26.005  18.069  0.00  0.00     0.052 H 
ATOM     68  H20 G52 d   1      14.799  24.479  18.872  0.00  0.00     0.088 H 
ENDBRANCH  46  47
ENDBRANCH  43  46
ENDBRANCH   1  42
BRANCH   1  69
ATOM     69  C32 G52 d   1      15.018  19.471  15.694  0.00  0.00    -0.020 C 
ATOM     70  H27 G52 d   1      14.358  18.758  15.178  0.00  0.00     0.043 H 
ATOM     71  H28 G52 d   1      15.974  18.982  15.930  0.00  0.00     0.043 H 
BRANCH  69  72
ATOM     72  C38 G52 d   1      15.273  20.683  14.785  0.00  0.00    -0.056 A 
ATOM     73  C33 G52 d   1      16.575  21.173  14.621  0.00  0.00    -0.077 A 
ATOM     74  C34 G52 d   1      16.780  22.265  13.822  0.00  0.00    -0.082 A 
ATOM     75  H29 G52 d   1      17.409  20.694  15.120  0.00  0.00     0.084 H 
ATOM     76  C35 G52 d   1      15.718  22.862  13.184  0.00  0.00    -0.083 A 
ATOM     77  H30 G52 d   1      17.781  22.660  13.692  0.00  0.00     0.083 H 
ATOM     78  C36 G52 d   1      14.414  22.364  13.267  0.00  0.00    -0.082 A 
ATOM     79  H31 G52 d   1      15.899  23.753  12.594  0.00  0.00     0.083 H 
ATOM     80  C37 G52 d   1      14.217  21.284  14.087  0.00  0.00    -0.077 A 
ATOM     81  H32 G52 d   1      13.598  22.811  12.710  0.00  0.00     0.083 H 
ATOM     82  H33 G52 d   1      13.216  20.883  14.199  0.00  0.00     0.084 H 
ENDBRANCH  69  72
ENDBRANCH   1  69
TORSDOF 17
