REMARK  7 active torsions:
REMARK  status: ('A' for Active; 'I' for Inactive)
REMARK    1  A    between atoms: C1_1  and  C2_2 
REMARK    2  A    between atoms: N1_4  and  C6_10 
REMARK    3  A    between atoms: N3_14  and  C11_16 
REMARK    4  A    between atoms: C11_16  and  C12_17 
REMARK    5  A    between atoms: C16_21  and  O3_23 
REMARK    6  A    between atoms: O3_23  and  C18_24 
REMARK    7  A    between atoms: C22_28  and  C24_30 
ROOT
ATOM      1  C6  14D d   1      10.068   0.453   3.005  0.00  0.00     0.044 C 
ATOM      2  C7  14D d   1       9.167  -0.390   3.917  0.00  0.00    -0.043 C 
ATOM      3  C8  14D d   1       8.664   0.413   5.100  0.00  0.00    -0.040 C 
ATOM      4  C9  14D d   1       9.836   0.959   5.893  0.00  0.00     0.084 C 
ATOM      5  N3  14D d   1      10.645   1.831   4.980  0.00  0.00    -0.065 N 
ATOM      6  C10 14D d   1      11.183   1.165   3.749  0.00  0.00     0.103 C 
ATOM      7  H6  14D d   1       9.418   1.251   2.616  0.00  0.00     0.076 H 
ATOM      8  H7  14D d   1       9.741  -1.252   4.288  0.00  0.00     0.036 H 
ATOM      9  H8  14D d   1       8.305  -0.747   3.335  0.00  0.00     0.036 H 
ATOM     10  H9  14D d   1       8.056  -0.235   5.748  0.00  0.00     0.035 H 
ATOM     11  H10 14D d   1       8.049   1.249   4.737  0.00  0.00     0.035 H 
ATOM     12  H11 14D d   1      10.456   0.129   6.263  0.00  0.00     0.076 H 
ATOM     13  H12 14D d   1       9.468   1.550   6.745  0.00  0.00     0.076 H 
ATOM     14  H13 14D d   1       9.960   2.473   4.613  0.00  0.00     0.280 HD
ATOM     15  H14 14D d   1      11.630   1.925   3.091  0.00  0.00     0.079 H 
ATOM     16  H15 14D d   1      11.951   0.433   4.039  0.00  0.00     0.079 H 
ENDROOT
BRANCH   5  17
ATOM     17  C11 14D d   1      11.626   2.731   5.673  0.00  0.00     0.107 C 
ATOM     18  H16 14D d   1      11.114   3.209   6.521  0.00  0.00     0.083 H 
ATOM     19  H17 14D d   1      11.949   3.502   4.958  0.00  0.00     0.083 H 
BRANCH  17  20
ATOM     20  C12 14D d   1      12.847   2.037   6.196  0.00  0.00    -0.030 A 
ATOM     21  C13 14D d   1      12.881   1.586   7.505  0.00  0.00    -0.075 A 
ATOM     22  C14 14D d   1      13.988   0.926   7.993  0.00  0.00    -0.080 A 
ATOM     23  H18 14D d   1      12.028   1.754   8.152  0.00  0.00     0.084 H 
ATOM     24  C15 14D d   1      15.085   0.729   7.174  0.00  0.00    -0.050 A 
ATOM     25  H19 14D d   1      13.999   0.563   9.014  0.00  0.00     0.083 H 
ATOM     26  C16 14D d   1      15.044   1.166   5.864  0.00  0.00     0.076 A 
ATOM     27  H20 14D d   1      15.971   0.235   7.557  0.00  0.00     0.087 H 
ATOM     28  C17 14D d   1      13.939   1.830   5.373  0.00  0.00    -0.043 A 
ATOM     29  H21 14D d   1      13.927   2.187   4.349  0.00  0.00     0.088 H 
BRANCH  26  30
ATOM     30  O3  14D d   1      16.152   0.985   5.049  0.00  0.00    -0.311 OA
BRANCH  30  31
ATOM     31  C18 14D d   1      16.206  -0.123   4.220  0.00  0.00     0.076 A 
ATOM     32  C19 14D d   1      15.383  -1.235   4.305  0.00  0.00    -0.050 A 
ATOM     33  C20 14D d   1      15.557  -2.288   3.422  0.00  0.00    -0.080 A 
ATOM     34  H22 14D d   1      14.606  -1.280   5.060  0.00  0.00     0.087 H 
ATOM     35  C21 14D d   1      16.547  -2.231   2.461  0.00  0.00    -0.068 A 
ATOM     36  H23 14D d   1      14.915  -3.159   3.486  0.00  0.00     0.083 H 
ATOM     37  C22 14D d   1      17.353  -1.105   2.378  0.00  0.00     0.050 A 
ATOM     38  H24 14D d   1      16.693  -3.059   1.777  0.00  0.00     0.084 H 
ATOM     39  C23 14D d   1      17.186  -0.058   3.258  0.00  0.00    -0.036 A 
ATOM     40  H25 14D d   1      17.826   0.815   3.192  0.00  0.00     0.089 H 
BRANCH  37  41
ATOM     41  C24 14D d   1      18.427  -1.013   1.358  0.00  0.00     0.417 C 
ATOM     42  F1  14D d   1      17.999  -1.329   0.116  0.00  0.00    -0.166 F 
ATOM     43  F2  14D d   1      19.443  -1.851   1.660  0.00  0.00    -0.166 F 
ATOM     44  F3  14D d   1      18.986   0.218   1.209  0.00  0.00    -0.166 F 
ENDBRANCH  37  41
ENDBRANCH  30  31
ENDBRANCH  26  30
ENDBRANCH  17  20
ENDBRANCH   5  17
BRANCH   1  45
ATOM     45  N1  14D d   1      10.553  -0.260   1.827  0.00  0.00    -0.303 N 
ATOM     46  C3  14D d   1      11.049  -1.535   1.967  0.00  0.00    -0.004 A 
ATOM     47  C2  14D d   1      11.489  -2.239   0.926  0.00  0.00     0.022 A 
ATOM     48  H4  14D d   1      11.083  -1.982   2.959  0.00  0.00     0.112 H 
ATOM     49  C5  14D d   1      11.409  -1.583  -0.414  0.00  0.00     0.256 A 
ATOM     50  N2  14D d   1      10.902  -0.332  -0.483  0.00  0.00    -0.275 N 
ATOM     51  O2  14D d   1      11.802  -2.186  -1.412  0.00  0.00    -0.267 OA
ATOM     52  C4  14D d   1      10.526   0.378   0.595  0.00  0.00     0.329 A 
ATOM     53  H5  14D d   1      10.801   0.088  -1.385  0.00  0.00     0.173 HD
ATOM     54  O1  14D d   1      10.183   1.553   0.490  0.00  0.00    -0.246 OA
BRANCH  47  55
ATOM     55  C1  14D d   1      12.021  -3.621   1.073  0.00  0.00    -0.045 C 
ATOM     56  H1  14D d   1      11.994  -3.913   2.133  0.00  0.00     0.033 H 
ATOM     57  H2  14D d   1      13.059  -3.655   0.710  0.00  0.00     0.033 H 
ATOM     58  H3  14D d   1      11.404  -4.316   0.485  0.00  0.00     0.033 H 
ENDBRANCH  47  55
ENDBRANCH   1  45
TORSDOF 7
