REMARK  7 active torsions:
REMARK  status: ('A' for Active; 'I' for Inactive)
REMARK    1  A    between atoms: O2_1  and  C24_2 
REMARK    2  A    between atoms: C24_2  and  C21_3 
REMARK    3  A    between atoms: N2_8  and  C4_9 
REMARK    4  A    between atoms: C5_14  and  O1_15 
REMARK    5  A    between atoms: O1_15  and  C6_16 
REMARK    6  A    between atoms: C9_21  and  N3_22 
REMARK    7  A    between atoms: N3_22  and  C12_23 
ROOT
ATOM      1  C4  15J d   1      11.414  89.008  37.151  0.00  0.00     0.159 A 
ATOM      2  N1  15J d   1      10.177  89.479  36.883  0.00  0.00    -0.241 NA
ATOM      3  C3  15J d   1       9.544  90.312  37.700  0.00  0.00     0.005 A 
ATOM      4  C2  15J d   1      10.144  90.735  38.884  0.00  0.00    -0.063 A 
ATOM      5  C1  15J d   1      11.421  90.273  39.198  0.00  0.00    -0.045 A 
ATOM      6  C5  15J d   1      12.066  89.391  38.328  0.00  0.00     0.121 A 
ATOM      7  H13 15J d   1       8.552  90.666  37.444  0.00  0.00     0.114 H 
ATOM      8  H14 15J d   1       9.625  91.414  39.551  0.00  0.00     0.085 H 
ATOM      9  H15 15J d   1      11.910  90.596  40.110  0.00  0.00     0.088 H 
ENDROOT
BRANCH   6  10
ATOM     10  O1  15J d   1      13.328  88.915  38.575  0.00  0.00    -0.307 OA
BRANCH  10  11
ATOM     11  C6  15J d   1      13.794  88.710  39.845  0.00  0.00     0.076 A 
ATOM     12  C11 15J d   1      15.056  89.193  40.194  0.00  0.00    -0.048 A 
ATOM     13  C10 15J d   1      15.562  88.984  41.480  0.00  0.00    -0.054 A 
ATOM     14  H16 15J d   1      15.647  89.733  39.464  0.00  0.00     0.087 H 
ATOM     15  C9  15J d   1      14.814  88.272  42.427  0.00  0.00     0.049 A 
ATOM     16  H17 15J d   1      16.538  89.374  41.746  0.00  0.00     0.087 H 
ATOM     17  C8  15J d   1      13.558  87.789  42.065  0.00  0.00    -0.054 A 
ATOM     18  C7  15J d   1      13.051  87.994  40.783  0.00  0.00    -0.048 A 
ATOM     19  H19 15J d   1      12.966  87.245  42.792  0.00  0.00     0.087 H 
ATOM     20  H18 15J d   1      12.079  87.597  40.515  0.00  0.00     0.087 H 
BRANCH  15  21
ATOM     21  N3  15J d   1      15.230  88.027  43.682  0.00  0.00    -0.190 N 
ATOM     22  H20 15J d   1      14.512  87.691  44.340  0.00  0.00     0.184 HD
BRANCH  21  23
ATOM     23  C12 15J d   1      16.468  88.167  44.181  0.00  0.00     0.706 A 
ATOM     24  N5  15J d   1      17.603  88.290  43.492  0.00  0.00    -0.188 N 
ATOM     25  C14 15J d   1      18.595  88.407  44.376  0.00  0.00     0.078 A 
ATOM     26  H21 15J d   1      17.697  88.294  42.466  0.00  0.00     0.184 HD
ATOM     27  C18 15J d   1      19.974  88.569  44.233  0.00  0.00    -0.054 A 
ATOM     28  C13 15J d   1      18.028  88.343  45.648  0.00  0.00     0.103 A 
ATOM     29  C17 15J d   1      20.787  88.660  45.366  0.00  0.00    -0.081 A 
ATOM     30  H22 15J d   1      20.414  88.624  43.244  0.00  0.00     0.087 H 
ATOM     31  C16 15J d   1      20.217  88.592  46.642  0.00  0.00    -0.081 A 
ATOM     32  H23 15J d   1      21.858  88.783  45.256  0.00  0.00     0.083 H 
ATOM     33  C15 15J d   1      18.837  88.435  46.783  0.00  0.00    -0.052 A 
ATOM     34  H24 15J d   1      20.847  88.661  47.521  0.00  0.00     0.083 H 
ATOM     35  H25 15J d   1      18.394  88.385  47.771  0.00  0.00     0.087 H 
ATOM     36  N4  15J d   1      16.715  88.192  45.490  0.00  0.00    -0.062 NA
ENDBRANCH  21  23
ENDBRANCH  15  21
ENDBRANCH  10  11
ENDBRANCH   6  10
BRANCH   1  37
ATOM     37  N2  15J d   1      12.005  88.112  36.233  0.00  0.00    -0.363 N 
ATOM     38  C23 15J d   1      12.534  86.796  36.719  0.00  0.00    -0.003 C 
ATOM     39  C22 15J d   1      13.750  86.340  35.899  0.00  0.00    -0.045 C 
ATOM     40  H7  15J d   1      12.832  86.898  37.773  0.00  0.00     0.064 H 
ATOM     41  H8  15J d   1      11.741  86.039  36.633  0.00  0.00     0.064 H 
ATOM     42  C21 15J d   1      13.443  86.364  34.394  0.00  0.00    -0.031 C 
ATOM     43  H5  15J d   1      14.595  87.014  36.104  0.00  0.00     0.036 H 
ATOM     44  H6  15J d   1      14.019  85.315  36.194  0.00  0.00     0.036 H 
ATOM     45  C20 15J d   1      13.088  87.798  33.968  0.00  0.00    -0.045 C 
ATOM     46  H4  15J d   1      12.598  85.692  34.184  0.00  0.00     0.043 H 
ATOM     47  C19 15J d   1      11.932  88.410  34.775  0.00  0.00    -0.003 C 
ATOM     48  H9  15J d   1      12.802  87.785  32.906  0.00  0.00     0.036 H 
ATOM     49  H10 15J d   1      13.978  88.431  34.100  0.00  0.00     0.036 H 
ATOM     50  H11 15J d   1      10.984  88.010  34.385  0.00  0.00     0.064 H 
ATOM     51  H12 15J d   1      11.953  89.502  34.641  0.00  0.00     0.064 H 
BRANCH  42  52
ATOM     52  C24 15J d   1      14.668  85.917  33.585  0.00  0.00     0.020 C 
ATOM     53  H2  15J d   1      14.419  85.949  32.514  0.00  0.00     0.074 H 
ATOM     54  H3  15J d   1      15.501  86.606  33.789  0.00  0.00     0.074 H 
BRANCH  52  55
ATOM     55  O2  15J d   1      15.072  84.585  33.929  0.00  0.00    -0.400 OA
ATOM     56  H1  15J d   1      15.830  84.342  33.411  0.00  0.00     0.209 HD
ENDBRANCH  52  55
ENDBRANCH  42  52
ENDBRANCH   1  37
TORSDOF 7
