REMARK  3 active torsions:
REMARK  status: ('A' for Active; 'I' for Inactive)
REMARK       I    between atoms: C27_2  and  N29_3 
REMARK    1  A    between atoms: C27_2  and  C26_5 
REMARK    2  A    between atoms: N29_3  and  O30_4 
REMARK    3  A    between atoms: C26_5  and  C5_6 
ROOT
ATOM      1  C5  AXM d   1      -3.958  -7.325  21.624  0.00  0.00    -0.031 C 
ATOM      2  C4  AXM d   1      -2.579  -6.676  21.582  0.00  0.00    -0.054 C 
ATOM      3  C3  AXM d   1      -1.714  -7.370  20.536  0.00  0.00    -0.053 C 
ATOM      4  C9  AXM d   1      -3.803  -8.792  22.001  0.00  0.00    -0.054 C 
ATOM      5  C1  AXM d   1      -2.942  -9.508  20.963  0.00  0.00    -0.053 C 
ATOM      6  C8  AXM d   1      -3.602  -9.393  19.594  0.00  0.00    -0.058 C 
ATOM      7  C2  AXM d   1      -1.570  -8.843  20.903  0.00  0.00    -0.058 C 
ATOM      8  C6  AXM d   1      -4.632  -7.237  20.262  0.00  0.00    -0.054 C 
ATOM      9  C7  AXM d   1      -3.768  -7.925  19.212  0.00  0.00    -0.053 C 
ATOM     10  C10 AXM d   1      -2.398  -7.253  19.178  0.00  0.00    -0.058 C 
ATOM     11  H5  AXM d   1      -2.102  -6.767  22.569  0.00  0.00     0.034 H 
ATOM     12  H6  AXM d   1      -2.684  -5.612  21.322  0.00  0.00     0.034 H 
ATOM     13  H7  AXM d   1      -0.722  -6.897  20.497  0.00  0.00     0.040 H 
ATOM     14  H8  AXM d   1      -4.795  -9.265  22.041  0.00  0.00     0.034 H 
ATOM     15  H9  AXM d   1      -3.322  -8.866  22.987  0.00  0.00     0.034 H 
ATOM     16  H10 AXM d   1      -2.833 -10.568  21.237  0.00  0.00     0.040 H 
ATOM     17  H11 AXM d   1      -4.590  -9.874  19.625  0.00  0.00     0.034 H 
ATOM     18  H12 AXM d   1      -2.973  -9.895  18.844  0.00  0.00     0.034 H 
ATOM     19  H13 AXM d   1      -1.083  -8.927  21.886  0.00  0.00     0.034 H 
ATOM     20  H14 AXM d   1      -0.954  -9.348  20.144  0.00  0.00     0.034 H 
ATOM     21  H15 AXM d   1      -4.766  -6.180  19.989  0.00  0.00     0.034 H 
ATOM     22  H16 AXM d   1      -5.614  -7.731  20.308  0.00  0.00     0.034 H 
ATOM     23  H17 AXM d   1      -4.246  -7.848  18.224  0.00  0.00     0.040 H 
ATOM     24  H18 AXM d   1      -1.774  -7.741  18.415  0.00  0.00     0.034 H 
ATOM     25  H19 AXM d   1      -2.522  -6.190  18.925  0.00  0.00     0.034 H 
ENDROOT
BRANCH   1  26
ATOM     26  C26 AXM d   1      -4.846  -6.635  22.657  0.00  0.00     0.018 C 
ATOM     27  H3  AXM d   1      -5.898  -6.742  22.355  0.00  0.00     0.048 H 
ATOM     28  H4  AXM d   1      -4.696  -7.112  23.637  0.00  0.00     0.048 H 
BRANCH  26  29
ATOM     29  C27 AXM d   1      -4.510  -5.165  22.767  0.00  0.00     0.241 C 
ATOM     30  O28 AXM d   1      -4.764  -4.402  21.848  0.00  0.00    -0.271 OA
ATOM     31  N29 AXM d   1      -3.940  -4.757  23.896  0.00  0.00    -0.237 N 
ATOM     32  H1  AXM d   1      -3.598  -5.425  24.557  0.00  0.00     0.197 HD
BRANCH  31  33
ATOM     33  O30 AXM d   1      -3.822  -3.393  24.152  0.00  0.00    -0.287 OA
ATOM     34  H2  AXM d   1      -3.397  -3.265  24.992  0.00  0.00     0.244 HD
ENDBRANCH  31  33
ENDBRANCH  26  29
ENDBRANCH   1  26
TORSDOF 3
