REMARK WARNING: 32 MAX_TORS EXCEEDED!!!
REMARK  52 active torsions:
REMARK  status: ('A' for Active; 'I' for Inactive)
REMARK    1  A    between atoms: N_1  and  CA_2 
REMARK    2  A    between atoms: CA_2  and  C_3 
REMARK    3  A    between atoms: CA_2  and  CB_5 
REMARK       I    between atoms: C_3  and  N_10 
REMARK    4  A    between atoms: CB_5  and  CG_6 
REMARK    5  A    between atoms: CG_6  and  CD_7 
REMARK    6  A    between atoms: N_10  and  CA_11 
REMARK    7  A    between atoms: CA_11  and  C_12 
REMARK    8  A    between atoms: CA_11  and  CB_14 
REMARK       I    between atoms: C_12  and  N_17 
REMARK    9  A    between atoms: CB_14  and  OG1_15 
REMARK   10  A    between atoms: CB_14  and  CG2_16 
REMARK   11  A    between atoms: N_17  and  CA_18 
REMARK   12  A    between atoms: CA_18  and  C_19 
REMARK   13  A    between atoms: CA_18  and  CB_21 
REMARK       I    between atoms: C_19  and  N_28 
REMARK   14  A    between atoms: CB_21  and  CG_22 
REMARK   15  A    between atoms: N_28  and  CA_29 
REMARK   16  A    between atoms: CA_29  and  C_30 
REMARK   17  A    between atoms: CA_29  and  CB_32 
REMARK       I    between atoms: C_30  and  N_34 
REMARK   18  A    between atoms: CB_32  and  OG_33 
REMARK   19  A    between atoms: N_34  and  CA_35 
REMARK   20  A    between atoms: CA_35  and  C_36 
REMARK   21  A    between atoms: CA_35  and  CB_38 
REMARK       I    between atoms: C_36  and  N_42 
REMARK   22  A    between atoms: CB_38  and  CG_39 
REMARK   23  A    between atoms: N_42  and  CA_43 
REMARK   24  A    between atoms: CA_43  and  C_44 
REMARK   25  A    between atoms: CA_43  and  CB_46 
REMARK       I    between atoms: C_44  and  N_50 
REMARK   26  A    between atoms: CB_46  and  CG_47 
REMARK   27  A    between atoms: CG_47  and  CD1_48 
REMARK   28  A    between atoms: CG_47  and  CD2_49 
REMARK   29  A    between atoms: N_50  and  CA_51 
REMARK   30  A    between atoms: CA_51  and  C_52 
REMARK   31  A    between atoms: CA_51  and  CB_54 
REMARK       I    between atoms: C_52  and  N_64 
REMARK   32  A    between atoms: CB_54  and  CG_55 
REMARK   33  A    between atoms: N_64  and  CA_65 
REMARK   34  A    between atoms: CA_65  and  C_66 
REMARK   35  A    between atoms: CA_65  and  CB_68 
REMARK       I    between atoms: C_66  and  N_73 
REMARK   36  A    between atoms: CB_68  and  CG_69 
REMARK   37  A    between atoms: CG_69  and  CD_70 
REMARK   38  A    between atoms: CD_70  and  CE_71 
REMARK   39  A    between atoms: CE_71  and  NZ_72 
REMARK   40  A    between atoms: N_73  and  CA_74 
REMARK   41  A    between atoms: CA_74  and  C_75 
REMARK   42  A    between atoms: CA_74  and  CB_77 
REMARK       I    between atoms: C_75  and  N_81 
REMARK   43  A    between atoms: CB_77  and  CG_78 
REMARK   44  A    between atoms: CG_78  and  CD1_79 
REMARK   45  A    between atoms: CG_78  and  CD2_80 
REMARK   46  A    between atoms: N_81  and  CA_82 
REMARK   47  A    between atoms: CA_82  and  C_83 
REMARK   48  A    between atoms: CA_82  and  CB_85 
REMARK       I    between atoms: C_83  and  N_89 
REMARK   49  A    between atoms: CB_85  and  CG_86 
REMARK   50  A    between atoms: CG_86  and  CD1_87 
REMARK   51  A    between atoms: CG_86  and  CD2_88 
REMARK   52  A    between atoms: CA_90  and  C_91 
ROOT
ATOM      1  CA  TRP d   1      -0.957 -16.981   6.008  0.00  0.00     0.093 C 
ATOM      2  H46 TRP d   1      -0.567 -16.537   6.935  0.00  0.00     0.088 H 
ENDROOT
BRANCH   1   3
ATOM      3  N   TRP d   1      -2.247 -16.388   5.732  0.00  0.00    -0.346 N 
ATOM      4  C   LEU d   1      -2.464 -15.089   5.758  0.00  0.00     0.241 C 
ATOM      5  O   LEU d   1      -1.624 -14.303   6.089  0.00  0.00    -0.271 OA
ATOM      6  H45 TRP d   1      -3.011 -16.994   5.511  0.00  0.00     0.163 HD
BRANCH   4   7
ATOM      7  CA  LEU d   1      -3.858 -14.620   5.397  0.00  0.00     0.089 C 
ATOM      8  H35 LEU d   1      -3.791 -13.587   5.024  0.00  0.00     0.087 H 
BRANCH   7   9
ATOM      9  N   LEU d   1      -4.516 -15.423   4.413  0.00  0.00    -0.346 N 
ATOM     10  C   ASP d   1      -4.165 -15.456   3.156  0.00  0.00     0.241 C 
ATOM     11  O   ASP d   1      -3.246 -14.843   2.726  0.00  0.00    -0.271 OA
ATOM     12  H34 LEU d   1      -5.287 -15.990   4.704  0.00  0.00     0.163 HD
BRANCH  10  13
ATOM     13  CA  ASP d   1      -5.004 -16.275   2.259  0.00  0.00     0.098 C 
ATOM     14  H31 ASP d   1      -4.475 -16.426   1.306  0.00  0.00     0.088 H 
BRANCH  13  15
ATOM     15  N   ASP d   1      -5.310 -17.545   2.819  0.00  0.00    -0.345 N 
ATOM     16  C   SER d   1      -4.378 -18.437   3.038  0.00  0.00     0.243 C 
ATOM     17  O   SER d   1      -3.203 -18.272   2.748  0.00  0.00    -0.271 OA
ATOM     18  H30 ASP d   1      -6.258 -17.762   3.051  0.00  0.00     0.163 HD
BRANCH  16  19
ATOM     19  CA  SER d   1      -4.790 -19.732   3.694  0.00  0.00     0.109 C 
ATOM     20  H26 SER d   1      -3.878 -20.215   4.075  0.00  0.00     0.090 H 
BRANCH  19  21
ATOM     21  N   SER d   1      -5.689 -19.541   4.827  0.00  0.00    -0.344 N 
ATOM     22  C   PHE d   1      -5.391 -18.795   5.898  0.00  0.00     0.241 C 
ATOM     23  O   PHE d   1      -4.327 -18.156   6.011  0.00  0.00    -0.271 OA
ATOM     24  H25 SER d   1      -6.580 -19.994   4.802  0.00  0.00     0.163 HD
BRANCH  22  25
ATOM     25  CA  PHE d   1      -6.466 -18.728   7.002  0.00  0.00     0.093 C 
ATOM     26  H17 PHE d   1      -6.199 -17.898   7.672  0.00  0.00     0.088 H 
BRANCH  25  27
ATOM     27  N   PHE d   1      -7.775 -18.434   6.458  0.00  0.00    -0.346 N 
ATOM     28  C   THR d   1      -7.974 -17.333   5.719  0.00  0.00     0.243 C 
ATOM     29  O   THR d   1      -7.068 -16.532   5.434  0.00  0.00    -0.271 OA
ATOM     30  H16 PHE d   1      -8.537 -19.057   6.635  0.00  0.00     0.163 HD
BRANCH  28  31
ATOM     31  CA  THR d   1      -9.387 -17.085   5.202  0.00  0.00     0.113 C 
ATOM     32  H10 THR d   1     -10.110 -17.412   5.963  0.00  0.00     0.091 H 
BRANCH  31  33
ATOM     33  N   THR d   1      -9.610 -15.637   4.971  0.00  0.00    -0.344 N 
ATOM     34  C   GLU d   1     -10.277 -14.910   5.872  0.00  0.00     0.249 C 
ATOM     35  O   GLU d   1     -10.815 -15.435   6.864  0.00  0.00    -0.271 OA
ATOM     36  H9  THR d   1      -9.261 -15.204   4.140  0.00  0.00     0.163 HD
BRANCH  34  37
ATOM     37  CA  GLU d   1     -10.428 -13.378   5.616  0.00  0.00     0.176 C 
ATOM     38  H4  GLU d   1      -9.791 -13.119   4.757  0.00  0.00     0.099 H 
BRANCH  37  39
ATOM     39  N   GLU d   1     -11.850 -13.037   5.259  0.00  0.00    -0.066 N 
ATOM     40  H1  GLU d   1     -11.927 -12.045   5.098  0.00  0.00     0.275 HD
ATOM     41  H2  GLU d   1     -12.460 -13.303   6.016  0.00  0.00     0.275 HD
ATOM     42  H3  GLU d   1     -12.115 -13.535   4.424  0.00  0.00     0.275 HD
ENDBRANCH  37  39
BRANCH  37  43
ATOM     43  CB  GLU d   1      -9.949 -12.528   6.832  0.00  0.00    -0.021 C 
ATOM     44  H5  GLU d   1      -9.902 -11.477   6.511  0.00  0.00     0.037 H 
ATOM     45  H6  GLU d   1      -8.941 -12.872   7.108  0.00  0.00     0.037 H 
BRANCH  43  46
ATOM     46  CG  GLU d   1     -10.831 -12.598   8.089  0.00  0.00     0.018 C 
ATOM     47  H7  GLU d   1     -11.316 -13.585   8.114  0.00  0.00     0.049 H 
ATOM     48  H8  GLU d   1     -11.598 -11.813   8.015  0.00  0.00     0.049 H 
BRANCH  46  49
ATOM     49  CD  GLU d   1     -10.075 -12.404   9.405  0.00  0.00     0.172 C 
ATOM     50  OE1 GLU d   1      -9.003 -11.761   9.392  0.00  0.00    -0.648 OA
ATOM     51  OE2 GLU d   1     -10.576 -12.879  10.463  0.00  0.00    -0.648 OA
ENDBRANCH  46  49
ENDBRANCH  43  46
ENDBRANCH  37  43
ENDBRANCH  34  37
ENDBRANCH  31  33
BRANCH  31  52
ATOM     52  CB  THR d   1      -9.565 -17.974   3.958  0.00  0.00     0.060 C 
ATOM     53  H11 THR d   1      -9.405 -19.022   4.253  0.00  0.00     0.086 H 
BRANCH  52  54
ATOM     54  OG1 THR d   1      -8.575 -17.622   2.980  0.00  0.00    -0.393 OA
ATOM     55  H12 THR d   1      -8.681 -16.709   2.738  0.00  0.00     0.210 HD
ENDBRANCH  52  54
BRANCH  52  56
ATOM     56  CG2 THR d   1     -10.964 -17.855   3.396  0.00  0.00    -0.050 C 
ATOM     57  H13 THR d   1     -11.059 -18.500   2.510  0.00  0.00     0.031 H 
ATOM     58  H14 THR d   1     -11.157 -16.810   3.111  0.00  0.00     0.031 H 
ATOM     59  H15 THR d   1     -11.693 -18.168   4.158  0.00  0.00     0.031 H 
ENDBRANCH  52  56
ENDBRANCH  31  52
ENDBRANCH  28  31
ENDBRANCH  25  27
BRANCH  25  60
ATOM     60  CB  PHE d   1      -6.466 -20.000   7.835  0.00  0.00    -0.014 C 
ATOM     61  H18 PHE d   1      -6.857 -20.825   7.222  0.00  0.00     0.043 H 
ATOM     62  H19 PHE d   1      -7.118 -19.852   8.709  0.00  0.00     0.043 H 
BRANCH  60  63
ATOM     63  CG  PHE d   1      -5.107 -20.358   8.308  0.00  0.00    -0.056 A 
ATOM     64  CD1 PHE d   1      -4.545 -19.679   9.382  0.00  0.00    -0.077 A 
ATOM     65  CE1 PHE d   1      -3.274 -19.969   9.803  0.00  0.00    -0.082 A 
ATOM     66  H20 PHE d   1      -5.118 -18.913   9.892  0.00  0.00     0.084 H 
ATOM     67  CZ  PHE d   1      -2.529 -20.897   9.099  0.00  0.00    -0.083 A 
ATOM     68  H22 PHE d   1      -2.858 -19.478  10.675  0.00  0.00     0.083 H 
ATOM     69  CE2 PHE d   1      -3.063 -21.564   7.995  0.00  0.00    -0.082 A 
ATOM     70  H24 PHE d   1      -1.513 -21.110   9.410  0.00  0.00     0.083 H 
ATOM     71  CD2 PHE d   1      -4.346 -21.284   7.616  0.00  0.00    -0.077 A 
ATOM     72  H23 PHE d   1      -2.471 -22.290   7.449  0.00  0.00     0.083 H 
ATOM     73  H21 PHE d   1      -4.774 -21.795   6.761  0.00  0.00     0.084 H 
ENDBRANCH  60  63
ENDBRANCH  25  60
ENDBRANCH  22  25
ENDBRANCH  19  21
BRANCH  19  74
ATOM     74  CB  SER d   1      -5.423 -20.664   2.664  0.00  0.00     0.044 C 
ATOM     75  H27 SER d   1      -4.725 -20.822   1.829  0.00  0.00     0.077 H 
ATOM     76  H28 SER d   1      -6.354 -20.218   2.284  0.00  0.00     0.077 H 
BRANCH  74  77
ATOM     77  OG  SER d   1      -5.708 -21.907   3.290  0.00  0.00    -0.398 OA
ATOM     78  H29 SER d   1      -4.902 -22.287   3.618  0.00  0.00     0.209 HD
ENDBRANCH  74  77
ENDBRANCH  19  74
ENDBRANCH  16  19
ENDBRANCH  13  15
BRANCH  13  79
ATOM     79  CB  ASP d   1      -6.282 -15.511   2.018  0.00  0.00     0.043 C 
ATOM     80  H32 ASP d   1      -6.032 -14.455   1.839  0.00  0.00     0.052 H 
ATOM     81  H33 ASP d   1      -6.914 -15.592   2.914  0.00  0.00     0.052 H 
BRANCH  79  82
ATOM     82  CG  ASP d   1      -7.048 -16.024   0.847  0.00  0.00     0.175 C 
ATOM     83  OD1 ASP d   1      -6.436 -16.536  -0.109  0.00  0.00    -0.648 OA
ATOM     84  OD2 ASP d   1      -8.278 -15.919   0.882  0.00  0.00    -0.648 OA
ENDBRANCH  79  82
ENDBRANCH  13  79
ENDBRANCH  10  13
ENDBRANCH   7   9
BRANCH   7  85
ATOM     85  CB  LEU d   1      -4.715 -14.666   6.632  0.00  0.00    -0.035 C 
ATOM     86  H36 LEU d   1      -4.141 -15.267   7.352  0.00  0.00     0.037 H 
ATOM     87  H37 LEU d   1      -5.617 -15.219   6.330  0.00  0.00     0.037 H 
BRANCH  85  88
ATOM     88  CG  LEU d   1      -5.227 -13.497   7.427  0.00  0.00    -0.059 C 
ATOM     89  H38 LEU d   1      -4.576 -13.332   8.298  0.00  0.00     0.038 H 
BRANCH  88  90
ATOM     90  CD1 LEU d   1      -5.290 -12.275   6.667  0.00  0.00    -0.073 C 
ATOM     91  H39 LEU d   1      -5.671 -11.465   7.306  0.00  0.00     0.028 H 
ATOM     92  H40 LEU d   1      -5.963 -12.412   5.808  0.00  0.00     0.028 H 
ATOM     93  H41 LEU d   1      -4.284 -12.015   6.306  0.00  0.00     0.028 H 
ENDBRANCH  88  90
BRANCH  88  94
ATOM     94  CD2 LEU d   1      -6.538 -13.884   7.859  0.00  0.00    -0.073 C 
ATOM     95  H42 LEU d   1      -6.473 -14.818   8.437  0.00  0.00     0.028 H 
ATOM     96  H43 LEU d   1      -7.182 -14.041   6.981  0.00  0.00     0.028 H 
ATOM     97  H44 LEU d   1      -6.965 -13.091   8.490  0.00  0.00     0.028 H 
ENDBRANCH  88  94
ENDBRANCH  85  88
ENDBRANCH   7  85
ENDBRANCH   4   7
ENDBRANCH   1   3
BRANCH   1  98
ATOM     98  C   TRP d   1       0.021 -16.702   4.905  0.00  0.00     0.241 C 
ATOM     99  O   TRP d   1       1.168 -16.525   5.147  0.00  0.00    -0.271 OA
ATOM    100  N   LYS d   1      -0.455 -16.673   3.683  0.00  0.00    -0.346 N 
ATOM    101  H55 LYS d   1      -1.421 -16.892   3.545  0.00  0.00     0.163 HD
BRANCH 100 102
ATOM    102  CA  LYS d   1       0.350 -16.339   2.520  0.00  0.00     0.089 C 
ATOM    103  H56 LYS d   1       1.237 -16.989   2.549  0.00  0.00     0.087 H 
BRANCH 102 104
ATOM    104  C   LYS d   1       0.874 -14.884   2.523  0.00  0.00     0.241 C 
ATOM    105  O   LYS d   1       1.759 -14.538   1.746  0.00  0.00    -0.271 OA
ATOM    106  N   LEU d   1       0.382 -14.075   3.448  0.00  0.00    -0.346 N 
ATOM    107  H68 LEU d   1      -0.299 -14.427   4.090  0.00  0.00     0.163 HD
BRANCH 106 108
ATOM    108  CA  LEU d   1       0.806 -12.687   3.556  0.00  0.00     0.089 C 
ATOM    109  H69 LEU d   1       1.142 -12.359   2.561  0.00  0.00     0.087 H 
BRANCH 108 110
ATOM    110  C   LEU d   1       1.946 -12.470   4.537  0.00  0.00     0.241 C 
ATOM    111  O   LEU d   1       2.328 -11.341   4.795  0.00  0.00    -0.271 OA
ATOM    112  N   LEU d   1       2.481 -13.546   5.092  0.00  0.00    -0.346 N 
ATOM    113  H79 LEU d   1       2.191 -14.453   4.785  0.00  0.00     0.163 HD
BRANCH 112 114
ATOM    114  CA  LEU d   1       3.482 -13.434   6.139  0.00  0.00     0.090 C 
ATOM    115  H80 LEU d   1       3.103 -12.710   6.876  0.00  0.00     0.087 H 
BRANCH 114 116
ATOM    116  C   LEU d   1       4.827 -12.913   5.646  0.00  0.00     0.243 C 
ATOM    117  O   LEU d   1       5.324 -11.900   6.135  0.00  0.00    -0.271 OA
ATOM    118  N   PRO d   1       5.419 -13.608   4.685  0.00  0.00    -0.336 N 
ATOM    119  CA  PRO d   1       6.732 -13.213   4.172  0.00  0.00     0.098 C 
ATOM    120  CD  PRO d   1       4.963 -14.880   4.101  0.00  0.00    -0.001 C 
ATOM    121  CB  PRO d   1       6.946 -14.175   3.011  0.00  0.00    -0.035 C 
ATOM    122  H90 PRO d   1       7.508 -13.341   4.941  0.00  0.00     0.089 H 
ATOM    123  CG  PRO d   1       6.176 -15.383   3.394  0.00  0.00    -0.048 C 
ATOM    124  H91 PRO d   1       8.013 -14.414   2.893  0.00  0.00     0.036 H 
ATOM    125  H92 PRO d   1       6.561 -13.747   2.074  0.00  0.00     0.036 H 
ATOM    126  H93 PRO d   1       6.772 -16.022   4.062  0.00  0.00     0.035 H 
ATOM    127  H94 PRO d   1       5.889 -15.955   2.499  0.00  0.00     0.035 H 
ATOM    128  H95 PRO d   1       4.135 -14.716   3.396  0.00  0.00     0.064 H 
ATOM    129  H96 PRO d   1       4.644 -15.582   4.885  0.00  0.00     0.064 H 
BRANCH 119 130
ATOM    130  C   PRO d   1       6.740 -11.772   3.681  0.00  0.00     0.196 C 
ATOM    131  O   PRO d   1       6.556 -10.844   4.513  0.00  0.00    -0.646 OA
ATOM    132  O   PRO d   1       6.928 -11.511   2.463  0.00  0.00    -0.646 OA
ENDBRANCH 119 130
ENDBRANCH 114 116
BRANCH 114 133
ATOM    133  CB  LEU d   1       3.661 -14.772   6.847  0.00  0.00    -0.035 C 
ATOM    134  H81 LEU d   1       4.736 -15.001   6.881  0.00  0.00     0.037 H 
ATOM    135  H82 LEU d   1       3.140 -15.543   6.261  0.00  0.00     0.037 H 
BRANCH 133 136
ATOM    136  CG  LEU d   1       3.121 -14.812   8.272  0.00  0.00    -0.059 C 
ATOM    137  H83 LEU d   1       3.486 -13.928   8.815  0.00  0.00     0.038 H 
BRANCH 136 138
ATOM    138  CD1 LEU d   1       1.622 -14.781   8.246  0.00  0.00    -0.073 C 
ATOM    139  H84 LEU d   1       1.237 -14.810   9.276  0.00  0.00     0.028 H 
ATOM    140  H85 LEU d   1       1.247 -15.652   7.689  0.00  0.00     0.028 H 
ATOM    141  H86 LEU d   1       1.283 -13.858   7.754  0.00  0.00     0.028 H 
ENDBRANCH 136 138
BRANCH 136 142
ATOM    142  CD2 LEU d   1       3.597 -16.037   8.976  0.00  0.00    -0.073 C 
ATOM    143  H87 LEU d   1       4.697 -16.049   8.989  0.00  0.00     0.028 H 
ATOM    144  H88 LEU d   1       3.227 -16.929   8.450  0.00  0.00     0.028 H 
ATOM    145  H89 LEU d   1       3.218 -16.037  10.009  0.00  0.00     0.028 H 
ENDBRANCH 136 142
ENDBRANCH 133 136
ENDBRANCH 114 133
ENDBRANCH 112 114
ENDBRANCH 108 110
BRANCH 108 146
ATOM    146  CB  LEU d   1      -0.364 -11.818   3.993  0.00  0.00    -0.035 C 
ATOM    147  H70 LEU d   1       0.043 -10.848   4.314  0.00  0.00     0.037 H 
ATOM    148  H71 LEU d   1      -0.847 -12.314   4.848  0.00  0.00     0.037 H 
BRANCH 146 149
ATOM    149  CG  LEU d   1      -1.436 -11.547   2.951  0.00  0.00    -0.059 C 
ATOM    150  H72 LEU d   1      -1.739 -12.499   2.490  0.00  0.00     0.038 H 
BRANCH 149 151
ATOM    151  CD1 LEU d   1      -2.635 -10.924   3.618  0.00  0.00    -0.073 C 
ATOM    152  H73 LEU d   1      -3.412 -10.727   2.865  0.00  0.00     0.028 H 
ATOM    153  H74 LEU d   1      -2.339  -9.978   4.095  0.00  0.00     0.028 H 
ATOM    154  H75 LEU d   1      -3.029 -11.612   4.380  0.00  0.00     0.028 H 
ENDBRANCH 149 151
BRANCH 149 155
ATOM    155  CD2 LEU d   1      -0.886 -10.642   1.880  0.00  0.00    -0.073 C 
ATOM    156  H76 LEU d   1      -0.013 -11.119   1.410  0.00  0.00     0.028 H 
ATOM    157  H77 LEU d   1      -0.583  -9.685   2.329  0.00  0.00     0.028 H 
ATOM    158  H78 LEU d   1      -1.660 -10.462   1.119  0.00  0.00     0.028 H 
ENDBRANCH 149 155
ENDBRANCH 146 149
ENDBRANCH 108 146
ENDBRANCH 106 108
ENDBRANCH 102 104
BRANCH 102 159
ATOM    159  CB  LYS d   1      -0.415 -16.677   1.235  0.00  0.00    -0.038 C 
ATOM    160  H57 LYS d   1       0.075 -16.167   0.393  0.00  0.00     0.036 H 
ATOM    161  H58 LYS d   1      -1.447 -16.309   1.336  0.00  0.00     0.036 H 
BRANCH 159 162
ATOM    162  CG  LYS d   1      -0.462 -18.169   0.934  0.00  0.00    -0.061 C 
ATOM    163  H59 LYS d   1      -0.779 -18.704   1.842  0.00  0.00     0.033 H 
ATOM    164  H60 LYS d   1       0.545 -18.504   0.644  0.00  0.00     0.033 H 
BRANCH 162 165
ATOM    165  CD  LYS d   1      -1.439 -18.501  -0.201  0.00  0.00    -0.043 C 
ATOM    166  H61 LYS d   1      -1.024 -18.106  -1.140  0.00  0.00     0.035 H 
ATOM    167  H62 LYS d   1      -2.398 -18.006   0.013  0.00  0.00     0.035 H 
BRANCH 165 168
ATOM    168  CE  LYS d   1      -1.702 -20.000  -0.384  0.00  0.00     0.080 C 
ATOM    169  H63 LYS d   1      -0.749 -20.497  -0.617  0.00  0.00     0.075 H 
ATOM    170  H64 LYS d   1      -2.399 -20.133  -1.224  0.00  0.00     0.075 H 
BRANCH 168 171
ATOM    171  NZ  LYS d   1      -2.292 -20.647   0.832  0.00  0.00    -0.079 N 
ATOM    172  H65 LYS d   1      -2.442 -21.627   0.652  0.00  0.00     0.274 HD
ATOM    173  H66 LYS d   1      -3.172 -20.208   1.053  0.00  0.00     0.274 HD
ATOM    174  H67 LYS d   1      -1.659 -20.541   1.609  0.00  0.00     0.274 HD
ENDBRANCH 168 171
ENDBRANCH 165 168
ENDBRANCH 162 165
ENDBRANCH 159 162
ENDBRANCH 102 159
ENDBRANCH 100 102
ENDBRANCH   1  98
BRANCH   1 175
ATOM    175  CB  TRP d   1      -1.095 -18.484   6.215  0.00  0.00    -0.012 C 
ATOM    176  H47 TRP d   1      -1.343 -18.943   5.247  0.00  0.00     0.044 H 
ATOM    177  H48 TRP d   1      -1.917 -18.659   6.925  0.00  0.00     0.044 H 
BRANCH 175 178
ATOM    178  CG  TRP d   1       0.120 -19.143   6.742  0.00  0.00    -0.028 A 
ATOM    179  CD1 TRP d   1       1.008 -19.854   6.051  0.00  0.00    -0.015 A 
ATOM    180  NE1 TRP d   1       1.995 -20.295   6.858  0.00  0.00    -0.365 N 
ATOM    181  H49 TRP d   1       0.946 -20.052   4.982  0.00  0.00     0.112 H 
ATOM    182  CE2 TRP d   1       1.750 -19.867   8.124  0.00  0.00     0.042 A 
ATOM    183  H50 TRP d   1       2.802 -20.863   6.563  0.00  0.00     0.165 HD
ATOM    184  CD2 TRP d   1       0.571 -19.145   8.087  0.00  0.00    -0.002 A 
ATOM    185  CZ2 TRP d   1       2.447 -20.069   9.279  0.00  0.00    -0.056 A 
ATOM    186  CE3 TRP d   1       0.093 -18.595   9.260  0.00  0.00    -0.070 A 
ATOM    187  CZ3 TRP d   1       0.787 -18.795  10.389  0.00  0.00    -0.082 A 
ATOM    188  H51 TRP d   1      -0.823 -18.015   9.268  0.00  0.00     0.084 H 
ATOM    189  CH2 TRP d   1       1.947 -19.522  10.400  0.00  0.00    -0.081 A 
ATOM    190  H53 TRP d   1       0.421 -18.370  11.317  0.00  0.00     0.083 H 
ATOM    191  H54 TRP d   1       2.475 -19.660  11.336  0.00  0.00     0.083 H 
ATOM    192  H52 TRP d   1       3.365 -20.646   9.292  0.00  0.00     0.086 H 
ENDBRANCH 175 178
ENDBRANCH   1 175
TORSDOF 52
