REMARK  9 active torsions:
REMARK  status: ('A' for Active; 'I' for Inactive)
REMARK       I    between atoms: C25_2  and  N2_3 
REMARK       I    between atoms: C25_2  and  N1_10 
REMARK    1  A    between atoms: C10_11  and  C9_12 
REMARK    2  A    between atoms: C5_15  and  O1_16 
REMARK    3  A    between atoms: O1_16  and  C6_17 
REMARK    4  A    between atoms: C6_17  and  C8_18 
REMARK    5  A    between atoms: C6_17  and  C7_19 
REMARK    6  A    between atoms: C1_21  and  O_22 
REMARK    7  A    between atoms: O_22  and  C_23 
REMARK    8  A    between atoms: C18_24  and  C19_25 
REMARK    9  A    between atoms: C11_32  and  C12_34 
ROOT
ATOM      1  O3  NUT d   1     -23.667   5.839 -16.568  0.00  0.00    -0.247 OA
ATOM      2  C25 NUT d   1     -23.015   6.538 -15.757  0.00  0.00     0.327 C 
ATOM      3  N2  NUT d   1     -21.695   6.402 -15.710  0.00  0.00    -0.324 N 
ATOM      4  C29 NUT d   1     -21.006   5.564 -16.697  0.00  0.00     0.073 C 
ATOM      5  C28 NUT d   1     -19.624   6.037 -17.066  0.00  0.00     0.235 C 
ATOM      6  O2  NUT d   1     -19.027   5.438 -17.957  0.00  0.00    -0.272 OA
ATOM      7  N3  NUT d   1     -19.096   7.088 -16.423  0.00  0.00    -0.358 N 
ATOM      8  C27 NUT d   1     -19.765   7.777 -15.316  0.00  0.00     0.010 C 
ATOM      9  C26 NUT d   1     -20.851   6.955 -14.647  0.00  0.00     0.014 C 
ATOM     10  N1  NUT d   1     -23.728   7.387 -14.970  0.00  0.00    -0.272 N 
ATOM     11  C10 NUT d   1     -25.032   7.173 -14.710  0.00  0.00     0.143 C 
ATOM     12  C18 NUT d   1     -23.330   8.774 -14.740  0.00  0.00     0.074 C 
ATOM     13  C11 NUT d   1     -24.792   9.367 -15.038  0.00  0.00     0.084 C 
ATOM     14  N   NUT d   1     -25.707   8.251 -14.709  0.00  0.00    -0.259 NA
ATOM     15  H1  NUT d   1     -21.616   5.540 -17.612  0.00  0.00     0.079 H 
ATOM     16  H2  NUT d   1     -20.922   4.548 -16.285  0.00  0.00     0.079 H 
ATOM     17  H3  NUT d   1     -18.198   7.419 -16.714  0.00  0.00     0.162 HD
ATOM     18  H4  NUT d   1     -20.220   8.699 -15.706  0.00  0.00     0.066 H 
ATOM     19  H5  NUT d   1     -19.009   8.033 -14.559  0.00  0.00     0.066 H 
ATOM     20  H6  NUT d   1     -20.400   6.140 -14.062  0.00  0.00     0.067 H 
ATOM     21  H7  NUT d   1     -21.452   7.594 -13.983  0.00  0.00     0.067 H 
ATOM     22  H21 NUT d   1     -22.569   9.090 -15.468  0.00  0.00     0.085 H 
ATOM     23  H26 NUT d   1     -24.858   9.593 -16.113  0.00  0.00     0.087 H 
ENDROOT
BRANCH  11  24
ATOM     24  C9  NUT d   1     -25.716   5.849 -14.559  0.00  0.00     0.043 A 
ATOM     25  C3  NUT d   1     -27.003   5.643 -15.033  0.00  0.00    -0.064 A 
ATOM     26  C2  NUT d   1     -27.636   4.390 -14.872  0.00  0.00    -0.050 A 
ATOM     27  H8  NUT d   1     -27.528   6.450 -15.531  0.00  0.00     0.085 H 
ATOM     28  C1  NUT d   1     -26.973   3.348 -14.207  0.00  0.00     0.070 A 
ATOM     29  H9  NUT d   1     -28.635   4.234 -15.263  0.00  0.00     0.087 H 
ATOM     30  C4  NUT d   1     -25.678   3.512 -13.732  0.00  0.00    -0.018 A 
ATOM     31  C5  NUT d   1     -25.021   4.742 -13.878  0.00  0.00     0.086 A 
ATOM     32  H17 NUT d   1     -25.173   2.685 -13.246  0.00  0.00     0.092 H 
BRANCH  28  33
ATOM     33  O   NUT d   1     -27.557   2.127 -14.022  0.00  0.00    -0.356 OA
BRANCH  33  34
ATOM     34  C   NUT d   1     -28.863   1.822 -14.540  0.00  0.00     0.010 C 
ATOM     35  H18 NUT d   1     -29.131   0.789 -14.274  0.00  0.00     0.066 H 
ATOM     36  H19 NUT d   1     -28.857   1.929 -15.635  0.00  0.00     0.066 H 
ATOM     37  H20 NUT d   1     -29.600   2.515 -14.108  0.00  0.00     0.066 H 
ENDBRANCH  33  34
ENDBRANCH  28  33
BRANCH  31  38
ATOM     38  O1  NUT d   1     -23.751   4.950 -13.415  0.00  0.00    -0.346 OA
BRANCH  38  39
ATOM     39  C6  NUT d   1     -23.077   3.927 -12.640  0.00  0.00     0.038 C 
ATOM     40  H10 NUT d   1     -23.818   3.406 -12.016  0.00  0.00     0.082 H 
BRANCH  39  41
ATOM     41  C8  NUT d   1     -22.445   2.900 -13.586  0.00  0.00    -0.052 C 
ATOM     42  H11 NUT d   1     -21.934   2.124 -12.997  0.00  0.00     0.030 H 
ATOM     43  H12 NUT d   1     -21.717   3.403 -14.240  0.00  0.00     0.030 H 
ATOM     44  H13 NUT d   1     -23.230   2.436 -14.200  0.00  0.00     0.030 H 
ENDBRANCH  39  41
BRANCH  39  45
ATOM     45  C7  NUT d   1     -22.063   4.596 -11.718  0.00  0.00    -0.052 C 
ATOM     46  H14 NUT d   1     -21.545   3.828 -11.124  0.00  0.00     0.030 H 
ATOM     47  H15 NUT d   1     -22.584   5.292 -11.043  0.00  0.00     0.030 H 
ATOM     48  H16 NUT d   1     -21.329   5.150 -12.321  0.00  0.00     0.030 H 
ENDBRANCH  39  45
ENDBRANCH  38  39
ENDBRANCH  31  38
ENDBRANCH  11  24
BRANCH  12  49
ATOM     49  C19 NUT d   1     -22.897   9.233 -13.374  0.00  0.00    -0.032 A 
ATOM     50  C24 NUT d   1     -22.198  10.451 -13.326  0.00  0.00    -0.073 A 
ATOM     51  C23 NUT d   1     -21.867  10.994 -12.087  0.00  0.00    -0.061 A 
ATOM     52  H22 NUT d   1     -21.920  10.961 -14.241  0.00  0.00     0.084 H 
ATOM     53  C22 NUT d   1     -22.260  10.321 -10.942  0.00  0.00     0.034 A 
ATOM     54  H23 NUT d   1     -21.314  11.924 -12.020  0.00  0.00     0.086 H 
ATOM     55 CL1  NUT d   1     -21.928  11.079  -9.376  0.00  0.00    -0.084 Cl
ATOM     56  C21 NUT d   1     -22.988   9.123 -10.942  0.00  0.00    -0.061 A 
ATOM     57  C20 NUT d   1     -23.300   8.579 -12.190  0.00  0.00    -0.073 A 
ATOM     58  H24 NUT d   1     -23.294   8.643 -10.019  0.00  0.00     0.086 H 
ATOM     59  H25 NUT d   1     -23.855   7.649 -12.249  0.00  0.00     0.084 H 
ENDBRANCH  12  49
BRANCH  13  60
ATOM     60  C12 NUT d   1     -25.194  10.617 -14.301  0.00  0.00    -0.031 A 
ATOM     61  C17 NUT d   1     -24.980  11.874 -14.865  0.00  0.00    -0.073 A 
ATOM     62  C16 NUT d   1     -25.355  13.035 -14.145  0.00  0.00    -0.061 A 
ATOM     63  H27 NUT d   1     -24.530  11.962 -15.847  0.00  0.00     0.084 H 
ATOM     64  C15 NUT d   1     -25.935  12.921 -12.864  0.00  0.00     0.034 A 
ATOM     65  H28 NUT d   1     -25.196  14.015 -14.580  0.00  0.00     0.086 H 
ATOM     66 CL   NUT d   1     -26.417  14.360 -11.915  0.00  0.00    -0.084 Cl
ATOM     67  C14 NUT d   1     -26.156  11.677 -12.254  0.00  0.00    -0.061 A 
ATOM     68  C13 NUT d   1     -25.791  10.528 -13.019  0.00  0.00    -0.073 A 
ATOM     69  H29 NUT d   1     -26.579  11.593 -11.260  0.00  0.00     0.086 H 
ATOM     70  H30 NUT d   1     -25.979   9.546 -12.601  0.00  0.00     0.084 H 
ENDBRANCH  13  60
TORSDOF 9
