REMARK  32 active torsions:
REMARK  status: ('A' for Active; 'I' for Inactive)
REMARK    1  A    between atoms: N_1  and  CA_2 
REMARK    2  A    between atoms: CA_2  and  C_3 
REMARK       I    between atoms: C_3  and  N_5 
REMARK    3  A    between atoms: N_5  and  CA_6 
REMARK    4  A    between atoms: CA_6  and  C_7 
REMARK    5  A    between atoms: CA_6  and  CB_9 
REMARK       I    between atoms: C_7  and  N_16 
REMARK    6  A    between atoms: CB_9  and  CG_10 
REMARK    7  A    between atoms: CG_10  and  CD_11 
REMARK    8  A    between atoms: CD_11  and  NE_12 
REMARK       I    between atoms: NE_12  and  CZ_13 
REMARK       I    between atoms: CZ_13  and  NH1_14 
REMARK    9  A    between atoms: N_16  and  CA_17 
REMARK   10  A    between atoms: CA_23  and  CB_26 
REMARK   11  A    between atoms: CB_26  and  OG1_27 
REMARK   12  A    between atoms: CB_26  and  CG2_28 
REMARK   13  A    between atoms: N_29  and  CB_30 
REMARK   14  A    between atoms: CB_30  and  CG_31 
REMARK   15  A    between atoms: CG_31  and  CD_32 
REMARK   16  A    between atoms: CD_32  and  CE_33 
REMARK   17  A    between atoms: CE_33  and  NZ_34 
REMARK   18  A    between atoms: CA_39  and  CB_42 
REMARK   19  A    between atoms: CB_42  and  OG_43 
REMARK   20  A    between atoms: CA_45  and  CB_48 
REMARK   21  A    between atoms: CB_48  and  CG1_49 
REMARK   22  A    between atoms: CB_48  and  CG2_50 
REMARK   23  A    between atoms: CG1_49  and  CD1_51 
REMARK   24  A    between atoms: CA_67  and  CB_70 
REMARK   25  A    between atoms: CB_70  and  CG1_71 
REMARK   26  A    between atoms: CB_70  and  CG2_72 
REMARK   27  A    between atoms: CG1_71  and  CD1_73 
REMARK   28  A    between atoms: CA_75  and  C_76 
REMARK       I    between atoms: C_76  and  N_80 
REMARK   29  A    between atoms: N_80  and  CA_81 
REMARK   30  A    between atoms: CA_81  and  C_82 
REMARK   31  A    between atoms: CA_81  and  CB_84 
REMARK   32  A    between atoms: CB_84  and  CG_85 
ROOT
ATOM      1  CA  CYS d   1      19.781  -8.280  12.596  0.00  0.00     0.098 C 
ATOM      2  C   CYS d   1      18.633  -7.439  12.052  0.00  0.00     0.242 C 
ATOM      3  O   CYS d   1      18.591  -7.032  10.911  0.00  0.00    -0.271 OA
ATOM      4  CB  CYS d   1      20.757  -7.318  13.308  0.00  0.00     0.013 C 
ATOM      5  SG  CYS d   1      22.262  -7.967  14.101  0.00  0.00    -0.095 SA
ATOM      6  N   CYS d   1      19.289  -9.631  16.835  0.00  0.00    -0.345 N 
ATOM      7  CA  CYS d   1      20.241 -10.248  15.933  0.00  0.00     0.098 C 
ATOM      8  CB  CYS d   1      21.604  -9.696  16.135  0.00  0.00     0.013 C 
ATOM      9  SG  CYS d   1      21.854  -7.956  16.073  0.00  0.00    -0.095 SA
ATOM     10  H20 CYS d   1      19.386  -9.009  13.319  0.00  0.00     0.088 H 
ATOM     11  H21 CYS d   1      20.181  -6.805  14.092  0.00  0.00     0.053 H 
ATOM     12  H22 CYS d   1      21.085  -6.585  12.556  0.00  0.00     0.053 H 
ATOM     13  H84 CYS d   1      19.394  -9.736  17.824  0.00  0.00     0.163 HD
ATOM     14  H85 CYS d   1      19.924 -10.036  14.901  0.00  0.00     0.088 H 
ATOM     15  H86 CYS d   1      22.246 -10.139  15.360  0.00  0.00     0.053 H 
ATOM     16  H87 CYS d   1      21.941 -10.032  17.127  0.00  0.00     0.053 H 
ATOM     17  N   THR d   1      17.702  -7.116  12.938  0.00  0.00    -0.344 N 
ATOM     18  CA  THR d   1      16.631  -6.188  12.631  0.00  0.00     0.114 C 
ATOM     19  C   THR d   1      17.172  -4.781  13.010  0.00  0.00     0.245 C 
ATOM     20  O   THR d   1      17.854  -4.572  14.037  0.00  0.00    -0.271 OA
ATOM     21  H23 THR d   1      17.739  -7.526  13.849  0.00  0.00     0.163 HD
ATOM     22  H24 THR d   1      16.378  -6.233  11.562  0.00  0.00     0.091 H 
ATOM     23  N   NLY d   1      16.664  -3.676  12.292  0.00  0.00    -0.342 N 
ATOM     24  CA  NLY d   1      16.983  -2.337  12.746  0.00  0.00     0.071 C 
ATOM     25  C2  NLY d   1      16.032  -1.812  13.795  0.00  0.00     0.236 C 
ATOM     26  O   NLY d   1      15.462  -0.720  13.642  0.00  0.00    -0.272 OA
ATOM     27  H41 NLY d   1      16.953  -1.660  11.880  0.00  0.00     0.079 H 
ATOM     28  H42 NLY d   1      17.998  -2.346  13.170  0.00  0.00     0.079 H 
ATOM     29  N   SER d   1      15.850  -2.586  14.923  0.00  0.00    -0.344 N 
ATOM     30  CA  SER d   1      15.078  -2.054  16.004  0.00  0.00     0.109 C 
ATOM     31  C   SER d   1      15.984  -1.486  17.078  0.00  0.00     0.243 C 
ATOM     32  O   SER d   1      17.216  -1.629  17.003  0.00  0.00    -0.271 OA
ATOM     33  H43 SER d   1      16.250  -3.501  14.984  0.00  0.00     0.163 HD
ATOM     34  H44 SER d   1      14.445  -1.237  15.628  0.00  0.00     0.090 H 
ATOM     35  N   ILE d   1      15.402  -0.795  18.057  0.00  0.00    -0.346 N 
ATOM     36  CA  ILE d   1      16.192  -0.269  19.216  0.00  0.00     0.092 C 
ATOM     37  C   ILE d   1      15.706  -0.993  20.428  0.00  0.00     0.243 C 
ATOM     38  O   ILE d   1      14.589  -0.730  20.897  0.00  0.00    -0.271 OA
ATOM     39  N   ILE d   1      17.583  -6.801  17.073  0.00  0.00    -0.346 N 
ATOM     40  CA  ILE d   1      17.393  -8.226  17.344  0.00  0.00     0.092 C 
ATOM     41  C   ILE d   1      18.276  -8.926  16.343  0.00  0.00     0.241 C 
ATOM     42  O   ILE d   1      18.064  -8.821  15.104  0.00  0.00    -0.271 OA
ATOM     43  H48 ILE d   1      14.418  -0.624  18.017  0.00  0.00     0.163 HD
ATOM     44  H49 ILE d   1      17.253  -0.512  19.056  0.00  0.00     0.088 H 
ATOM     45  H73 ILE d   1      17.197  -6.398  16.243  0.00  0.00     0.163 HD
ATOM     46  H74 ILE d   1      17.728  -8.449  18.368  0.00  0.00     0.088 H 
ATOM     47  N   PRO d   1      16.490  -1.972  20.916  0.00  0.00    -0.337 N 
ATOM     48  CA  PRO d   1      17.759  -2.500  20.439  0.00  0.00     0.092 C 
ATOM     49  C   PRO d   1      17.580  -3.455  19.257  0.00  0.00     0.243 C 
ATOM     50  O   PRO d   1      16.469  -4.071  19.055  0.00  0.00    -0.271 OA
ATOM     51  CB  PRO d   1      18.338  -3.216  21.663  0.00  0.00    -0.036 C 
ATOM     52  CG  PRO d   1      17.151  -3.562  22.491  0.00  0.00    -0.048 C 
ATOM     53  CD  PRO d   1      16.044  -2.617  22.152  0.00  0.00    -0.001 C 
ATOM     54  N   PRO d   1      18.652  -3.621  18.466  0.00  0.00    -0.337 N 
ATOM     55  CA  PRO d   1      18.541  -4.614  17.427  0.00  0.00     0.091 C 
ATOM     56  C   PRO d   1      18.263  -6.038  17.920  0.00  0.00     0.241 C 
ATOM     57  O   PRO d   1      18.702  -6.446  19.035  0.00  0.00    -0.271 OA
ATOM     58  CB  PRO d   1      19.916  -4.602  16.752  0.00  0.00    -0.036 C 
ATOM     59  CG  PRO d   1      20.629  -3.405  17.224  0.00  0.00    -0.048 C 
ATOM     60  CD  PRO d   1      19.994  -3.006  18.525  0.00  0.00    -0.001 C 
ATOM     61  H59 PRO d   1      18.421  -1.677  20.130  0.00  0.00     0.087 H 
ATOM     62  H60 PRO d   1      19.017  -2.551  22.217  0.00  0.00     0.036 H 
ATOM     63  H61 PRO d   1      18.879  -4.125  21.361  0.00  0.00     0.036 H 
ATOM     64  H62 PRO d   1      17.403  -3.470  23.558  0.00  0.00     0.035 H 
ATOM     65  H63 PRO d   1      16.837  -4.594  22.276  0.00  0.00     0.035 H 
ATOM     66  H64 PRO d   1      15.102  -3.161  21.990  0.00  0.00     0.064 H 
ATOM     67  H65 PRO d   1      15.906  -1.875  22.952  0.00  0.00     0.064 H 
ATOM     68  H66 PRO d   1      17.751  -4.322  16.720  0.00  0.00     0.087 H 
ATOM     69  H67 PRO d   1      19.798  -4.562  15.659  0.00  0.00     0.036 H 
ATOM     70  H68 PRO d   1      20.478  -5.507  17.027  0.00  0.00     0.036 H 
ATOM     71  H69 PRO d   1      20.531  -2.592  16.490  0.00  0.00     0.035 H 
ATOM     72  H70 PRO d   1      21.694  -3.634  17.377  0.00  0.00     0.035 H 
ATOM     73  H71 PRO d   1      20.568  -3.398  19.378  0.00  0.00     0.064 H 
ATOM     74  H72 PRO d   1      19.920  -1.911  18.605  0.00  0.00     0.064 H 
ENDROOT
BRANCH   1  75
ATOM     75  N   CYS d   1      20.480  -9.001  11.537  0.00  0.00    -0.345 N 
ATOM     76  C   ARG d   1      20.936 -10.214  11.718  0.00  0.00     0.241 C 
ATOM     77  O   ARG d   1      20.723 -10.807  12.789  0.00  0.00    -0.271 OA
ATOM     78  H19 CYS d   1      20.614  -8.557  10.651  0.00  0.00     0.163 HD
BRANCH  76  79
ATOM     79  CA  ARG d   1      21.807 -10.805  10.564  0.00  0.00     0.089 C 
ATOM     80  H7  ARG d   1      21.748 -10.111   9.713  0.00  0.00     0.087 H 
BRANCH  79  81
ATOM     81  N   ARG d   1      23.224 -10.887  10.988  0.00  0.00    -0.346 N 
ATOM     82  C   GLY d   1      23.960  -9.769  11.115  0.00  0.00     0.243 C 
ATOM     83  O   GLY d   1      23.545  -8.619  10.830  0.00  0.00    -0.272 OA
ATOM     84  H6  ARG d   1      23.635 -11.778  11.181  0.00  0.00     0.163 HD
BRANCH  82  85
ATOM     85  CA  GLY d   1      25.347  -9.945  11.686  0.00  0.00     0.152 C 
ATOM     86  H4  GLY d   1      25.263 -10.324  12.715  0.00  0.00     0.090 H 
ATOM     87  H5  GLY d   1      25.895 -10.673  11.071  0.00  0.00     0.090 H 
BRANCH  85  88
ATOM     88  N   GLY d   1      26.106  -8.660  11.705  0.00  0.00    -0.071 N 
ATOM     89  H1  GLY d   1      27.024  -8.818  12.091  0.00  0.00     0.274 HD
ATOM     90  H2  GLY d   1      25.614  -7.987  12.272  0.00  0.00     0.274 HD
ATOM     91  H3  GLY d   1      26.193  -8.307  10.765  0.00  0.00     0.274 HD
ENDBRANCH  85  88
ENDBRANCH  82  85
ENDBRANCH  79  81
BRANCH  79  92
ATOM     92  CB  ARG d   1      21.301 -12.148  10.088  0.00  0.00    -0.036 C 
ATOM     93  H8  ARG d   1      21.619 -12.914  10.810  0.00  0.00     0.036 H 
ATOM     94  H9  ARG d   1      21.750 -12.360   9.106  0.00  0.00     0.036 H 
BRANCH  92  95
ATOM     95  CG  ARG d   1      19.800 -12.219   9.950  0.00  0.00    -0.048 C 
ATOM     96  H10 ARG d   1      19.454 -11.358   9.359  0.00  0.00     0.035 H 
ATOM     97  H11 ARG d   1      19.347 -12.182  10.952  0.00  0.00     0.035 H 
BRANCH  95  98
ATOM     98  CD  ARG d   1      19.362 -13.506   9.254  0.00  0.00     0.009 C 
ATOM     99  H12 ARG d   1      20.247 -14.118   9.024  0.00  0.00     0.064 H 
ATOM    100  H13 ARG d   1      18.835 -13.257   8.321  0.00  0.00     0.064 H 
BRANCH  98 101
ATOM    101  NE  ARG d   1      18.469 -14.254  10.132  0.00  0.00    -0.227 N 
ATOM    102  CZ  ARG d   1      17.136 -14.161  10.160  0.00  0.00     0.665 C 
ATOM    103  NH1 ARG d   1      16.447 -13.378   9.328  0.00  0.00    -0.235 N 
ATOM    104  NH2 ARG d   1      16.489 -14.887  11.033  0.00  0.00    -0.235 N 
ATOM    105  H15 ARG d   1      15.419 -13.340   9.389  0.00  0.00     0.174 HD
ATOM    106  H16 ARG d   1      16.943 -12.811   8.625  0.00  0.00     0.174 HD
ATOM    107  H17 ARG d   1      17.008 -15.496  11.682  0.00  0.00     0.174 HD
ATOM    108  H18 ARG d   1      15.460 -14.850  11.072  0.00  0.00     0.174 HD
ATOM    109  H14 ARG d   1      18.906 -14.914  10.791  0.00  0.00     0.177 HD
ENDBRANCH  98 101
ENDBRANCH  95  98
ENDBRANCH  92  95
ENDBRANCH  79  92
ENDBRANCH  76  79
ENDBRANCH   1  75
BRANCH  18 110
ATOM    110  CB  THR d   1      15.375  -6.504  13.480  0.00  0.00     0.060 C 
ATOM    111  H25 THR d   1      14.604  -5.756  13.243  0.00  0.00     0.086 H 
BRANCH 110 112
ATOM    112  OG1 THR d   1      15.705  -6.396  14.865  0.00  0.00    -0.393 OA
ATOM    113  H26 THR d   1      16.002  -5.513  15.051  0.00  0.00     0.210 HD
ENDBRANCH 110 112
BRANCH 110 114
ATOM    114  CG2 THR d   1      14.800  -7.882  13.184  0.00  0.00    -0.050 C 
ATOM    115  H27 THR d   1      13.914  -8.052  13.813  0.00  0.00     0.031 H 
ATOM    116  H28 THR d   1      15.557  -8.650  13.402  0.00  0.00     0.031 H 
ATOM    117  H29 THR d   1      14.514  -7.940  12.123  0.00  0.00     0.031 H 
ENDBRANCH 110 114
ENDBRANCH  18 110
BRANCH  23 118
ATOM    118  CB  NLY d   1      16.081  -3.815  10.960  0.00  0.00    -0.002 C 
ATOM    119  H30 NLY d   1      15.430  -2.959  10.728  0.00  0.00     0.064 H 
ATOM    120  H31 NLY d   1      15.502  -4.747  10.883  0.00  0.00     0.064 H 
BRANCH 118 121
ATOM    121  CG  NLY d   1      17.291  -3.848  10.019  0.00  0.00    -0.049 C 
ATOM    122  H32 NLY d   1      17.618  -4.894   9.926  0.00  0.00     0.035 H 
ATOM    123  H33 NLY d   1      18.093  -3.252  10.479  0.00  0.00     0.035 H 
BRANCH 121 124
ATOM    124  CD  NLY d   1      17.065  -3.336   8.694  0.00  0.00    -0.041 C 
ATOM    125  H34 NLY d   1      16.797  -2.271   8.754  0.00  0.00     0.035 H 
ATOM    126  H35 NLY d   1      16.244  -3.895   8.221  0.00  0.00     0.035 H 
BRANCH 124 127
ATOM    127  CE  NLY d   1      18.340  -3.495   7.857  0.00  0.00     0.080 C 
ATOM    128  H36 NLY d   1      18.657  -4.548   7.860  0.00  0.00     0.075 H 
ATOM    129  H37 NLY d   1      19.141  -2.870   8.278  0.00  0.00     0.075 H 
BRANCH 127 130
ATOM    130  NZ  NLY d   1      18.056  -3.078   6.511  0.00  0.00    -0.079 N 
ATOM    131  H38 NLY d   1      18.885  -3.176   5.947  0.00  0.00     0.274 HD
ATOM    132  H39 NLY d   1      17.763  -2.113   6.513  0.00  0.00     0.274 HD
ATOM    133  H40 NLY d   1      17.320  -3.652   6.130  0.00  0.00     0.274 HD
ENDBRANCH 127 130
ENDBRANCH 124 127
ENDBRANCH 121 124
ENDBRANCH 118 121
ENDBRANCH  23 118
BRANCH   7 134
ATOM    134  C   CYS d   1      20.292 -11.748  16.126  0.00  0.00     0.242 C 
ATOM    135  O   CYS d   1      19.830 -12.299  17.144  0.00  0.00    -0.271 OA
ATOM    136  N   PHE d   1      20.871 -12.405  15.138  0.00  0.00    -0.344 N 
ATOM    137  H88 PHE d   1      21.382 -11.884  14.454  0.00  0.00     0.163 HD
BRANCH 136 138
ATOM    138  CA  PHE d   1      20.801 -13.863  14.995  0.00  0.00     0.100 C 
ATOM    139  H89 PHE d   1      20.533 -14.319  15.960  0.00  0.00     0.090 H 
BRANCH 138 140
ATOM    140  C   PHE d   1      22.154 -14.393  14.532  0.00  0.00     0.197 C 
ATOM    141  O   PHE d   1      22.669 -13.937  13.476  0.00  0.00    -0.646 OA
ATOM    142  O   PHE d   1      22.752 -15.279  15.199  0.00  0.00    -0.646 OA
ENDBRANCH 138 140
BRANCH 138 143
ATOM    143  CB  PHE d   1      19.745 -14.212  13.944  0.00  0.00    -0.013 C 
ATOM    144  H90 PHE d   1      19.609 -15.304  13.938  0.00  0.00     0.043 H 
ATOM    145  H91 PHE d   1      20.113 -13.883  12.961  0.00  0.00     0.043 H 
BRANCH 143 146
ATOM    146  CG  PHE d   1      18.410 -13.571  14.188  0.00  0.00    -0.056 A 
ATOM    147  CD1 PHE d   1      17.443 -14.209  14.947  0.00  0.00    -0.077 A 
ATOM    148  CE1 PHE d   1      16.193 -13.616  15.136  0.00  0.00    -0.082 A 
ATOM    149  H92 PHE d   1      17.657 -15.172  15.396  0.00  0.00     0.084 H 
ATOM    150  CZ  PHE d   1      15.905 -12.375  14.568  0.00  0.00    -0.083 A 
ATOM    151  H94 PHE d   1      15.441 -14.124  15.729  0.00  0.00     0.083 H 
ATOM    152  CE2 PHE d   1      16.852 -11.729  13.781  0.00  0.00    -0.082 A 
ATOM    153  H96 PHE d   1      14.940 -11.913  14.741  0.00  0.00     0.083 H 
ATOM    154  CD2 PHE d   1      18.093 -12.328  13.607  0.00  0.00    -0.077 A 
ATOM    155  H95 PHE d   1      16.626 -10.778  13.313  0.00  0.00     0.083 H 
ATOM    156  H93 PHE d   1      18.840 -11.823  13.006  0.00  0.00     0.084 H 
ENDBRANCH 143 146
ENDBRANCH 138 143
ENDBRANCH 136 138
ENDBRANCH   7 134
BRANCH  40 157
ATOM    157  CB  ILE d   1      15.946  -8.710  17.196  0.00  0.00    -0.030 C 
ATOM    158  H75 ILE d   1      15.604  -8.503  16.171  0.00  0.00     0.043 H 
BRANCH 157 159
ATOM    159  CG1 ILE d   1      15.025  -7.978  18.178  0.00  0.00    -0.063 C 
ATOM    160  H76 ILE d   1      15.337  -6.924  18.208  0.00  0.00     0.033 H 
ATOM    161  H77 ILE d   1      15.166  -8.431  19.171  0.00  0.00     0.033 H 
BRANCH 159 162
ATOM    162  CD1 ILE d   1      13.525  -8.012  17.857  0.00  0.00    -0.076 C 
ATOM    163  H81 ILE d   1      12.972  -7.456  18.629  0.00  0.00     0.027 H 
ATOM    164  H82 ILE d   1      13.178  -9.056  17.837  0.00  0.00     0.027 H 
ATOM    165  H83 ILE d   1      13.350  -7.548  16.875  0.00  0.00     0.027 H 
ENDBRANCH 159 162
ENDBRANCH 157 159
BRANCH 157 166
ATOM    166  CG2 ILE d   1      15.891 -10.206  17.442  0.00  0.00    -0.071 C 
ATOM    167  H78 ILE d   1      16.556 -10.719  16.731  0.00  0.00     0.028 H 
ATOM    168  H79 ILE d   1      14.860 -10.563  17.303  0.00  0.00     0.028 H 
ATOM    169  H80 ILE d   1      16.218 -10.421  18.470  0.00  0.00     0.028 H 
ENDBRANCH 157 166
ENDBRANCH  40 157
BRANCH  30 170
ATOM    170  CB  SER d   1      14.181  -3.170  16.506  0.00  0.00     0.044 C 
ATOM    171  H45 SER d   1      13.401  -3.373  15.758  0.00  0.00     0.077 H 
ATOM    172  H46 SER d   1      13.711  -2.860  17.451  0.00  0.00     0.077 H 
BRANCH 170 173
ATOM    173  OG  SER d   1      14.940  -4.351  16.725  0.00  0.00    -0.398 OA
ATOM    174  H47 SER d   1      15.613  -4.178  17.373  0.00  0.00     0.209 HD
ENDBRANCH 170 173
ENDBRANCH  30 170
BRANCH  36 175
ATOM    175  CB  ILE d   1      16.086   1.249  19.385  0.00  0.00    -0.030 C 
ATOM    176  H50 ILE d   1      15.026   1.526  19.478  0.00  0.00     0.043 H 
BRANCH 175 177
ATOM    177  CG1 ILE d   1      16.652   1.939  18.118  0.00  0.00    -0.063 C 
ATOM    178  H51 ILE d   1      16.197   1.466  17.235  0.00  0.00     0.033 H 
ATOM    179  H52 ILE d   1      17.741   1.783  18.098  0.00  0.00     0.033 H 
BRANCH 177 180
ATOM    180  CD1 ILE d   1      16.384   3.435  18.048  0.00  0.00    -0.076 C 
ATOM    181  H56 ILE d   1      16.817   3.842  17.123  0.00  0.00     0.027 H 
ATOM    182  H57 ILE d   1      16.842   3.931  18.916  0.00  0.00     0.027 H 
ATOM    183  H58 ILE d   1      15.299   3.614  18.054  0.00  0.00     0.027 H 
ENDBRANCH 177 180
ENDBRANCH 175 177
BRANCH 175 184
ATOM    184  CG2 ILE d   1      16.801   1.654  20.687  0.00  0.00    -0.071 C 
ATOM    185  H53 ILE d   1      16.344   1.125  21.536  0.00  0.00     0.028 H 
ATOM    186  H54 ILE d   1      16.704   2.740  20.836  0.00  0.00     0.028 H 
ATOM    187  H55 ILE d   1      17.866   1.387  20.619  0.00  0.00     0.028 H 
ENDBRANCH 175 184
ENDBRANCH  36 175
TORSDOF 32
