REMARK  4 active torsions:
REMARK  status: ('A' for Active; 'I' for Inactive)
REMARK    1  A    between atoms: C1_1  and  C5_25 
REMARK    2  A    between atoms: C3_3  and  O2_28 
REMARK    3  A    between atoms: C14_11  and  C4_22 
REMARK    4  A    between atoms: O2_28  and  C21_16 
ROOT
ATOM      1  C1  0YO d   1      36.782 -15.119  28.333  0.00  0.00     0.161 A 
ATOM      2  C2  0YO d   1      37.111 -13.037  29.241  0.00  0.00     0.039 A 
ATOM      3  C3  0YO d   1      37.580 -12.503  27.973  0.00  0.00     0.116 A 
ATOM      4  C4  0YO d   1      37.624 -13.418  26.840  0.00  0.00     0.120 A 
ATOM      5  N2  0YO d   1      37.199 -14.782  27.045  0.00  0.00    -0.223 NA
ATOM      6  N1  0YO d   1      36.732 -14.228  29.458  0.00  0.00    -0.238 NA
ATOM      7  H   0YO d   1      37.082 -12.349  30.086  0.00  0.00     0.119 H 
ENDROOT
BRANCH   4   8
ATOM      8  C14 0YO d   1      38.100 -13.073  25.425  0.00  0.00     0.065 A 
ATOM      9  C15 0YO d   1      38.561 -11.890  24.985  0.00  0.00    -0.038 A 
ATOM     10  C17 0YO d   1      38.838 -12.134  23.681  0.00  0.00     0.056 A 
ATOM     11  H   0YO d   1      38.683 -10.961  25.541  0.00  0.00     0.088 H 
ATOM     12  C16 0YO d   1      38.516 -13.463  23.458  0.00  0.00     0.027 A 
ATOM     13  C18 0YO d   1      39.322 -11.320  22.669  0.00  0.00     0.253 A 
ATOM     14  C20 0YO d   1      38.699 -14.172  22.129  0.00  0.00    -0.011 A 
ATOM     15  N4  0YO d   1      38.044 -14.079  24.532  0.00  0.00    -0.357 N 
ATOM     16  C19 0YO d   1      39.293 -13.220  21.036  0.00  0.00     0.000 A 
ATOM     17  H   0YO d   1      37.723 -14.517  21.788  0.00  0.00     0.044 H 
ATOM     18  H   0YO d   1      39.394 -14.999  22.276  0.00  0.00     0.044 H 
ATOM     19  N5  0YO d   1      39.490 -11.873  21.492  0.00  0.00    -0.356 N 
ATOM     20  H   0YO d   1      38.581 -13.185  20.211  0.00  0.00     0.064 H 
ATOM     21  H   0YO d   1      40.269 -13.615  20.754  0.00  0.00     0.064 H 
ATOM     22  H   0YO d   1      39.820 -11.231  20.771  0.00  0.00     0.162 HD
ATOM     23  H   0YO d   1      37.728 -15.042  24.649  0.00  0.00     0.166 HD
ATOM     24  O1  0YO d   1      39.579 -10.126  22.850  0.00  0.00    -0.268 OA
ENDBRANCH   4   8
BRANCH   3  25
ATOM     25  O2  0YO d   1      37.954 -11.228  27.938  0.00  0.00    -0.352 OA
BRANCH  25  26
ATOM     26  C21 0YO d   1      37.620 -10.341  28.858  0.00  0.00     0.011 C 
ATOM     27  H   0YO d   1      36.534 -10.258  28.903  0.00  0.00     0.067 H 
ATOM     28  H   0YO d   1      38.002 -10.663  29.827  0.00  0.00     0.067 H 
ATOM     29  H   0YO d   1      38.049  -9.373  28.600  0.00  0.00     0.067 H 
ENDBRANCH  25  26
ENDBRANCH   3  25
BRANCH   1  30
ATOM     30  C5  0YO d   1      36.355 -16.461  28.531  0.00  0.00     0.030 A 
ATOM     31  C7  0YO d   1      36.472 -17.480  27.510  0.00  0.00    -0.056 A 
ATOM     32  C8  0YO d   1      35.935 -18.763  27.728  0.00  0.00    -0.006 A 
ATOM     33  H   0YO d   1      36.977 -17.254  26.571  0.00  0.00     0.086 H 
ATOM     34  C9  0YO d   1      35.193 -19.000  29.083  0.00  0.00     0.066 A 
ATOM     35  C13 0YO d   1      36.081 -19.799  26.753  0.00  0.00    -0.071 A 
ATOM     36  C10 0YO d   1      34.645 -20.220  29.334  0.00  0.00    -0.054 A 
ATOM     37  N3  0YO d   1      35.139 -17.968  30.035  0.00  0.00    -0.259 NA
ATOM     38  C11 0YO d   1      34.749 -21.367  28.346  0.00  0.00    -0.081 A 
ATOM     39  H   0YO d   1      34.115 -20.378  30.273  0.00  0.00     0.087 H 
ATOM     40  C12 0YO d   1      35.486 -21.151  27.059  0.00  0.00    -0.082 A 
ATOM     41  H   0YO d   1      34.295 -22.333  28.569  0.00  0.00     0.083 H 
ATOM     42  H   0YO d   1      35.592 -21.969  26.346  0.00  0.00     0.083 H 
ATOM     43  C6  0YO d   1      35.696 -16.752  29.784  0.00  0.00     0.017 A 
ATOM     44  H   0YO d   1      35.644 -15.977  30.548  0.00  0.00     0.116 H 
ATOM     45  H   0YO d   1      36.607 -19.617  25.816  0.00  0.00     0.084 H 
ENDBRANCH   1  30
TORSDOF 4
