REMARK  6 active torsions:
REMARK  status: ('A' for Active; 'I' for Inactive)
REMARK    1  A    between atoms: O2_22  and  C7_4 
REMARK    2  A    between atoms: C15_12  and  C14_11 
REMARK    3  A    between atoms: C20_15  and  C19_14 
REMARK    4  A    between atoms: O3_23  and  C20_15 
REMARK    5  A    between atoms: C17_19  and  O2_22 
REMARK    6  A    between atoms: O3_23  and  C4_24 
ROOT
ATOM      1  C15 15G d   1      37.340 -13.615  26.632  0.00  0.00     0.027 A 
ATOM      2  C16 15G d   1      36.644 -14.868  26.953  0.00  0.00    -0.042 A 
ATOM      3  C19 15G d   1      36.297 -15.046  28.318  0.00  0.00     0.059 A 
ATOM      4  C17 15G d   1      37.610 -12.688  27.726  0.00  0.00     0.098 A 
ATOM      5  C18 15G d   1      37.201 -13.003  29.104  0.00  0.00     0.035 A 
ATOM      6  N1  15G d   1      36.567 -14.162  29.362  0.00  0.00    -0.260 NA
ATOM      7  H11 15G d   1      36.410 -15.609  26.197  0.00  0.00     0.088 H 
ATOM      8  H16 15G d   1      37.409 -12.305  29.907  0.00  0.00     0.119 H 
ENDROOT
BRANCH   1   9
ATOM      9  C14 15G d   1      37.763 -13.385  25.207  0.00  0.00     0.046 A 
ATOM     10  C8  15G d   1      38.389 -12.231  24.749  0.00  0.00    -0.039 A 
ATOM     11  C9  15G d   1      38.587 -12.505  23.394  0.00  0.00     0.056 A 
ATOM     12  H6  15G d   1      38.658 -11.336  25.308  0.00  0.00     0.088 H 
ATOM     13  C10 15G d   1      39.170 -11.690  22.448  0.00  0.00     0.253 C 
ATOM     14  C13 15G d   1      38.079 -13.771  23.142  0.00  0.00     0.027 A 
ATOM     15  O1  15G d   1      39.684 -10.610  22.706  0.00  0.00    -0.268 OA
ATOM     16  N2  15G d   1      39.157 -12.127  21.249  0.00  0.00    -0.356 N 
ATOM     17  C11 15G d   1      38.370 -13.266  20.770  0.00  0.00     0.000 C 
ATOM     18  H14 15G d   1      39.731 -11.653  20.582  0.00  0.00     0.162 HD
ATOM     19  C12 15G d   1      38.123 -14.395  21.766  0.00  0.00    -0.011 C 
ATOM     20  H7  15G d   1      37.390 -12.883  20.450  0.00  0.00     0.064 H 
ATOM     21  H8  15G d   1      38.896 -13.694  19.904  0.00  0.00     0.064 H 
ATOM     22  H9  15G d   1      38.938 -15.132  21.712  0.00  0.00     0.044 H 
ATOM     23  H10 15G d   1      37.166 -14.890  21.545  0.00  0.00     0.044 H 
ATOM     24  N3  15G d   1      37.572 -14.312  24.254  0.00  0.00    -0.358 N 
ATOM     25  H15 15G d   1      37.131 -15.237  24.358  0.00  0.00     0.166 HD
ENDBRANCH   1   9
BRANCH   4  26
ATOM     26  O2  15G d   1      38.275 -11.437  27.604  0.00  0.00    -0.354 OA
BRANCH  26  27
ATOM     27  C7  15G d   1      37.641 -10.321  27.943  0.00  0.00     0.010 C 
ATOM     28  H3  15G d   1      38.306  -9.459  27.784  0.00  0.00     0.066 H 
ATOM     29  H4  15G d   1      37.353 -10.371  29.003  0.00  0.00     0.066 H 
ATOM     30  H5  15G d   1      36.739 -10.209  27.323  0.00  0.00     0.066 H 
ENDBRANCH  26  27
ENDBRANCH   4  26
BRANCH   3  31
ATOM     31  C20 15G d   1      35.551 -16.266  28.643  0.00  0.00     0.066 C 
ATOM     32  H12 15G d   1      34.705 -16.352  27.946  0.00  0.00     0.084 H 
ATOM     33  H13 15G d   1      35.171 -16.178  29.672  0.00  0.00     0.084 H 
BRANCH  31  34
ATOM     34  O3  15G d   1      36.310 -17.417  28.554  0.00  0.00    -0.345 OA
BRANCH  34  35
ATOM     35  C4  15G d   1      35.600 -18.619  28.409  0.00  0.00     0.072 A 
ATOM     36  C3  15G d   1      36.182 -19.697  27.576  0.00  0.00    -0.048 A 
ATOM     37  C2  15G d   1      35.450 -20.950  27.413  0.00  0.00    -0.040 A 
ATOM     38  H2  15G d   1      37.142 -19.557  27.092  0.00  0.00     0.087 H 
ATOM     39  C1  15G d   1      34.166 -21.021  28.116  0.00  0.00     0.154 A 
ATOM     40  H1  15G d   1      35.830 -21.770  26.814  0.00  0.00     0.088 H 
ATOM     41  C6  15G d   1      33.615 -19.942  28.934  0.00  0.00     0.157 A 
ATOM     42  F1  15G d   1      33.462 -22.138  28.006  0.00  0.00    -0.203 F 
ATOM     43  C5  15G d   1      34.313 -18.731  29.100  0.00  0.00    -0.011 A 
ATOM     44  F2  15G d   1      32.469 -20.103  29.497  0.00  0.00    -0.203 F 
ATOM     45  H17 15G d   1      33.919 -17.924  29.707  0.00  0.00     0.092 H 
ENDBRANCH  34  35
ENDBRANCH  31  34
ENDBRANCH   3  31
TORSDOF 6
