REMARK  6 active torsions:
REMARK  status: ('A' for Active; 'I' for Inactive)
REMARK    1  A    between atoms: O2_22  and  C7_4 
REMARK    2  A    between atoms: C15_12  and  C14_11 
REMARK    3  A    between atoms: C20_15  and  C19_14 
REMARK    4  A    between atoms: O3_23  and  C20_15 
REMARK    5  A    between atoms: C17_19  and  O2_22 
REMARK    6  A    between atoms: O3_23  and  C4_24 
ROOT
ATOM      1  C15 15G d   1       3.022   3.237  18.223  0.00  0.00     0.027 A 
ATOM      2  C16 15G d   1       2.245   4.007  17.267  0.00  0.00    -0.042 A 
ATOM      3  C19 15G d   1       1.802   3.291  16.094  0.00  0.00     0.059 A 
ATOM      4  C17 15G d   1       3.281   1.824  17.896  0.00  0.00     0.098 A 
ATOM      5  C18 15G d   1       2.788   1.204  16.674  0.00  0.00     0.035 A 
ATOM      6  N1  15G d   1       2.063   1.985  15.831  0.00  0.00    -0.260 NA
ATOM      7  H   15G d   1       2.011   5.060  17.425  0.00  0.00     0.088 H 
ATOM      8  H   15G d   1       2.992   0.158  16.445  0.00  0.00     0.119 H 
ENDROOT
BRANCH   1   9
ATOM      9  C14 15G d   1       3.467   3.962  19.483  0.00  0.00     0.046 A 
ATOM     10  C8  15G d   1       4.481   3.522  20.376  0.00  0.00    -0.039 A 
ATOM     11  C9  15G d   1       4.474   4.493  21.386  0.00  0.00     0.056 A 
ATOM     12  H   15G d   1       5.114   2.639  20.294  0.00  0.00     0.088 H 
ATOM     13  C10 15G d   1       5.277   4.558  22.520  0.00  0.00     0.253 C 
ATOM     14  C13 15G d   1       3.499   5.447  21.087  0.00  0.00     0.027 A 
ATOM     15  O1  15G d   1       6.229   3.796  22.691  0.00  0.00    -0.268 OA
ATOM     16  N2  15G d   1       4.939   5.525  23.395  0.00  0.00    -0.356 N 
ATOM     17  C11 15G d   1       3.668   6.293  23.390  0.00  0.00     0.000 C 
ATOM     18  H   15G d   1       5.615   5.749  24.125  0.00  0.00     0.162 HD
ATOM     19  C12 15G d   1       3.172   6.618  21.976  0.00  0.00    -0.011 C 
ATOM     20  H   15G d   1       2.908   5.682  23.877  0.00  0.00     0.064 H 
ATOM     21  H   15G d   1       3.848   7.237  23.905  0.00  0.00     0.064 H 
ATOM     22  H   15G d   1       3.658   7.520  21.605  0.00  0.00     0.044 H 
ATOM     23  H   15G d   1       2.096   6.795  21.986  0.00  0.00     0.044 H 
ATOM     24  N3  15G d   1       2.881   5.136  19.922  0.00  0.00    -0.358 N 
ATOM     25  H   15G d   1       2.136   5.660  19.463  0.00  0.00     0.166 HD
ENDBRANCH   1   9
BRANCH   4  26
ATOM     26  O2  15G d   1       4.022   1.041  18.793  0.00  0.00    -0.354 OA
BRANCH  26  27
ATOM     27  C7  15G d   1       4.162  -0.389  18.634  0.00  0.00     0.010 C 
ATOM     28  H   15G d   1       3.177  -0.855  18.663  0.00  0.00     0.066 H 
ATOM     29  H   15G d   1       4.638  -0.602  17.677  0.00  0.00     0.066 H 
ATOM     30  H   15G d   1       4.776  -0.785  19.443  0.00  0.00     0.066 H 
ENDBRANCH  26  27
ENDBRANCH   4  26
BRANCH   3  31
ATOM     31  C20 15G d   1       0.977   3.959  15.041  0.00  0.00     0.066 C 
ATOM     32  H   15G d   1       0.071   3.375  14.880  0.00  0.00     0.084 H 
ATOM     33  H   15G d   1       1.562   4.024  14.124  0.00  0.00     0.084 H 
BRANCH  31  34
ATOM     34  O3  15G d   1       0.612   5.268  15.445  0.00  0.00    -0.345 OA
BRANCH  34  35
ATOM     35  C4  15G d   1       0.065   6.111  14.473  0.00  0.00     0.072 A 
ATOM     36  C3  15G d   1      -0.237   5.809  13.079  0.00  0.00    -0.048 A 
ATOM     37  C2  15G d   1      -0.778   6.825  12.219  0.00  0.00    -0.040 A 
ATOM     38  H   15G d   1      -0.052   4.809  12.688  0.00  0.00     0.087 H 
ATOM     39  C1  15G d   1      -0.982   8.104  12.852  0.00  0.00     0.154 A 
ATOM     40  H   15G d   1      -1.015   6.643  11.171  0.00  0.00     0.088 H 
ATOM     41  C6  15G d   1      -0.676   8.367  14.225  0.00  0.00     0.157 A 
ATOM     42  F1  15G d   1      -1.492   9.172  12.199  0.00  0.00    -0.203 F 
ATOM     43  C5  15G d   1      -0.147   7.381  15.068  0.00  0.00    -0.011 A 
ATOM     44  F2  15G d   1      -0.884   9.577  14.734  0.00  0.00    -0.203 F 
ATOM     45  H   15G d   1       0.087   7.577  16.114  0.00  0.00     0.092 H 
ENDBRANCH  34  35
ENDBRANCH  31  34
ENDBRANCH   3  31
TORSDOF 6
