REMARK  4 active torsions:
REMARK  status: ('A' for Active; 'I' for Inactive)
REMARK       I    between atoms: NBQ_14  and  CBC_15 
REMARK    1  A    between atoms: CBC_15  and  CBN_17 
REMARK       I    between atoms: NBP_22  and  CBB_23 
REMARK    2  A    between atoms: CBB_23  and  CBH_25 
REMARK    3  A    between atoms: CBD_31  and  CAW_32 
REMARK    4  A    between atoms: CAW_32  and  CBI_33 
ROOT
ATOM      1  CBN 15R d   1     -37.742 -52.335  -1.385  0.00  0.00     0.027 C 
ATOM      2  CAR 15R d   1     -36.593 -53.223  -1.111  0.00  0.00    -0.039 C 
ATOM      3  CAU 15R d   1     -35.534 -52.522  -0.332  0.00  0.00    -0.001 C 
ATOM      4  CAQ 15R d   1     -38.247 -51.783  -0.095  0.00  0.00    -0.039 C 
ATOM      5  CAT 15R d   1     -37.247 -50.785   0.283  0.00  0.00    -0.001 C 
ATOM      6  NBP 15R d   1     -35.963 -51.414   0.566  0.00  0.00    -0.348 N 
ATOM      7  CBB 15R d   1     -35.157 -51.000   1.595  0.00  0.00     0.256 C 
ATOM      8  OAB 15R d   1     -34.148 -51.573   1.705  0.00  0.00    -0.267 OA
ATOM      9  H12 15R d   1     -37.395 -51.516  -2.032  0.00  0.00     0.054 H 
ATOM     10  H13 15R d   1     -36.168 -53.562  -2.067  0.00  0.00     0.036 H 
ATOM     11  H14 15R d   1     -36.943 -54.093  -0.536  0.00  0.00     0.036 H 
ATOM     12  H15 15R d   1     -34.817 -52.103  -1.053  0.00  0.00     0.064 H 
ATOM     13  H16 15R d   1     -35.030 -53.275   0.291  0.00  0.00     0.064 H 
ATOM     14  H17 15R d   1     -38.317 -52.573   0.667  0.00  0.00     0.036 H 
ATOM     15  H18 15R d   1     -39.233 -51.315  -0.230  0.00  0.00     0.036 H 
ATOM     16  H19 15R d   1     -37.592 -50.252   1.181  0.00  0.00     0.064 H 
ATOM     17  H20 15R d   1     -37.123 -50.069  -0.543  0.00  0.00     0.064 H 
ENDROOT
BRANCH   7  18
ATOM     18  CBH 15R d   1     -35.487 -49.909   2.509  0.00  0.00     0.071 A 
ATOM     19  CAO 15R d   1     -34.595 -48.855   2.627  0.00  0.00    -0.058 A 
ATOM     20  CBD 15R d   1     -34.829 -47.767   3.467  0.00  0.00    -0.051 A 
ATOM     21  H21 15R d   1     -33.681 -48.877   2.044  0.00  0.00     0.086 H 
ATOM     22  CAK 15R d   1     -35.992 -47.713   4.199  0.00  0.00    -0.074 A 
ATOM     23  CAL 15R d   1     -36.894 -48.742   4.087  0.00  0.00    -0.044 A 
ATOM     24  H23 15R d   1     -36.193 -46.872   4.853  0.00  0.00     0.084 H 
ATOM     25  CBE 15R d   1     -36.652 -49.845   3.255  0.00  0.00     0.132 A 
ATOM     26  H22 15R d   1     -37.816 -48.701   4.656  0.00  0.00     0.088 H 
ATOM     27  FAE 15R d   1     -37.552 -50.770   3.205  0.00  0.00    -0.205 F 
BRANCH  20  28
ATOM     28  CAW 15R d   1     -33.839 -46.695   3.533  0.00  0.00     0.002 C 
ATOM     29  H24 15R d   1     -34.328 -45.739   3.294  0.00  0.00     0.049 H 
ATOM     30  H25 15R d   1     -33.045 -46.894   2.798  0.00  0.00     0.049 H 
BRANCH  28  31
ATOM     31  CBI 15R d   1     -33.234 -46.604   4.888  0.00  0.00     0.070 A 
ATOM     32  NAX 15R d   1     -33.422 -47.596   5.734  0.00  0.00    -0.176 NA
ATOM     33  NAZ 15R d   1     -32.932 -47.603   6.979  0.00  0.00    -0.254 N 
ATOM     34  CBK 15R d   1     -32.204 -46.554   7.434  0.00  0.00     0.206 A 
ATOM     35  H26 15R d   1     -33.104 -48.386   7.577  0.00  0.00     0.191 HD
ATOM     36  OAD 15R d   1     -31.702 -46.569   8.722  0.00  0.00    -0.170 OA
ATOM     37  CBM 15R d   1     -31.923 -45.387   6.598  0.00  0.00     0.032 A 
ATOM     38  CBL 15R d   1     -32.440 -45.401   5.298  0.00  0.00     0.005 A 
ATOM     39  CAN 15R d   1     -31.145 -44.259   7.071  0.00  0.00    -0.068 A 
ATOM     40  CAM 15R d   1     -32.194 -44.271   4.439  0.00  0.00    -0.070 A 
ATOM     41  CAF 15R d   1     -31.434 -43.179   4.901  0.00  0.00    -0.082 A 
ATOM     42  H27 15R d   1     -32.596 -44.261   3.432  0.00  0.00     0.084 H 
ATOM     43  CAG 15R d   1     -30.907 -43.178   6.227  0.00  0.00    -0.082 A 
ATOM     44  H28 15R d   1     -31.248 -42.335   4.246  0.00  0.00     0.083 H 
ATOM     45  H29 15R d   1     -30.321 -42.336   6.577  0.00  0.00     0.083 H 
ATOM     46  H30 15R d   1     -30.749 -44.257   8.080  0.00  0.00     0.085 H 
ENDBRANCH  28  31
ENDBRANCH  20  28
ENDBRANCH   7  18
BRANCH   1  47
ATOM     47  CBC 15R d   1     -38.932 -53.014  -2.053  0.00  0.00     0.224 C 
ATOM     48  NBQ 15R d   1     -39.227 -53.291  -3.414  0.00  0.00    -0.341 N 
ATOM     49  CBO 15R d   1     -38.441 -53.018  -4.664  0.00  0.00     0.053 C 
ATOM     50  CAS 15R d   1     -40.517 -53.970  -3.699  0.00  0.00     0.002 C 
ATOM     51  CAV 15R d   1     -37.120 -52.145  -4.715  0.00  0.00     0.013 C 
ATOM     52  CBJ 15R d   1     -38.233 -54.353  -5.443  0.00  0.00    -0.030 C 
ATOM     53  H4  15R d   1     -39.144 -52.427  -5.270  0.00  0.00     0.082 H 
ATOM     54  NAY 15R d   1     -36.411 -52.241  -5.988  0.00  0.00    -0.382 N 
ATOM     55  H2  15R d   1     -37.391 -51.093  -4.545  0.00  0.00     0.067 H 
ATOM     56  H3  15R d   1     -36.447 -52.484  -3.914  0.00  0.00     0.067 H 
ATOM     57  CBA 15R d   1     -36.104 -53.611  -6.399  0.00  0.00     0.236 C 
ATOM     58  H1  15R d   1     -36.158 -51.441  -6.531  0.00  0.00     0.156 HD
ATOM     59  OAA 15R d   1     -35.324 -53.671  -7.580  0.00  0.00    -0.198 OA
ATOM     60  CBG 15R d   1     -37.346 -54.417  -6.499  0.00  0.00     0.081 C 
ATOM     61  CAJ 15R d   1     -36.892 -55.789  -6.748  0.00  0.00    -0.084 C 
ATOM     62  CAH 15R d   1     -37.927 -56.817  -6.766  0.00  0.00    -0.085 C 
ATOM     63  H5  15R d   1     -35.847 -56.026  -6.910  0.00  0.00     0.078 H 
ATOM     64  CAI 15R d   1     -39.085 -56.628  -5.976  0.00  0.00    -0.077 C 
ATOM     65  H6  15R d   1     -37.811 -57.708  -7.373  0.00  0.00     0.083 H 
ATOM     66  CBF 15R d   1     -39.324 -55.267  -5.505  0.00  0.00    -0.051 C 
ATOM     67  H7  15R d   1     -39.755 -57.445  -5.735  0.00  0.00     0.084 H 
ATOM     68  CAP 15R d   1     -40.420 -55.251  -4.462  0.00  0.00    -0.026 C 
ATOM     69  H8  15R d   1     -40.229 -56.065  -3.747  0.00  0.00     0.042 H 
ATOM     70  H9  15R d   1     -41.381 -55.425  -4.968  0.00  0.00     0.042 H 
ATOM     71  H10 15R d   1     -41.005 -54.186  -2.737  0.00  0.00     0.064 H 
ATOM     72  H11 15R d   1     -41.143 -53.277  -4.280  0.00  0.00     0.064 H 
ATOM     73  OAC 15R d   1     -39.777 -53.363  -1.261  0.00  0.00    -0.273 OA
ENDBRANCH   1  47
TORSDOF 4
