REMARK  7 active torsions:
REMARK  status: ('A' for Active; 'I' for Inactive)
REMARK    1  A    between atoms: OAC_1  and  CAX_2 
REMARK    2  A    between atoms: NBI_14  and  CAT_15 
REMARK    3  A    between atoms: CAT_15  and  CAW_16 
REMARK       I    between atoms: CAW_16  and  N_18 
REMARK    4  A    between atoms: N_18  and  CA_19 
REMARK    5  A    between atoms: CA_19  and  CB_20 
REMARK    6  A    between atoms: CA_19  and  C_21 
REMARK       I    between atoms: C_21  and  NBH_23 
REMARK    7  A    between atoms: CAY_28  and  CBB_29 
ROOT
ATOM      1  CAW 15S d   1     -38.822  50.378 -69.131  0.00  0.00     0.244 C 
ATOM      2  OAB 15S d   1     -38.827  49.173 -69.327  0.00  0.00    -0.272 OA
ATOM      3  N   15S d   1     -38.575  51.337 -70.185  0.00  0.00    -0.347 N 
ATOM      4  H18 15S d   1     -38.550  52.310 -69.956  0.00  0.00     0.163 HD
ENDROOT
BRANCH   3   5
ATOM      5  CA  15S d   1     -38.367  50.946 -71.532  0.00  0.00     0.086 C 
ATOM      6  H19 15S d   1     -38.765  49.935 -71.706  0.00  0.00     0.086 H 
BRANCH   5   7
ATOM      7  CB  15S d   1     -39.037  51.922 -72.339  0.00  0.00    -0.049 C 
ATOM      8  H20 15S d   1     -38.909  51.669 -73.402  0.00  0.00     0.030 H 
ATOM      9  H21 15S d   1     -38.608  52.916 -72.145  0.00  0.00     0.030 H 
ATOM     10  H22 15S d   1     -40.108  51.930 -72.090  0.00  0.00     0.030 H 
ENDBRANCH   5   7
BRANCH   5  11
ATOM     11  C   15S d   1     -36.884  51.011 -71.915  0.00  0.00     0.242 C 
ATOM     12  O   15S d   1     -36.401  52.079 -71.962  0.00  0.00    -0.271 OA
ATOM     13  NBH 15S d   1     -36.116  49.808 -72.255  0.00  0.00    -0.350 N 
ATOM     14  CAQ 15S d   1     -34.690  49.926 -72.635  0.00  0.00    -0.002 C 
ATOM     15  CAN 15S d   1     -36.654  48.479 -72.226  0.00  0.00    -0.002 C 
ATOM     16  CAO 15S d   1     -34.245  48.998 -73.707  0.00  0.00    -0.043 C 
ATOM     17  H23 15S d   1     -34.081  49.730 -71.740  0.00  0.00     0.064 H 
ATOM     18  H24 15S d   1     -34.513  50.955 -72.980  0.00  0.00     0.064 H 
ATOM     19  CAY 15S d   1     -35.411  48.398 -74.368  0.00  0.00    -0.026 C 
ATOM     20  H25 15S d   1     -33.627  48.202 -73.266  0.00  0.00     0.036 H 
ATOM     21  H26 15S d   1     -33.653  49.555 -74.448  0.00  0.00     0.036 H 
ATOM     22  CAF 15S d   1     -36.185  47.610 -73.355  0.00  0.00    -0.043 C 
ATOM     23  H31 15S d   1     -36.064  49.225 -74.684  0.00  0.00     0.047 H 
ATOM     24  H29 15S d   1     -37.060  47.158 -73.846  0.00  0.00     0.036 H 
ATOM     25  H30 15S d   1     -35.540  46.816 -72.951  0.00  0.00     0.036 H 
ATOM     26  H27 15S d   1     -37.751  48.548 -72.274  0.00  0.00     0.064 H 
ATOM     27  H28 15S d   1     -36.358  48.006 -71.278  0.00  0.00     0.064 H 
BRANCH  19  28
ATOM     28  CBB 15S d   1     -35.038  47.639 -75.666  0.00  0.00    -0.054 A 
ATOM     29  CAL 15S d   1     -33.814  47.880 -76.336  0.00  0.00    -0.074 A 
ATOM     30  CAJ 15S d   1     -33.505  47.212 -77.504  0.00  0.00    -0.045 A 
ATOM     31  H32 15S d   1     -33.112  48.597 -75.927  0.00  0.00     0.084 H 
ATOM     32  CBA 15S d   1     -34.404  46.287 -78.023  0.00  0.00     0.116 A 
ATOM     33  H33 15S d   1     -32.568  47.407 -78.013  0.00  0.00     0.088 H 
ATOM     34  FAE 15S d   1     -34.130  45.654 -79.121  0.00  0.00    -0.206 F 
ATOM     35  CAK 15S d   1     -35.602  46.057 -77.382  0.00  0.00    -0.045 A 
ATOM     36  CAM 15S d   1     -35.916  46.750 -76.190  0.00  0.00    -0.074 A 
ATOM     37  H34 15S d   1     -36.306  45.343 -77.793  0.00  0.00     0.088 H 
ATOM     38  H35 15S d   1     -36.863  46.569 -75.694  0.00  0.00     0.084 H 
ENDBRANCH  19  28
ENDBRANCH   5  11
ENDBRANCH   3   5
BRANCH   1  39
ATOM     39  CAT 15S d   1     -39.083  50.936 -67.744  0.00  0.00     0.157 C 
ATOM     40  H16 15S d   1     -40.172  50.956 -67.589  0.00  0.00     0.090 H 
ATOM     41  H17 15S d   1     -38.621  50.254 -67.015  0.00  0.00     0.090 H 
BRANCH  39  42
ATOM     42  NBI 15S d   1     -38.582  52.251 -67.491  0.00  0.00    -0.053 N 
ATOM     43  CBG 15S d   1     -37.696  52.487 -66.244  0.00  0.00     0.153 C 
ATOM     44  CAS 15S d   1     -36.278  51.850 -66.298  0.00  0.00     0.115 C 
ATOM     45  CBE 15S d   1     -37.711  53.911 -65.701  0.00  0.00    -0.009 A 
ATOM     46  H7  15S d   1     -38.206  51.908 -65.460  0.00  0.00     0.095 H 
ATOM     47  NAU 15S d   1     -35.598  52.018 -65.017  0.00  0.00    -0.042 N 
ATOM     48  H5  15S d   1     -36.370  50.777 -66.522  0.00  0.00     0.079 H 
ATOM     49  H6  15S d   1     -35.690  52.340 -67.088  0.00  0.00     0.079 H 
ATOM     50  CAX 15S d   1     -35.442  53.496 -64.659  0.00  0.00     0.217 C 
ATOM     51  H3  15S d   1     -36.136  51.561 -64.297  0.00  0.00     0.280 HD
ATOM     52  H4  15S d   1     -34.684  51.596 -65.073  0.00  0.00     0.280 HD
ATOM     53  CBD 15S d   1     -36.649  54.357 -64.925  0.00  0.00     0.006 A 
ATOM     54  H2  15S d   1     -34.647  53.895 -65.306  0.00  0.00     0.137 H 
ATOM     55  CAI 15S d   1     -36.697  55.742 -64.402  0.00  0.00    -0.072 A 
ATOM     56  CAG 15S d   1     -37.786  56.562 -64.659  0.00  0.00    -0.082 A 
ATOM     57  H8  15S d   1     -35.871  56.120 -63.811  0.00  0.00     0.084 H 
ATOM     58  CAH 15S d   1     -38.868  56.088 -65.427  0.00  0.00    -0.076 A 
ATOM     59  H9  15S d   1     -37.805  57.572 -64.267  0.00  0.00     0.083 H 
ATOM     60  CBC 15S d   1     -38.805  54.711 -65.950  0.00  0.00    -0.048 A 
ATOM     61  H10 15S d   1     -39.725  56.720 -65.628  0.00  0.00     0.084 H 
ATOM     62  CAP 15S d   1     -39.936  54.205 -66.756  0.00  0.00    -0.018 C 
ATOM     63  CAR 15S d   1     -39.517  53.321 -67.859  0.00  0.00     0.088 C 
ATOM     64  H11 15S d   1     -40.473  55.065 -67.183  0.00  0.00     0.042 H 
ATOM     65  H12 15S d   1     -40.611  53.642 -66.095  0.00  0.00     0.042 H 
ATOM     66  H13 15S d   1     -39.035  53.943 -68.627  0.00  0.00     0.076 H 
ATOM     67  H14 15S d   1     -40.419  52.853 -68.279  0.00  0.00     0.076 H 
ATOM     68  H15 15S d   1     -37.891  52.335 -68.220  0.00  0.00     0.281 HD
BRANCH  50  69
ATOM     69  OAC 15S d   1     -34.994  53.570 -63.393  0.00  0.00    -0.366 OA
ATOM     70  H1  15S d   1     -34.889  54.482 -63.148  0.00  0.00     0.212 HD
ENDBRANCH  50  69
ENDBRANCH  39  42
ENDBRANCH   1  39
TORSDOF 7
