REMARK  8 active torsions:
REMARK  status: ('A' for Active; 'I' for Inactive)
REMARK    1  A    between atoms: CAO_2  and  CAS_4 
REMARK    2  A    between atoms: CAT_10  and  OAN_11 
REMARK    3  A    between atoms: OAN_11  and  CAJ_12 
REMARK    4  A    between atoms: CAJ_12  and  CAI_13 
REMARK    5  A    between atoms: CAI_13  and  CAK_14 
REMARK    6  A    between atoms: CAK_14  and  CAU_15 
REMARK    7  A    between atoms: CAP_16  and  CAA_17 
REMARK    8  A    between atoms: CAQ_20  and  CAB_21 
ROOT
ATOM      1  CAI 16V d   1       0.222   0.745  -6.717  0.00  0.00    -0.041 C 
ATOM      2  H6  16V d   1       1.258   0.780  -7.085  0.00  0.00     0.036 H 
ATOM      3  H7  16V d   1      -0.206   1.758  -6.729  0.00  0.00     0.036 H 
ENDROOT
BRANCH   1   4
ATOM      4  CAJ 16V d   1       0.223   0.229  -5.297  0.00  0.00     0.026 C 
ATOM      5  H4  16V d   1       0.726   0.971  -4.660  0.00  0.00     0.075 H 
ATOM      6  H5  16V d   1      -0.821   0.113  -4.971  0.00  0.00     0.075 H 
BRANCH   4   7
ATOM      7  OAN 16V d   1       0.887  -1.026  -5.135  0.00  0.00    -0.348 OA
BRANCH   7   8
ATOM      8  CAT 16V d   1       1.393  -1.140  -3.869  0.00  0.00     0.108 A 
ATOM      9  CAH 16V d   1       0.742  -0.687  -2.728  0.00  0.00    -0.031 A 
ATOM     10  CAS 16V d   1       1.298  -0.848  -1.462  0.00  0.00     0.043 A 
ATOM     11  H1  16V d   1      -0.220  -0.197  -2.826  0.00  0.00     0.089 H 
ATOM     12  CAG 16V d   1       2.564  -1.449  -1.360  0.00  0.00    -0.063 A 
ATOM     13  CAF 16V d   1       3.241  -1.900  -2.493  0.00  0.00    -0.042 A 
ATOM     14  H2  16V d   1       3.022  -1.564  -0.384  0.00  0.00     0.085 H 
ATOM     15  CAR 16V d   1       2.643  -1.758  -3.745  0.00  0.00     0.149 A 
ATOM     16  H3  16V d   1       4.220  -2.356  -2.402  0.00  0.00     0.088 H 
ATOM     17  FAE 16V d   1       3.339  -2.188  -4.829  0.00  0.00    -0.203 F 
BRANCH  10  18
ATOM     18  CAO 16V d   1       0.568  -0.398  -0.348  0.00  0.00     0.209 C 
ATOM     19  OAC 16V d   1      -0.589   0.064  -0.496  0.00  0.00    -0.644 OA
ATOM     20  OAD 16V d   1       1.059  -0.422   0.806  0.00  0.00    -0.644 OA
ENDBRANCH  10  18
ENDBRANCH   7   8
ENDBRANCH   4   7
ENDBRANCH   1   4
BRANCH   1  21
ATOM     21  CAK 16V d   1      -0.596  -0.146  -7.632  0.00  0.00    -0.035 C 
ATOM     22  H8  16V d   1      -1.656   0.102  -7.474  0.00  0.00     0.040 H 
ATOM     23  H9  16V d   1      -0.414  -1.188  -7.329  0.00  0.00     0.040 H 
BRANCH  21  24
ATOM     24  CAU 16V d   1      -0.307  -0.044  -9.205  0.00  0.00    -0.008 A 
ATOM     25  CAP 16V d   1       0.001  -1.118  -9.984  0.00  0.00     0.032 A 
ATOM     26  NAL 16V d   1       0.187  -0.717 -11.241  0.00  0.00    -0.282 N 
ATOM     27  NAM 16V d   1       0.009   0.619 -11.279  0.00  0.00    -0.179 NA
ATOM     28  H13 16V d   1       0.424  -1.320 -12.041  0.00  0.00     0.189 HD
ATOM     29  CAQ 16V d   1      -0.296   1.037 -10.045  0.00  0.00     0.059 A 
BRANCH  25  30
ATOM     30  CAA 16V d   1       0.113  -2.600  -9.562  0.00  0.00    -0.035 C 
ATOM     31  H10 16V d   1       0.379  -3.211 -10.437  0.00  0.00     0.035 H 
ATOM     32  H11 16V d   1      -0.851  -2.940  -9.156  0.00  0.00     0.035 H 
ATOM     33  H12 16V d   1       0.892  -2.704  -8.792  0.00  0.00     0.035 H 
ENDBRANCH  25  30
BRANCH  29  34
ATOM     34  CAB 16V d   1      -0.575   2.517  -9.733  0.00  0.00    -0.033 C 
ATOM     35  H14 16V d   1      -0.476   3.111 -10.654  0.00  0.00     0.035 H 
ATOM     36  H15 16V d   1       0.148   2.877  -8.986  0.00  0.00     0.035 H 
ATOM     37  H16 16V d   1      -1.596   2.622  -9.336  0.00  0.00     0.035 H 
ENDBRANCH  29  34
ENDBRANCH  21  24
ENDBRANCH   1  21
TORSDOF 8
