REMARK  1 active torsions:
REMARK  status: ('A' for Active; 'I' for Inactive)
REMARK    1  A    between atoms: C2_6  and  C1'_7 
ROOT
ATOM      1  O1  FLN d   1       5.985 -12.621  12.472  0.00  0.00    -0.309 OA
ATOM      2  C8A FLN d   1       5.856 -12.976  13.778  0.00  0.00     0.090 A 
ATOM      3  C4A FLN d   1       6.532 -12.236  14.739  0.00  0.00     0.048 A 
ATOM      4  C4  FLN d   1       7.381 -11.166  14.357  0.00  0.00     0.187 A 
ATOM      5  C3  FLN d   1       7.461 -10.834  13.005  0.00  0.00    -0.000 A 
ATOM      6  C2  FLN d   1       6.731 -11.563  12.071  0.00  0.00     0.090 A 
ATOM      7  O4  FLN d   1       8.130 -10.581  15.169  0.00  0.00    -0.287 OA
ATOM      8  C5  FLN d   1       6.338 -12.576  16.076  0.00  0.00    -0.066 A 
ATOM      9  C6  FLN d   1       5.512 -13.642  16.415  0.00  0.00    -0.082 A 
ATOM     10  C7  FLN d   1       4.841 -14.391  15.444  0.00  0.00    -0.080 A 
ATOM     11  C8  FLN d   1       5.020 -14.023  14.100  0.00  0.00    -0.049 A 
ATOM     12  H1  FLN d   1       8.092 -10.008  12.681  0.00  0.00     0.094 H 
ATOM     13  H7  FLN d   1       6.833 -12.007  16.855  0.00  0.00     0.085 H 
ATOM     14  H8  FLN d   1       5.385 -13.899  17.460  0.00  0.00     0.083 H 
ATOM     15  H9  FLN d   1       4.206 -15.225  15.718  0.00  0.00     0.083 H 
ATOM     16  H10 FLN d   1       4.500 -14.563  13.316  0.00  0.00     0.087 H 
ENDROOT
BRANCH   6  17
ATOM     17  C1' FLN d   1       6.627 -11.308  10.692  0.00  0.00    -0.002 A 
ATOM     18  C2' FLN d   1       7.247 -10.222  10.060  0.00  0.00    -0.070 A 
ATOM     19  C3' FLN d   1       7.080  -9.968   8.701  0.00  0.00    -0.082 A 
ATOM     20  H2  FLN d   1       7.875  -9.560  10.646  0.00  0.00     0.084 H 
ATOM     21  C4' FLN d   1       6.288 -10.775   7.938  0.00  0.00    -0.083 A 
ATOM     22  H3  FLN d   1       7.583  -9.123   8.246  0.00  0.00     0.083 H 
ATOM     23  C5' FLN d   1       5.663 -11.876   8.533  0.00  0.00    -0.082 A 
ATOM     24  H4  FLN d   1       6.145 -10.566   6.884  0.00  0.00     0.083 H 
ATOM     25  C6' FLN d   1       5.807 -12.136   9.900  0.00  0.00    -0.070 A 
ATOM     26  H5  FLN d   1       5.057 -12.538   7.925  0.00  0.00     0.083 H 
ATOM     27  H6  FLN d   1       5.288 -12.975  10.350  0.00  0.00     0.084 H 
ENDBRANCH   6  17
TORSDOF 1
