REMARK  4 active torsions:
REMARK  status: ('A' for Active; 'I' for Inactive)
REMARK    1  A    between atoms: CAM_3  and  OAB_4 
REMARK    2  A    between atoms: CAP_7  and  CAQ_8 
REMARK    3  A    between atoms: CAN_16  and  OAC_17 
REMARK    4  A    between atoms: CAO_19  and  OAD_20 
ROOT
ATOM      1  CAQ AGI d   1      -6.427 -10.652 -11.770  0.00  0.00     0.090 A 
ATOM      2  OAL AGI d   1      -5.640 -11.708 -12.142  0.00  0.00    -0.309 OA
ATOM      3  CAJ AGI d   1      -7.237  -9.984 -12.695  0.00  0.00    -0.000 A 
ATOM      4  CAR AGI d   1      -7.120 -10.331 -14.049  0.00  0.00     0.190 A 
ATOM      5  OAA AGI d   1      -7.899  -9.816 -14.870  0.00  0.00    -0.287 OA
ATOM      6  CAT AGI d   1      -6.243 -11.396 -14.414  0.00  0.00     0.081 A 
ATOM      7  CAS AGI d   1      -5.518 -12.096 -13.440  0.00  0.00     0.095 A 
ATOM      8  CAK AGI d   1      -4.658 -13.157 -13.758  0.00  0.00    -0.017 A 
ATOM      9  CAN AGI d   1      -4.497 -13.548 -15.094  0.00  0.00     0.071 A 
ATOM     10  CAI AGI d   1      -5.187 -12.870 -16.101  0.00  0.00    -0.018 A 
ATOM     11  CAO AGI d   1      -6.054 -11.806 -15.736  0.00  0.00     0.085 A 
ATOM     12  H6  AGI d   1      -7.939  -9.216 -12.373  0.00  0.00     0.094 H 
ATOM     13  H7  AGI d   1      -4.119 -13.674 -12.972  0.00  0.00     0.092 H 
ATOM     14  H9  AGI d   1      -5.063 -13.150 -17.141  0.00  0.00     0.092 H 
ENDROOT
BRANCH   1  15
ATOM     15  CAP AGI d   1      -6.398 -10.423 -10.387  0.00  0.00    -0.002 A 
ATOM     16  CAG AGI d   1      -7.058  -9.339  -9.771  0.00  0.00    -0.068 A 
ATOM     17  CAE AGI d   1      -6.953  -9.150  -8.385  0.00  0.00    -0.050 A 
ATOM     18  H1  AGI d   1      -7.646  -8.652 -10.369  0.00  0.00     0.085 H 
ATOM     19  CAM AGI d   1      -6.200 -10.046  -7.618  0.00  0.00     0.065 A 
ATOM     20  H2  AGI d   1      -7.453  -8.313  -7.910  0.00  0.00     0.087 H 
ATOM     21  CAF AGI d   1      -5.535 -11.127  -8.221  0.00  0.00    -0.050 A 
ATOM     22  CAH AGI d   1      -5.641 -11.313  -9.602  0.00  0.00    -0.068 A 
ATOM     23  H4  AGI d   1      -4.945 -11.810  -7.621  0.00  0.00     0.087 H 
ATOM     24  H5  AGI d   1      -5.136 -12.149 -10.072  0.00  0.00     0.085 H 
BRANCH  19  25
ATOM     25  OAB AGI d   1      -6.103  -9.902  -6.273  0.00  0.00    -0.361 OA
ATOM     26  H3  AGI d   1      -5.557 -10.595  -5.920  0.00  0.00     0.217 HD
ENDBRANCH  19  25
ENDBRANCH   1  15
BRANCH  11  27
ATOM     27  OAD AGI d   1      -6.731 -11.108 -16.685  0.00  0.00    -0.360 OA
ATOM     28  H10 AGI d   1      -7.260 -10.438 -16.267  0.00  0.00     0.217 HD
ENDBRANCH  11  27
BRANCH   9  29
ATOM     29  OAC AGI d   1      -3.632 -14.573 -15.395  0.00  0.00    -0.361 OA
ATOM     30  H8  AGI d   1      -3.632 -14.720 -16.334  0.00  0.00     0.217 HD
ENDBRANCH   9  29
TORSDOF 4
