REMARK  5 active torsions:
REMARK  status: ('A' for Active; 'I' for Inactive)
REMARK    1  A    between atoms: C2_3  and  O1_2 
REMARK    2  A    between atoms: C4_7  and  O2_4 
REMARK    3  A    between atoms: C12_18  and  O5_10 
REMARK    4  A    between atoms: C13_19  and  O6_12 
REMARK    5  A    between atoms: C10_16  and  C9_15 
ROOT
ATOM      1  C1  LU2 d   1       5.854 -12.408 -13.590  0.00  0.00    -0.017 A 
ATOM      2  C2  LU2 d   1       6.176 -12.589 -14.946  0.00  0.00     0.071 A 
ATOM      3  C3  LU2 d   1       5.151 -12.598 -15.904  0.00  0.00    -0.018 A 
ATOM      4  O3  LU2 d   1       1.174 -12.232 -14.612  0.00  0.00    -0.287 OA
ATOM      5  C4  LU2 d   1       3.809 -12.443 -15.519  0.00  0.00     0.085 A 
ATOM      6  O4  LU2 d   1       4.201 -12.045 -11.907  0.00  0.00    -0.309 OA
ATOM      7  C5  LU2 d   1       3.461 -12.268 -14.173  0.00  0.00     0.081 A 
ATOM      8  C6  LU2 d   1       4.506 -12.254 -13.230  0.00  0.00     0.095 A 
ATOM      9  C7  LU2 d   1       2.110 -12.124 -13.786  0.00  0.00     0.190 A 
ATOM     10  C8  LU2 d   1       1.848 -11.944 -12.422  0.00  0.00    -0.000 A 
ATOM     11  C9  LU2 d   1       2.902 -11.884 -11.489  0.00  0.00     0.090 A 
ATOM     12  H1  LU2 d   1       6.632 -12.388 -12.836  0.00  0.00     0.092 H 
ATOM     13  H4  LU2 d   1       5.397 -12.726 -16.952  0.00  0.00     0.092 H 
ATOM     14  H7  LU2 d   1       0.819 -11.849 -12.079  0.00  0.00     0.094 H 
ENDROOT
BRANCH  11  15
ATOM     15  C10 LU2 d   1       2.797 -11.676 -10.105  0.00  0.00     0.001 A 
ATOM     16  C11 LU2 d   1       1.681 -11.082  -9.484  0.00  0.00    -0.036 A 
ATOM     17  C12 LU2 d   1       1.677 -10.857  -8.091  0.00  0.00     0.099 A 
ATOM     18  H8  LU2 d   1       0.821 -10.796 -10.079  0.00  0.00     0.089 H 
ATOM     19  C13 LU2 d   1       2.770 -11.236  -7.291  0.00  0.00     0.098 A 
ATOM     20  C14 LU2 d   1       3.876 -11.821  -7.909  0.00  0.00    -0.047 A 
ATOM     21  C15 LU2 d   1       3.892 -12.030  -9.295  0.00  0.00    -0.068 A 
ATOM     22  H9  LU2 d   1       4.731 -12.117  -7.312  0.00  0.00     0.087 H 
ATOM     23  H10 LU2 d   1       4.768 -12.475  -9.753  0.00  0.00     0.085 H 
BRANCH  17  24
ATOM     24  O5  LU2 d   1       0.604 -10.282  -7.446  0.00  0.00    -0.358 OA
ATOM     25  H5  LU2 d   1       0.792 -10.216  -6.517  0.00  0.00     0.217 HD
ENDBRANCH  17  24
BRANCH  19  26
ATOM     26  O6  LU2 d   1       2.716 -10.992  -5.924  0.00  0.00    -0.358 OA
ATOM     27  H6  LU2 d   1       3.518 -11.299  -5.517  0.00  0.00     0.217 HD
ENDBRANCH  19  26
ENDBRANCH  11  15
BRANCH   2  28
ATOM     28  O1  LU2 d   1       7.485 -12.725 -15.332  0.00  0.00    -0.361 OA
ATOM     29  H2  LU2 d   1       7.526 -12.838 -16.274  0.00  0.00     0.217 HD
ENDBRANCH   2  28
BRANCH   5  30
ATOM     30  O2  LU2 d   1       2.786 -12.455 -16.429  0.00  0.00    -0.360 OA
ATOM     31  H3  LU2 d   1       1.959 -12.336 -15.976  0.00  0.00     0.217 HD
ENDBRANCH   5  30
TORSDOF 5
