REMARK  8 active torsions:
REMARK  status: ('A' for Active; 'I' for Inactive)
REMARK    1  A    between atoms: PAE_2  and  O5'_5 
REMARK    2  A    between atoms: O5'_5  and  C5'_6 
REMARK    3  A    between atoms: C5'_6  and  C4'_7 
REMARK    4  A    between atoms: C3'_9  and  O3'_10 
REMARK    5  A    between atoms: C2'_11  and  O2'_12 
REMARK    6  A    between atoms: C1'_13  and  NAM_14 
REMARK    7  A    between atoms: CAH_20  and  NAB_21 
REMARK    8  A    between atoms: NAB_21  and  OAC_22 
ROOT
ATOM      1  C4' MOL d   1      24.794  -9.693  15.751  0.00  0.00     0.089 C 
ATOM      2  O4' MOL d   1      24.100  -8.744  14.956  0.00  0.00    -0.353 OA
ATOM      3  C3' MOL d   1      23.885 -10.054  16.932  0.00  0.00     0.091 C 
ATOM      4  C2' MOL d   1      22.489  -9.575  16.534  0.00  0.00     0.105 C 
ATOM      5  C1' MOL d   1      22.788  -8.455  15.557  0.00  0.00     0.141 C 
ATOM      6  H3  MOL d   1      25.705  -9.240  16.168  0.00  0.00     0.090 H 
ATOM      7  H4  MOL d   1      23.888 -11.132  17.150  0.00  0.00     0.091 H 
ATOM      8  H6  MOL d   1      21.918 -10.382  16.052  0.00  0.00     0.093 H 
ATOM      9  H8  MOL d   1      22.811  -7.497  16.096  0.00  0.00     0.123 H 
ENDROOT
BRANCH   5  10
ATOM     10  NAM MOL d   1      21.807  -8.371  14.440  0.00  0.00    -0.280 N 
ATOM     11  CAL MOL d   1      21.679  -9.315  13.361  0.00  0.00     0.330 A 
ATOM     12  OAK MOL d   1      22.379 -10.328  13.263  0.00  0.00    -0.246 OA
ATOM     13  NAG MOL d   1      20.760  -9.098  12.404  0.00  0.00    -0.291 N 
ATOM     14  CAH MOL d   1      19.952  -8.007  12.453  0.00  0.00     0.159 A 
ATOM     15  H9  MOL d   1      20.670  -9.746  11.648  0.00  0.00     0.172 HD
ATOM     16  CAI MOL d   1      20.056  -7.058  13.476  0.00  0.00    -0.021 A 
ATOM     17  CAN MOL d   1      20.981  -7.242  14.458  0.00  0.00    -0.009 A 
ATOM     18  H11 MOL d   1      19.406  -6.184  13.487  0.00  0.00     0.091 H 
ATOM     19  H10 MOL d   1      21.078  -6.510  15.258  0.00  0.00     0.112 H 
BRANCH  14  20
ATOM     20  NAB MOL d   1      19.049  -7.785  11.498  0.00  0.00    -0.118 NA
BRANCH  20  21
ATOM     21  OAC MOL d   1      19.154  -6.630  10.796  0.00  0.00    -0.264 OA
ATOM     22  H12 MOL d   1      19.997  -6.602  10.358  0.00  0.00     0.247 HD
ENDBRANCH  20  21
ENDBRANCH  14  20
ENDBRANCH   5  10
BRANCH   4  23
ATOM     23  O2' MOL d   1      21.757  -9.079  17.661  0.00  0.00    -0.388 OA
ATOM     24  H7  MOL d   1      21.664  -9.770  18.306  0.00  0.00     0.210 HD
ENDBRANCH   4  23
BRANCH   1  25
ATOM     25  C5' MOL d   1      25.223 -10.783  14.793  0.00  0.00     0.059 C 
ATOM     26  H1  MOL d   1      24.830 -10.532  13.797  0.00  0.00     0.079 H 
ATOM     27  H2  MOL d   1      26.323 -10.793  14.762  0.00  0.00     0.079 H 
BRANCH  25  28
ATOM     28  O5' MOL d   1      24.775 -12.115  15.125  0.00  0.00    -0.280 OA
BRANCH  28  29
ATOM     29  PAE MOL d   1      25.419 -13.263  14.168  0.00  0.00     0.422 P 
ATOM     30  OAA MOL d   1      26.329 -12.537  13.238  0.00  0.00    -0.617 OA
ATOM     31  OAD MOL d   1      24.245 -14.084  13.524  0.00  0.00    -0.617 OA
ATOM     32  OAF MOL d   1      26.204 -14.183  15.191  0.00  0.00    -0.617 OA
ENDBRANCH  28  29
ENDBRANCH  25  28
ENDBRANCH   1  25
BRANCH   3  33
ATOM     33  O3' MOL d   1      24.390  -9.302  18.032  0.00  0.00    -0.390 OA
ATOM     34  H5  MOL d   1      25.292  -9.550  18.196  0.00  0.00     0.210 HD
ENDBRANCH   3  33
TORSDOF 8
