REMARK  4 active torsions:
REMARK  status: ('A' for Active; 'I' for Inactive)
REMARK    1  A    between atoms: CAS_1  and  OAR_2 
REMARK    2  A    between atoms: OAR_2  and  CAP_3 
REMARK    3  A    between atoms: CAK_8  and  CAI_9 
REMARK    4  A    between atoms: CAB_13  and  OAT_14 
ROOT
ATOM      1  CAI 15W d   1      -2.989 -11.944 -17.471  0.00  0.00     0.090 A 
ATOM      2  OAJ 15W d   1      -4.283 -11.977 -17.051  0.00  0.00    -0.309 OA
ATOM      3  CAF 15W d   1      -4.592 -12.211 -15.742  0.00  0.00     0.093 A 
ATOM      4  CAA 15W d   1      -5.922 -12.248 -15.356  0.00  0.00    -0.017 A 
ATOM      5  CAB 15W d   1      -6.259 -12.484 -14.022  0.00  0.00     0.068 A 
ATOM      6  CAC 15W d   1      -5.250 -12.696 -13.083  0.00  0.00    -0.050 A 
ATOM      7  CAD 15W d   1      -3.916 -12.654 -13.473  0.00  0.00    -0.064 A 
ATOM      8  CAE 15W d   1      -3.561 -12.409 -14.805  0.00  0.00     0.048 A 
ATOM      9  CAG 15W d   1      -2.214 -12.383 -15.213  0.00  0.00     0.187 A 
ATOM     10  OAQ 15W d   1      -1.265 -12.543 -14.425  0.00  0.00    -0.287 OA
ATOM     11  CAH 15W d   1      -1.948 -12.125 -16.555  0.00  0.00    -0.000 A 
ATOM     12  H8  15W d   1      -6.703 -12.093 -16.092  0.00  0.00     0.092 H 
ATOM     13  H10 15W d   1      -5.506 -12.894 -12.048  0.00  0.00     0.087 H 
ATOM     14  H11 15W d   1      -3.139 -12.813 -12.734  0.00  0.00     0.085 H 
ATOM     15  H12 15W d   1      -0.916 -12.063 -16.896  0.00  0.00     0.094 H 
ENDROOT
BRANCH   1  16
ATOM     16  CAK 15W d   1      -2.813 -11.696 -18.843  0.00  0.00    -0.002 A 
ATOM     17  CAN 15W d   1      -1.566 -11.377 -19.414  0.00  0.00    -0.068 A 
ATOM     18  CAO 15W d   1      -1.441 -11.133 -20.788  0.00  0.00    -0.050 A 
ATOM     19  H5  15W d   1      -0.689 -11.319 -18.780  0.00  0.00     0.085 H 
ATOM     20  CAP 15W d   1      -2.569 -11.192 -21.620  0.00  0.00     0.068 A 
ATOM     21  H4  15W d   1      -0.470 -10.898 -21.209  0.00  0.00     0.087 H 
ATOM     22  CAL 15W d   1      -3.793 -11.513 -21.046  0.00  0.00    -0.050 A 
ATOM     23  CAM 15W d   1      -3.916 -11.756 -19.689  0.00  0.00    -0.068 A 
ATOM     24  H6  15W d   1      -4.673 -11.575 -21.676  0.00  0.00     0.087 H 
ATOM     25  H7  15W d   1      -4.889 -11.998 -19.278  0.00  0.00     0.085 H 
BRANCH  20  26
ATOM     26  OAR 15W d   1      -2.527 -10.971 -22.972  0.00  0.00    -0.356 OA
BRANCH  26  27
ATOM     27  CAS 15W d   1      -1.356 -10.272 -23.371  0.00  0.00     0.010 C 
ATOM     28  H1  15W d   1      -1.372 -10.121 -24.460  0.00  0.00     0.066 H 
ATOM     29  H2  15W d   1      -0.467 -10.858 -23.095  0.00  0.00     0.066 H 
ATOM     30  H3  15W d   1      -1.322  -9.295 -22.866  0.00  0.00     0.066 H 
ENDBRANCH  26  27
ENDBRANCH  20  26
ENDBRANCH   1  16
BRANCH   5  31
ATOM     31  OAT 15W d   1      -7.572 -12.493 -13.652  0.00  0.00    -0.361 OA
ATOM     32  H9  15W d   1      -7.636 -12.666 -12.720  0.00  0.00     0.217 HD
ENDBRANCH   5  31
TORSDOF 4
