REMARK  8 active torsions:
REMARK  status: ('A' for Active; 'I' for Inactive)
REMARK    1  A    between atoms: C14_8  and  C15_17 
REMARK    2  A    between atoms: C2_9  and  C1_23 
REMARK    3  A    between atoms: O8_34  and  C6_10 
REMARK    4  A    between atoms: C9_11  and  O8_34 
REMARK    5  A    between atoms: S18_35  and  C11_12 
REMARK    6  A    between atoms: C29_14  and  C35_24 
REMARK    7  A    between atoms: C25_22  and  N27_26 
REMARK    8  A    between atoms: N21_27  and  S18_35 
ROOT
ATOM      1  O19 T05 d   1       1.132   4.303  53.254  0.00  0.00    -0.206 OA
ATOM      2  O20 T05 d   1       2.444   4.099  51.083  0.00  0.00    -0.206 OA
ATOM      3  S18 T05 d   1       1.822   3.504  52.253  0.00  0.00     0.243 S 
ENDROOT
BRANCH   3   4
ATOM      4  C11 T05 d   1       3.135   2.583  53.062  0.00  0.00     0.077 A 
ATOM      5  C12 T05 d   1       2.967   2.278  54.400  0.00  0.00    -0.060 A 
ATOM      6  C13 T05 d   1       3.937   1.566  55.060  0.00  0.00    -0.062 A 
ATOM      7  H5  T05 d   1       2.075   2.599  54.925  0.00  0.00     0.085 H 
ATOM      8  C14 T05 d   1       5.078   1.153  54.401  0.00  0.00     0.074 A 
ATOM      9  H2  T05 d   1       3.806   1.325  56.109  0.00  0.00     0.085 H 
ATOM     10  C9  T05 d   1       5.252   1.480  53.060  0.00  0.00     0.094 A 
ATOM     11  C10 T05 d   1       4.292   2.213  52.385  0.00  0.00    -0.027 A 
ATOM     12  H7  T05 d   1       4.439   2.494  51.348  0.00  0.00     0.090 H 
BRANCH   8  13
ATOM     13  C15 T05 d   1       6.067   0.397  55.186  0.00  0.00     0.212 C 
ATOM     14  O16 T05 d   1       6.487   0.952  56.235  0.00  0.00    -0.644 OA
ATOM     15  O17 T05 d   1       6.390  -0.753  54.782  0.00  0.00    -0.644 OA
ENDBRANCH   8  13
BRANCH  10  16
ATOM     16  O8  T05 d   1       6.444   1.118  52.453  0.00  0.00    -0.310 OA
BRANCH  16  17
ATOM     17  C6  T05 d   1       6.466   0.119  51.478  0.00  0.00     0.076 A 
ATOM     18  C5  T05 d   1       5.588  -0.951  51.466  0.00  0.00    -0.050 A 
ATOM     19  C4  T05 d   1       5.676  -1.904  50.466  0.00  0.00    -0.080 A 
ATOM     20  H4  T05 d   1       4.833  -1.042  52.238  0.00  0.00     0.087 H 
ATOM     21  C3  T05 d   1       6.651  -1.773  49.504  0.00  0.00    -0.077 A 
ATOM     22  H1  T05 d   1       4.987  -2.741  50.441  0.00  0.00     0.083 H 
ATOM     23  C2  T05 d   1       7.537  -0.714  49.528  0.00  0.00    -0.059 A 
ATOM     24  H3  T05 d   1       6.725  -2.513  48.715  0.00  0.00     0.084 H 
ATOM     25  C7  T05 d   1       7.451   0.242  50.521  0.00  0.00    -0.045 A 
ATOM     26  H6  T05 d   1       8.145   1.074  50.548  0.00  0.00     0.088 H 
BRANCH  23  27
ATOM     27  C1  T05 d   1       8.585  -0.569  48.491  0.00  0.00    -0.051 C 
ATOM     28  H18 T05 d   1       8.517  -1.407  47.781  0.00  0.00     0.033 H 
ATOM     29  H19 T05 d   1       9.576  -0.572  48.968  0.00  0.00     0.033 H 
ATOM     30  H20 T05 d   1       8.440   0.380  47.953  0.00  0.00     0.033 H 
ENDBRANCH  23  27
ENDBRANCH  16  17
ENDBRANCH  10  16
ENDBRANCH   3   4
BRANCH   3  31
ATOM     31  N21 T05 d   1       0.713   2.290  51.782  0.00  0.00    -0.204 NA
ATOM     32  C22 T05 d   1      -0.056   1.528  52.811  0.00  0.00    -0.006 C 
ATOM     33  C23 T05 d   1      -1.279   0.888  52.176  0.00  0.00    -0.051 C 
ATOM     34  H13 T05 d   1       0.586   0.743  53.238  0.00  0.00     0.057 H 
ATOM     35  H14 T05 d   1      -0.377   2.214  53.609  0.00  0.00     0.057 H 
ATOM     36  C24 T05 d   1      -0.837   0.029  50.991  0.00  0.00    -0.043 C 
ATOM     37  H9  T05 d   1      -1.791   0.257  52.917  0.00  0.00     0.034 H 
ATOM     38  H10 T05 d   1      -1.965   1.673  51.826  0.00  0.00     0.034 H 
ATOM     39  C25 T05 d   1       0.080   0.824  50.054  0.00  0.00     0.033 C 
ATOM     40  H11 T05 d   1      -1.726  -0.299  50.432  0.00  0.00     0.036 H 
ATOM     41  H12 T05 d   1      -0.294  -0.851  51.366  0.00  0.00     0.036 H 
ATOM     42  C26 T05 d   1       1.274   1.389  50.763  0.00  0.00     0.013 C 
ATOM     43  H17 T05 d   1      -0.514   1.669  49.676  0.00  0.00     0.075 H 
ATOM     44  H15 T05 d   1       1.913   1.946  50.062  0.00  0.00     0.060 H 
ATOM     45  H16 T05 d   1       1.860   0.587  51.235  0.00  0.00     0.060 H 
BRANCH  39  46
ATOM     46  N27 T05 d   1       0.543   0.073  48.906  0.00  0.00    -0.303 N 
ATOM     47  C28 T05 d   1       1.112  -1.182  49.040  0.00  0.00    -0.004 A 
ATOM     48  C29 T05 d   1       1.515  -1.918  47.990  0.00  0.00     0.022 A 
ATOM     49  H8  T05 d   1       1.239  -1.591  50.041  0.00  0.00     0.112 H 
ATOM     50  C30 T05 d   1       1.354  -1.330  46.629  0.00  0.00     0.256 A 
ATOM     51  N32 T05 d   1       0.811  -0.055  46.598  0.00  0.00    -0.275 N 
ATOM     52  O31 T05 d   1       1.674  -1.936  45.610  0.00  0.00    -0.267 OA
ATOM     53  C33 T05 d   1       0.423   0.694  47.677  0.00  0.00     0.329 A 
ATOM     54  H24 T05 d   1       0.690   0.360  45.696  0.00  0.00     0.173 HD
ATOM     55  O34 T05 d   1       0.004   1.836  47.545  0.00  0.00    -0.246 OA
BRANCH  48  56
ATOM     56  C35 T05 d   1       2.118  -3.274  48.108  0.00  0.00    -0.045 C 
ATOM     57  H21 T05 d   1       2.167  -3.562  49.168  0.00  0.00     0.033 H 
ATOM     58  H22 T05 d   1       3.133  -3.262  47.684  0.00  0.00     0.033 H 
ATOM     59  H23 T05 d   1       1.500  -3.999  47.559  0.00  0.00     0.033 H 
ENDBRANCH  48  56
ENDBRANCH  39  46
ENDBRANCH   3  31
TORSDOF 8
