REMARK  7 active torsions:
REMARK  status: ('A' for Active; 'I' for Inactive)
REMARK    1  A    between atoms: C1_1  and  C2_2 
REMARK    2  A    between atoms: N4_4  and  C10_10 
REMARK    3  A    between atoms: N14_14  and  S16_16 
REMARK    4  A    between atoms: S16_16  and  C19_19 
REMARK    5  A    between atoms: C22_22  and  O33_33 
REMARK    6  A    between atoms: C23_23  and  O25_25 
REMARK    7  A    between atoms: O25_25  and  C26_26 
ROOT
ATOM      1  C10 16T d   1      10.423   0.737   2.741  0.00  0.00     0.037 C 
ATOM      2  C11 16T d   1       9.423  -0.037   3.593  0.00  0.00    -0.043 C 
ATOM      3  C12 16T d   1       8.930   0.771   4.782  0.00  0.00    -0.048 C 
ATOM      4  C13 16T d   1      10.097   1.367   5.548  0.00  0.00     0.005 C 
ATOM      5  N14 16T d   1      10.931   2.155   4.589  0.00  0.00    -0.305 N 
ATOM      6  C15 16T d   1      11.561   1.303   3.545  0.00  0.00     0.025 C 
ATOM      7  H6  16T d   1       9.870   1.601   2.346  0.00  0.00     0.076 H 
ATOM      8  H7  16T d   1       9.908  -0.952   3.964  0.00  0.00     0.036 H 
ATOM      9  H8  16T d   1       8.560  -0.307   2.967  0.00  0.00     0.036 H 
ATOM     10  H9  16T d   1       8.357   0.114   5.452  0.00  0.00     0.035 H 
ATOM     11  H10 16T d   1       8.282   1.584   4.422  0.00  0.00     0.035 H 
ATOM     12  H11 16T d   1      10.701   0.562   5.992  0.00  0.00     0.065 H 
ATOM     13  H12 16T d   1       9.722   2.026   6.344  0.00  0.00     0.065 H 
ATOM     14  H13 16T d   1      12.221   1.906   2.904  0.00  0.00     0.068 H 
ATOM     15  H14 16T d   1      12.142   0.493   4.010  0.00  0.00     0.068 H 
ENDROOT
BRANCH   5  16
ATOM     16  S16 16T d   1      11.933   3.383   5.232  0.00  0.00     0.261 S 
ATOM     17  O17 16T d   1      11.175   4.058   6.274  0.00  0.00    -0.200 OA
ATOM     18  O18 16T d   1      12.556   4.059   4.109  0.00  0.00    -0.200 OA
BRANCH  16  19
ATOM     19  C19 16T d   1      13.216   2.403   5.974  0.00  0.00     0.082 A 
ATOM     20  C20 16T d   1      13.031   1.918   7.251  0.00  0.00    -0.058 A 
ATOM     21  C21 16T d   1      14.017   1.133   7.814  0.00  0.00    -0.047 A 
ATOM     22  H15 16T d   1      12.127   2.149   7.803  0.00  0.00     0.086 H 
ATOM     23  C22 16T d   1      15.154   0.842   7.092  0.00  0.00     0.099 A 
ATOM     24  H16 16T d   1      13.897   0.747   8.820  0.00  0.00     0.087 H 
ATOM     25  C23 16T d   1      15.329   1.335   5.811  0.00  0.00     0.110 A 
ATOM     26  C24 16T d   1      14.364   2.141   5.248  0.00  0.00    -0.025 A 
ATOM     27  H17 16T d   1      14.501   2.561   4.258  0.00  0.00     0.090 H 
BRANCH  23  28
ATOM     28  O33 16T d   1      16.112   0.049   7.674  0.00  0.00    -0.358 OA
ATOM     29  H22 16T d   1      15.830  -0.198   8.547  0.00  0.00     0.217 HD
ENDBRANCH  23  28
BRANCH  25  30
ATOM     30  O25 16T d   1      16.499   1.089   5.112  0.00  0.00    -0.308 OA
BRANCH  30  31
ATOM     31  C26 16T d   1      16.555   0.059   4.181  0.00  0.00     0.077 A 
ATOM     32  C27 16T d   1      15.818  -1.110   4.239  0.00  0.00    -0.050 A 
ATOM     33  C28 16T d   1      15.991  -2.074   3.262  0.00  0.00    -0.079 A 
ATOM     34  H18 16T d   1      15.110  -1.270   5.044  0.00  0.00     0.087 H 
ATOM     35  C29 16T d   1      16.891  -1.886   2.233  0.00  0.00    -0.062 A 
ATOM     36  H19 16T d   1      15.412  -2.989   3.305  0.00  0.00     0.083 H 
ATOM     37  C30 16T d   1      17.621  -0.718   2.183  0.00  0.00     0.036 A 
ATOM     38  H20 16T d   1      17.022  -2.648   1.473  0.00  0.00     0.086 H 
ATOM     39  C31 16T d   1      17.453   0.245   3.153  0.00  0.00    -0.029 A 
ATOM     40 CL1  16T d   1      18.746  -0.383   0.921  0.00  0.00    -0.084 Cl
ATOM     41  H21 16T d   1      18.034   1.159   3.107  0.00  0.00     0.090 H 
ENDBRANCH  30  31
ENDBRANCH  25  30
ENDBRANCH  16  19
ENDBRANCH   5  16
BRANCH   1  42
ATOM     42  N4  16T d   1      10.893   0.013   1.593  0.00  0.00    -0.303 N 
ATOM     43  C3  16T d   1      11.402  -1.257   1.722  0.00  0.00    -0.004 A 
ATOM     44  C2  16T d   1      11.813  -2.008   0.698  0.00  0.00     0.022 A 
ATOM     45  H4  16T d   1      11.475  -1.678   2.724  0.00  0.00     0.112 H 
ATOM     46  C8  16T d   1      11.694  -1.420  -0.663  0.00  0.00     0.256 A 
ATOM     47  N7  16T d   1      11.195  -0.128  -0.702  0.00  0.00    -0.275 N 
ATOM     48  O9  16T d   1      12.026  -2.042  -1.669  0.00  0.00    -0.267 OA
ATOM     49  C5  16T d   1      10.799   0.640   0.368  0.00  0.00     0.329 A 
ATOM     50  H5  16T d   1      11.114   0.291  -1.606  0.00  0.00     0.173 HD
ATOM     51  O6  16T d   1      10.394   1.785   0.233  0.00  0.00    -0.246 OA
BRANCH  44  52
ATOM     52  C1  16T d   1      12.347  -3.371   0.902  0.00  0.00    -0.045 C 
ATOM     53  H1  16T d   1      12.349  -3.607   1.976  0.00  0.00     0.033 H 
ATOM     54  H2  16T d   1      13.375  -3.424   0.513  0.00  0.00     0.033 H 
ATOM     55  H3  16T d   1      11.715  -4.096   0.368  0.00  0.00     0.033 H 
ENDBRANCH  44  52
ENDBRANCH   1  42
TORSDOF 7
