REMARK  4 active torsions:
REMARK  status: ('A' for Active; 'I' for Inactive)
REMARK    1  A    between atoms: CAL_2  and  OAT_3 
REMARK    2  A    between atoms: CAP_4  and  OAS_5 
REMARK    3  A    between atoms: CAK_8  and  CAJ_9 
REMARK    4  A    between atoms: CAB_13  and  OAR_14 
ROOT
ATOM      1  CAJ 15Z d   1      -6.557 -37.452  11.815  0.00  0.00     0.090 A 
ATOM      2  OAG 15Z d   1      -5.808 -36.396  12.231  0.00  0.00    -0.309 OA
ATOM      3  CAF 15Z d   1      -5.749 -36.041  13.531  0.00  0.00     0.093 A 
ATOM      4  CAA 15Z d   1      -4.880 -35.018  13.861  0.00  0.00    -0.017 A 
ATOM      5  CAB 15Z d   1      -4.767 -34.611  15.182  0.00  0.00     0.068 A 
ATOM      6  CAC 15Z d   1      -5.515 -35.296  16.148  0.00  0.00    -0.050 A 
ATOM      7  CAD 15Z d   1      -6.396 -36.355  15.804  0.00  0.00    -0.064 A 
ATOM      8  CAE 15Z d   1      -6.531 -36.726  14.462  0.00  0.00     0.048 A 
ATOM      9  CAH 15Z d   1      -7.391 -37.781  14.041  0.00  0.00     0.187 A 
ATOM     10  OAQ 15Z d   1      -8.218 -38.316  14.810  0.00  0.00    -0.287 OA
ATOM     11  CAI 15Z d   1      -7.414 -38.112  12.697  0.00  0.00    -0.000 A 
ATOM     12  H6  15Z d   1      -4.289 -34.536  13.091  0.00  0.00     0.092 H 
ATOM     13  H8  15Z d   1      -5.418 -35.009  17.189  0.00  0.00     0.087 H 
ATOM     14  H9  15Z d   1      -6.958 -36.871  16.574  0.00  0.00     0.085 H 
ATOM     15  H10 15Z d   1      -8.094 -38.880  12.332  0.00  0.00     0.094 H 
ENDROOT
BRANCH   1  16
ATOM     16  CAK 15Z d   1      -6.436 -37.713  10.430  0.00  0.00     0.001 A 
ATOM     17  CAM 15Z d   1      -6.907 -38.883   9.807  0.00  0.00    -0.036 A 
ATOM     18  CAL 15Z d   1      -6.730 -39.059   8.434  0.00  0.00     0.099 A 
ATOM     19  H1  15Z d   1      -7.407 -39.647  10.392  0.00  0.00     0.089 H 
ATOM     20  CAP 15Z d   1      -6.109 -38.101   7.675  0.00  0.00     0.098 A 
ATOM     21  CAO 15Z d   1      -5.625 -36.947   8.269  0.00  0.00    -0.047 A 
ATOM     22  CAN 15Z d   1      -5.787 -36.754   9.632  0.00  0.00    -0.068 A 
ATOM     23  H4  15Z d   1      -5.121 -36.197   7.670  0.00  0.00     0.087 H 
ATOM     24  H5  15Z d   1      -5.407 -35.848  10.091  0.00  0.00     0.085 H 
BRANCH  18  25
ATOM     25  OAT 15Z d   1      -7.171 -40.136   7.756  0.00  0.00    -0.358 OA
ATOM     26  H2  15Z d   1      -6.766 -40.919   8.110  0.00  0.00     0.217 HD
ENDBRANCH  18  25
BRANCH  20  27
ATOM     27  OAS 15Z d   1      -6.022 -38.329   6.340  0.00  0.00    -0.358 OA
ATOM     28  H3  15Z d   1      -6.896 -38.415   5.977  0.00  0.00     0.217 HD
ENDBRANCH  20  27
ENDBRANCH   1  16
BRANCH   5  29
ATOM     29  OAR 15Z d   1      -3.899 -33.568  15.485  0.00  0.00    -0.361 OA
ATOM     30  H7  15Z d   1      -3.924 -33.398  16.419  0.00  0.00     0.217 HD
ENDBRANCH   5  29
TORSDOF 4
