REMARK  2 active torsions:
REMARK  status: ('A' for Active; 'I' for Inactive)
REMARK    1  A    between atoms: CAL_2  and  OAR_3 
REMARK    2  A    between atoms: CAK_7  and  CAI_8 
ROOT
ATOM      1  CAI 20B d   1      -7.000 -36.659  11.779  0.00  0.00     0.090 A 
ATOM      2  OAJ 20B d   1      -6.217 -35.666  12.299  0.00  0.00    -0.309 OA
ATOM      3  CAF 20B d   1      -6.124 -35.416  13.621  0.00  0.00     0.090 A 
ATOM      4  CAA 20B d   1      -5.238 -34.430  14.051  0.00  0.00    -0.049 A 
ATOM      5  CAB 20B d   1      -5.107 -34.188  15.426  0.00  0.00    -0.080 A 
ATOM      6  CAC 20B d   1      -5.872 -34.958  16.320  0.00  0.00    -0.082 A 
ATOM      7  CAD 20B d   1      -6.758 -35.942  15.859  0.00  0.00    -0.066 A 
ATOM      8  CAE 20B d   1      -6.906 -36.160  14.500  0.00  0.00     0.048 A 
ATOM      9  CAG 20B d   1      -7.776 -37.154  14.021  0.00  0.00     0.187 A 
ATOM     10  OAQ 20B d   1      -8.547 -37.745  14.797  0.00  0.00    -0.287 OA
ATOM     11  CAH 20B d   1      -7.783 -37.423  12.653  0.00  0.00    -0.000 A 
ATOM     12  H6  20B d   1      -4.659 -33.859  13.334  0.00  0.00     0.087 H 
ATOM     13  H7  20B d   1      -4.431 -33.424  15.792  0.00  0.00     0.083 H 
ATOM     14  H8  20B d   1      -5.775 -34.788  17.386  0.00  0.00     0.083 H 
ATOM     15  H9  20B d   1      -7.328 -36.533  16.567  0.00  0.00     0.085 H 
ATOM     16  H10 20B d   1      -8.400 -38.231  12.262  0.00  0.00     0.094 H 
ENDROOT
BRANCH   1  17
ATOM     17  CAK 20B d   1      -6.834 -36.852  10.367  0.00  0.00     0.001 A 
ATOM     18  CAM 20B d   1      -7.285 -37.997   9.674  0.00  0.00    -0.038 A 
ATOM     19  CAL 20B d   1      -7.047 -38.146   8.295  0.00  0.00     0.066 A 
ATOM     20  H1  20B d   1      -7.821 -38.771  10.211  0.00  0.00     0.089 H 
ATOM     21  CAP 20B d   1      -6.383 -37.154   7.562  0.00  0.00    -0.051 A 
ATOM     22  CAO 20B d   1      -5.936 -36.031   8.247  0.00  0.00    -0.079 A 
ATOM     23  H3  20B d   1      -6.223 -37.259   6.495  0.00  0.00     0.087 H 
ATOM     24  CAN 20B d   1      -6.152 -35.882   9.618  0.00  0.00    -0.070 A 
ATOM     25  H4  20B d   1      -5.408 -35.254   7.705  0.00  0.00     0.083 H 
ATOM     26  H5  20B d   1      -5.783 -34.993  10.117  0.00  0.00     0.084 H 
BRANCH  19  27
ATOM     27  OAR 20B d   1      -7.483 -39.250   7.645  0.00  0.00    -0.361 OA
ATOM     28  H2  20B d   1      -7.242 -39.192   6.728  0.00  0.00     0.217 HD
ENDBRANCH  19  27
ENDBRANCH   1  17
TORSDOF 2
