REMARK  0 active torsions:
REMARK  status: ('A' for Active; 'I' for Inactive)
ROOT
ATOM      1  CAJ 20D d   1     -38.073 -10.937  12.894  0.00  0.00    -0.000 C 
ATOM      2  CAG 20D d   1     -38.085 -11.250  14.241  0.00  0.00     0.187 C 
ATOM      3  OAK 20D d   1     -37.329 -10.649  14.994  0.00  0.00    -0.287 OA
ATOM      4  CAF 20D d   1     -38.921 -12.269  14.682  0.00  0.00     0.048 A 
ATOM      5  CAA 20D d   1     -39.047 -12.527  16.043  0.00  0.00    -0.066 A 
ATOM      6  CAB 20D d   1     -39.886 -13.569  16.460  0.00  0.00    -0.082 A 
ATOM      7  CAC 20D d   1     -40.586 -14.335  15.518  0.00  0.00    -0.080 A 
ATOM      8  CAD 20D d   1     -40.467 -14.050  14.163  0.00  0.00    -0.049 A 
ATOM      9  CAE 20D d   1     -39.630 -13.040  13.754  0.00  0.00     0.090 A 
ATOM     10  OAH 20D d   1     -39.552 -12.743  12.425  0.00  0.00    -0.309 OA
ATOM     11  CAI 20D d   1     -38.863 -11.641  12.016  0.00  0.00     0.090 C 
ATOM     12  CAL 20D d   1     -38.878 -11.388  10.624  0.00  0.00    -0.002 A 
ATOM     13  CAM 20D d   1     -38.270 -10.269  10.042  0.00  0.00    -0.068 A 
ATOM     14  CAN 20D d   1     -38.318 -10.071   8.656  0.00  0.00    -0.045 A 
ATOM     15  CAO 20D d   1     -38.972 -10.994   7.852  0.00  0.00     0.116 A 
ATOM     16  FAR 20D d   1     -39.033 -10.835   6.503  0.00  0.00    -0.206 F 
ATOM     17  CAP 20D d   1     -39.592 -12.094   8.413  0.00  0.00    -0.045 A 
ATOM     18  CAQ 20D d   1     -39.550 -12.291   9.794  0.00  0.00    -0.068 A 
ATOM     19  H1  20D d   1     -37.437 -10.132  12.528  0.00  0.00     0.094 H 
ATOM     20  H2  20D d   1     -38.505 -11.932  16.769  0.00  0.00     0.085 H 
ATOM     21  H3  20D d   1     -39.994 -13.784  17.517  0.00  0.00     0.083 H 
ATOM     22  H4  20D d   1     -41.221 -15.150  15.846  0.00  0.00     0.083 H 
ATOM     23  H5  20D d   1     -41.031 -14.621  13.434  0.00  0.00     0.087 H 
ATOM     24  H6  20D d   1     -37.757  -9.549  10.670  0.00  0.00     0.085 H 
ATOM     25  H7  20D d   1     -37.846  -9.201   8.214  0.00  0.00     0.088 H 
ATOM     26  H8  20D d   1     -40.111 -12.804   7.780  0.00  0.00     0.088 H 
ATOM     27  H9  20D d   1     -40.044 -13.153  10.228  0.00  0.00     0.085 H 
ENDROOT
TORSDOF 0
