REMARK  1 active torsions:
REMARK  status: ('A' for Active; 'I' for Inactive)
REMARK    1  A    between atoms: CAM_15  and  CAP_16 
ROOT
ATOM      1  CAB 431 d   1     -39.268 -10.626  12.958  0.00  0.00    -0.000 A 
ATOM      2  CAD 431 d   1     -39.308 -10.905  14.318  0.00  0.00     0.187 A 
ATOM      3  OAH 431 d   1     -38.483 -10.338  15.063  0.00  0.00    -0.287 OA
ATOM      4  CAE 431 d   1     -40.175 -11.927  14.771  0.00  0.00     0.048 A 
ATOM      5  CAN 431 d   1     -40.300 -12.226  16.123  0.00  0.00    -0.066 A 
ATOM      6  CAQ 431 d   1     -41.159 -13.249  16.552  0.00  0.00    -0.082 A 
ATOM      7  CAR 431 d   1     -41.894 -14.010  15.627  0.00  0.00    -0.080 A 
ATOM      8  CAO 431 d   1     -41.775 -13.697  14.275  0.00  0.00    -0.049 A 
ATOM      9  CAF 431 d   1     -40.926 -12.676  13.861  0.00  0.00     0.090 A 
ATOM     10  OAC 431 d   1     -40.845 -12.381  12.515  0.00  0.00    -0.309 OA
ATOM     11  CAA 431 d   1     -40.057 -11.351  12.055  0.00  0.00     0.090 A 
ATOM     12  CAG 431 d   1     -40.119 -11.114  10.655  0.00  0.00    -0.002 A 
ATOM     13  CAI 431 d   1     -39.409 -10.094   9.983  0.00  0.00    -0.070 A 
ATOM     14  CAK 431 d   1     -39.525  -9.909   8.600  0.00  0.00    -0.076 A 
ATOM     15  CAM 431 d   1     -40.347 -10.728   7.824  0.00  0.00    -0.062 A 
ATOM     16  CAL 431 d   1     -41.052 -11.745   8.484  0.00  0.00    -0.076 A 
ATOM     17  CAJ 431 d   1     -40.936 -11.938   9.866  0.00  0.00    -0.070 A 
ATOM     18  H1  431 d   1     -38.616  -9.835  12.589  0.00  0.00     0.094 H 
ATOM     19  H2  431 d   1     -39.728 -11.664  16.852  0.00  0.00     0.085 H 
ATOM     20  H3  431 d   1     -41.257 -13.455  17.612  0.00  0.00     0.083 H 
ATOM     21  H4  431 d   1     -42.536 -14.819  15.957  0.00  0.00     0.083 H 
ATOM     22  H5  431 d   1     -42.347 -14.252  13.541  0.00  0.00     0.087 H 
ATOM     23  H6  431 d   1     -38.759  -9.439  10.552  0.00  0.00     0.084 H 
ATOM     24  H7  431 d   1     -38.965  -9.113   8.122  0.00  0.00     0.084 H 
ATOM     25  H11 431 d   1     -41.702 -12.397   7.911  0.00  0.00     0.084 H 
ATOM     26  H12 431 d   1     -41.490 -12.742  10.337  0.00  0.00     0.084 H 
ENDROOT
BRANCH  15  27
ATOM     27  CAP 431 d   1     -40.472 -10.569   6.414  0.00  0.00    -0.051 C 
ATOM     28  H8  431 d   1     -41.170 -11.323   6.021  0.00  0.00     0.033 H 
ATOM     29  H9  431 d   1     -39.487 -10.699   5.942  0.00  0.00     0.033 H 
ATOM     30  H10 431 d   1     -40.855  -9.562   6.191  0.00  0.00     0.033 H 
ENDBRANCH  15  27
TORSDOF 1
