REMARK  3 active torsions:
REMARK  status: ('A' for Active; 'I' for Inactive)
REMARK    1  A    between atoms: CAL_2  and  OAR_3 
REMARK    2  A    between atoms: CAP_4  and  OAS_5 
REMARK    3  A    between atoms: CAK_8  and  CAJ_9 
ROOT
ATOM      1  CAJ 16S d   1      -6.970  36.439 -11.732  0.00  0.00     0.090 A 
ATOM      2  OAG 16S d   1      -6.205  35.400 -12.194  0.00  0.00    -0.309 OA
ATOM      3  CAF 16S d   1      -6.117  35.123 -13.539  0.00  0.00     0.090 A 
ATOM      4  CAA 16S d   1      -5.252  34.124 -13.961  0.00  0.00    -0.049 A 
ATOM      5  CAB 16S d   1      -5.137  33.862 -15.326  0.00  0.00    -0.080 A 
ATOM      6  CAC 16S d   1      -5.874  34.612 -16.250  0.00  0.00    -0.082 A 
ATOM      7  CAD 16S d   1      -6.756  35.615 -15.808  0.00  0.00    -0.066 A 
ATOM      8  CAE 16S d   1      -6.885  35.856 -14.442  0.00  0.00     0.048 A 
ATOM      9  CAH 16S d   1      -7.740  36.860 -13.981  0.00  0.00     0.187 A 
ATOM     10  OAQ 16S d   1      -8.496  37.431 -14.760  0.00  0.00    -0.287 OA
ATOM     11  CAI 16S d   1      -7.773  37.164 -12.619  0.00  0.00    -0.000 A 
ATOM     12  H6  16S d   1      -4.674  33.556 -13.241  0.00  0.00     0.087 H 
ATOM     13  H7  16S d   1      -4.476  33.076 -15.672  0.00  0.00     0.083 H 
ATOM     14  H8  16S d   1      -5.765  34.419 -17.311  0.00  0.00     0.083 H 
ATOM     15  H9  16S d   1      -7.329  36.194 -16.523  0.00  0.00     0.085 H 
ATOM     16  H10 16S d   1      -8.419  37.959 -12.250  0.00  0.00     0.094 H 
ENDROOT
BRANCH   1  17
ATOM     17  CAK 16S d   1      -6.869  36.672 -10.336  0.00  0.00     0.001 A 
ATOM     18  CAM 16S d   1      -7.366  37.831  -9.699  0.00  0.00    -0.036 A 
ATOM     19  CAL 16S d   1      -7.195  37.987  -8.311  0.00  0.00     0.099 A 
ATOM     20  H1  16S d   1      -7.875  38.595 -10.275  0.00  0.00     0.089 H 
ATOM     21  CAP 16S d   1      -6.544  37.014  -7.550  0.00  0.00     0.098 A 
ATOM     22  CAO 16S d   1      -6.045  35.876  -8.161  0.00  0.00    -0.047 A 
ATOM     23  CAN 16S d   1      -6.204  35.720  -9.541  0.00  0.00    -0.068 A 
ATOM     24  H4  16S d   1      -5.538  35.116  -7.577  0.00  0.00     0.087 H 
ATOM     25  H5  16S d   1      -5.800  34.833 -10.016  0.00  0.00     0.085 H 
BRANCH  19  26
ATOM     26  OAR 16S d   1      -7.648  39.067  -7.621  0.00  0.00    -0.358 OA
ATOM     27  H2  16S d   1      -7.427  38.970  -6.702  0.00  0.00     0.217 HD
ENDBRANCH  19  26
BRANCH  21  28
ATOM     28  OAS 16S d   1      -6.432  37.229  -6.211  0.00  0.00    -0.358 OA
ATOM     29  H3  16S d   1      -5.946  38.031  -6.060  0.00  0.00     0.217 HD
ENDBRANCH  21  28
ENDBRANCH   1  17
TORSDOF 3
