REMARK  5 active torsions:
REMARK  status: ('A' for Active; 'I' for Inactive)
REMARK    1  A    between atoms: C14_6  and  O13_7 
REMARK    2  A    between atoms: O13_7  and  C12_8 
REMARK    3  A    between atoms: C12_8  and  C11_9 
REMARK    4  A    between atoms: C11_9  and  S10_10 
REMARK    5  A    between atoms: S10_10  and  C8_11 
ROOT
ATOM      1  C11 17W d   1      17.342  16.456  27.998  0.00  0.00     0.004 C 
ATOM      2  H8  17W d   1      17.772  16.133  27.038  0.00  0.00     0.052 H 
ATOM      3  H9  17W d   1      17.668  17.483  28.219  0.00  0.00     0.052 H 
ENDROOT
BRANCH   1   4
ATOM      4  C12 17W d   1      17.826  15.526  29.104  0.00  0.00     0.034 C 
ATOM      5  H6  17W d   1      16.974  15.001  29.561  0.00  0.00     0.076 H 
ATOM      6  H7  17W d   1      18.536  14.790  28.699  0.00  0.00     0.076 H 
BRANCH   4   7
ATOM      7  O13 17W d   1      18.470  16.353  30.068  0.00  0.00    -0.350 OA
BRANCH   7   8
ATOM      8  C14 17W d   1      19.250  15.846  31.075  0.00  0.00     0.068 A 
ATOM      9  C19 17W d   1      20.070  16.718  31.792  0.00  0.00    -0.051 A 
ATOM     10  C18 17W d   1      20.868  16.235  32.818  0.00  0.00    -0.080 A 
ATOM     11  H1  17W d   1      20.083  17.774  31.547  0.00  0.00     0.087 H 
ATOM     12  C17 17W d   1      20.840  14.875  33.120  0.00  0.00    -0.083 A 
ATOM     13  H2  17W d   1      21.506  16.908  33.379  0.00  0.00     0.083 H 
ATOM     14  C16 17W d   1      20.024  13.997  32.407  0.00  0.00    -0.080 A 
ATOM     15  H3  17W d   1      21.462  14.493  33.922  0.00  0.00     0.083 H 
ATOM     16  C15 17W d   1      19.222  14.485  31.382  0.00  0.00    -0.051 A 
ATOM     17  H4  17W d   1      20.015  12.941  32.651  0.00  0.00     0.083 H 
ATOM     18  H5  17W d   1      18.579  13.813  30.825  0.00  0.00     0.087 H 
ENDBRANCH   7   8
ENDBRANCH   4   7
ENDBRANCH   1   4
BRANCH   1  19
ATOM     19  S10 17W d   1      15.586  16.415  27.890  0.00  0.00    -0.090 SA
BRANCH  19  20
ATOM     20  C8  17W d   1      14.868  18.020  27.979  0.00  0.00     0.167 A 
ATOM     21  N9  17W d   1      15.247  18.946  28.890  0.00  0.00    -0.333 N 
ATOM     22  C2  17W d   1      14.460  20.028  28.641  0.00  0.00     0.063 A 
ATOM     23  H10 17W d   1      15.973  18.852  29.614  0.00  0.00     0.168 HD
ATOM     24  C3  17W d   1      13.568  19.663  27.505  0.00  0.00     0.086 A 
ATOM     25  C1  17W d   1      14.347  21.299  29.202  0.00  0.00    -0.055 A 
ATOM     26  N7  17W d   1      13.876  18.396  27.154  0.00  0.00    -0.223 NA
ATOM     27  C4  17W d   1      12.646  20.603  27.039  0.00  0.00    -0.053 A 
ATOM     28  C5  17W d   1      12.573  21.860  27.636  0.00  0.00    -0.081 A 
ATOM     29  H11 17W d   1      11.988  20.355  26.214  0.00  0.00     0.087 H 
ATOM     30  C6  17W d   1      13.410  22.202  28.699  0.00  0.00    -0.081 A 
ATOM     31  H12 17W d   1      11.854  22.584  27.269  0.00  0.00     0.083 H 
ATOM     32  H13 17W d   1      13.331  23.188  29.142  0.00  0.00     0.083 H 
ATOM     33  H14 17W d   1      14.987  21.586  30.029  0.00  0.00     0.087 H 
ENDBRANCH  19  20
ENDBRANCH   1  19
TORSDOF 5
