REMARK  3 active torsions:
REMARK  status: ('A' for Active; 'I' for Inactive)
REMARK    1  A    between atoms: CAL_2  and  OAS_3 
REMARK    2  A    between atoms: CAH_7  and  CAF_8 
REMARK    3  A    between atoms: CAO_12  and  OAR_13 
ROOT
ATOM      1  CAF F94 d   1       2.681 -11.870 -11.491  0.00  0.00     0.090 C 
ATOM      2  OAA F94 d   1       3.938 -12.084 -11.938  0.00  0.00    -0.309 OA
ATOM      3  CAB F94 d   1       4.224 -12.213 -13.245  0.00  0.00     0.093 A 
ATOM      4  CAN F94 d   1       5.565 -12.309 -13.629  0.00  0.00    -0.017 A 
ATOM      5  CAO F94 d   1       5.882 -12.419 -14.976  0.00  0.00     0.068 A 
ATOM      6  CAP F94 d   1       4.847 -12.432 -15.915  0.00  0.00    -0.050 A 
ATOM      7  CAQ F94 d   1       3.520 -12.352 -15.508  0.00  0.00    -0.064 A 
ATOM      8  CAC F94 d   1       3.186 -12.262 -14.156  0.00  0.00     0.048 A 
ATOM      9  CAD F94 d   1       1.858 -12.161 -13.729  0.00  0.00     0.187 C 
ATOM     10  OAG F94 d   1       0.894 -12.224 -14.508  0.00  0.00    -0.287 OA
ATOM     11  CAE F94 d   1       1.620 -11.937 -12.383  0.00  0.00    -0.000 C 
ATOM     12  H6  F94 d   1       6.350 -12.298 -12.882  0.00  0.00     0.092 H 
ATOM     13  H8  F94 d   1       5.081 -12.505 -16.971  0.00  0.00     0.087 H 
ATOM     14  H9  F94 d   1       2.732 -12.360 -16.253  0.00  0.00     0.085 H 
ATOM     15  H10 F94 d   1       0.599 -11.813 -12.024  0.00  0.00     0.094 H 
ENDROOT
BRANCH   1  16
ATOM     16  CAH F94 d   1       2.595 -11.658 -10.108  0.00  0.00     0.001 A 
ATOM     17  CAK F94 d   1       1.469 -11.114  -9.496  0.00  0.00    -0.038 A 
ATOM     18  CAL F94 d   1       1.457 -10.901  -8.095  0.00  0.00     0.066 A 
ATOM     19  H1  F94 d   1       0.601 -10.853 -10.091  0.00  0.00     0.089 H 
ATOM     20  CAM F94 d   1       2.553 -11.226  -7.306  0.00  0.00    -0.051 A 
ATOM     21  CAI F94 d   1       3.662 -11.769  -7.926  0.00  0.00    -0.079 A 
ATOM     22  H3  F94 d   1       2.539 -11.059  -6.235  0.00  0.00     0.087 H 
ATOM     23  CAJ F94 d   1       3.692 -11.982  -9.307  0.00  0.00    -0.070 A 
ATOM     24  H4  F94 d   1       4.527 -12.035  -7.329  0.00  0.00     0.083 H 
ATOM     25  H5  F94 d   1       4.580 -12.405  -9.763  0.00  0.00     0.084 H 
BRANCH  18  26
ATOM     26  OAS F94 d   1       0.370 -10.346  -7.491  0.00  0.00    -0.361 OA
ATOM     27  H2  F94 d   1       0.215  -9.482  -7.853  0.00  0.00     0.217 HD
ENDBRANCH  18  26
ENDBRANCH   1  16
BRANCH   5  28
ATOM     28  OAR F94 d   1       7.180 -12.475 -15.369  0.00  0.00    -0.361 OA
ATOM     29  H7  F94 d   1       7.220 -12.549 -16.315  0.00  0.00     0.217 HD
ENDBRANCH   5  28
TORSDOF 3
