REMARK  6 active torsions:
REMARK  status: ('A' for Active; 'I' for Inactive)
REMARK    1  A    between atoms: N_1  and  CA_2 
REMARK    2  A    between atoms: CA_2  and  C_3 
REMARK    3  A    between atoms: CA_2  and  CB_5 
REMARK    4  A    between atoms: CB_5  and  CG_6 
REMARK    5  A    between atoms: CG_6  and  CD1_7 
REMARK    6  A    between atoms: CG_6  and  CD2_8 
ROOT
ATOM      1  CB  LEU d   1     -19.165  13.914  -7.599  0.00  0.00    -0.026 C 
ATOM      2  H5  LEU d   1     -19.054  14.489  -8.530  0.00  0.00     0.037 H 
ATOM      3  H6  LEU d   1     -19.665  14.536  -6.841  0.00  0.00     0.037 H 
ENDROOT
BRANCH   1   4
ATOM      4  CA  LEU d   1     -17.776  13.581  -7.088  0.00  0.00     0.182 C 
ATOM      5  H4  LEU d   1     -17.269  12.884  -7.772  0.00  0.00     0.101 H 
BRANCH   4   6
ATOM      6  N   LEU d   1     -17.863  12.967  -5.763  0.00  0.00    -0.065 N 
ATOM      7  H1  LEU d   1     -18.354  12.089  -5.831  0.00  0.00     0.275 HD
ATOM      8  H2  LEU d   1     -18.361  13.583  -5.139  0.00  0.00     0.275 HD
ATOM      9  H3  LEU d   1     -16.934  12.806  -5.406  0.00  0.00     0.275 HD
ENDBRANCH   4   6
BRANCH   4  10
ATOM     10  C   LEU d   1     -17.045  14.918  -7.070  0.00  0.00     0.204 C 
ATOM     11  O   LEU d   1     -16.728  15.548  -8.091  0.00  0.00    -0.646 OA
ATOM     12  OXT LEU d   1     -16.868  15.504  -6.040  0.00  0.00    -0.646 OA
ENDBRANCH   4  10
ENDBRANCH   1   4
BRANCH   1  13
ATOM     13  CG  LEU d   1     -20.050  12.735  -7.886  0.00  0.00    -0.059 C 
ATOM     14  H7  LEU d   1     -20.375  12.280  -6.939  0.00  0.00     0.038 H 
BRANCH  13  15
ATOM     15  CD1 LEU d   1     -21.240  13.213  -8.633  0.00  0.00    -0.073 C 
ATOM     16  H8  LEU d   1     -21.901  12.362  -8.853  0.00  0.00     0.028 H 
ATOM     17  H9  LEU d   1     -20.918  13.680  -9.575  0.00  0.00     0.028 H 
ATOM     18  H10 LEU d   1     -21.783  13.951  -8.024  0.00  0.00     0.028 H 
ENDBRANCH  13  15
BRANCH  13  19
ATOM     19  CD2 LEU d   1     -19.280  11.710  -8.686  0.00  0.00    -0.073 C 
ATOM     20  H11 LEU d   1     -18.406  11.375  -8.108  0.00  0.00     0.028 H 
ATOM     21  H12 LEU d   1     -18.944  12.160  -9.632  0.00  0.00     0.028 H 
ATOM     22  H13 LEU d   1     -19.930  10.849  -8.900  0.00  0.00     0.028 H 
ENDBRANCH  13  19
ENDBRANCH   1  13
TORSDOF 6
