REMARK  3 active torsions:
REMARK  status: ('A' for Active; 'I' for Inactive)
REMARK    1  A    between atoms: C3_7  and  C36_47 
REMARK    2  A    between atoms: C6_16  and  C35_46 
REMARK    3  A    between atoms: C9_25  and  C37_48 
ROOT
ATOM      1  C1  FCE d   1      59.556  63.007  -0.057  0.00  0.00     0.240 C 
ATOM      2  N1  FCE d   1      61.238  61.475   0.659  0.00  0.00    -0.346 N 
ATOM      3  O1  FCE d   1      59.667  64.217  -0.007  0.00  0.00    -0.271 OA
ATOM      4  C2  FCE d   1      61.538  63.596  -5.519  0.00  0.00     0.235 C 
ATOM      5  N2  FCE d   1      59.474  62.767  -4.587  0.00  0.00    -0.351 N 
ATOM      6  O2  FCE d   1      61.172  64.647  -5.160  0.00  0.00    -0.272 OA
ATOM      7  C3  FCE d   1      61.854  64.181   5.237  0.00  0.00     0.175 C 
ATOM      8  N3  FCE d   1      63.661  60.862   0.012  0.00  0.00    -0.346 N 
ATOM      9  O3  FCE d   1      62.971  64.861   4.667  0.00  0.00    -0.175 OA
ATOM     10  C4  FCE d   1      61.540  60.183   0.779  0.00  0.00     0.241 C 
ATOM     11  N4  FCE d   1      63.881  62.439  -3.353  0.00  0.00    -0.346 N 
ATOM     12  O4  FCE d   1      60.753  59.346   1.007  0.00  0.00    -0.271 OA
ATOM     13  C5  FCE d   1      59.869  62.780  -3.339  0.00  0.00     0.235 C 
ATOM     14  N5  FCE d   1      61.536  63.000   4.721  0.00  0.00    -0.204 N 
ATOM     15  O5  FCE d   1      60.970  62.515  -3.066  0.00  0.00    -0.272 OA
ATOM     16  C6  FCE d   1      65.927  61.992   3.874  0.00  0.00     0.175 C 
ATOM     17  N6  FCE d   1      65.543  61.698   2.636  0.00  0.00    -0.204 N 
ATOM     18  O6  FCE d   1      65.180  63.038   4.479  0.00  0.00    -0.175 OA
ATOM     19  C7  FCE d   1      63.430  61.210  -1.250  0.00  0.00     0.241 C 
ATOM     20  N7  FCE d   1      59.066  62.405  -1.086  0.00  0.00    -0.351 N 
ATOM     21  O7  FCE d   1      62.588  60.624  -1.863  0.00  0.00    -0.271 OA
ATOM     22  C8  FCE d   1      64.604  63.151  -4.197  0.00  0.00     0.236 C 
ATOM     23  N8  FCE d   1      63.208  65.300   1.011  0.00  0.00    -0.204 N 
ATOM     24  O8  FCE d   1      64.819  65.424   2.677  0.00  0.00    -0.175 OA
ATOM     25  C9  FCE d   1      64.334  65.842   1.439  0.00  0.00     0.175 C 
ATOM     26  N9  FCE d   1      62.797  63.289  -5.837  0.00  0.00    -0.351 N 
ATOM     27  C10 FCE d   1      60.081  62.178   1.065  0.00  0.00     0.089 C 
ATOM     28  O10 FCE d   1      62.483  62.472   3.914  0.00  0.00    -0.084 OA
ATOM     29  C11 FCE d   1      60.483  62.532  -5.582  0.00  0.00     0.069 C 
ATOM     30  O11 FCE d   1      64.782  62.620   2.051  0.00  0.00    -0.084 OA
ATOM     31  C13 FCE d   1      62.976  59.837   0.750  0.00  0.00     0.089 C 
ATOM     32  C14 FCE d   1      58.916  63.201  -2.297  0.00  0.00     0.069 C 
ATOM     33  O14 FCE d   1      62.641  64.428   1.813  0.00  0.00    -0.084 OA
ATOM     34  C16 FCE d   1      64.136  62.334  -1.981  0.00  0.00     0.089 C 
ATOM     35  C17 FCE d   1      63.918  63.979  -5.254  0.00  0.00     0.069 C 
ATOM     36  O17 FCE d   1      65.770  63.186  -4.132  0.00  0.00    -0.272 OA
ATOM     37  C18 FCE d   1      59.376  62.301   2.408  0.00  0.00    -0.036 C 
ATOM     38  C21 FCE d   1      63.429  59.736   2.208  0.00  0.00    -0.036 C 
ATOM     39  C24 FCE d   1      64.019  63.765  -1.479  0.00  0.00    -0.036 C 
ATOM     40  C25 FCE d   1      60.248  61.789   3.499  0.00  0.00    -0.045 C 
ATOM     41  C27 FCE d   1      64.894  59.409   2.501  0.00  0.00    -0.045 C 
ATOM     42  C29 FCE d   1      62.620  64.255  -1.181  0.00  0.00    -0.045 C 
ATOM     43  C30 FCE d   1      60.244  62.443   4.833  0.00  0.00     0.026 C 
ATOM     44  C32 FCE d   1      65.786  60.478   1.928  0.00  0.00     0.026 C 
ATOM     45  C34 FCE d   1      62.602  65.494  -0.286  0.00  0.00     0.026 C 
ATOM     46 FE   FCE d   1      63.832  63.805   3.257  0.00  0.00     0.000 Fe
ATOM     47  H1  FCE d   1      61.938  62.033   0.213  0.00  0.00     0.163 HD
ATOM     48  H2  FCE d   1      58.517  62.913  -4.835  0.00  0.00     0.163 HD
ATOM     49  H3  FCE d   1      64.381  61.362   0.494  0.00  0.00     0.163 HD
ATOM     50  H4  FCE d   1      63.096  61.940  -3.720  0.00  0.00     0.163 HD
ATOM     51  H5  FCE d   1      58.802  61.441  -1.055  0.00  0.00     0.163 HD
ATOM     52  H6  FCE d   1      62.967  62.559  -6.499  0.00  0.00     0.163 HD
ATOM     53  H7  FCE d   1      59.449  61.311   0.822  0.00  0.00     0.087 H 
ATOM     54  H8  FCE d   1      60.947  61.551  -5.403  0.00  0.00     0.078 H 
ATOM     55  H9  FCE d   1      60.018  62.541  -6.579  0.00  0.00     0.078 H 
ATOM     56  H10 FCE d   1      63.130  58.869   0.251  0.00  0.00     0.087 H 
ATOM     57  H11 FCE d   1      57.892  63.081  -2.679  0.00  0.00     0.078 H 
ATOM     58  H12 FCE d   1      59.095  64.259  -2.054  0.00  0.00     0.078 H 
ATOM     59  H13 FCE d   1      65.200  62.071  -1.882  0.00  0.00     0.087 H 
ATOM     60  H14 FCE d   1      64.643  64.213  -6.048  0.00  0.00     0.078 H 
ATOM     61  H15 FCE d   1      63.561  64.913  -4.797  0.00  0.00     0.078 H 
ATOM     62  H16 FCE d   1      58.445  61.716   2.384  0.00  0.00     0.036 H 
ATOM     63  H17 FCE d   1      59.140  63.358   2.598  0.00  0.00     0.036 H 
ATOM     64  H18 FCE d   1      62.821  58.952   2.682  0.00  0.00     0.036 H 
ATOM     65  H19 FCE d   1      63.212  60.705   2.682  0.00  0.00     0.036 H 
ATOM     66  H20 FCE d   1      64.450  64.426  -2.245  0.00  0.00     0.036 H 
ATOM     67  H21 FCE d   1      64.607  63.845  -0.553  0.00  0.00     0.036 H 
ATOM     68  H22 FCE d   1      61.282  61.838   3.126  0.00  0.00     0.035 H 
ATOM     69  H23 FCE d   1      59.966  60.738   3.662  0.00  0.00     0.035 H 
ATOM     70  H24 FCE d   1      65.149  58.440   2.047  0.00  0.00     0.035 H 
ATOM     71  H25 FCE d   1      65.044  59.354   3.589  0.00  0.00     0.035 H 
ATOM     72  H26 FCE d   1      62.066  63.450  -0.677  0.00  0.00     0.035 H 
ATOM     73  H27 FCE d   1      62.124  64.501  -2.132  0.00  0.00     0.035 H 
ATOM     74  H28 FCE d   1      59.458  63.206   4.931  0.00  0.00     0.068 H 
ATOM     75  H29 FCE d   1      60.161  61.723   5.660  0.00  0.00     0.068 H 
ATOM     76  H30 FCE d   1      66.840  60.184   2.045  0.00  0.00     0.068 H 
ATOM     77  H31 FCE d   1      65.560  60.617   0.860  0.00  0.00     0.068 H 
ATOM     78  H32 FCE d   1      63.144  66.300  -0.802  0.00  0.00     0.068 H 
ATOM     79  H33 FCE d   1      61.555  65.795  -0.135  0.00  0.00     0.068 H 
ENDROOT
BRANCH   7  80
ATOM     80  C36 FCE d   1      60.999  64.660   6.316  0.00  0.00    -0.013 C 
ATOM     81  H37 FCE d   1      60.225  63.909   6.531  0.00  0.00     0.038 H 
ATOM     82  H38 FCE d   1      60.521  65.603   6.014  0.00  0.00     0.038 H 
ATOM     83  H39 FCE d   1      61.606  64.829   7.217  0.00  0.00     0.038 H 
ENDBRANCH   7  80
BRANCH  16  84
ATOM     84  C35 FCE d   1      67.039  61.300   4.594  0.00  0.00    -0.013 C 
ATOM     85  H34 FCE d   1      67.151  61.733   5.599  0.00  0.00     0.038 H 
ATOM     86  H35 FCE d   1      67.976  61.430   4.033  0.00  0.00     0.038 H 
ATOM     87  H36 FCE d   1      66.809  60.228   4.680  0.00  0.00     0.038 H 
ENDBRANCH  16  84
BRANCH  25  88
ATOM     88  C37 FCE d   1      65.076  66.889   0.687  0.00  0.00    -0.013 C 
ATOM     89  H40 FCE d   1      65.977  67.176   1.250  0.00  0.00     0.038 H 
ATOM     90  H41 FCE d   1      64.432  67.770   0.553  0.00  0.00     0.038 H 
ATOM     91  H42 FCE d   1      65.368  66.495  -0.298  0.00  0.00     0.038 H 
ENDBRANCH  25  88
TORSDOF 3
