REMARK  14 active torsions:
REMARK  status: ('A' for Active; 'I' for Inactive)
REMARK    1  A    between atoms: C1_1  and  O11_7 
REMARK    2  A    between atoms: C2_2  and  O12_8 
REMARK    3  A    between atoms: C3_3  and  O13_9 
REMARK    4  A    between atoms: C4_4  and  O14_10 
REMARK    5  A    between atoms: O15_11  and  C5_5 
REMARK    6  A    between atoms: C6_6  and  O16_12 
REMARK    7  A    between atoms: O11_7  and  PA1_32 
REMARK    8  A    between atoms: O12_8  and  PA2_33 
REMARK    9  A    between atoms: O13_9  and  PA3_34 
REMARK   10  A    between atoms: O14_10  and  PA4_35 
REMARK   11  A    between atoms: CA5_36  and  O15_11 
REMARK   12  A    between atoms: O16_12  and  PA6_37 
REMARK   13  A    between atoms: CB5_38  and  CA5_36 
REMARK   14  A    between atoms: CB5_38  and  PB5_39 
ROOT
ATOM      1  C1  0EJ d   1       0.925  19.572  10.036  0.00  0.00     0.107 C 
ATOM      2  C2  0EJ d   1      -0.554  19.870   9.783  0.00  0.00     0.107 C 
ATOM      3  C3  0EJ d   1      -1.295  19.792  11.131  0.00  0.00     0.107 C 
ATOM      4  C4  0EJ d   1      -0.769  20.845  12.100  0.00  0.00     0.107 C 
ATOM      5  C5  0EJ d   1       0.741  20.693  12.320  0.00  0.00     0.104 C 
ATOM      6  C6  0EJ d   1       1.530  20.617  10.989  0.00  0.00     0.107 C 
ATOM      7  H   0EJ d   1       0.999  18.592  10.507  0.00  0.00     0.092 H 
ATOM      8  H   0EJ d   1      -0.973  19.141   9.089  0.00  0.00     0.092 H 
ATOM      9  H   0EJ d   1      -1.126  18.800  11.549  0.00  0.00     0.092 H 
ATOM     10  H   0EJ d   1      -0.952  21.836  11.685  0.00  0.00     0.092 H 
ATOM     11  H   0EJ d   1       0.912  19.752  12.844  0.00  0.00     0.092 H 
ATOM     12  H   0EJ d   1       1.493  21.596  10.511  0.00  0.00     0.092 H 
ENDROOT
BRANCH   5  13
ATOM     13  O15 0EJ d   1       1.211  21.806  13.105  0.00  0.00    -0.310 OA
BRANCH  13  14
ATOM     14  CA5 0EJ d   1       1.606  21.458  14.377  0.00  0.00     0.272 C 
ATOM     15  O25 0EJ d   1       1.765  20.306  14.791  0.00  0.00    -0.265 OA
BRANCH  14  16
ATOM     16  CB5 0EJ d   1       1.884  22.646  15.294  0.00  0.00     0.119 C 
ATOM     17  H   0EJ d   1       2.167  22.298  16.288  0.00  0.00     0.069 H 
ATOM     18  H   0EJ d   1       0.990  23.261  15.398  0.00  0.00     0.069 H 
BRANCH  16  19
ATOM     19  PB5 0EJ d   1       3.229  23.612  14.559  0.00  0.00     0.269 P 
ATOM     20  O45 0EJ d   1       3.830  24.550  15.747  0.00  0.00    -0.639 OA
ATOM     21  O55 0EJ d   1       4.402  22.549  14.213  0.00  0.00    -0.639 OA
ATOM     22  O65 0EJ d   1       2.819  24.364  13.348  0.00  0.00    -0.639 OA
ENDBRANCH  16  19
ENDBRANCH  14  16
ENDBRANCH  13  14
ENDBRANCH   5  13
BRANCH   4  23
ATOM     23  O14 0EJ d   1      -1.442  20.673  13.345  0.00  0.00    -0.272 OA
BRANCH  23  24
ATOM     24  PA4 0EJ d   1      -2.289  21.882  14.040  0.00  0.00     0.422 P 
ATOM     25  O24 0EJ d   1      -3.837  21.582  13.681  0.00  0.00    -0.617 OA
ATOM     26  O34 0EJ d   1      -1.914  23.245  13.251  0.00  0.00    -0.617 OA
ATOM     27  O44 0EJ d   1      -2.009  21.976  15.492  0.00  0.00    -0.617 OA
ENDBRANCH  23  24
ENDBRANCH   4  23
BRANCH   6  28
ATOM     28  O16 0EJ d   1       2.862  20.217  11.281  0.00  0.00    -0.272 OA
BRANCH  28  29
ATOM     29  PA6 0EJ d   1       4.117  21.190  11.002  0.00  0.00     0.422 P 
ATOM     30  O26 0EJ d   1       5.140  20.847  12.204  0.00  0.00    -0.617 OA
ATOM     31  O36 0EJ d   1       3.588  22.711  11.260  0.00  0.00    -0.617 OA
ATOM     32  O46 0EJ d   1       4.709  20.993   9.659  0.00  0.00    -0.617 OA
ENDBRANCH  28  29
ENDBRANCH   6  28
BRANCH   3  33
ATOM     33  O13 0EJ d   1      -2.691  20.010  10.936  0.00  0.00    -0.272 OA
BRANCH  33  34
ATOM     34  PA3 0EJ d   1      -3.770  18.839  11.244  0.00  0.00     0.422 P 
ATOM     35  O23 0EJ d   1      -3.579  18.477  12.806  0.00  0.00    -0.617 OA
ATOM     36  O33 0EJ d   1      -3.240  17.539  10.431  0.00  0.00    -0.617 OA
ATOM     37  O43 0EJ d   1      -5.153  19.283  10.895  0.00  0.00    -0.617 OA
ENDBRANCH  33  34
ENDBRANCH   3  33
BRANCH   1  38
ATOM     38  O11 0EJ d   1       1.662  19.528   8.793  0.00  0.00    -0.272 OA
BRANCH  38  39
ATOM     39  PA1 0EJ d   1       1.892  18.095   8.024  0.00  0.00     0.422 P 
ATOM     40  O21 0EJ d   1       2.270  16.980   9.145  0.00  0.00    -0.617 OA
ATOM     41  O31 0EJ d   1       0.431  17.648   7.464  0.00  0.00    -0.617 OA
ATOM     42  O41 0EJ d   1       2.921  18.211   6.956  0.00  0.00    -0.617 OA
ENDBRANCH  38  39
ENDBRANCH   1  38
BRANCH   2  43
ATOM     43  O12 0EJ d   1      -0.708  21.178   9.185  0.00  0.00    -0.272 OA
BRANCH  43  44
ATOM     44  PA2 0EJ d   1      -1.194  21.325   7.652  0.00  0.00     0.422 P 
ATOM     45  O22 0EJ d   1      -2.810  21.144   7.719  0.00  0.00    -0.617 OA
ATOM     46  O32 0EJ d   1      -0.676  20.045   6.809  0.00  0.00    -0.617 OA
ATOM     47  O42 0EJ d   1      -0.715  22.582   7.049  0.00  0.00    -0.617 OA
ENDBRANCH  43  44
ENDBRANCH   2  43
TORSDOF 14
