REMARK  4 active torsions:
REMARK  status: ('A' for Active; 'I' for Inactive)
REMARK    1  A    between atoms: C04_4  and  C02_2 
REMARK    2  A    between atoms: C04_4  and  O05_5 
REMARK    3  A    between atoms: C04_4  and  C07_6 
REMARK    4  A    between atoms: C06_12  and  C04_4 
ROOT
ATOM      1  C04 0UT d   1      20.499  21.391  63.027  0.00  0.00     0.201 C 
ENDROOT
BRANCH   1   2
ATOM      2  C02 0UT d   1      19.254  22.238  63.167  0.00  0.00     0.219 C 
ATOM      3  O01 0UT d   1      18.137  21.667  63.019  0.00  0.00    -0.645 OA
ATOM      4  O03 0UT d   1      19.301  23.511  63.416  0.00  0.00    -0.645 OA
ENDBRANCH   1   2
BRANCH   1   5
ATOM      5  O05 0UT d   1      20.152  20.239  62.296  0.00  0.00    -0.370 OA
ATOM      6  H1  0UT d   1      19.827  20.494  61.441  0.00  0.00     0.212 HD
ENDBRANCH   1   5
BRANCH   1   7
ATOM      7  C07 0UT d   1      21.597  22.124  62.290  0.00  0.00    -0.009 A 
ATOM      8  C6  0UT d   1      21.905  23.467  62.531  0.00  0.00    -0.073 A 
ATOM      9  C7  0UT d   1      22.925  24.106  61.838  0.00  0.00    -0.082 A 
ATOM     10  H7  0UT d   1      21.338  24.019  63.272  0.00  0.00     0.084 H 
ATOM     11  C8  0UT d   1      23.643  23.408  60.885  0.00  0.00    -0.083 A 
ATOM     12  H8  0UT d   1      23.157  25.145  62.043  0.00  0.00     0.083 H 
ATOM     13  C9  0UT d   1      23.357  22.080  60.632  0.00  0.00    -0.082 A 
ATOM     14  H9  0UT d   1      24.434  23.904  60.334  0.00  0.00     0.083 H 
ATOM     15  C10 0UT d   1      22.343  21.443  61.338  0.00  0.00    -0.073 A 
ATOM     16  H10 0UT d   1      23.922  21.536  59.884  0.00  0.00     0.083 H 
ATOM     17  H11 0UT d   1      22.132  20.398  61.142  0.00  0.00     0.084 H 
ENDBRANCH   1   7
BRANCH   1  18
ATOM     18  C06 0UT d   1      20.983  20.962  64.392  0.00  0.00    -0.009 A 
ATOM     19  C1  0UT d   1      21.905  19.919  64.530  0.00  0.00    -0.073 A 
ATOM     20  C2  0UT d   1      22.353  19.515  65.790  0.00  0.00    -0.082 A 
ATOM     21  H2  0UT d   1      22.278  19.416  63.645  0.00  0.00     0.084 H 
ATOM     22  C3  0UT d   1      21.877  20.133  66.953  0.00  0.00    -0.083 A 
ATOM     23  H3  0UT d   1      23.078  18.713  65.868  0.00  0.00     0.083 H 
ATOM     24  C4  0UT d   1      20.966  21.173  66.842  0.00  0.00    -0.082 A 
ATOM     25  H4  0UT d   1      22.216  19.803  67.928  0.00  0.00     0.083 H 
ATOM     26  C5  0UT d   1      20.529  21.580  65.565  0.00  0.00    -0.073 A 
ATOM     27  H5  0UT d   1      20.593  21.669  67.731  0.00  0.00     0.083 H 
ATOM     28  H6  0UT d   1      19.820  22.396  65.488  0.00  0.00     0.084 H 
ENDBRANCH   1  18
TORSDOF 4
