REMARK  5 active torsions:
REMARK  status: ('A' for Active; 'I' for Inactive)
REMARK    1  A    between atoms: O2_19  and  C2_2 
REMARK    2  A    between atoms: C10_7  and  N3_18 
REMARK    3  A    between atoms: C11_8  and  C12_9 
REMARK    4  A    between atoms: C12_9  and  O2_19 
REMARK    5  A    between atoms: C16_13  and  N5_16 
ROOT
ATOM      1  C7  16W d   1      26.753  -1.349  21.722  0.00  0.00     0.091 A 
ATOM      2  C8  16W d   1      25.578  -1.943  23.721  0.00  0.00     0.164 A 
ATOM      3  C9  16W d   1      25.132  -3.221  23.190  0.00  0.00     0.085 A 
ATOM      4  C10 16W d   1      25.554  -3.464  21.866  0.00  0.00     0.139 A 
ATOM      5  C11 16W d   1      24.380  -3.897  24.212  0.00  0.00     0.097 A 
ATOM      6  N2  16W d   1      26.370  -1.019  23.015  0.00  0.00    -0.222 NA
ATOM      7  N4  16W d   1      26.342  -2.550  21.178  0.00  0.00    -0.224 NA
ATOM      8  N5  16W d   1      25.049  -1.967  24.962  0.00  0.00    -0.246 N 
ATOM      9  N1  16W d   1      24.371  -3.062  25.249  0.00  0.00    -0.172 NA
ATOM     10  H   16W d   1      27.373  -0.666  21.141  0.00  0.00     0.146 H 
ENDROOT
BRANCH   5  11
ATOM     11  C12 16W d   1      23.850  -5.282  24.165  0.00  0.00     0.068 C 
ATOM     12  H   16W d   1      23.087  -5.380  23.392  0.00  0.00     0.085 H 
ATOM     13  H   16W d   1      23.375  -5.549  25.109  0.00  0.00     0.085 H 
BRANCH  11  14
ATOM     14  O2  16W d   1      25.009  -6.173  23.884  0.00  0.00    -0.345 OA
BRANCH  14  15
ATOM     15  C2  16W d   1      24.851  -7.552  24.056  0.00  0.00     0.070 A 
ATOM     16  C1  16W d   1      23.665  -8.035  24.718  0.00  0.00    -0.030 A 
ATOM     17  C6  16W d   1      23.549  -9.431  24.888  0.00  0.00     0.036 A 
ATOM     18  H   16W d   1      22.892  -7.352  25.072  0.00  0.00     0.090 H 
ATOM     19  C5  16W d   1      24.548 -10.371  24.433  0.00  0.00    -0.062 A 
ATOM     20 CL1  16W d   1      22.142  -9.918  25.670  0.00  0.00    -0.084 Cl
ATOM     21  C4  16W d   1      25.738  -9.912  23.764  0.00  0.00    -0.079 A 
ATOM     22  H   16W d   1      24.399 -11.438  24.598  0.00  0.00     0.086 H 
ATOM     23  C3  16W d   1      25.874  -8.498  23.585  0.00  0.00    -0.051 A 
ATOM     24  H   16W d   1      26.499 -10.608  23.411  0.00  0.00     0.083 H 
ATOM     25  H   16W d   1      26.762  -8.111  23.085  0.00  0.00     0.087 H 
ENDBRANCH  14  15
ENDBRANCH  11  14
ENDBRANCH   5  11
BRANCH   4  26
ATOM     26  N3  16W d   1      25.177  -4.550  21.168  0.00  0.00    -0.383 N 
ATOM     27  H   16W d   1      24.560  -5.241  21.594  0.00  0.00     0.157 HD
ATOM     28  H   16W d   1      25.508  -4.683  20.212  0.00  0.00     0.157 HD
ENDBRANCH   4  26
BRANCH   8  29
ATOM     29  C16 16W d   1      25.211  -0.861  25.919  0.00  0.00     0.040 C 
ATOM     30  C15 16W d   1      26.293  -1.191  26.951  0.00  0.00    -0.024 C 
ATOM     31  C14 16W d   1      26.489  -0.057  27.957  0.00  0.00     0.021 C 
ATOM     32  H   16W d   1      25.983  -2.082  27.497  0.00  0.00     0.039 H 
ATOM     33  H   16W d   1      27.234  -1.344  26.422  0.00  0.00     0.039 H 
ATOM     34  O1  16W d   1      25.210   0.170  28.606  0.00  0.00    -0.391 OA
ATOM     35  H   16W d   1      26.829   0.848  27.453  0.00  0.00     0.074 H 
ATOM     36  H   16W d   1      27.249  -0.324  28.691  0.00  0.00     0.074 H 
ATOM     37  C13 16W d   1      24.139   0.590  27.768  0.00  0.00     0.021 C 
ATOM     38  C17 16W d   1      23.910  -0.467  26.636  0.00  0.00    -0.024 C 
ATOM     39  H   16W d   1      24.387   1.552  27.320  0.00  0.00     0.074 H 
ATOM     40  H   16W d   1      23.231   0.685  28.363  0.00  0.00     0.074 H 
ATOM     41  H   16W d   1      23.241  -0.026  25.897  0.00  0.00     0.039 H 
ATOM     42  H   16W d   1      23.497  -1.365  27.096  0.00  0.00     0.039 H 
ATOM     43  H   16W d   1      25.514   0.001  25.325  0.00  0.00     0.076 H 
ENDBRANCH   8  29
TORSDOF 5
