REMARK  5 active torsions:
REMARK  status: ('A' for Active; 'I' for Inactive)
REMARK    1  A    between atoms: O2_19  and  C2_2 
REMARK    2  A    between atoms: C10_7  and  N3_18 
REMARK    3  A    between atoms: C11_8  and  C12_9 
REMARK    4  A    between atoms: C12_9  and  O2_19 
REMARK    5  A    between atoms: C16_13  and  N5_16 
ROOT
ATOM      1  C7  16W d   1     -27.349 -16.545 -25.475  0.00  0.00     0.091 A 
ATOM      2  C8  16W d   1     -27.287 -16.357 -27.891  0.00  0.00     0.164 A 
ATOM      3  C9  16W d   1     -26.767 -15.012 -27.840  0.00  0.00     0.085 A 
ATOM      4  C10 16W d   1     -26.570 -14.497 -26.543  0.00  0.00     0.139 A 
ATOM      5  C11 16W d   1     -26.612 -14.604 -29.194  0.00  0.00     0.097 A 
ATOM      6  N2  16W d   1     -27.565 -17.096 -26.725  0.00  0.00    -0.222 NA
ATOM      7  N4  16W d   1     -26.857 -15.256 -25.420  0.00  0.00    -0.224 NA
ATOM      8  N5  16W d   1     -27.391 -16.594 -29.201  0.00  0.00    -0.246 N 
ATOM      9  N1  16W d   1     -27.010 -15.603 -29.941  0.00  0.00    -0.172 NA
ATOM     10  H   16W d   1     -27.560 -17.108 -24.566  0.00  0.00     0.146 H 
ENDROOT
BRANCH   5  11
ATOM     11  C12 16W d   1     -26.076 -13.355 -29.691  0.00  0.00     0.068 C 
ATOM     12  H   16W d   1     -26.607 -12.491 -29.291  0.00  0.00     0.085 H 
ATOM     13  H   16W d   1     -26.187 -13.261 -30.771  0.00  0.00     0.085 H 
BRANCH  11  14
ATOM     14  O2  16W d   1     -24.685 -13.378 -29.284  0.00  0.00    -0.345 OA
BRANCH  14  15
ATOM     15  C2  16W d   1     -23.802 -12.406 -29.766  0.00  0.00     0.070 A 
ATOM     16  C1  16W d   1     -24.252 -11.737 -30.920  0.00  0.00    -0.030 A 
ATOM     17  C6  16W d   1     -23.453 -10.740 -31.437  0.00  0.00     0.036 A 
ATOM     18  H   16W d   1     -25.201 -11.999 -31.389  0.00  0.00     0.090 H 
ATOM     19  C5  16W d   1     -22.175 -10.300 -30.923  0.00  0.00    -0.062 A 
ATOM     20 CL1  16W d   1     -24.366 -10.207 -32.716  0.00  0.00    -0.084 Cl
ATOM     21  C4  16W d   1     -21.689 -10.980 -29.734  0.00  0.00    -0.079 A 
ATOM     22  H   16W d   1     -21.607  -9.502 -31.401  0.00  0.00     0.086 H 
ATOM     23  C3  16W d   1     -22.518 -12.046 -29.152  0.00  0.00    -0.051 A 
ATOM     24  H   16W d   1     -20.734 -10.707 -29.285  0.00  0.00     0.083 H 
ATOM     25  H   16W d   1     -22.177 -12.572 -28.260  0.00  0.00     0.087 H 
ENDBRANCH  14  15
ENDBRANCH  11  14
ENDBRANCH   5  11
BRANCH   4  26
ATOM     26  N3  16W d   1     -26.133 -13.240 -26.332  0.00  0.00    -0.383 N 
ATOM     27  H   16W d   1     -25.934 -12.630 -27.125  0.00  0.00     0.157 HD
ATOM     28  H   16W d   1     -26.001 -12.899 -25.380  0.00  0.00     0.157 HD
ENDBRANCH   4  26
BRANCH   8  29
ATOM     29  C16 16W d   1     -27.902 -17.834 -29.736  0.00  0.00     0.040 C 
ATOM     30  C15 16W d   1     -26.934 -18.546 -30.678  0.00  0.00    -0.024 C 
ATOM     31  C14 16W d   1     -27.490 -19.801 -31.258  0.00  0.00     0.021 C 
ATOM     32  H   16W d   1     -26.721 -17.868 -31.504  0.00  0.00     0.039 H 
ATOM     33  H   16W d   1     -26.050 -18.814 -30.100  0.00  0.00     0.039 H 
ATOM     34  O1  16W d   1     -28.720 -19.487 -31.911  0.00  0.00    -0.391 OA
ATOM     35  H   16W d   1     -27.662 -20.533 -30.469  0.00  0.00     0.074 H 
ATOM     36  H   16W d   1     -26.785 -20.227 -31.973  0.00  0.00     0.074 H 
ATOM     37  C13 16W d   1     -29.774 -18.802 -31.180  0.00  0.00     0.021 C 
ATOM     38  C17 16W d   1     -29.235 -17.584 -30.443  0.00  0.00    -0.024 C 
ATOM     39  H   16W d   1     -30.194 -19.492 -30.448  0.00  0.00     0.074 H 
ATOM     40  H   16W d   1     -30.530 -18.470 -31.891  0.00  0.00     0.074 H 
ATOM     41  H   16W d   1     -29.964 -17.316 -29.679  0.00  0.00     0.039 H 
ATOM     42  H   16W d   1     -29.070 -16.802 -31.184  0.00  0.00     0.039 H 
ATOM     43  H   16W d   1     -28.042 -18.501 -28.885  0.00  0.00     0.076 H 
ENDBRANCH   8  29
TORSDOF 5
