REMARK  7 active torsions:
REMARK  status: ('A' for Active; 'I' for Inactive)
REMARK    1  A    between atoms: N_1  and  CA_2 
REMARK    2  A    between atoms: CA_2  and  C_3 
REMARK    3  A    between atoms: CA_2  and  CB_5 
REMARK    4  A    between atoms: CB_5  and  CG_6 
REMARK    5  A    between atoms: CG_6  and  CD_7 
REMARK    6  A    between atoms: CD_7  and  CE_8 
REMARK    7  A    between atoms: CE_8  and  NZ_9 
ROOT
ATOM      1  CG  LYS d   1      47.843   1.749  42.253  0.00  0.00    -0.061 C 
ATOM      2  H7  LYS d   1      47.656   2.063  43.290  0.00  0.00     0.033 H 
ATOM      3  H8  LYS d   1      47.874   0.651  42.203  0.00  0.00     0.033 H 
ENDROOT
BRANCH   1   4
ATOM      4  CB  LYS d   1      49.184   2.317  41.784  0.00  0.00    -0.029 C 
ATOM      5  H5  LYS d   1      49.257   2.152  40.699  0.00  0.00     0.036 H 
ATOM      6  H6  LYS d   1      49.182   3.397  41.992  0.00  0.00     0.036 H 
BRANCH   4   7
ATOM      7  CA  LYS d   1      50.445   1.715  42.437  0.00  0.00     0.182 C 
ATOM      8  H4  LYS d   1      51.234   2.481  42.401  0.00  0.00     0.101 H 
BRANCH   7   9
ATOM      9  N   LYS d   1      50.936   0.531  41.677  0.00  0.00    -0.065 N 
ATOM     10  H1  LYS d   1      51.086   0.788  40.714  0.00  0.00     0.275 HD
ATOM     11  H2  LYS d   1      50.251  -0.207  41.724  0.00  0.00     0.275 HD
ATOM     12  H3  LYS d   1      51.803   0.210  42.078  0.00  0.00     0.275 HD
ENDBRANCH   7   9
BRANCH   7  13
ATOM     13  C   LYS d   1      50.200   1.375  43.913  0.00  0.00     0.204 C 
ATOM     14  O   LYS d   1      50.165   0.208  44.320  0.00  0.00    -0.646 OA
ATOM     15  OXT LYS d   1      50.015   2.278  44.734  0.00  0.00    -0.646 OA
ENDBRANCH   7  13
ENDBRANCH   4   7
ENDBRANCH   1   4
BRANCH   1  16
ATOM     16  CD  LYS d   1      46.721   2.265  41.358  0.00  0.00    -0.043 C 
ATOM     17  H9  LYS d   1      46.696   1.644  40.450  0.00  0.00     0.035 H 
ATOM     18  H10 LYS d   1      46.953   3.305  41.085  0.00  0.00     0.035 H 
BRANCH  16  19
ATOM     19  CE  LYS d   1      45.328   2.240  41.989  0.00  0.00     0.080 C 
ATOM     20  H11 LYS d   1      44.610   2.517  41.203  0.00  0.00     0.075 H 
ATOM     21  H12 LYS d   1      45.316   3.003  42.782  0.00  0.00     0.075 H 
BRANCH  19  22
ATOM     22  NZ  LYS d   1      44.848   0.969  42.595  0.00  0.00    -0.079 N 
ATOM     23  H13 LYS d   1      43.921   1.104  42.968  0.00  0.00     0.274 HD
ATOM     24  H14 LYS d   1      45.472   0.694  43.337  0.00  0.00     0.274 HD
ATOM     25  H15 LYS d   1      44.825   0.248  41.891  0.00  0.00     0.274 HD
ENDBRANCH  19  22
ENDBRANCH  16  19
ENDBRANCH   1  16
TORSDOF 7
