REMARK  26 active torsions:
REMARK  status: ('A' for Active; 'I' for Inactive)
REMARK    1  A    between atoms: C1_2  and  C27_1 
REMARK    2  A    between atoms: C27_1  and  C28_4 
REMARK       I    between atoms: N1_8  and  C1_2 
REMARK    3  A    between atoms: C28_4  and  C29_5 
REMARK    4  A    between atoms: C29_5  and  C30_6 
REMARK    5  A    between atoms: C30_6  and  C31_7 
REMARK    6  A    between atoms: C2_9  and  N1_8 
REMARK    7  A    between atoms: C5_10  and  C2_9 
REMARK    8  A    between atoms: C2_9  and  C3_12 
REMARK       I    between atoms: N2_18  and  C5_10 
REMARK    9  A    between atoms: C3_12  and  C4_13 
REMARK   10  A    between atoms: C3_12  and  C26_14 
REMARK   11  A    between atoms: C6_23  and  C10_15 
REMARK       I    between atoms: C10_15  and  N3_26 
REMARK   12  A    between atoms: C8_17  and  C9_16 
REMARK       I    between atoms: C9_16  and  N5_20 
REMARK   13  A    between atoms: C7_24  and  C8_17 
REMARK   14  A    between atoms: C6_23  and  N2_18 
REMARK   15  A    between atoms: N5_20  and  C24_21 
REMARK   16  A    between atoms: N5_20  and  C25_22 
REMARK   17  A    between atoms: C6_23  and  C7_24 
REMARK   18  A    between atoms: N3_26  and  C11_27 
REMARK   19  A    between atoms: C11_27  and  C16_28 
REMARK   20  A    between atoms: C11_27  and  C12_33 
REMARK   21  A    between atoms: C16_28  and  O6_29 
REMARK   22  A    between atoms: C16_28  and  C17_30 
REMARK   23  A    between atoms: C17_30  and  C23_31 
REMARK   24  A    between atoms: C12_33  and  C13_34 
REMARK   25  A    between atoms: C13_34  and  C15_35 
REMARK   26  A    between atoms: C13_34  and  C14_36 
ROOT
ATOM      1  C6  ONK d   1      61.219-136.606  39.122  0.00  0.00     0.090 C 
ATOM      2  H   ONK d   1      60.550-135.810  39.481  0.00  0.00     0.087 H 
ENDROOT
BRANCH   1   3
ATOM      3  C10 ONK d   1      62.470-136.567  39.960  0.00  0.00     0.240 C 
ATOM      4  O2  ONK d   1      63.572-136.746  39.456  0.00  0.00    -0.271 OA
ATOM      5  N3  ONK d   1      62.290-136.332  41.260  0.00  0.00    -0.352 N 
ATOM      6  H   ONK d   1      61.355-136.204  41.590  0.00  0.00     0.163 HD
BRANCH   5   7
ATOM      7  C11 ONK d   1      63.374-136.251  42.225  0.00  0.00     0.041 C 
ATOM      8  H   ONK d   1      64.331-136.339  41.690  0.00  0.00     0.077 H 
BRANCH   7   9
ATOM      9  C16 ONK d   1      63.291-137.402  43.241  0.00  0.00     0.075 C 
ATOM     10  H   ONK d   1      64.168-137.370  43.904  0.00  0.00     0.093 H 
BRANCH   9  11
ATOM     11  O6  ONK d   1      62.088-137.242  44.015  0.00  0.00    -0.389 OA
ATOM     12  H   ONK d   1      62.024-137.948  44.648  0.00  0.00     0.210 HD
ENDBRANCH   9  11
BRANCH   9  13
ATOM     13  C17 ONK d   1      63.245-138.747  42.526  0.00  0.00    -0.063 C 
ATOM     14  C18 ONK d   1      62.228-139.575  42.701  0.00  0.00    -0.117 C 
ATOM     15  H   ONK d   1      61.406-139.296  43.358  0.00  0.00     0.067 H 
ATOM     16  H   ONK d   1      62.213-140.535  42.188  0.00  0.00     0.067 H 
BRANCH  13  17
ATOM     17  C23 ONK d   1      64.358-139.174  41.609  0.00  0.00    -0.053 C 
ATOM     18  H   ONK d   1      64.133-140.169  41.197  0.00  0.00     0.033 H 
ATOM     19  H   ONK d   1      65.302-139.216  42.172  0.00  0.00     0.033 H 
ATOM     20  H   ONK d   1      64.454-138.450  40.786  0.00  0.00     0.033 H 
ENDBRANCH  13  17
ENDBRANCH   9  13
ENDBRANCH   7   9
BRANCH   7  21
ATOM     21  C12 ONK d   1      63.318-134.876  42.895  0.00  0.00    -0.041 C 
ATOM     22  H   ONK d   1      63.490-135.022  43.972  0.00  0.00     0.036 H 
ATOM     23  H   ONK d   1      62.309-134.469  42.737  0.00  0.00     0.036 H 
BRANCH  21  24
ATOM     24  C13 ONK d   1      64.322-133.833  42.402  0.00  0.00    -0.059 C 
ATOM     25  H   ONK d   1      65.237-133.960  43.000  0.00  0.00     0.038 H 
BRANCH  24  26
ATOM     26  C15 ONK d   1      64.725-133.968  40.937  0.00  0.00    -0.073 C 
ATOM     27  H   ONK d   1      65.445-133.177  40.681  0.00  0.00     0.028 H 
ATOM     28  H   ONK d   1      63.833-133.872  40.301  0.00  0.00     0.028 H 
ATOM     29  H   ONK d   1      65.188-134.952  40.773  0.00  0.00     0.028 H 
ENDBRANCH  24  26
BRANCH  24  30
ATOM     30  C14 ONK d   1      63.779-132.433  42.662  0.00  0.00    -0.073 C 
ATOM     31  H   ONK d   1      63.490-132.342  43.720  0.00  0.00     0.028 H 
ATOM     32  H   ONK d   1      62.899-132.257  42.026  0.00  0.00     0.028 H 
ATOM     33  H   ONK d   1      64.555-131.689  42.429  0.00  0.00     0.028 H 
ENDBRANCH  24  30
ENDBRANCH  21  24
ENDBRANCH   7  21
ENDBRANCH   5   7
ENDBRANCH   1   3
BRANCH   1  34
ATOM     34  N2  ONK d   1      61.477-136.352  37.710  0.00  0.00    -0.346 N 
ATOM     35  C5  ONK d   1      61.111-135.222  37.099  0.00  0.00     0.241 C 
ATOM     36  O3  ONK d   1      60.532-134.312  37.669  0.00  0.00    -0.271 OA
ATOM     37  H   ONK d   1      61.948-137.054  37.176  0.00  0.00     0.163 HD
BRANCH  35  38
ATOM     38  C2  ONK d   1      61.431-135.091  35.633  0.00  0.00     0.092 C 
ATOM     39  H   ONK d   1      61.730-136.079  35.252  0.00  0.00     0.088 H 
BRANCH  38  40
ATOM     40  N1  ONK d   1      60.260-134.637  34.899  0.00  0.00    -0.347 N 
ATOM     41  C1  ONK d   1      59.162-135.369  34.707  0.00  0.00     0.218 C 
ATOM     42  O1  ONK d   1      59.014-136.511  35.124  0.00  0.00    -0.274 OA
ATOM     43  H   ONK d   1      60.280-133.715  34.513  0.00  0.00     0.163 HD
BRANCH  41  44
ATOM     44  C27 ONK d   1      58.056-134.697  33.924  0.00  0.00     0.009 C 
ATOM     45  H   ONK d   1      57.809-135.302  33.039  0.00  0.00     0.047 H 
ATOM     46  H   ONK d   1      58.383-133.696  33.605  0.00  0.00     0.047 H 
BRANCH  44  47
ATOM     47  C28 ONK d   1      56.829-134.574  34.820  0.00  0.00    -0.057 C 
ATOM     48  H   ONK d   1      57.156-134.310  35.837  0.00  0.00     0.033 H 
ATOM     49  H   ONK d   1      56.307-135.542  34.843  0.00  0.00     0.033 H 
BRANCH  47  50
ATOM     50  C29 ONK d   1      55.866-133.507  34.320  0.00  0.00    -0.065 C 
ATOM     51  H   ONK d   1      55.934-133.446  33.224  0.00  0.00     0.033 H 
ATOM     52  H   ONK d   1      56.145-132.538  34.759  0.00  0.00     0.033 H 
BRANCH  50  53
ATOM     53  C30 ONK d   1      54.429-133.837  34.712  0.00  0.00    -0.069 C 
ATOM     54  H   ONK d   1      54.210-133.384  35.690  0.00  0.00     0.032 H 
ATOM     55  H   ONK d   1      54.317-134.929  34.780  0.00  0.00     0.032 H 
BRANCH  53  56
ATOM     56  C31 ONK d   1      53.449-133.301  33.688  0.00  0.00    -0.077 C 
ATOM     57  H   ONK d   1      52.423-133.553  33.995  0.00  0.00     0.027 H 
ATOM     58  H   ONK d   1      53.659-133.753  32.708  0.00  0.00     0.027 H 
ATOM     59  H   ONK d   1      53.553-132.208  33.618  0.00  0.00     0.027 H 
ENDBRANCH  53  56
ENDBRANCH  50  53
ENDBRANCH  47  50
ENDBRANCH  44  47
ENDBRANCH  41  44
ENDBRANCH  38  40
BRANCH  38  60
ATOM     60  C3  ONK d   1      62.578-134.107  35.399  0.00  0.00    -0.033 C 
ATOM     61  H   ONK d   1      62.186-133.096  35.585  0.00  0.00     0.042 H 
BRANCH  60  62
ATOM     62  C4  ONK d   1      63.062-134.163  33.956  0.00  0.00    -0.071 C 
ATOM     63  H   ONK d   1      63.885-133.447  33.817  0.00  0.00     0.028 H 
ATOM     64  H   ONK d   1      62.233-133.904  33.281  0.00  0.00     0.028 H 
ATOM     65  H   ONK d   1      63.417-135.179  33.728  0.00  0.00     0.028 H 
ENDBRANCH  60  62
BRANCH  60  66
ATOM     66  C26 ONK d   1      63.747-134.329  36.349  0.00  0.00    -0.071 C 
ATOM     67  H   ONK d   1      63.388-134.287  37.388  0.00  0.00     0.028 H 
ATOM     68  H   ONK d   1      64.503-133.546  36.190  0.00  0.00     0.028 H 
ATOM     69  H   ONK d   1      64.195-135.315  36.155  0.00  0.00     0.028 H 
ENDBRANCH  60  66
ENDBRANCH  38  60
ENDBRANCH  35  38
ENDBRANCH   1  34
BRANCH   1  70
ATOM     70  C7  ONK d   1      60.514-137.947  39.332  0.00  0.00    -0.030 C 
ATOM     71  H   ONK d   1      61.272-138.744  39.337  0.00  0.00     0.037 H 
ATOM     72  H   ONK d   1      60.000-137.924  40.304  0.00  0.00     0.037 H 
BRANCH  70  73
ATOM     73  C8  ONK d   1      59.488-138.257  38.246  0.00  0.00     0.012 C 
ATOM     74  H   ONK d   1      59.464-137.427  37.525  0.00  0.00     0.047 H 
ATOM     75  H   ONK d   1      59.779-139.183  37.729  0.00  0.00     0.047 H 
BRANCH  73  76
ATOM     76  C9  ONK d   1      58.110-138.435  38.845  0.00  0.00     0.219 C 
ATOM     77  O7  ONK d   1      57.944-139.221  39.766  0.00  0.00    -0.273 OA
ATOM     78  N5  ONK d   1      57.113-137.716  38.315  0.00  0.00    -0.361 N 
BRANCH  78  79
ATOM     79  C24 ONK d   1      56.987-136.279  38.528  0.00  0.00    -0.017 C 
ATOM     80  H   ONK d   1      56.097-135.907  37.999  0.00  0.00     0.056 H 
ATOM     81  H   ONK d   1      57.883-135.771  38.141  0.00  0.00     0.056 H 
ATOM     82  H   ONK d   1      56.886-136.075  39.604  0.00  0.00     0.056 H 
ENDBRANCH  78  79
BRANCH  78  83
ATOM     83  C25 ONK d   1      56.067-138.311  37.482  0.00  0.00    -0.017 C 
ATOM     84  H   ONK d   1      56.249-139.391  37.381  0.00  0.00     0.056 H 
ATOM     85  H   ONK d   1      56.080-137.842  36.487  0.00  0.00     0.056 H 
ATOM     86  H   ONK d   1      55.086-138.147  37.952  0.00  0.00     0.056 H 
ENDBRANCH  78  83
ENDBRANCH  73  76
ENDBRANCH  70  73
ENDBRANCH   1  70
TORSDOF 26
