REMARK  6 active torsions:
REMARK  status: ('A' for Active; 'I' for Inactive)
REMARK    1  A    between atoms: N_1  and  CA_2 
REMARK    2  A    between atoms: CA_2  and  C_3 
REMARK    3  A    between atoms: CA_2  and  CB_5 
REMARK    4  A    between atoms: CB_5  and  CG_6 
REMARK    5  A    between atoms: CG_6  and  CD1_7 
REMARK    6  A    between atoms: CG_6  and  CD2_8 
ROOT
ATOM      1  CB  LEU d   1     -17.717 -12.693  20.560  0.00  0.00    -0.026 C 
ATOM      2  H5  LEU d   1     -16.831 -13.339  20.474  0.00  0.00     0.037 H 
ATOM      3  H6  LEU d   1     -18.513 -13.231  21.096  0.00  0.00     0.037 H 
ENDROOT
BRANCH   1   4
ATOM      4  CA  LEU d   1     -18.218 -12.382  19.153  0.00  0.00     0.182 C 
ATOM      5  H4  LEU d   1     -17.503 -11.708  18.658  0.00  0.00     0.101 H 
BRANCH   4   6
ATOM      6  N   LEU d   1     -19.513 -11.714  19.224  0.00  0.00    -0.065 N 
ATOM      7  H1  LEU d   1     -19.423 -10.863  19.757  0.00  0.00     0.275 HD
ATOM      8  H2  LEU d   1     -20.181 -12.322  19.672  0.00  0.00     0.275 HD
ATOM      9  H3  LEU d   1     -19.830 -11.495  18.292  0.00  0.00     0.275 HD
ENDBRANCH   4   6
BRANCH   4  10
ATOM     10  C   LEU d   1     -18.301 -13.676  18.356  0.00  0.00     0.204 C 
ATOM     11  O   LEU d   1     -17.276 -14.328  18.144  0.00  0.00    -0.646 OA
ATOM     12  OXT LEU d   1     -19.385 -14.093  17.930  0.00  0.00    -0.646 OA
ENDBRANCH   4  10
ENDBRANCH   1   4
BRANCH   1  13
ATOM     13  CG  LEU d   1     -17.333 -11.468  21.384  0.00  0.00    -0.059 C 
ATOM     14  H7  LEU d   1     -18.227 -10.848  21.549  0.00  0.00     0.038 H 
BRANCH  13  15
ATOM     15  CD1 LEU d   1     -16.787 -11.904  22.731  0.00  0.00    -0.073 C 
ATOM     16  H8  LEU d   1     -16.512 -11.017  23.320  0.00  0.00     0.028 H 
ATOM     17  H9  LEU d   1     -15.898 -12.534  22.580  0.00  0.00     0.028 H 
ATOM     18  H10 LEU d   1     -17.555 -12.478  23.270  0.00  0.00     0.028 H 
ENDBRANCH  13  15
BRANCH  13  19
ATOM     19  CD2 LEU d   1     -16.308 -10.657  20.614  0.00  0.00    -0.073 C 
ATOM     20  H11 LEU d   1     -16.732 -10.356  19.645  0.00  0.00     0.028 H 
ATOM     21  H12 LEU d   1     -15.408 -11.267  20.447  0.00  0.00     0.028 H 
ATOM     22  H13 LEU d   1     -16.041  -9.760  21.192  0.00  0.00     0.028 H 
ENDBRANCH  13  19
ENDBRANCH   1  13
TORSDOF 6
