REMARK WARNING: 32 MAX_TORS EXCEEDED!!!
REMARK  60 active torsions:
REMARK  status: ('A' for Active; 'I' for Inactive)
REMARK    1  A    between atoms: N_1  and  CA_2 
REMARK    2  A    between atoms: CA_2  and  C_3 
REMARK    3  A    between atoms: CA_2  and  CB_5 
REMARK       I    between atoms: C_3  and  N_10 
REMARK    4  A    between atoms: CB_5  and  CG_6 
REMARK    5  A    between atoms: CG_6  and  CD_7 
REMARK    6  A    between atoms: CD_7  and  CE_8 
REMARK    7  A    between atoms: CE_8  and  NZ_9 
REMARK    8  A    between atoms: N_10  and  CA_11 
REMARK    9  A    between atoms: CA_11  and  C_12 
REMARK   10  A    between atoms: CA_11  and  CB_14 
REMARK       I    between atoms: C_12  and  N_19 
REMARK   11  A    between atoms: CB_14  and  CG_15 
REMARK   12  A    between atoms: CG_15  and  CD_16 
REMARK   13  A    between atoms: CD_16  and  CE_17 
REMARK   14  A    between atoms: CE_17  and  NZ_18 
REMARK   15  A    between atoms: N_19  and  CA_20 
REMARK   16  A    between atoms: CA_20  and  C_21 
REMARK   17  A    between atoms: CA_20  and  CB_23 
REMARK       I    between atoms: C_21  and  N_28 
REMARK   18  A    between atoms: CB_23  and  CG_24 
REMARK   19  A    between atoms: CG_24  and  CD_25 
REMARK       I    between atoms: CD_25  and  NE2_27 
REMARK   20  A    between atoms: N_28  and  CA_29 
REMARK   21  A    between atoms: CA_29  and  C_30 
REMARK   22  A    between atoms: CA_29  and  CB_32 
REMARK       I    between atoms: C_30  and  N_37 
REMARK   23  A    between atoms: CB_32  and  CG_33 
REMARK   24  A    between atoms: CG_33  and  CD_34 
REMARK   25  A    between atoms: CD_34  and  CE_35 
REMARK   26  A    between atoms: CE_35  and  NZ_36 
REMARK   27  A    between atoms: N_37  and  CA_38 
REMARK   28  A    between atoms: CA_38  and  C_39 
REMARK   29  A    between atoms: CA_38  and  CB_41 
REMARK       I    between atoms: C_39  and  N_44 
REMARK   30  A    between atoms: CB_41  and  CG1_42 
REMARK   31  A    between atoms: CB_41  and  CG2_43 
REMARK   32  A    between atoms: N_44  and  CA_45 
REMARK   33  A    between atoms: CA_45  and  C_46 
REMARK   34  A    between atoms: CA_45  and  CB_48 
REMARK       I    between atoms: C_46  and  N_54 
REMARK   35  A    between atoms: CB_48  and  CG_49 
REMARK   36  A    between atoms: N_54  and  CA_55 
REMARK   37  A    between atoms: CA_55  and  C_56 
REMARK   38  A    between atoms: CA_55  and  CB_58 
REMARK       I    between atoms: C_56  and  N_59 
REMARK   39  A    between atoms: N_59  and  CA_60 
REMARK   40  A    between atoms: CA_60  and  C_61 
REMARK   41  A    between atoms: CA_60  and  CB_63 
REMARK       I    between atoms: C_61  and  N_67 
REMARK   42  A    between atoms: CB_63  and  CG_64 
REMARK   43  A    between atoms: CG_64  and  CD1_65 
REMARK   44  A    between atoms: CG_64  and  CD2_66 
REMARK   45  A    between atoms: N_67  and  CA_68 
REMARK   46  A    between atoms: CA_68  and  C_69 
REMARK   47  A    between atoms: CA_68  and  CB_71 
REMARK       I    between atoms: C_69  and  N_78 
REMARK   48  A    between atoms: CB_71  and  CG_72 
REMARK   49  A    between atoms: N_78  and  CA_79 
REMARK   50  A    between atoms: CA_79  and  C_80 
REMARK   51  A    between atoms: CA_79  and  CB_82 
REMARK       I    between atoms: C_80  and  N_90 
REMARK   52  A    between atoms: CB_82  and  CG_83 
REMARK   53  A    between atoms: CZ_88  and  OH_89 
REMARK   54  A    between atoms: N_90  and  CA_91 
REMARK   55  A    between atoms: CA_91  and  C_92 
REMARK   56  A    between atoms: CA_91  and  CB_94 
REMARK   57  A    between atoms: CB_94  and  CG_95 
REMARK   58  A    between atoms: CG_95  and  CD_96 
REMARK   59  A    between atoms: CD_96  and  CE_97 
REMARK   60  A    between atoms: CE_97  and  NZ_98 
ROOT
ATOM      1  CA  HIS d   1      49.919  39.302  62.437  0.00  0.00     0.094 C 
ATOM      2  H60 HIS d   1      50.203  38.704  63.315  0.00  0.00     0.088 H 
ENDROOT
BRANCH   1   3
ATOM      3  N   HIS d   1      49.449  40.599  62.930  0.00  0.00    -0.346 N 
ATOM      4  C   VAL d   1      49.567  40.931  64.214  0.00  0.00     0.241 C 
ATOM      5  O   VAL d   1      50.068  40.182  65.048  0.00  0.00    -0.271 OA
ATOM      6  H59 HIS d   1      49.032  41.246  62.291  0.00  0.00     0.163 HD
BRANCH   4   7
ATOM      7  CA  VAL d   1      49.063  42.321  64.623  0.00  0.00     0.092 C 
ATOM      8  H51 VAL d   1      49.710  42.657  65.446  0.00  0.00     0.088 H 
BRANCH   7   9
ATOM      9  N   VAL d   1      49.180  43.323  63.568  0.00  0.00    -0.346 N 
ATOM     10  C   LYS d   1      50.371  43.710  63.116  0.00  0.00     0.241 C 
ATOM     11  O   LYS d   1      51.412  43.094  63.359  0.00  0.00    -0.271 OA
ATOM     12  H50 VAL d   1      48.352  43.725  63.178  0.00  0.00     0.163 HD
BRANCH  10  13
ATOM     13  CA  LYS d   1      50.400  44.987  62.278  0.00  0.00     0.089 C 
ATOM     14  H38 LYS d   1      49.607  45.657  62.640  0.00  0.00     0.087 H 
BRANCH  13  15
ATOM     15  N   LYS d   1      51.686  45.652  62.444  0.00  0.00    -0.346 N 
ATOM     16  C   GLN d   1      51.969  46.389  63.513  0.00  0.00     0.241 C 
ATOM     17  O   GLN d   1      51.144  46.639  64.395  0.00  0.00    -0.271 OA
ATOM     18  H37 LYS d   1      52.379  45.550  61.730  0.00  0.00     0.163 HD
BRANCH  16  19
ATOM     19  CA  GLN d   1      53.391  46.919  63.602  0.00  0.00     0.090 C 
ATOM     20  H30 GLN d   1      53.848  46.859  62.603  0.00  0.00     0.087 H 
BRANCH  19  21
ATOM     21  N   GLN d   1      53.399  48.314  64.023  0.00  0.00    -0.346 N 
ATOM     22  C   LYS d   1      53.180  49.294  63.154  0.00  0.00     0.241 C 
ATOM     23  O   LYS d   1      52.984  49.091  61.957  0.00  0.00    -0.271 OA
ATOM     24  H29 GLN d   1      53.572  48.537  64.982  0.00  0.00     0.163 HD
BRANCH  22  25
ATOM     25  CA  LYS d   1      53.169  50.708  63.703  0.00  0.00     0.089 C 
ATOM     26  H17 LYS d   1      53.998  50.838  64.415  0.00  0.00     0.087 H 
BRANCH  25  27
ATOM     27  N   LYS d   1      53.340  51.629  62.588  0.00  0.00    -0.346 N 
ATOM     28  C   LYS d   1      54.385  52.442  62.493  0.00  0.00     0.248 C 
ATOM     29  O   LYS d   1      55.190  52.611  63.409  0.00  0.00    -0.271 OA
ATOM     30  H16 LYS d   1      52.646  51.650  61.869  0.00  0.00     0.163 HD
BRANCH  28  31
ATOM     31  CA  LYS d   1      54.529  53.188  61.168  0.00  0.00     0.176 C 
ATOM     32  H4  LYS d   1      54.220  54.233  61.315  0.00  0.00     0.099 H 
BRANCH  31  33
ATOM     33  N   LYS d   1      55.916  53.169  60.720  0.00  0.00    -0.067 N 
ATOM     34  H1  LYS d   1      55.993  53.665  59.846  0.00  0.00     0.275 HD
ATOM     35  H2  LYS d   1      56.215  52.215  60.593  0.00  0.00     0.275 HD
ATOM     36  H3  LYS d   1      56.499  53.614  61.412  0.00  0.00     0.275 HD
ENDBRANCH  31  33
BRANCH  31  37
ATOM     37  CB  LYS d   1      53.623  52.549  60.113  0.00  0.00    -0.030 C 
ATOM     38  H5  LYS d   1      52.581  52.650  60.450  0.00  0.00     0.036 H 
ATOM     39  H6  LYS d   1      53.883  51.483  60.039  0.00  0.00     0.036 H 
BRANCH  37  40
ATOM     40  CG  LYS d   1      53.732  53.161  58.723  0.00  0.00    -0.061 C 
ATOM     41  H7  LYS d   1      54.784  53.143  58.402  0.00  0.00     0.033 H 
ATOM     42  H8  LYS d   1      53.377  54.202  58.758  0.00  0.00     0.033 H 
BRANCH  40  43
ATOM     43  CD  LYS d   1      52.891  52.380  57.721  0.00  0.00    -0.043 C 
ATOM     44  H9  LYS d   1      51.833  52.449  58.015  0.00  0.00     0.035 H 
ATOM     45  H10 LYS d   1      53.208  51.327  57.736  0.00  0.00     0.035 H 
BRANCH  43  46
ATOM     46  CE  LYS d   1      53.045  52.920  56.307  0.00  0.00     0.080 C 
ATOM     47  H11 LYS d   1      52.500  52.261  55.615  0.00  0.00     0.075 H 
ATOM     48  H12 LYS d   1      54.113  52.924  56.044  0.00  0.00     0.075 H 
BRANCH  46  49
ATOM     49  NZ  LYS d   1      52.513  54.302  56.171  0.00  0.00    -0.079 N 
ATOM     50  H13 LYS d   1      52.636  54.617  55.221  0.00  0.00     0.274 HD
ATOM     51  H14 LYS d   1      53.011  54.917  56.796  0.00  0.00     0.274 HD
ATOM     52  H15 LYS d   1      51.532  54.309  56.403  0.00  0.00     0.274 HD
ENDBRANCH  46  49
ENDBRANCH  43  46
ENDBRANCH  40  43
ENDBRANCH  37  40
ENDBRANCH  31  37
ENDBRANCH  28  31
ENDBRANCH  25  27
BRANCH  25  53
ATOM     53  CB  LYS d   1      51.843  50.957  64.424  0.00  0.00    -0.038 C 
ATOM     54  H18 LYS d   1      51.720  50.182  65.195  0.00  0.00     0.036 H 
ATOM     55  H19 LYS d   1      51.031  50.874  63.687  0.00  0.00     0.036 H 
BRANCH  53  56
ATOM     56  CG  LYS d   1      51.736  52.312  65.095  0.00  0.00    -0.061 C 
ATOM     57  H20 LYS d   1      51.700  53.097  64.325  0.00  0.00     0.033 H 
ATOM     58  H21 LYS d   1      52.615  52.469  65.738  0.00  0.00     0.033 H 
BRANCH  56  59
ATOM     59  CD  LYS d   1      50.477  52.383  65.941  0.00  0.00    -0.043 C 
ATOM     60  H22 LYS d   1      50.540  51.630  66.741  0.00  0.00     0.035 H 
ATOM     61  H23 LYS d   1      49.605  52.170  65.305  0.00  0.00     0.035 H 
BRANCH  59  62
ATOM     62  CE  LYS d   1      50.308  53.751  66.565  0.00  0.00     0.080 C 
ATOM     63  H24 LYS d   1      50.156  54.493  65.767  0.00  0.00     0.075 H 
ATOM     64  H25 LYS d   1      51.218  54.002  67.130  0.00  0.00     0.075 H 
BRANCH  62  65
ATOM     65  NZ  LYS d   1      49.139  53.784  67.488  0.00  0.00    -0.079 N 
ATOM     66  H26 LYS d   1      49.052  54.705  67.887  0.00  0.00     0.274 HD
ATOM     67  H27 LYS d   1      49.274  53.110  68.225  0.00  0.00     0.274 HD
ATOM     68  H28 LYS d   1      48.300  53.559  66.976  0.00  0.00     0.274 HD
ENDBRANCH  62  65
ENDBRANCH  59  62
ENDBRANCH  56  59
ENDBRANCH  53  56
ENDBRANCH  25  53
ENDBRANCH  22  25
ENDBRANCH  19  21
BRANCH  19  69
ATOM     69  CB  GLN d   1      54.210  46.049  64.560  0.00  0.00    -0.030 C 
ATOM     70  H31 GLN d   1      53.783  46.144  65.569  0.00  0.00     0.037 H 
ATOM     71  H32 GLN d   1      55.247  46.416  64.564  0.00  0.00     0.037 H 
BRANCH  69  72
ATOM     72  CG  GLN d   1      54.220  44.572  64.176  0.00  0.00     0.011 C 
ATOM     73  H33 GLN d   1      54.667  44.475  63.176  0.00  0.00     0.047 H 
ATOM     74  H34 GLN d   1      53.181  44.212  64.150  0.00  0.00     0.047 H 
BRANCH  72  75
ATOM     75  CD  GLN d   1      55.008  43.700  65.143  0.00  0.00     0.215 C 
ATOM     76  OE1 GLN d   1      55.615  42.706  64.740  0.00  0.00    -0.274 OA
ATOM     77  NE2 GLN d   1      54.988  44.056  66.424  0.00  0.00    -0.370 N 
ATOM     78  H35 GLN d   1      55.489  43.517  67.101  0.00  0.00     0.159 HD
ATOM     79  H36 GLN d   1      54.471  44.863  66.711  0.00  0.00     0.159 HD
ENDBRANCH  72  75
ENDBRANCH  69  72
ENDBRANCH  19  69
ENDBRANCH  16  19
ENDBRANCH  13  15
BRANCH  13  80
ATOM     80  CB  LYS d   1      50.146  44.700  60.798  0.00  0.00    -0.038 C 
ATOM     81  H39 LYS d   1      49.197  44.153  60.702  0.00  0.00     0.036 H 
ATOM     82  H40 LYS d   1      50.968  44.079  60.412  0.00  0.00     0.036 H 
BRANCH  80  83
ATOM     83  CG  LYS d   1      50.063  45.974  59.967  0.00  0.00    -0.061 C 
ATOM     84  H41 LYS d   1      50.982  46.558  60.126  0.00  0.00     0.033 H 
ATOM     85  H42 LYS d   1      49.194  46.558  60.305  0.00  0.00     0.033 H 
BRANCH  83  86
ATOM     86  CD  LYS d   1      49.914  45.697  58.481  0.00  0.00    -0.043 C 
ATOM     87  H43 LYS d   1      48.972  45.157  58.306  0.00  0.00     0.035 H 
ATOM     88  H44 LYS d   1      50.759  45.081  58.141  0.00  0.00     0.035 H 
BRANCH  86  89
ATOM     89  CE  LYS d   1      49.897  47.000  57.698  0.00  0.00     0.080 C 
ATOM     90  H45 LYS d   1      50.845  47.531  57.872  0.00  0.00     0.075 H 
ATOM     91  H46 LYS d   1      49.060  47.618  58.055  0.00  0.00     0.075 H 
BRANCH  89  92
ATOM     92  NZ  LYS d   1      49.736  46.771  56.238  0.00  0.00    -0.079 N 
ATOM     93  H47 LYS d   1      49.730  47.657  55.758  0.00  0.00     0.274 HD
ATOM     94  H48 LYS d   1      48.867  46.290  56.067  0.00  0.00     0.274 HD
ATOM     95  H49 LYS d   1      50.502  46.211  55.899  0.00  0.00     0.274 HD
ENDBRANCH  89  92
ENDBRANCH  86  89
ENDBRANCH  83  86
ENDBRANCH  80  83
ENDBRANCH  13  80
ENDBRANCH  10  13
ENDBRANCH   7   9
BRANCH   7  96
ATOM     96  CB  VAL d   1      47.613  42.258  65.183  0.00  0.00    -0.033 C 
ATOM     97  H52 VAL d   1      47.311  43.285  65.435  0.00  0.00     0.042 H 
BRANCH  96  98
ATOM     98  CG1 VAL d   1      46.632  41.736  64.141  0.00  0.00    -0.071 C 
ATOM     99  H53 VAL d   1      45.621  41.706  64.572  0.00  0.00     0.028 H 
ATOM    100  H54 VAL d   1      46.929  40.723  63.832  0.00  0.00     0.028 H 
ATOM    101  H55 VAL d   1      46.638  42.402  63.266  0.00  0.00     0.028 H 
ENDBRANCH  96  98
BRANCH  96 102
ATOM    102  CG2 VAL d   1      47.556  41.439  66.459  0.00  0.00    -0.071 C 
ATOM    103  H56 VAL d   1      48.275  41.843  67.186  0.00  0.00     0.028 H 
ATOM    104  H57 VAL d   1      47.810  40.393  66.235  0.00  0.00     0.028 H 
ATOM    105  H58 VAL d   1      46.541  41.487  66.881  0.00  0.00     0.028 H 
ENDBRANCH  96 102
ENDBRANCH   7  96
ENDBRANCH   4   7
ENDBRANCH   1   3
BRANCH   1 106
ATOM    106  C   HIS d   1      51.154  39.401  61.536  0.00  0.00     0.241 C 
ATOM    107  O   HIS d   1      51.400  38.523  60.713  0.00  0.00    -0.271 OA
ATOM    108  N   ALA d   1      51.941  40.460  61.718  0.00  0.00    -0.346 N 
ATOM    109  H66 ALA d   1      51.734  41.091  62.466  0.00  0.00     0.163 HD
BRANCH 108 110
ATOM    110  CA  ALA d   1      53.096  40.733  60.864  0.00  0.00     0.086 C 
ATOM    111  H67 ALA d   1      52.709  40.975  59.863  0.00  0.00     0.086 H 
BRANCH 110 112
ATOM    112  C   ALA d   1      54.044  39.544  60.705  0.00  0.00     0.240 C 
ATOM    113  O   ALA d   1      54.570  39.311  59.616  0.00  0.00    -0.271 OA
ATOM    114  N   LEU d   1      54.251  38.790  61.781  0.00  0.00    -0.346 N 
ATOM    115  H71 LEU d   1      53.745  38.986  62.621  0.00  0.00     0.163 HD
BRANCH 114 116
ATOM    116  CA  LEU d   1      55.205  37.679  61.761  0.00  0.00     0.089 C 
ATOM    117  H72 LEU d   1      56.178  38.098  61.466  0.00  0.00     0.087 H 
BRANCH 116 118
ATOM    118  C   LEU d   1      54.853  36.590  60.742  0.00  0.00     0.241 C 
ATOM    119  O   LEU d   1      55.731  35.870  60.278  0.00  0.00    -0.271 OA
ATOM    120  N   PHE d   1      53.578  36.493  60.377  0.00  0.00    -0.346 N 
ATOM    121  H82 PHE d   1      52.908  37.133  60.753  0.00  0.00     0.163 HD
BRANCH 120 122
ATOM    122  CA  PHE d   1      53.143  35.466  59.435  0.00  0.00     0.093 C 
ATOM    123  H83 PHE d   1      53.764  34.576  59.614  0.00  0.00     0.088 H 
BRANCH 122 124
ATOM    124  C   PHE d   1      53.320  35.857  57.969  0.00  0.00     0.241 C 
ATOM    125  O   PHE d   1      53.008  35.068  57.075  0.00  0.00    -0.271 OA
ATOM    126  N   TYR d   1      53.828  37.062  57.726  0.00  0.00    -0.346 N 
ATOM    127  H91 TYR d   1      54.129  37.626  58.495  0.00  0.00     0.163 HD
BRANCH 126 128
ATOM    128  CA  TYR d   1      53.958  37.584  56.368  0.00  0.00     0.093 C 
ATOM    129  H92 TYR d   1      53.724  36.766  55.671  0.00  0.00     0.088 H 
BRANCH 128 130
ATOM    130  C   TYR d   1      55.371  38.064  56.057  0.00  0.00     0.241 C 
ATOM    131  O   TYR d   1      55.650  38.503  54.944  0.00  0.00    -0.271 OA
ATOM    132  N   LYS d   1      56.257  37.966  57.043  0.00  0.00    -0.345 N 
ATOM    133 0H10 LYS d   1      55.953  37.625  57.933  0.00  0.00     0.163 HD
BRANCH 132 134
ATOM    134  CA  LYS d   1      57.660  38.339  56.872  0.00  0.00     0.096 C 
ATOM    135 1H10 LYS d   1      57.700  39.416  56.649  0.00  0.00     0.089 H 
BRANCH 134 136
ATOM    136  C   LYS d   1      58.317  37.591  55.714  0.00  0.00     0.196 C 
ATOM    137  O   LYS d   1      58.498  36.374  55.770  0.00  0.00    -0.646 OA
ATOM    138  OXT LYS d   1      58.679  38.189  54.700  0.00  0.00    -0.646 OA
ENDBRANCH 134 136
BRANCH 134 139
ATOM    139  CB  LYS d   1      58.440  38.083  58.164  0.00  0.00    -0.037 C 
ATOM    140 2H10 LYS d   1      59.506  38.265  57.964  0.00  0.00     0.036 H 
ATOM    141 3H10 LYS d   1      58.295  37.031  58.451  0.00  0.00     0.036 H 
BRANCH 139 142
ATOM    142  CG  LYS d   1      58.020  38.958  59.335  0.00  0.00    -0.061 C 
ATOM    143 4H10 LYS d   1      57.795  38.316  60.200  0.00  0.00     0.033 H 
ATOM    144 5H10 LYS d   1      57.119  39.524  59.055  0.00  0.00     0.033 H 
BRANCH 142 145
ATOM    145  CD  LYS d   1      59.122  39.936  59.716  0.00  0.00    -0.043 C 
ATOM    146 6H10 LYS d   1      59.307  40.615  58.871  0.00  0.00     0.035 H 
ATOM    147 7H10 LYS d   1      60.040  39.373  59.941  0.00  0.00     0.035 H 
BRANCH 145 148
ATOM    148  CE  LYS d   1      58.733  40.757  60.936  0.00  0.00     0.080 C 
ATOM    149 8H10 LYS d   1      57.810  41.312  60.712  0.00  0.00     0.075 H 
ATOM    150 9H10 LYS d   1      59.543  41.467  61.160  0.00  0.00     0.075 H 
BRANCH 148 151
ATOM    151  NZ  LYS d   1      58.501  39.897  62.131  0.00  0.00    -0.079 N 
ATOM    152 0H11 LYS d   1      58.246  40.475  62.916  0.00  0.00     0.274 HD
ATOM    153 1H11 LYS d   1      59.344  39.388  62.348  0.00  0.00     0.274 HD
ATOM    154 2H11 LYS d   1      57.756  39.246  61.937  0.00  0.00     0.274 HD
ENDBRANCH 148 151
ENDBRANCH 145 148
ENDBRANCH 142 145
ENDBRANCH 139 142
ENDBRANCH 134 139
ENDBRANCH 132 134
ENDBRANCH 128 130
BRANCH 128 155
ATOM    155  CB  TYR d   1      52.944  38.708  56.139  0.00  0.00    -0.014 C 
ATOM    156  H93 TYR d   1      53.028  39.057  55.099  0.00  0.00     0.043 H 
ATOM    157  H94 TYR d   1      53.172  39.538  56.824  0.00  0.00     0.043 H 
BRANCH 155 158
ATOM    158  CG  TYR d   1      51.529  38.245  56.387  0.00  0.00    -0.056 A 
ATOM    159  CD1 TYR d   1      50.819  37.576  55.397  0.00  0.00    -0.074 A 
ATOM    160  CE1 TYR d   1      49.535  37.129  55.621  0.00  0.00    -0.051 A 
ATOM    161  H95 TYR d   1      51.283  37.403  54.433  0.00  0.00     0.084 H 
ATOM    162  CZ  TYR d   1      48.949  37.329  56.846  0.00  0.00     0.065 A 
ATOM    163  H97 TYR d   1      48.990  36.622  54.833  0.00  0.00     0.087 H 
ATOM    164  CE2 TYR d   1      49.629  37.987  57.855  0.00  0.00    -0.051 A 
ATOM    165  CD2 TYR d   1      50.920  38.432  57.621  0.00  0.00    -0.074 A 
ATOM    166  H98 TYR d   1      49.158  38.152  58.817  0.00  0.00     0.087 H 
ATOM    167  H96 TYR d   1      51.463  38.934  58.413  0.00  0.00     0.084 H 
BRANCH 162 168
ATOM    168  OH  TYR d   1      47.668  36.884  57.058  0.00  0.00    -0.361 OA
ATOM    169  H99 TYR d   1      47.664  36.266  57.779  0.00  0.00     0.217 HD
ENDBRANCH 162 168
ENDBRANCH 155 158
ENDBRANCH 128 155
ENDBRANCH 126 128
ENDBRANCH 122 124
BRANCH 122 170
ATOM    170  CB  PHE d   1      51.685  35.087  59.698  0.00  0.00    -0.014 C 
ATOM    171  H84 PHE d   1      51.354  34.405  58.901  0.00  0.00     0.043 H 
ATOM    172  H85 PHE d   1      51.077  36.004  59.673  0.00  0.00     0.043 H 
BRANCH 170 173
ATOM    173  CG  PHE d   1      51.469  34.411  61.021  0.00  0.00    -0.056 A 
ATOM    174  CD1 PHE d   1      51.912  33.117  61.231  0.00  0.00    -0.077 A 
ATOM    175  CE1 PHE d   1      51.717  32.488  62.453  0.00  0.00    -0.082 A 
ATOM    176  H86 PHE d   1      52.418  32.588  60.431  0.00  0.00     0.084 H 
ATOM    177  CZ  PHE d   1      51.064  33.150  63.471  0.00  0.00    -0.083 A 
ATOM    178  H88 PHE d   1      52.078  31.477  62.607  0.00  0.00     0.083 H 
ATOM    179  CE2 PHE d   1      50.613  34.439  63.274  0.00  0.00    -0.082 A 
ATOM    180  H90 PHE d   1      50.905  32.659  64.424  0.00  0.00     0.083 H 
ATOM    181  CD2 PHE d   1      50.813  35.065  62.049  0.00  0.00    -0.077 A 
ATOM    182  H89 PHE d   1      50.103  34.963  64.074  0.00  0.00     0.083 H 
ATOM    183  H87 PHE d   1      50.451  36.076  61.898  0.00  0.00     0.084 H 
ENDBRANCH 170 173
ENDBRANCH 122 170
ENDBRANCH 120 122
ENDBRANCH 116 118
BRANCH 116 184
ATOM    184  CB  LEU d   1      55.369  37.060  63.154  0.00  0.00    -0.035 C 
ATOM    185  H73 LEU d   1      55.442  37.888  63.874  0.00  0.00     0.037 H 
ATOM    186  H74 LEU d   1      56.311  36.492  63.151  0.00  0.00     0.037 H 
BRANCH 184 187
ATOM    187  CG  LEU d   1      54.272  36.119  63.653  0.00  0.00    -0.059 C 
ATOM    188  H75 LEU d   1      54.017  35.423  62.840  0.00  0.00     0.038 H 
BRANCH 187 189
ATOM    189  CD1 LEU d   1      54.773  35.310  64.840  0.00  0.00    -0.073 C 
ATOM    190  H76 LEU d   1      53.975  34.638  65.189  0.00  0.00     0.028 H 
ATOM    191  H77 LEU d   1      55.060  35.992  65.654  0.00  0.00     0.028 H 
ATOM    192  H78 LEU d   1      55.647  34.715  64.536  0.00  0.00     0.028 H 
ENDBRANCH 187 189
BRANCH 187 193
ATOM    193  CD2 LEU d   1      53.017  36.890  64.032  0.00  0.00    -0.073 C 
ATOM    194  H79 LEU d   1      52.667  37.469  63.165  0.00  0.00     0.028 H 
ATOM    195  H80 LEU d   1      53.244  37.574  64.863  0.00  0.00     0.028 H 
ATOM    196  H81 LEU d   1      52.233  36.184  64.342  0.00  0.00     0.028 H 
ENDBRANCH 187 193
ENDBRANCH 184 187
ENDBRANCH 116 184
ENDBRANCH 114 116
ENDBRANCH 110 112
BRANCH 110 197
ATOM    197  CB  ALA d   1      53.860  41.953  61.380  0.00  0.00    -0.049 C 
ATOM    198  H68 ALA d   1      54.725  42.146  60.729  0.00  0.00     0.030 H 
ATOM    199  H69 ALA d   1      54.209  41.761  62.405  0.00  0.00     0.030 H 
ATOM    200  H70 ALA d   1      53.196  42.830  61.377  0.00  0.00     0.030 H 
ENDBRANCH 110 197
ENDBRANCH 108 110
ENDBRANCH   1 106
BRANCH   1 201
ATOM    201  CB  HIS d   1      48.790  38.562  61.709  0.00  0.00     0.004 C 
ATOM    202  H61 HIS d   1      49.215  37.673  61.220  0.00  0.00     0.046 H 
ATOM    203  H62 HIS d   1      48.369  39.234  60.947  0.00  0.00     0.046 H 
BRANCH 201 204
ATOM    204  CG  HIS d   1      47.683  38.120  62.613  0.00  0.00     0.053 A 
ATOM    205  ND1 HIS d   1      46.475  37.654  62.140  0.00  0.00    -0.247 NA
ATOM    206  CE1 HIS d   1      45.697  37.341  63.162  0.00  0.00     0.064 A 
ATOM    207  NE2 HIS d   1      46.357  37.582  64.280  0.00  0.00    -0.359 N 
ATOM    208  H64 HIS d   1      44.683  36.950  63.093  0.00  0.00     0.143 H 
ATOM    209  CD2 HIS d   1      47.603  38.071  63.965  0.00  0.00     0.002 A 
ATOM    210  H65 HIS d   1      45.997  37.429  65.233  0.00  0.00     0.166 HD
ATOM    211  H63 HIS d   1      48.380  38.364  64.670  0.00  0.00     0.114 H 
ENDBRANCH 201 204
ENDBRANCH   1 201
TORSDOF 60
