REMARK  17 active torsions:
REMARK  status: ('A' for Active; 'I' for Inactive)
REMARK    1  A    between atoms: C6_4  and  N6_41 
REMARK    2  A    between atoms: CAZ_10  and  CBO_11 
REMARK    3  A    between atoms: CBO_11  and  CAD_12 
REMARK    4  A    between atoms: CBO_11  and  CAE_13 
REMARK    5  A    between atoms: CBO_11  and  CAC_14 
REMARK    6  A    between atoms: CAN_19  and  CBA_18 
REMARK    7  A    between atoms: CAO_20  and  CAN_19 
REMARK    8  A    between atoms: CBG_21  and  CAO_20 
REMARK    9  A    between atoms: NBM_25  and  CBH_24 
REMARK   10  A    between atoms: NBM_25  and  CBF_26 
REMARK   11  A    between atoms: CAR_29  and  NBM_25 
REMARK   12  A    between atoms: CBF_26  and  CAB_27 
REMARK   13  A    between atoms: CBF_26  and  CAA_28 
REMARK   14  A    between atoms: CBK_30  and  CAR_29 
REMARK   15  A    between atoms: CBI_32  and  OAG_33 
REMARK   16  A    between atoms: CBJ_34  and  OAH_35 
REMARK   17  A    between atoms: CBL_36  and  N9_37 
ROOT
ATOM      1  CBG EP6 d   1     -25.506 -63.192 -11.413  0.00  0.00    -0.050 C 
ATOM      2  CAQ EP6 d   1     -24.515 -64.310 -11.084  0.00  0.00    -0.035 C 
ATOM      3  CAP EP6 d   1     -24.891 -63.122 -12.809  0.00  0.00    -0.035 C 
ATOM      4  CBH EP6 d   1     -24.308 -64.523 -12.592  0.00  0.00     0.105 C 
ATOM      5  H20 EP6 d   1     -26.574 -63.447 -11.348  0.00  0.00     0.040 H 
ATOM      6  H21 EP6 d   1     -24.958 -65.170 -10.561  0.00  0.00     0.036 H 
ATOM      7  H22 EP6 d   1     -23.616 -63.976 -10.545  0.00  0.00     0.036 H 
ATOM      8  H23 EP6 d   1     -24.136 -62.331 -12.933  0.00  0.00     0.036 H 
ATOM      9  H24 EP6 d   1     -25.626 -63.058 -13.625  0.00  0.00     0.036 H 
ATOM     10  H25 EP6 d   1     -24.855 -65.362 -13.046  0.00  0.00     0.084 H 
ENDROOT
BRANCH   4  11
ATOM     11  NBM EP6 d   1     -22.867 -64.538 -12.953  0.00  0.00    -0.061 N 
ATOM     12  H26 EP6 d   1     -22.531 -63.614 -12.734  0.00  0.00     0.280 HD
BRANCH  11  13
ATOM     13  CBF EP6 d   1     -22.048 -65.451 -12.109  0.00  0.00     0.098 C 
ATOM     14  H27 EP6 d   1     -22.422 -65.365 -11.078  0.00  0.00     0.083 H 
BRANCH  13  15
ATOM     15  CAB EP6 d   1     -22.189 -66.931 -12.511  0.00  0.00    -0.050 C 
ATOM     16  H28 EP6 d   1     -21.562 -67.551 -11.853  0.00  0.00     0.030 H 
ATOM     17  H29 EP6 d   1     -21.865 -67.060 -13.554  0.00  0.00     0.030 H 
ATOM     18  H30 EP6 d   1     -23.240 -67.239 -12.413  0.00  0.00     0.030 H 
ENDBRANCH  13  15
BRANCH  13  19
ATOM     19  CAA EP6 d   1     -20.580 -64.986 -12.106  0.00  0.00    -0.050 C 
ATOM     20  H31 EP6 d   1     -19.982 -65.665 -11.481  0.00  0.00     0.030 H 
ATOM     21  H32 EP6 d   1     -20.520 -63.965 -11.700  0.00  0.00     0.030 H 
ATOM     22  H33 EP6 d   1     -20.190 -64.996 -13.135  0.00  0.00     0.030 H 
ENDBRANCH  13  19
ENDBRANCH  11  13
BRANCH  11  23
ATOM     23  CAR EP6 d   1     -22.648 -64.691 -14.411  0.00  0.00     0.110 C 
ATOM     24  H34 EP6 d   1     -23.553 -65.106 -14.878  0.00  0.00     0.080 H 
ATOM     25  H35 EP6 d   1     -21.800 -65.370 -14.587  0.00  0.00     0.080 H 
BRANCH  23  26
ATOM     26  CBK EP6 d   1     -22.340 -63.315 -15.020  0.00  0.00     0.091 C 
ATOM     27  OAX EP6 d   1     -20.925 -63.128 -14.950  0.00  0.00    -0.354 OA
ATOM     28  CBL EP6 d   1     -20.634 -62.211 -16.004  0.00  0.00     0.139 C 
ATOM     29  CBJ EP6 d   1     -21.442 -62.750 -17.182  0.00  0.00     0.105 C 
ATOM     30  H41 EP6 d   1     -20.918 -61.178 -15.756  0.00  0.00     0.122 H 
ATOM     31  CBI EP6 d   1     -22.711 -63.250 -16.509  0.00  0.00     0.091 C 
ATOM     32  H39 EP6 d   1     -20.910 -63.559 -17.704  0.00  0.00     0.093 H 
ATOM     33  H37 EP6 d   1     -23.023 -64.231 -16.896  0.00  0.00     0.091 H 
ATOM     34  H36 EP6 d   1     -22.872 -62.530 -14.462  0.00  0.00     0.090 H 
BRANCH  28  35
ATOM     35  N9  EP6 d   1     -19.181 -62.315 -16.263  0.00  0.00    -0.294 N 
ATOM     36  C4  EP6 d   1     -18.320 -61.309 -16.317  0.00  0.00     0.167 A 
ATOM     37  C5  EP6 d   1     -17.080 -61.853 -16.578  0.00  0.00     0.149 A 
ATOM     38  N3  EP6 d   1     -18.442 -59.980 -16.178  0.00  0.00    -0.222 NA
ATOM     39  C6  EP6 d   1     -15.992 -61.007 -16.693  0.00  0.00     0.155 A 
ATOM     40  N7  EP6 d   1     -17.223 -63.166 -16.669  0.00  0.00    -0.236 NA
ATOM     41  N1  EP6 d   1     -16.175 -59.685 -16.541  0.00  0.00    -0.222 NA
ATOM     42  C2  EP6 d   1     -17.380 -59.193 -16.286  0.00  0.00     0.091 A 
ATOM     43  H1  EP6 d   1     -17.500 -58.123 -16.163  0.00  0.00     0.146 H 
ATOM     44  C8  EP6 d   1     -18.507 -63.448 -16.477  0.00  0.00     0.071 A 
ATOM     45  H2  EP6 d   1     -18.942 -64.446 -16.492  0.00  0.00     0.144 H 
BRANCH  39  46
ATOM     46  N6  EP6 d   1     -14.785 -61.507 -16.939  0.00  0.00    -0.382 N 
ATOM     47  H42 EP6 d   1     -13.974 -60.877 -17.025  0.00  0.00     0.157 HD
ATOM     48  H43 EP6 d   1     -14.660 -62.524 -17.044  0.00  0.00     0.157 HD
ENDBRANCH  39  46
ENDBRANCH  28  35
BRANCH  29  49
ATOM     49  OAH EP6 d   1     -21.757 -61.690 -18.098  0.00  0.00    -0.388 OA
ATOM     50  H40 EP6 d   1     -22.163 -60.974 -17.624  0.00  0.00     0.210 HD
ENDBRANCH  29  49
BRANCH  31  51
ATOM     51  OAG EP6 d   1     -23.741 -62.278 -16.695  0.00  0.00    -0.390 OA
ATOM     52  H38 EP6 d   1     -23.429 -61.428 -16.406  0.00  0.00     0.210 HD
ENDBRANCH  31  51
ENDBRANCH  23  26
ENDBRANCH  11  23
ENDBRANCH   4  11
BRANCH   1  53
ATOM     53  CAO EP6 d   1     -25.164 -61.905 -10.658  0.00  0.00    -0.055 C 
ATOM     54  H18 EP6 d   1     -24.080 -61.882 -10.470  0.00  0.00     0.034 H 
ATOM     55  H19 EP6 d   1     -25.447 -61.044 -11.281  0.00  0.00     0.034 H 
BRANCH  53  56
ATOM     56  CAN EP6 d   1     -25.896 -61.805  -9.321  0.00  0.00    -0.010 C 
ATOM     57  H16 EP6 d   1     -25.983 -60.750  -9.021  0.00  0.00     0.044 H 
ATOM     58  H17 EP6 d   1     -26.900 -62.245  -9.411  0.00  0.00     0.044 H 
BRANCH  56  59
ATOM     59  CBA EP6 d   1     -25.090 -62.569  -8.290  0.00  0.00     0.105 A 
ATOM     60  NAV EP6 d   1     -23.942 -62.163  -7.748  0.00  0.00    -0.233 NA
ATOM     61  CBB EP6 d   1     -23.525 -63.103  -6.902  0.00  0.00     0.085 A 
ATOM     62  CAK EP6 d   1     -22.413 -63.206  -6.061  0.00  0.00    -0.052 A 
ATOM     63  CBC EP6 d   1     -24.464 -64.130  -6.944  0.00  0.00     0.063 A 
ATOM     64  CAI EP6 d   1     -22.240 -64.343  -5.270  0.00  0.00    -0.074 A 
ATOM     65  H3  EP6 d   1     -21.686 -62.403  -6.023  0.00  0.00     0.087 H 
ATOM     66  CAZ EP6 d   1     -23.179 -65.378  -5.313  0.00  0.00    -0.048 A 
ATOM     67  H4  EP6 d   1     -21.376 -64.424  -4.621  0.00  0.00     0.084 H 
ATOM     68  CAM EP6 d   1     -24.292 -65.264  -6.151  0.00  0.00    -0.048 A 
ATOM     69  H14 EP6 d   1     -25.025 -66.061  -6.185  0.00  0.00     0.087 H 
ATOM     70  NAW EP6 d   1     -25.407 -63.769  -7.814  0.00  0.00    -0.343 N 
ATOM     71  H15 EP6 d   1     -26.236 -64.323  -8.072  0.00  0.00     0.167 HD
BRANCH  66  72
ATOM     72  CBO EP6 d   1     -23.000 -66.633  -4.438  0.00  0.00    -0.024 C 
BRANCH  72  73
ATOM     73  CAD EP6 d   1     -21.761 -66.463  -3.554  0.00  0.00    -0.066 C 
ATOM     74  H5  EP6 d   1     -21.631 -67.358  -2.928  0.00  0.00     0.028 H 
ATOM     75  H6  EP6 d   1     -21.889 -65.581  -2.910  0.00  0.00     0.028 H 
ATOM     76  H7  EP6 d   1     -20.873 -66.328  -4.189  0.00  0.00     0.028 H 
ENDBRANCH  72  73
BRANCH  72  77
ATOM     77  CAE EP6 d   1     -24.233 -66.821  -3.548  0.00  0.00    -0.066 C 
ATOM     78  H8  EP6 d   1     -25.125 -66.944  -4.179  0.00  0.00     0.028 H 
ATOM     79  H9  EP6 d   1     -24.358 -65.938  -2.904  0.00  0.00     0.028 H 
ATOM     80  H10 EP6 d   1     -24.101 -67.716  -2.922  0.00  0.00     0.028 H 
ENDBRANCH  72  77
BRANCH  72  81
ATOM     81  CAC EP6 d   1     -22.845 -67.865  -5.336  0.00  0.00    -0.066 C 
ATOM     82  H11 EP6 d   1     -21.962 -67.741  -5.980  0.00  0.00     0.028 H 
ATOM     83  H12 EP6 d   1     -23.742 -67.978  -5.962  0.00  0.00     0.028 H 
ATOM     84  H13 EP6 d   1     -22.720 -68.761  -4.711  0.00  0.00     0.028 H 
ENDBRANCH  72  81
ENDBRANCH  66  72
ENDBRANCH  56  59
ENDBRANCH  53  56
ENDBRANCH   1  53
TORSDOF 17
