REMARK  28 active torsions:
REMARK  status: ('A' for Active; 'I' for Inactive)
REMARK    1  A    between atoms: C5_2  and  C4_1 
REMARK    2  A    between atoms: C4_1  and  C1_4 
REMARK       I    between atoms: N1_8  and  C5_2 
REMARK    3  A    between atoms: C1_4  and  C2_5 
REMARK    4  A    between atoms: C2_5  and  C3_6 
REMARK    5  A    between atoms: C3_6  and  C29_7 
REMARK    6  A    between atoms: C6_9  and  N1_8 
REMARK    7  A    between atoms: C10_10  and  C6_9 
REMARK    8  A    between atoms: C6_9  and  C7_12 
REMARK       I    between atoms: N2_18  and  C10_10 
REMARK    9  A    between atoms: C7_12  and  C8_13 
REMARK   10  A    between atoms: C7_12  and  C9_14 
REMARK   11  A    between atoms: C15_15  and  C11_23 
REMARK       I    between atoms: N4_26  and  C15_15 
REMARK   12  A    between atoms: C13_17  and  C14_16 
REMARK       I    between atoms: C14_16  and  N3_20 
REMARK   13  A    between atoms: C12_24  and  C13_17 
REMARK   14  A    between atoms: C11_23  and  N2_18 
REMARK   15  A    between atoms: N3_20  and  C30_21 
REMARK   16  A    between atoms: N3_20  and  C31_22 
REMARK   17  A    between atoms: C11_23  and  C12_24 
REMARK   18  A    between atoms: C16_29  and  N4_26 
REMARK   19  A    between atoms: C17_30  and  O4_27 
REMARK   20  A    between atoms: C24_35  and  O7_28 
REMARK   21  A    between atoms: C17_30  and  C16_29 
REMARK   22  A    between atoms: C16_29  and  C25_34 
REMARK   23  A    between atoms: C22_37  and  C17_30 
REMARK   24  A    between atoms: C26_31  and  C28_32 
REMARK   25  A    between atoms: C26_31  and  C27_33 
REMARK   26  A    between atoms: C25_34  and  C26_31 
REMARK   27  A    between atoms: C24_35  and  C22_37 
REMARK   28  A    between atoms: C22_37  and  C23_36 
ROOT
ATOM      1  C11 OV2 d   1      61.128-137.115  39.177  0.00  0.00     0.090 C 
ATOM      2  H30 OV2 d   1      60.372-136.454  39.626  0.00  0.00     0.087 H 
ENDROOT
BRANCH   1   3
ATOM      3  C15 OV2 d   1      62.411-136.960  39.957  0.00  0.00     0.240 C 
ATOM      4  O3  OV2 d   1      63.495-136.916  39.379  0.00  0.00    -0.271 OA
ATOM      5  N4  OV2 d   1      62.281-136.888  41.290  0.00  0.00    -0.352 N 
ATOM      6  H33 OV2 d   1      61.361-136.976  41.672  0.00  0.00     0.163 HD
BRANCH   5   7
ATOM      7  C16 OV2 d   1      63.381-136.691  42.219  0.00  0.00     0.037 C 
ATOM      8  H36 OV2 d   1      64.337-136.866  41.703  0.00  0.00     0.076 H 
BRANCH   7   9
ATOM      9  C17 OV2 d   1      63.349-137.577  43.482  0.00  0.00     0.060 C 
ATOM     10  H37 OV2 d   1      64.051-137.134  44.204  0.00  0.00     0.086 H 
BRANCH   9  11
ATOM     11  O4  OV2 d   1      62.026-137.543  44.042  0.00  0.00    -0.393 OA
ATOM     12  H34 OV2 d   1      61.999-138.087  44.821  0.00  0.00     0.210 HD
ENDBRANCH   9  11
BRANCH   9  13
ATOM     13  C22 OV2 d   1      63.755-139.065  43.300  0.00  0.00    -0.010 C 
ATOM     14  H52 OV2 d   1      64.219-139.419  44.232  0.00  0.00     0.046 H 
BRANCH  13  15
ATOM     15  C24 OV2 d   1      62.524-139.916  43.004  0.00  0.00     0.022 C 
ATOM     16  H47 OV2 d   1      62.699-140.942  43.360  0.00  0.00     0.074 H 
ATOM     17  H48 OV2 d   1      61.655-139.490  43.527  0.00  0.00     0.074 H 
BRANCH  15  18
ATOM     18  O7  OV2 d   1      62.260-139.944  41.600  0.00  0.00    -0.400 OA
ATOM     19  H35 OV2 d   1      61.492-140.477  41.434  0.00  0.00     0.209 HD
ENDBRANCH  15  18
ENDBRANCH  13  15
BRANCH  13  20
ATOM     20  C23 OV2 d   1      64.761-139.221  42.156  0.00  0.00    -0.069 C 
ATOM     21  H49 OV2 d   1      65.651-138.609  42.364  0.00  0.00     0.028 H 
ATOM     22  H50 OV2 d   1      64.300-138.888  41.214  0.00  0.00     0.028 H 
ATOM     23  H51 OV2 d   1      65.055-140.277  42.068  0.00  0.00     0.028 H 
ENDBRANCH  13  20
ENDBRANCH   9  13
ENDBRANCH   7   9
BRANCH   7  24
ATOM     24  C25 OV2 d   1      63.233-135.215  42.598  0.00  0.00    -0.041 C 
ATOM     25  H45 OV2 d   1      63.129-135.163  43.692  0.00  0.00     0.036 H 
ATOM     26  H46 OV2 d   1      62.313-134.843  42.124  0.00  0.00     0.036 H 
BRANCH  24  27
ATOM     27  C26 OV2 d   1      64.368-134.272  42.200  0.00  0.00    -0.059 C 
ATOM     28  H38 OV2 d   1      65.232-134.521  42.833  0.00  0.00     0.038 H 
BRANCH  27  29
ATOM     29  C28 OV2 d   1      64.825-134.397  40.750  0.00  0.00    -0.073 C 
ATOM     30  H39 OV2 d   1      65.640-133.683  40.559  0.00  0.00     0.028 H 
ATOM     31  H40 OV2 d   1      63.981-134.178  40.079  0.00  0.00     0.028 H 
ATOM     32  H41 OV2 d   1      65.184-135.420  40.566  0.00  0.00     0.028 H 
ENDBRANCH  27  29
BRANCH  27  33
ATOM     33  C27 OV2 d   1      63.966-132.832  42.495  0.00  0.00    -0.073 C 
ATOM     34  H42 OV2 d   1      63.638-132.750  43.542  0.00  0.00     0.028 H 
ATOM     35  H43 OV2 d   1      63.142-132.537  41.828  0.00  0.00     0.028 H 
ATOM     36  H44 OV2 d   1      64.828-132.169  42.328  0.00  0.00     0.028 H 
ENDBRANCH  27  33
ENDBRANCH  24  27
ENDBRANCH   7  24
ENDBRANCH   5   7
ENDBRANCH   1   3
BRANCH   1  37
ATOM     37  N2  OV2 d   1      61.290-136.755  37.783  0.00  0.00    -0.346 N 
ATOM     38  C10 OV2 d   1      61.005-135.574  37.247  0.00  0.00     0.241 C 
ATOM     39  O2  OV2 d   1      60.559-134.627  37.864  0.00  0.00    -0.271 OA
ATOM     40  H23 OV2 d   1      61.648-137.459  37.170  0.00  0.00     0.163 HD
BRANCH  38  41
ATOM     41  C6  OV2 d   1      61.263-135.452  35.778  0.00  0.00     0.092 C 
ATOM     42  H13 OV2 d   1      61.442-136.460  35.375  0.00  0.00     0.088 H 
BRANCH  41  43
ATOM     43  N1  OV2 d   1      60.102-134.893  35.118  0.00  0.00    -0.347 N 
ATOM     44  C5  OV2 d   1      59.221-135.645  34.465  0.00  0.00     0.218 C 
ATOM     45  O1  OV2 d   1      59.312-136.858  34.366  0.00  0.00    -0.274 OA
ATOM     46  H12 OV2 d   1      59.957-133.904  35.155  0.00  0.00     0.163 HD
BRANCH  44  47
ATOM     47  C4  OV2 d   1      58.062-134.913  33.831  0.00  0.00     0.009 C 
ATOM     48  H1  OV2 d   1      57.779-135.410  32.891  0.00  0.00     0.047 H 
ATOM     49  H2  OV2 d   1      58.350-133.872  33.623  0.00  0.00     0.047 H 
BRANCH  47  50
ATOM     50  C1  OV2 d   1      56.884-134.937  34.801  0.00  0.00    -0.057 C 
ATOM     51  H3  OV2 d   1      57.201-134.518  35.767  0.00  0.00     0.033 H 
ATOM     52  H4  OV2 d   1      56.552-135.976  34.943  0.00  0.00     0.033 H 
BRANCH  50  53
ATOM     53  C2  OV2 d   1      55.731-134.113  34.250  0.00  0.00    -0.065 C 
ATOM     54  H5  OV2 d   1      55.374-134.574  33.317  0.00  0.00     0.033 H 
ATOM     55  H6  OV2 d   1      56.086-133.093  34.043  0.00  0.00     0.033 H 
BRANCH  53  56
ATOM     56  C3  OV2 d   1      54.579-134.047  35.245  0.00  0.00    -0.069 C 
ATOM     57  H7  OV2 d   1      54.784-133.260  35.986  0.00  0.00     0.032 H 
ATOM     58  H8  OV2 d   1      54.485-135.016  35.757  0.00  0.00     0.032 H 
BRANCH  56  59
ATOM     59  C29 OV2 d   1      53.281-133.733  34.527  0.00  0.00    -0.077 C 
ATOM     60  H9  OV2 d   1      52.459-133.689  35.257  0.00  0.00     0.027 H 
ATOM     61  H10 OV2 d   1      53.072-134.519  33.787  0.00  0.00     0.027 H 
ATOM     62  H11 OV2 d   1      53.370-132.763  34.016  0.00  0.00     0.027 H 
ENDBRANCH  56  59
ENDBRANCH  53  56
ENDBRANCH  50  53
ENDBRANCH  47  50
ENDBRANCH  44  47
ENDBRANCH  41  43
BRANCH  41  63
ATOM     63  C7  OV2 d   1      62.498-134.599  35.494  0.00  0.00    -0.033 C 
ATOM     64  H14 OV2 d   1      62.232-133.550  35.692  0.00  0.00     0.042 H 
BRANCH  63  65
ATOM     65  C8  OV2 d   1      62.920-134.715  34.037  0.00  0.00    -0.071 C 
ATOM     66  H15 OV2 d   1      63.809-134.092  33.862  0.00  0.00     0.028 H 
ATOM     67  H16 OV2 d   1      62.099-134.373  33.389  0.00  0.00     0.028 H 
ATOM     68  H17 OV2 d   1      63.156-135.764  33.806  0.00  0.00     0.028 H 
ENDBRANCH  63  65
BRANCH  63  69
ATOM     69  C9  OV2 d   1      63.667-134.963  36.393  0.00  0.00    -0.071 C 
ATOM     70  H18 OV2 d   1      63.360-134.879  37.446  0.00  0.00     0.028 H 
ATOM     71  H19 OV2 d   1      64.506-134.278  36.200  0.00  0.00     0.028 H 
ATOM     72  H20 OV2 d   1      63.982-135.996  36.185  0.00  0.00     0.028 H 
ENDBRANCH  63  69
ENDBRANCH  41  63
ENDBRANCH  38  41
ENDBRANCH   1  37
BRANCH   1  73
ATOM     73  C12 OV2 d   1      60.630-138.550  39.242  0.00  0.00    -0.030 C 
ATOM     74  H31 OV2 d   1      61.456-139.226  38.976  0.00  0.00     0.037 H 
ATOM     75  H32 OV2 d   1      60.296-138.765  40.268  0.00  0.00     0.037 H 
BRANCH  73  76
ATOM     76  C13 OV2 d   1      59.470-138.789  38.285  0.00  0.00     0.012 C 
ATOM     77  H21 OV2 d   1      59.464-138.001  37.517  0.00  0.00     0.047 H 
ATOM     78  H22 OV2 d   1      59.592-139.770  37.803  0.00  0.00     0.047 H 
BRANCH  76  79
ATOM     79  C14 OV2 d   1      58.160-138.762  39.041  0.00  0.00     0.219 C 
ATOM     80  O8  OV2 d   1      58.068-138.189  40.116  0.00  0.00    -0.273 OA
ATOM     81  N3  OV2 d   1      57.131-139.387  38.471  0.00  0.00    -0.361 N 
BRANCH  81  82
ATOM     82  C30 OV2 d   1      56.226-138.707  37.549  0.00  0.00    -0.017 C 
ATOM     83  H24 OV2 d   1      55.456-139.413  37.204  0.00  0.00     0.056 H 
ATOM     84  H25 OV2 d   1      56.795-138.334  36.685  0.00  0.00     0.056 H 
ATOM     85  H26 OV2 d   1      55.745-137.862  38.064  0.00  0.00     0.056 H 
ENDBRANCH  81  82
BRANCH  81  86
ATOM     86  C31 OV2 d   1      56.837-140.792  38.732  0.00  0.00    -0.017 C 
ATOM     87  H27 OV2 d   1      57.579-141.197  39.436  0.00  0.00     0.056 H 
ATOM     88  H28 OV2 d   1      56.879-141.357  37.789  0.00  0.00     0.056 H 
ATOM     89  H29 OV2 d   1      55.831-140.881  39.168  0.00  0.00     0.056 H 
ENDBRANCH  81  86
ENDBRANCH  76  79
ENDBRANCH  73  76
ENDBRANCH   1  73
TORSDOF 28
