REMARK  28 active torsions:
REMARK  status: ('A' for Active; 'I' for Inactive)
REMARK    1  A    between atoms: C5_2  and  C4_1 
REMARK    2  A    between atoms: C4_1  and  C1_4 
REMARK       I    between atoms: N1_8  and  C5_2 
REMARK    3  A    between atoms: C1_4  and  C2_5 
REMARK    4  A    between atoms: C2_5  and  C3_6 
REMARK    5  A    between atoms: C3_6  and  C29_7 
REMARK    6  A    between atoms: C6_9  and  N1_8 
REMARK    7  A    between atoms: C10_10  and  C6_9 
REMARK    8  A    between atoms: C6_9  and  C7_12 
REMARK       I    between atoms: N2_15  and  C10_10 
REMARK    9  A    between atoms: C7_12  and  C8_13 
REMARK   10  A    between atoms: C7_12  and  C9_14 
REMARK   11  A    between atoms: C11_16  and  N2_15 
REMARK   12  A    between atoms: C11_16  and  C12_17 
REMARK   13  A    between atoms: C15_22  and  C11_16 
REMARK   14  A    between atoms: C12_17  and  C13_18 
REMARK   15  A    between atoms: C13_18  and  S1_19 
REMARK   16  A    between atoms: S1_19  and  O8_20 
REMARK   17  A    between atoms: S1_19  and  C14_21 
REMARK       I    between atoms: N3_24  and  C15_22 
REMARK   18  A    between atoms: C16_27  and  N3_24 
REMARK   19  A    between atoms: C17_28  and  O4_25 
REMARK   20  A    between atoms: C24_33  and  O7_26 
REMARK   21  A    between atoms: C17_28  and  C16_27 
REMARK   22  A    between atoms: C16_27  and  C25_32 
REMARK   23  A    between atoms: C22_35  and  C17_28 
REMARK   24  A    between atoms: C26_29  and  C28_30 
REMARK   25  A    between atoms: C26_29  and  C27_31 
REMARK   26  A    between atoms: C25_32  and  C26_29 
REMARK   27  A    between atoms: C24_33  and  C22_35 
REMARK   28  A    between atoms: C22_35  and  C23_34 
ROOT
ATOM      1  C11 OV1 d   1      61.028-136.572  39.638  0.00  0.00     0.090 C 
ATOM      2  H22 OV1 d   1      60.420-135.711  39.953  0.00  0.00     0.087 H 
ENDROOT
BRANCH   1   3
ATOM      3  N2  OV1 d   1      61.234-136.462  38.220  0.00  0.00    -0.346 N 
ATOM      4  C10 OV1 d   1      60.964-135.359  37.536  0.00  0.00     0.241 C 
ATOM      5  O2  OV1 d   1      60.386-134.430  37.983  0.00  0.00    -0.271 OA
ATOM      6  H21 OV1 d   1      61.597-137.253  37.727  0.00  0.00     0.163 HD
BRANCH   4   7
ATOM      7  C6  OV1 d   1      61.374-135.237  36.143  0.00  0.00     0.092 C 
ATOM      8  H13 OV1 d   1      61.682-136.202  35.715  0.00  0.00     0.088 H 
BRANCH   7   9
ATOM      9  N1  OV1 d   1      60.332-134.598  35.451  0.00  0.00    -0.347 N 
ATOM     10  C5  OV1 d   1      59.356-135.237  34.912  0.00  0.00     0.218 C 
ATOM     11  O1  OV1 d   1      59.315-136.411  34.935  0.00  0.00    -0.274 OA
ATOM     12  H12 OV1 d   1      60.350-133.601  35.374  0.00  0.00     0.163 HD
BRANCH  10  13
ATOM     13  C4  OV1 d   1      58.280-134.444  34.272  0.00  0.00     0.009 C 
ATOM     14  H1  OV1 d   1      57.982-134.911  33.322  0.00  0.00     0.047 H 
ATOM     15  H2  OV1 d   1      58.630-133.418  34.082  0.00  0.00     0.047 H 
BRANCH  13  16
ATOM     16  C1  OV1 d   1      57.111-134.423  35.227  0.00  0.00    -0.057 C 
ATOM     17  H3  OV1 d   1      57.428-133.955  36.170  0.00  0.00     0.033 H 
ATOM     18  H4  OV1 d   1      56.788-135.457  35.421  0.00  0.00     0.033 H 
BRANCH  16  19
ATOM     19  C2  OV1 d   1      55.947-133.643  34.657  0.00  0.00    -0.065 C 
ATOM     20  H5  OV1 d   1      55.562-134.161  33.766  0.00  0.00     0.033 H 
ATOM     21  H6  OV1 d   1      56.286-132.635  34.377  0.00  0.00     0.033 H 
BRANCH  19  22
ATOM     22  C3  OV1 d   1      54.849-133.534  35.684  0.00  0.00    -0.069 C 
ATOM     23  H7  OV1 d   1      55.033-132.666  36.334  0.00  0.00     0.032 H 
ATOM     24  H8  OV1 d   1      54.818-134.449  36.294  0.00  0.00     0.032 H 
BRANCH  22  25
ATOM     25  C29 OV1 d   1      53.542-133.360  34.963  0.00  0.00    -0.077 C 
ATOM     26  H9  OV1 d   1      52.727-133.278  35.697  0.00  0.00     0.027 H 
ATOM     27  H10 OV1 d   1      53.364-134.229  34.312  0.00  0.00     0.027 H 
ATOM     28  H11 OV1 d   1      53.579-132.446  34.353  0.00  0.00     0.027 H 
ENDBRANCH  22  25
ENDBRANCH  19  22
ENDBRANCH  16  19
ENDBRANCH  13  16
ENDBRANCH  10  13
ENDBRANCH   7   9
BRANCH   7  29
ATOM     29  C7  OV1 d   1      62.396-134.166  36.018  0.00  0.00    -0.033 C 
ATOM     30  H14 OV1 d   1      62.008-133.244  36.475  0.00  0.00     0.042 H 
BRANCH  29  31
ATOM     31  C8  OV1 d   1      62.637-133.959  34.557  0.00  0.00    -0.071 C 
ATOM     32  H15 OV1 d   1      63.391-133.170  34.418  0.00  0.00     0.028 H 
ATOM     33  H16 OV1 d   1      61.698-133.659  34.069  0.00  0.00     0.028 H 
ATOM     34  H17 OV1 d   1      62.999-134.896  34.109  0.00  0.00     0.028 H 
ENDBRANCH  29  31
BRANCH  29  35
ATOM     35  C9  OV1 d   1      63.702-134.507  36.650  0.00  0.00    -0.071 C 
ATOM     36  H18 OV1 d   1      63.557-134.666  37.729  0.00  0.00     0.028 H 
ATOM     37  H19 OV1 d   1      64.412-133.682  36.493  0.00  0.00     0.028 H 
ATOM     38  H20 OV1 d   1      64.101-135.425  36.195  0.00  0.00     0.028 H 
ENDBRANCH  29  35
ENDBRANCH   7  29
ENDBRANCH   4   7
ENDBRANCH   1   3
BRANCH   1  39
ATOM     39  C12 OV1 d   1      60.270-137.849  39.998  0.00  0.00    -0.029 C 
ATOM     40  H23 OV1 d   1      59.793-137.667  40.972  0.00  0.00     0.037 H 
ATOM     41  H24 OV1 d   1      61.024-138.643  40.102  0.00  0.00     0.037 H 
BRANCH  39  42
ATOM     42  C13 OV1 d   1      59.181-138.399  39.074  0.00  0.00    -0.008 C 
ATOM     43  H25 OV1 d   1      59.133-137.800  38.153  0.00  0.00     0.051 H 
ATOM     44  H26 OV1 d   1      58.206-138.368  39.583  0.00  0.00     0.051 H 
BRANCH  42  45
ATOM     45  S1  OV1 d   1      59.597-140.036  38.693  0.00  0.00    -0.096 S 
BRANCH  45  46
ATOM     46  O8  OV1 d   1      59.849-140.162  37.237  0.00  0.00    -0.342 OA
ATOM     47  H27 OV1 d   1      60.565-139.589  36.990  0.00  0.00     0.226 HD
ENDBRANCH  45  46
BRANCH  45  48
ATOM     48  C14 OV1 d   1      58.454-141.187  39.199  0.00  0.00    -0.021 C 
ATOM     49  H28 OV1 d   1      58.798-142.193  38.917  0.00  0.00     0.043 H 
ATOM     50  H29 OV1 d   1      57.487-140.981  38.716  0.00  0.00     0.043 H 
ATOM     51  H30 OV1 d   1      58.337-141.132  40.291  0.00  0.00     0.043 H 
ENDBRANCH  45  48
ENDBRANCH  42  45
ENDBRANCH  39  42
ENDBRANCH   1  39
BRANCH   1  52
ATOM     52  C15 OV1 d   1      62.318-136.536  40.403  0.00  0.00     0.240 C 
ATOM     53  O3  OV1 d   1      63.356-136.767  39.875  0.00  0.00    -0.271 OA
ATOM     54  N3  OV1 d   1      62.288-136.264  41.694  0.00  0.00    -0.352 N 
ATOM     55  H31 OV1 d   1      61.398-136.060  42.100  0.00  0.00     0.163 HD
BRANCH  54  56
ATOM     56  C16 OV1 d   1      63.441-136.238  42.569  0.00  0.00     0.037 C 
ATOM     57  H34 OV1 d   1      64.342-136.505  41.997  0.00  0.00     0.076 H 
BRANCH  56  58
ATOM     58  C17 OV1 d   1      63.307-137.097  43.800  0.00  0.00     0.060 C 
ATOM     59  H35 OV1 d   1      63.987-136.691  44.563  0.00  0.00     0.086 H 
BRANCH  58  60
ATOM     60  O4  OV1 d   1      62.003-136.947  44.251  0.00  0.00    -0.393 OA
ATOM     61  H32 OV1 d   1      61.876-137.475  45.030  0.00  0.00     0.210 HD
ENDBRANCH  58  60
BRANCH  58  62
ATOM     62  C22 OV1 d   1      63.673-138.558  43.628  0.00  0.00    -0.010 C 
ATOM     63  H50 OV1 d   1      63.969-138.978  44.600  0.00  0.00     0.046 H 
BRANCH  62  64
ATOM     64  C24 OV1 d   1      62.467-139.275  43.108  0.00  0.00     0.022 C 
ATOM     65  H45 OV1 d   1      62.157-140.030  43.845  0.00  0.00     0.074 H 
ATOM     66  H46 OV1 d   1      61.655-138.547  42.965  0.00  0.00     0.074 H 
BRANCH  64  67
ATOM     67  O7  OV1 d   1      62.725-139.919  41.875  0.00  0.00    -0.400 OA
ATOM     68  H33 OV1 d   1      61.938-140.361  41.579  0.00  0.00     0.209 HD
ENDBRANCH  64  67
ENDBRANCH  62  64
BRANCH  62  69
ATOM     69  C23 OV1 d   1      64.810-138.729  42.643  0.00  0.00    -0.069 C 
ATOM     70  H47 OV1 d   1      65.701-138.205  43.017  0.00  0.00     0.028 H 
ATOM     71  H48 OV1 d   1      64.519-138.307  41.670  0.00  0.00     0.028 H 
ATOM     72  H49 OV1 d   1      65.036-139.799  42.526  0.00  0.00     0.028 H 
ENDBRANCH  62  69
ENDBRANCH  58  62
ENDBRANCH  56  58
BRANCH  56  73
ATOM     73  C25 OV1 d   1      63.545-134.876  43.189  0.00  0.00    -0.041 C 
ATOM     74  H43 OV1 d   1      64.492-134.819  43.746  0.00  0.00     0.036 H 
ATOM     75  H44 OV1 d   1      62.703-134.745  43.884  0.00  0.00     0.036 H 
BRANCH  73  76
ATOM     76  C26 OV1 d   1      63.514-133.770  42.200  0.00  0.00    -0.059 C 
ATOM     77  H36 OV1 d   1      62.598-133.803  41.592  0.00  0.00     0.038 H 
BRANCH  76  78
ATOM     78  C28 OV1 d   1      63.616-132.486  42.946  0.00  0.00    -0.073 C 
ATOM     79  H37 OV1 d   1      63.595-131.647  42.236  0.00  0.00     0.028 H 
ATOM     80  H38 OV1 d   1      64.559-132.464  43.512  0.00  0.00     0.028 H 
ATOM     81  H39 OV1 d   1      62.769-132.398  43.642  0.00  0.00     0.028 H 
ENDBRANCH  76  78
BRANCH  76  82
ATOM     82  C27 OV1 d   1      64.726-133.912  41.356  0.00  0.00    -0.073 C 
ATOM     83  H40 OV1 d   1      64.673-134.856  40.794  0.00  0.00     0.028 H 
ATOM     84  H41 OV1 d   1      65.620-133.917  41.996  0.00  0.00     0.028 H 
ATOM     85  H42 OV1 d   1      64.783-133.069  40.652  0.00  0.00     0.028 H 
ENDBRANCH  76  82
ENDBRANCH  73  76
ENDBRANCH  56  73
ENDBRANCH  54  56
ENDBRANCH   1  52
TORSDOF 28
