REMARK WARNING: 32 MAX_TORS EXCEEDED!!!
REMARK  54 active torsions:
REMARK  status: ('A' for Active; 'I' for Inactive)
REMARK    1  A    between atoms: N_1  and  CA_2 
REMARK    2  A    between atoms: CA_2  and  C_3 
REMARK    3  A    between atoms: CA_2  and  CB_5 
REMARK       I    between atoms: C_3  and  N_10 
REMARK    4  A    between atoms: CB_5  and  CG_6 
REMARK    5  A    between atoms: CG_6  and  CD_7 
REMARK       I    between atoms: CD_7  and  NE2_9 
REMARK    6  A    between atoms: N_10  and  CA_11 
REMARK    7  A    between atoms: CA_11  and  C_12 
REMARK    8  A    between atoms: CA_11  and  CB_14 
REMARK       I    between atoms: C_12  and  N_18 
REMARK    9  A    between atoms: CB_14  and  CG_15 
REMARK   10  A    between atoms: CG_15  and  CD1_16 
REMARK   11  A    between atoms: CG_15  and  CD2_17 
REMARK   12  A    between atoms: N_18  and  CA_19 
REMARK   13  A    between atoms: CA_19  and  C_20 
REMARK   14  A    between atoms: CA_19  and  CB_22 
REMARK       I    between atoms: C_20  and  N_26 
REMARK   15  A    between atoms: CB_22  and  CG1_23 
REMARK   16  A    between atoms: CB_22  and  CG2_24 
REMARK   17  A    between atoms: CG1_23  and  CD1_25 
REMARK   18  A    between atoms: N_26  and  CA_27 
REMARK   19  A    between atoms: CA_27  and  C_28 
REMARK   20  A    between atoms: CA_27  and  CB_30 
REMARK       I    between atoms: C_28  and  N_34 
REMARK   21  A    between atoms: CB_30  and  CG_31 
REMARK       I    between atoms: CG_31  and  ND2_33 
REMARK   22  A    between atoms: N_34  and  CA_35 
REMARK   23  A    between atoms: CA_35  and  C_36 
REMARK   24  A    between atoms: CA_35  and  CB_38 
REMARK       I    between atoms: C_36  and  N_41 
REMARK   25  A    between atoms: CB_38  and  OG1_39 
REMARK   26  A    between atoms: CB_38  and  CG2_40 
REMARK   27  A    between atoms: N_41  and  CA_42 
REMARK   28  A    between atoms: CA_42  and  C_43 
REMARK   29  A    between atoms: CA_42  and  CB_45 
REMARK       I    between atoms: C_43  and  N_49 
REMARK   30  A    between atoms: CB_45  and  CG_46 
REMARK       I    between atoms: CG_46  and  ND2_48 
REMARK   31  A    between atoms: N_49  and  CA_50 
REMARK   32  A    between atoms: CA_50  and  C_51 
REMARK       I    between atoms: C_51  and  N_53 
REMARK   33  A    between atoms: N_53  and  CA_54 
REMARK   34  A    between atoms: CA_54  and  C_55 
REMARK   35  A    between atoms: CA_54  and  CB_57 
REMARK       I    between atoms: C_55  and  N_59 
REMARK   36  A    between atoms: CB_57  and  OG_58 
REMARK   37  A    between atoms: N_59  and  CA_60 
REMARK   38  A    between atoms: CA_60  and  C_61 
REMARK   39  A    between atoms: CA_60  and  CB_63 
REMARK       I    between atoms: C_61  and  N_73 
REMARK   40  A    between atoms: CB_63  and  CG_64 
REMARK   41  A    between atoms: N_73  and  CA_74 
REMARK   42  A    between atoms: CA_74  and  C_75 
REMARK   43  A    between atoms: CA_74  and  CB_77 
REMARK       I    between atoms: C_75  and  N_83 
REMARK   44  A    between atoms: CB_77  and  CG_78 
REMARK   45  A    between atoms: N_83  and  CA_84 
REMARK   46  A    between atoms: CA_84  and  C_85 
REMARK   47  A    between atoms: CA_84  and  CB_87 
REMARK       I    between atoms: C_85  and  N_91 
REMARK   48  A    between atoms: CB_87  and  CG1_88 
REMARK   49  A    between atoms: CB_87  and  CG2_89 
REMARK   50  A    between atoms: CG1_88  and  CD1_90 
REMARK   51  A    between atoms: N_91  and  CA_92 
REMARK   52  A    between atoms: CA_92  and  C_93 
REMARK   53  A    between atoms: CA_92  and  CB_95 
REMARK   54  A    between atoms: CB_95  and  CG_96 
REMARK       I    between atoms: CG_96  and  ND2_98 
ROOT
ATOM      1  CA  ASN d   1      50.376  13.679  -8.869  0.00  0.00     0.097 C 
ATOM      2  H47 ASN d   1      49.756  12.818  -9.159  0.00  0.00     0.088 H 
ENDROOT
BRANCH   1   3
ATOM      3  N   ASN d   1      50.286  14.667  -9.942  0.00  0.00    -0.345 N 
ATOM      4  C   THR d   1      50.804  15.892  -9.830  0.00  0.00     0.243 C 
ATOM      5  O   THR d   1      51.290  16.312  -8.783  0.00  0.00    -0.271 OA
ATOM      6  H46 ASN d   1      49.820  14.416 -10.790  0.00  0.00     0.163 HD
BRANCH   4   7
ATOM      7  CA  THR d   1      50.704  16.792 -11.059  0.00  0.00     0.113 C 
ATOM      8  H40 THR d   1      50.119  16.284 -11.840  0.00  0.00     0.091 H 
BRANCH   7   9
ATOM      9  N   THR d   1      50.008  18.025 -10.655  0.00  0.00    -0.344 N 
ATOM     10  C   ASN d   1      49.022  18.566 -11.369  0.00  0.00     0.241 C 
ATOM     11  O   ASN d   1      48.697  18.162 -12.489  0.00  0.00    -0.271 OA
ATOM     12  H39 THR d   1      50.288  18.476  -9.807  0.00  0.00     0.163 HD
BRANCH  10  13
ATOM     13  CA  ASN d   1      48.307  19.756 -10.719  0.00  0.00     0.097 C 
ATOM     14  H34 ASN d   1      48.911  20.084  -9.861  0.00  0.00     0.088 H 
BRANCH  13  15
ATOM     15  N   ASN d   1      48.191  20.880 -11.639  0.00  0.00    -0.346 N 
ATOM     16  C   ILE d   1      49.024  21.920 -11.556  0.00  0.00     0.241 C 
ATOM     17  O   ILE d   1      49.899  22.004 -10.699  0.00  0.00    -0.271 OA
ATOM     18  H33 ASN d   1      47.479  20.872 -12.341  0.00  0.00     0.163 HD
BRANCH  16  19
ATOM     19  CA  ILE d   1      48.882  23.015 -12.603  0.00  0.00     0.092 C 
ATOM     20  H23 ILE d   1      47.881  22.987 -13.058  0.00  0.00     0.088 H 
BRANCH  19  21
ATOM     21  N   ILE d   1      49.089  24.300 -11.934  0.00  0.00    -0.346 N 
ATOM     22  C   LEU d   1      48.145  25.229 -11.787  0.00  0.00     0.241 C 
ATOM     23  O   LEU d   1      46.992  25.113 -12.214  0.00  0.00    -0.271 OA
ATOM     24  H22 ILE d   1      49.997  24.493 -11.563  0.00  0.00     0.163 HD
BRANCH  22  25
ATOM     25  CA  LEU d   1      48.591  26.486 -11.046  0.00  0.00     0.089 C 
ATOM     26  H12 LEU d   1      49.639  26.699 -11.302  0.00  0.00     0.087 H 
BRANCH  25  27
ATOM     27  N   LEU d   1      47.768  27.622 -11.462  0.00  0.00    -0.346 N 
ATOM     28  C   GLN d   1      47.873  28.152 -12.679  0.00  0.00     0.249 C 
ATOM     29  O   GLN d   1      48.717  27.779 -13.504  0.00  0.00    -0.271 OA
ATOM     30  H11 LEU d   1      47.110  28.010 -10.816  0.00  0.00     0.163 HD
BRANCH  28  31
ATOM     31  CA  GLN d   1      46.913  29.306 -13.002  0.00  0.00     0.176 C 
ATOM     32  H4  GLN d   1      46.460  29.650 -12.060  0.00  0.00     0.099 H 
BRANCH  31  33
ATOM     33  N   GLN d   1      47.684  30.420 -13.599  0.00  0.00    -0.066 N 
ATOM     34  H1  GLN d   1      47.061  31.183 -13.814  0.00  0.00     0.275 HD
ATOM     35  H2  GLN d   1      48.132  30.103 -14.445  0.00  0.00     0.275 HD
ATOM     36  H3  GLN d   1      48.384  30.733 -12.945  0.00  0.00     0.275 HD
ENDBRANCH  31  33
BRANCH  31  37
ATOM     37  CB  GLN d   1      45.776  28.895 -13.957  0.00  0.00    -0.022 C 
ATOM     38  H5  GLN d   1      44.929  29.577 -13.789  0.00  0.00     0.037 H 
ATOM     39  H6  GLN d   1      45.475  27.868 -13.704  0.00  0.00     0.037 H 
BRANCH  37  40
ATOM     40  CG  GLN d   1      46.129  28.932 -15.476  0.00  0.00     0.011 C 
ATOM     41  H7  GLN d   1      45.377  28.334 -16.012  0.00  0.00     0.047 H 
ATOM     42  H8  GLN d   1      47.121  28.474 -15.603  0.00  0.00     0.047 H 
BRANCH  40  43
ATOM     43  CD  GLN d   1      46.168  30.334 -16.124  0.00  0.00     0.215 C 
ATOM     44  OE1 GLN d   1      46.876  31.222 -15.666  0.00  0.00    -0.274 OA
ATOM     45  NE2 GLN d   1      45.438  30.504 -17.233  0.00  0.00    -0.370 N 
ATOM     46  H9  GLN d   1      45.427  31.392 -17.693  0.00  0.00     0.159 HD
ATOM     47  H10 GLN d   1      44.904  29.743 -17.601  0.00  0.00     0.159 HD
ENDBRANCH  40  43
ENDBRANCH  37  40
ENDBRANCH  31  37
ENDBRANCH  28  31
ENDBRANCH  25  27
BRANCH  25  48
ATOM     48  CB  LEU d   1      48.492  26.254  -9.532  0.00  0.00    -0.035 C 
ATOM     49  H13 LEU d   1      49.084  25.358  -9.292  0.00  0.00     0.037 H 
ATOM     50  H14 LEU d   1      47.435  26.071  -9.290  0.00  0.00     0.037 H 
BRANCH  48  51
ATOM     51  CG  LEU d   1      48.985  27.393  -8.632  0.00  0.00    -0.059 C 
ATOM     52  H15 LEU d   1      48.503  28.324  -8.965  0.00  0.00     0.038 H 
BRANCH  51  53
ATOM     53  CD1 LEU d   1      48.595  27.148  -7.176  0.00  0.00    -0.073 C 
ATOM     54  H16 LEU d   1      48.960  27.978  -6.554  0.00  0.00     0.028 H 
ATOM     55  H17 LEU d   1      49.044  26.205  -6.830  0.00  0.00     0.028 H 
ATOM     56  H18 LEU d   1      47.500  27.084  -7.096  0.00  0.00     0.028 H 
ENDBRANCH  51  53
BRANCH  51  57
ATOM     57  CD2 LEU d   1      50.496  27.567  -8.755  0.00  0.00    -0.073 C 
ATOM     58  H19 LEU d   1      50.760  27.742  -9.808  0.00  0.00     0.028 H 
ATOM     59  H20 LEU d   1      51.000  26.657  -8.397  0.00  0.00     0.028 H 
ATOM     60  H21 LEU d   1      50.817  28.427  -8.149  0.00  0.00     0.028 H 
ENDBRANCH  51  57
ENDBRANCH  48  51
ENDBRANCH  25  48
ENDBRANCH  22  25
ENDBRANCH  19  21
BRANCH  19  61
ATOM     61  CB  ILE d   1      49.960  22.774 -13.687  0.00  0.00    -0.030 C 
ATOM     62  H24 ILE d   1      50.932  22.684 -13.181  0.00  0.00     0.043 H 
BRANCH  61  63
ATOM     63  CG1 ILE d   1      50.040  23.951 -14.662  0.00  0.00    -0.063 C 
ATOM     64  H25 ILE d   1      50.859  23.759 -15.370  0.00  0.00     0.033 H 
ATOM     65  H26 ILE d   1      50.259  24.863 -14.087  0.00  0.00     0.033 H 
BRANCH  63  66
ATOM     66  CD1 ILE d   1      48.796  24.176 -15.437  0.00  0.00    -0.076 C 
ATOM     67  H30 ILE d   1      48.934  25.034 -16.111  0.00  0.00     0.027 H 
ATOM     68  H31 ILE d   1      47.966  24.382 -14.746  0.00  0.00     0.027 H 
ATOM     69  H32 ILE d   1      48.566  23.278 -16.029  0.00  0.00     0.027 H 
ENDBRANCH  63  66
ENDBRANCH  61  63
BRANCH  61  70
ATOM     70  CG2 ILE d   1      49.702  21.484 -14.443  0.00  0.00    -0.071 C 
ATOM     71  H27 ILE d   1      49.647  20.647 -13.732  0.00  0.00     0.028 H 
ATOM     72  H28 ILE d   1      50.521  21.306 -15.155  0.00  0.00     0.028 H 
ATOM     73  H29 ILE d   1      48.751  21.564 -14.990  0.00  0.00     0.028 H 
ENDBRANCH  61  70
ENDBRANCH  19  61
ENDBRANCH  16  19
ENDBRANCH  13  15
BRANCH  13  74
ATOM     74  CB  ASN d   1      46.931  19.341 -10.197  0.00  0.00     0.036 C 
ATOM     75  H35 ASN d   1      46.399  18.801 -10.994  0.00  0.00     0.051 H 
ATOM     76  H36 ASN d   1      46.367  20.247  -9.929  0.00  0.00     0.051 H 
BRANCH  74  77
ATOM     77  CG  ASN d   1      47.020  18.445  -8.978  0.00  0.00     0.217 C 
ATOM     78  OD1 ASN d   1      47.117  17.210  -9.108  0.00  0.00    -0.274 OA
ATOM     79  ND2 ASN d   1      47.017  19.050  -7.778  0.00  0.00    -0.370 N 
ATOM     80  H37 ASN d   1      47.074  18.504  -6.942  0.00  0.00     0.159 HD
ATOM     81  H38 ASN d   1      46.958  20.047  -7.721  0.00  0.00     0.159 HD
ENDBRANCH  74  77
ENDBRANCH  13  74
ENDBRANCH  10  13
ENDBRANCH   7   9
BRANCH   7  82
ATOM     82  CB  THR d   1      52.116  17.095 -11.612  0.00  0.00     0.060 C 
ATOM     83  H41 THR d   1      52.702  17.610 -10.836  0.00  0.00     0.086 H 
BRANCH  82  84
ATOM     84  OG1 THR d   1      52.007  17.939 -12.768  0.00  0.00    -0.393 OA
ATOM     85  H42 THR d   1      51.494  17.497 -13.434  0.00  0.00     0.210 HD
ENDBRANCH  82  84
BRANCH  82  86
ATOM     86  CG2 THR d   1      52.831  15.813 -12.010  0.00  0.00    -0.050 C 
ATOM     87  H43 THR d   1      53.831  16.056 -12.399  0.00  0.00     0.031 H 
ATOM     88  H44 THR d   1      52.251  15.296 -12.788  0.00  0.00     0.031 H 
ATOM     89  H45 THR d   1      52.929  15.160 -11.130  0.00  0.00     0.031 H 
ENDBRANCH  82  86
ENDBRANCH   7  82
ENDBRANCH   4   7
ENDBRANCH   1   3
BRANCH   1  90
ATOM     90  C   ASN d   1      49.841  14.202  -7.535  0.00  0.00     0.241 C 
ATOM     91  O   ASN d   1      50.342  13.859  -6.470  0.00  0.00    -0.271 OA
ATOM     92  N   GLY d   1      48.804  15.039  -7.608  0.00  0.00    -0.351 N 
ATOM     93  H52 GLY d   1      48.508  15.362  -8.507  0.00  0.00     0.163 HD
BRANCH  92  94
ATOM     94  CA  GLY d   1      48.088  15.499  -6.424  0.00  0.00     0.069 C 
ATOM     95  H53 GLY d   1      48.279  14.784  -5.611  0.00  0.00     0.078 H 
ATOM     96  H54 GLY d   1      47.013  15.511  -6.658  0.00  0.00     0.078 H 
BRANCH  94  97
ATOM     97  C   GLY d   1      48.478  16.881  -5.936  0.00  0.00     0.236 C 
ATOM     98  O   GLY d   1      47.742  17.460  -5.144  0.00  0.00    -0.272 OA
ATOM     99  N   SER d   1      49.617  17.396  -6.379  0.00  0.00    -0.344 N 
ATOM    100  H55 SER d   1      50.147  16.897  -7.065  0.00  0.00     0.163 HD
BRANCH  99 101
ATOM    101  CA  SER d   1      50.115  18.684  -5.882  0.00  0.00     0.109 C 
ATOM    102  H56 SER d   1      49.459  19.003  -5.059  0.00  0.00     0.090 H 
BRANCH 101 103
ATOM    103  C   SER d   1      50.072  19.770  -6.947  0.00  0.00     0.243 C 
ATOM    104  O   SER d   1      50.375  19.533  -8.119  0.00  0.00    -0.271 OA
ATOM    105  N   TRP d   1      49.693  20.974  -6.523  0.00  0.00    -0.346 N 
ATOM    106  H60 TRP d   1      49.464  21.098  -5.558  0.00  0.00     0.163 HD
BRANCH 105 107
ATOM    107  CA  TRP d   1      49.602  22.115  -7.420  0.00  0.00     0.093 C 
ATOM    108  H61 TRP d   1      49.366  21.756  -8.433  0.00  0.00     0.088 H 
BRANCH 107 109
ATOM    109  C   TRP d   1      50.943  22.835  -7.452  0.00  0.00     0.241 C 
ATOM    110  O   TRP d   1      51.574  22.995  -6.409  0.00  0.00    -0.271 OA
ATOM    111  N   HIS d   1      51.373  23.225  -8.654  0.00  0.00    -0.346 N 
ATOM    112  H70 HIS d   1      50.785  23.066  -9.447  0.00  0.00     0.163 HD
BRANCH 111 113
ATOM    113  CA  HIS d   1      52.670  23.877  -8.861  0.00  0.00     0.094 C 
ATOM    114  H71 HIS d   1      52.947  24.407  -7.938  0.00  0.00     0.088 H 
BRANCH 113 115
ATOM    115  C   HIS d   1      52.587  24.887  -9.994  0.00  0.00     0.241 C 
ATOM    116  O   HIS d   1      51.626  24.910 -10.752  0.00  0.00    -0.271 OA
ATOM    117  N   ILE d   1      53.615  25.723 -10.112  0.00  0.00    -0.346 N 
ATOM    118  H77 ILE d   1      54.369  25.681  -9.456  0.00  0.00     0.163 HD
BRANCH 117 119
ATOM    119  CA  ILE d   1      53.647  26.697 -11.190  0.00  0.00     0.092 C 
ATOM    120  H78 ILE d   1      52.663  27.186 -11.240  0.00  0.00     0.088 H 
BRANCH 119 121
ATOM    121  C   ILE d   1      53.906  25.993 -12.525  0.00  0.00     0.241 C 
ATOM    122  O   ILE d   1      54.693  25.051 -12.583  0.00  0.00    -0.271 OA
ATOM    123  N   ASN d   1      53.203  26.449 -13.566  0.00  0.00    -0.344 N 
ATOM    124  H88 ASN d   1      52.476  27.109 -13.377  0.00  0.00     0.163 HD
BRANCH 123 125
ATOM    125  CA  ASN d   1      53.415  26.056 -14.975  0.00  0.00     0.104 C 
ATOM    126  H89 ASN d   1      54.232  26.680 -15.366  0.00  0.00     0.090 H 
BRANCH 125 127
ATOM    127  C   ASN d   1      52.170  26.332 -15.816  0.00  0.00     0.197 C 
ATOM    128  O   ASN d   1      52.261  26.506 -17.061  0.00  0.00    -0.646 OA
ATOM    129  O   ASN d   1      51.041  26.386 -15.259  0.00  0.00    -0.646 OA
ENDBRANCH 125 127
BRANCH 125 130
ATOM    130  CB  ASN d   1      53.837  24.585 -15.146  0.00  0.00     0.037 C 
ATOM    131  H90 ASN d   1      53.245  24.141 -15.960  0.00  0.00     0.051 H 
ATOM    132  H91 ASN d   1      53.632  24.048 -14.208  0.00  0.00     0.051 H 
BRANCH 130 133
ATOM    133  CG  ASN d   1      55.316  24.434 -15.481  0.00  0.00     0.217 C 
ATOM    134  OD1 ASN d   1      55.789  24.954 -16.493  0.00  0.00    -0.274 OA
ATOM    135  ND2 ASN d   1      56.047  23.713 -14.636  0.00  0.00    -0.370 N 
ATOM    136  H92 ASN d   1      57.023  23.581 -14.807  0.00  0.00     0.159 HD
ATOM    137  H93 ASN d   1      55.620  23.303 -13.830  0.00  0.00     0.159 HD
ENDBRANCH 130 133
ENDBRANCH 125 130
ENDBRANCH 123 125
ENDBRANCH 119 121
BRANCH 119 138
ATOM    138  CB  ILE d   1      54.711  27.785 -10.938  0.00  0.00    -0.030 C 
ATOM    139  H79 ILE d   1      55.686  27.296 -10.793  0.00  0.00     0.043 H 
BRANCH 138 140
ATOM    140  CG1 ILE d   1      54.363  28.574  -9.670  0.00  0.00    -0.063 C 
ATOM    141  H80 ILE d   1      55.161  29.310  -9.492  0.00  0.00     0.033 H 
ATOM    142  H81 ILE d   1      54.320  27.869  -8.826  0.00  0.00     0.033 H 
BRANCH 140 143
ATOM    143  CD1 ILE d   1      53.041  29.313  -9.740  0.00  0.00    -0.076 C 
ATOM    144  H85 ILE d   1      52.870  29.849  -8.795  0.00  0.00     0.027 H 
ATOM    145  H86 ILE d   1      52.226  28.593  -9.905  0.00  0.00     0.027 H 
ATOM    146  H87 ILE d   1      53.067  30.033 -10.571  0.00  0.00     0.027 H 
ENDBRANCH 140 143
ENDBRANCH 138 140
BRANCH 138 147
ATOM    147  CG2 ILE d   1      54.813  28.725 -12.132  0.00  0.00    -0.071 C 
ATOM    148  H82 ILE d   1      55.063  28.147 -13.034  0.00  0.00     0.028 H 
ATOM    149  H83 ILE d   1      55.600  29.471 -11.945  0.00  0.00     0.028 H 
ATOM    150  H84 ILE d   1      53.850  29.236 -12.279  0.00  0.00     0.028 H 
ENDBRANCH 138 147
ENDBRANCH 119 138
ENDBRANCH 117 119
ENDBRANCH 113 115
BRANCH 113 151
ATOM    151  CB  HIS d   1      53.753  22.829  -9.171  0.00  0.00     0.004 C 
ATOM    152  H72 HIS d   1      53.907  22.212  -8.273  0.00  0.00     0.046 H 
ATOM    153  H73 HIS d   1      54.686  23.356  -9.418  0.00  0.00     0.046 H 
BRANCH 151 154
ATOM    154  CG  HIS d   1      53.405  21.924 -10.312  0.00  0.00     0.053 A 
ATOM    155  ND1 HIS d   1      53.853  22.142 -11.597  0.00  0.00    -0.247 NA
ATOM    156  CE1 HIS d   1      53.399  21.184 -12.382  0.00  0.00     0.064 A 
ATOM    157  NE2 HIS d   1      52.667  20.358 -11.661  0.00  0.00    -0.359 N 
ATOM    158  H75 HIS d   1      53.596  21.091 -13.449  0.00  0.00     0.143 H 
ATOM    159  CD2 HIS d   1      52.653  20.798 -10.361  0.00  0.00     0.002 A 
ATOM    160  H76 HIS d   1      52.185  19.520 -12.015  0.00  0.00     0.166 HD
ATOM    161  H74 HIS d   1      52.135  20.330  -9.525  0.00  0.00     0.114 H 
ENDBRANCH 151 154
ENDBRANCH 113 151
ENDBRANCH 111 113
ENDBRANCH 107 109
BRANCH 107 162
ATOM    162  CB  TRP d   1      48.485  23.062  -6.962  0.00  0.00    -0.012 C 
ATOM    163  H62 TRP d   1      48.482  23.941  -7.623  0.00  0.00     0.044 H 
ATOM    164  H63 TRP d   1      48.699  23.379  -5.931  0.00  0.00     0.044 H 
BRANCH 162 165
ATOM    165  CG  TRP d   1      47.110  22.435  -6.994  0.00  0.00    -0.028 A 
ATOM    166  CD1 TRP d   1      46.481  21.803  -5.966  0.00  0.00    -0.015 A 
ATOM    167  NE1 TRP d   1      45.238  21.362  -6.361  0.00  0.00    -0.365 N 
ATOM    168  H64 TRP d   1      46.902  21.665  -4.971  0.00  0.00     0.112 H 
ATOM    169  CE2 TRP d   1      45.045  21.703  -7.674  0.00  0.00     0.042 A 
ATOM    170  H65 TRP d   1      44.564  20.858  -5.767  0.00  0.00     0.165 HD
ATOM    171  CD2 TRP d   1      46.200  22.398  -8.103  0.00  0.00    -0.002 A 
ATOM    172  CZ2 TRP d   1      43.945  21.478  -8.515  0.00  0.00    -0.056 A 
ATOM    173  CE3 TRP d   1      46.252  22.862  -9.422  0.00  0.00    -0.070 A 
ATOM    174  CZ3 TRP d   1      45.158  22.638 -10.251  0.00  0.00    -0.082 A 
ATOM    175  H66 TRP d   1      47.127  23.385  -9.790  0.00  0.00     0.084 H 
ATOM    176  CH2 TRP d   1      44.029  21.943  -9.802  0.00  0.00    -0.081 A 
ATOM    177  H68 TRP d   1      45.180  23.010 -11.269  0.00  0.00     0.083 H 
ATOM    178  H69 TRP d   1      43.205  21.769 -10.485  0.00  0.00     0.083 H 
ATOM    179  H67 TRP d   1      43.063  20.957  -8.161  0.00  0.00     0.086 H 
ENDBRANCH 162 165
ENDBRANCH 107 162
ENDBRANCH 105 107
ENDBRANCH 101 103
BRANCH 101 180
ATOM    180  CB  SER d   1      51.521  18.512  -5.322  0.00  0.00     0.044 C 
ATOM    181  H57 SER d   1      51.942  19.498  -5.079  0.00  0.00     0.077 H 
ATOM    182  H58 SER d   1      52.156  18.017  -6.071  0.00  0.00     0.077 H 
BRANCH 180 183
ATOM    183  OG  SER d   1      51.467  17.720  -4.151  0.00  0.00    -0.398 OA
ATOM    184  H59 SER d   1      50.918  18.149  -3.505  0.00  0.00     0.209 HD
ENDBRANCH 180 183
ENDBRANCH 101 180
ENDBRANCH  99 101
ENDBRANCH  94  97
ENDBRANCH  92  94
ENDBRANCH   1  90
BRANCH   1 185
ATOM    185  CB  ASN d   1      51.825  13.190  -8.715  0.00  0.00     0.036 C 
ATOM    186  H48 ASN d   1      52.416  13.986  -8.239  0.00  0.00     0.051 H 
ATOM    187  H49 ASN d   1      52.233  12.979  -9.714  0.00  0.00     0.051 H 
BRANCH 185 188
ATOM    188  CG  ASN d   1      51.934  11.931  -7.869  0.00  0.00     0.217 C 
ATOM    189  OD1 ASN d   1      51.087  11.034  -7.951  0.00  0.00    -0.274 OA
ATOM    190  ND2 ASN d   1      52.971  11.865  -7.037  0.00  0.00    -0.370 N 
ATOM    191  H50 ASN d   1      53.095  11.061  -6.455  0.00  0.00     0.159 HD
ATOM    192  H51 ASN d   1      53.626  12.619  -6.994  0.00  0.00     0.159 HD
ENDBRANCH 185 188
ENDBRANCH   1 185
TORSDOF 54
