REMARK WARNING: 32 MAX_TORS EXCEEDED!!!
REMARK  54 active torsions:
REMARK  status: ('A' for Active; 'I' for Inactive)
REMARK    1  A    between atoms: N_1  and  CA_2 
REMARK    2  A    between atoms: CA_2  and  C_3 
REMARK    3  A    between atoms: CA_2  and  CB_5 
REMARK       I    between atoms: C_3  and  N_10 
REMARK    4  A    between atoms: CB_5  and  CG_6 
REMARK    5  A    between atoms: CG_6  and  CD_7 
REMARK       I    between atoms: CD_7  and  NE2_9 
REMARK    6  A    between atoms: N_10  and  CA_11 
REMARK    7  A    between atoms: CA_11  and  C_12 
REMARK    8  A    between atoms: CA_11  and  CB_14 
REMARK       I    between atoms: C_12  and  N_18 
REMARK    9  A    between atoms: CB_14  and  CG_15 
REMARK   10  A    between atoms: CG_15  and  CD1_16 
REMARK   11  A    between atoms: CG_15  and  CD2_17 
REMARK   12  A    between atoms: N_18  and  CA_19 
REMARK   13  A    between atoms: CA_19  and  C_20 
REMARK   14  A    between atoms: CA_19  and  CB_22 
REMARK       I    between atoms: C_20  and  N_26 
REMARK   15  A    between atoms: CB_22  and  CG1_23 
REMARK   16  A    between atoms: CB_22  and  CG2_24 
REMARK   17  A    between atoms: CG1_23  and  CD1_25 
REMARK   18  A    between atoms: N_26  and  CA_27 
REMARK   19  A    between atoms: CA_27  and  C_28 
REMARK   20  A    between atoms: CA_27  and  CB_30 
REMARK       I    between atoms: C_28  and  N_34 
REMARK   21  A    between atoms: CB_30  and  CG_31 
REMARK       I    between atoms: CG_31  and  ND2_33 
REMARK   22  A    between atoms: N_34  and  CA_35 
REMARK   23  A    between atoms: CA_35  and  C_36 
REMARK   24  A    between atoms: CA_35  and  CB_38 
REMARK       I    between atoms: C_36  and  N_41 
REMARK   25  A    between atoms: CB_38  and  OG1_39 
REMARK   26  A    between atoms: CB_38  and  CG2_40 
REMARK   27  A    between atoms: N_41  and  CA_42 
REMARK   28  A    between atoms: CA_42  and  C_43 
REMARK   29  A    between atoms: CA_42  and  CB_45 
REMARK       I    between atoms: C_43  and  N_49 
REMARK   30  A    between atoms: CB_45  and  CG_46 
REMARK       I    between atoms: CG_46  and  ND2_48 
REMARK   31  A    between atoms: N_49  and  CA_50 
REMARK   32  A    between atoms: CA_50  and  C_51 
REMARK       I    between atoms: C_51  and  N_53 
REMARK   33  A    between atoms: N_53  and  CA_54 
REMARK   34  A    between atoms: CA_54  and  C_55 
REMARK   35  A    between atoms: CA_54  and  CB_57 
REMARK       I    between atoms: C_55  and  N_59 
REMARK   36  A    between atoms: CB_57  and  OG_58 
REMARK   37  A    between atoms: N_59  and  CA_60 
REMARK   38  A    between atoms: CA_60  and  C_61 
REMARK   39  A    between atoms: CA_60  and  CB_63 
REMARK       I    between atoms: C_61  and  N_73 
REMARK   40  A    between atoms: CB_63  and  CG_64 
REMARK   41  A    between atoms: N_73  and  CA_74 
REMARK   42  A    between atoms: CA_74  and  C_75 
REMARK   43  A    between atoms: CA_74  and  CB_77 
REMARK       I    between atoms: C_75  and  N_83 
REMARK   44  A    between atoms: CB_77  and  CG_78 
REMARK   45  A    between atoms: N_83  and  CA_84 
REMARK   46  A    between atoms: CA_84  and  C_85 
REMARK   47  A    between atoms: CA_84  and  CB_87 
REMARK       I    between atoms: C_85  and  N_91 
REMARK   48  A    between atoms: CB_87  and  CG1_88 
REMARK   49  A    between atoms: CB_87  and  CG2_89 
REMARK   50  A    between atoms: CG1_88  and  CD1_90 
REMARK   51  A    between atoms: N_91  and  CA_92 
REMARK   52  A    between atoms: CA_92  and  C_93 
REMARK   53  A    between atoms: CA_92  and  CB_95 
REMARK   54  A    between atoms: CB_95  and  CG_96 
REMARK       I    between atoms: CG_96  and  ND2_98 
ROOT
ATOM      1  CA  ASN d   1       1.201 -29.950 -37.205  0.00  0.00     0.097 C 
ATOM      2  H47 ASN d   1       1.741 -30.884 -36.991  0.00  0.00     0.088 H 
ENDROOT
BRANCH   1   3
ATOM      3  N   ASN d   1      -0.069 -29.980 -36.478  0.00  0.00    -0.345 N 
ATOM      4  C   THR d   1      -0.606 -31.089 -35.945  0.00  0.00     0.243 C 
ATOM      5  O   THR d   1      -0.037 -32.184 -35.935  0.00  0.00    -0.271 OA
ATOM      6  H46 ASN d   1      -0.568 -29.120 -36.372  0.00  0.00     0.163 HD
BRANCH   4   7
ATOM      7  CA  THR d   1      -1.973 -30.934 -35.303  0.00  0.00     0.113 C 
ATOM      8  H40 THR d   1      -1.875 -31.189 -34.238  0.00  0.00     0.091 H 
BRANCH   7   9
ATOM      9  N   THR d   1      -2.422 -29.539 -35.390  0.00  0.00    -0.344 N 
ATOM     10  C   ASN d   1      -2.830 -28.846 -34.328  0.00  0.00     0.241 C 
ATOM     11  O   ASN d   1      -2.923 -29.341 -33.211  0.00  0.00    -0.271 OA
ATOM     12  H39 THR d   1      -2.421 -29.090 -36.284  0.00  0.00     0.163 HD
BRANCH  10  13
ATOM     13  CA  ASN d   1      -3.262 -27.404 -34.559  0.00  0.00     0.097 C 
ATOM     14  H34 ASN d   1      -2.979 -27.095 -35.576  0.00  0.00     0.088 H 
BRANCH  13  15
ATOM     15  N   ASN d   1      -4.709 -27.377 -34.418  0.00  0.00    -0.346 N 
ATOM     16  C   ILE d   1      -5.550 -26.917 -35.352  0.00  0.00     0.241 C 
ATOM     17  O   ILE d   1      -5.172 -26.440 -36.425  0.00  0.00    -0.271 OA
ATOM     18  H33 ASN d   1      -5.102 -27.725 -33.567  0.00  0.00     0.163 HD
BRANCH  16  19
ATOM     19  CA  ILE d   1      -7.046 -27.030 -35.022  0.00  0.00     0.092 C 
ATOM     20  H23 ILE d   1      -7.123 -26.992 -33.925  0.00  0.00     0.088 H 
BRANCH  19  21
ATOM     21  N   ILE d   1      -7.841 -25.918 -35.543  0.00  0.00    -0.346 N 
ATOM     22  C   LEU d   1      -8.770 -25.266 -34.842  0.00  0.00     0.241 C 
ATOM     23  O   LEU d   1      -9.013 -25.499 -33.648  0.00  0.00    -0.271 OA
ATOM     24  H22 ILE d   1      -7.677 -25.628 -36.486  0.00  0.00     0.163 HD
BRANCH  22  25
ATOM     25  CA  LEU d   1      -9.543 -24.181 -35.586  0.00  0.00     0.089 C 
ATOM     26  H12 LEU d   1      -9.558 -24.403 -36.663  0.00  0.00     0.087 H 
BRANCH  25  27
ATOM     27  N   LEU d   1     -10.910 -24.181 -35.069  0.00  0.00    -0.346 N 
ATOM     28  C   GLN d   1     -12.005 -24.707 -35.659  0.00  0.00     0.249 C 
ATOM     29  O   GLN d   1     -11.989 -25.208 -36.784  0.00  0.00    -0.271 OA
ATOM     30  H11 LEU d   1     -11.050 -23.743 -34.181  0.00  0.00     0.163 HD
BRANCH  28  31
ATOM     31  CA  GLN d   1     -13.300 -24.698 -34.799  0.00  0.00     0.176 C 
ATOM     32  H4  GLN d   1     -13.462 -25.742 -34.492  0.00  0.00     0.099 H 
BRANCH  31  33
ATOM     33  N   GLN d   1     -13.146 -23.921 -33.554  0.00  0.00    -0.066 N 
ATOM     34  H1  GLN d   1     -14.009 -23.945 -33.034  0.00  0.00     0.275 HD
ATOM     35  H2  GLN d   1     -12.917 -22.966 -33.780  0.00  0.00     0.275 HD
ATOM     36  H3  GLN d   1     -12.407 -24.321 -32.998  0.00  0.00     0.275 HD
ENDBRANCH  31  33
BRANCH  31  37
ATOM     37  CB  GLN d   1     -14.568 -24.283 -35.578  0.00  0.00    -0.022 C 
ATOM     38  H5  GLN d   1     -14.597 -24.844 -36.523  0.00  0.00     0.037 H 
ATOM     39  H6  GLN d   1     -14.510 -23.206 -35.793  0.00  0.00     0.037 H 
BRANCH  37  40
ATOM     40  CG  GLN d   1     -15.874 -24.559 -34.803  0.00  0.00     0.011 C 
ATOM     41  H7  GLN d   1     -15.784 -24.099 -33.808  0.00  0.00     0.047 H 
ATOM     42  H8  GLN d   1     -15.983 -25.648 -34.695  0.00  0.00     0.047 H 
BRANCH  40  43
ATOM     43  CD  GLN d   1     -17.134 -24.022 -35.459  0.00  0.00     0.215 C 
ATOM     44  OE1 GLN d   1     -17.424 -24.283 -36.633  0.00  0.00    -0.274 OA
ATOM     45  NE2 GLN d   1     -17.958 -23.324 -34.688  0.00  0.00    -0.370 N 
ATOM     46  H9  GLN d   1     -18.802 -22.948 -35.070  0.00  0.00     0.159 HD
ATOM     47  H10 GLN d   1     -17.735 -23.174 -33.725  0.00  0.00     0.159 HD
ENDBRANCH  40  43
ENDBRANCH  37  40
ENDBRANCH  31  37
ENDBRANCH  28  31
ENDBRANCH  25  27
BRANCH  25  48
ATOM     48  CB  LEU d   1      -8.863 -22.828 -35.362  0.00  0.00    -0.035 C 
ATOM     49  H13 LEU d   1      -7.780 -22.975 -35.484  0.00  0.00     0.037 H 
ATOM     50  H14 LEU d   1      -9.077 -22.514 -34.330  0.00  0.00     0.037 H 
BRANCH  48  51
ATOM     51  CG  LEU d   1      -9.278 -21.699 -36.279  0.00  0.00    -0.059 C 
ATOM     52  H15 LEU d   1     -10.365 -21.768 -36.435  0.00  0.00     0.038 H 
BRANCH  51  53
ATOM     53  CD1 LEU d   1      -8.979 -20.358 -35.644  0.00  0.00    -0.073 C 
ATOM     54  H16 LEU d   1      -9.288 -19.552 -36.326  0.00  0.00     0.028 H 
ATOM     55  H17 LEU d   1      -7.900 -20.278 -35.447  0.00  0.00     0.028 H 
ATOM     56  H18 LEU d   1      -9.532 -20.269 -34.697  0.00  0.00     0.028 H 
ENDBRANCH  51  53
BRANCH  51  57
ATOM     57  CD2 LEU d   1      -8.608 -21.822 -37.619  0.00  0.00    -0.073 C 
ATOM     58  H19 LEU d   1      -8.841 -22.804 -38.057  0.00  0.00     0.028 H 
ATOM     59  H20 LEU d   1      -7.519 -21.726 -37.495  0.00  0.00     0.028 H 
ATOM     60  H21 LEU d   1      -8.973 -21.027 -38.286  0.00  0.00     0.028 H 
ENDBRANCH  51  57
ENDBRANCH  48  51
ENDBRANCH  25  48
ENDBRANCH  22  25
ENDBRANCH  19  21
BRANCH  19  61
ATOM     61  CB  ILE d   1      -7.679 -28.395 -35.479  0.00  0.00    -0.030 C 
ATOM     62  H24 ILE d   1      -8.704 -28.402 -35.081  0.00  0.00     0.043 H 
BRANCH  61  63
ATOM     63  CG1 ILE d   1      -6.978 -29.641 -34.877  0.00  0.00    -0.063 C 
ATOM     64  H25 ILE d   1      -6.626 -29.377 -33.869  0.00  0.00     0.033 H 
ATOM     65  H26 ILE d   1      -6.116 -29.885 -35.515  0.00  0.00     0.033 H 
BRANCH  63  66
ATOM     66  CD1 ILE d   1      -7.830 -30.875 -34.760  0.00  0.00    -0.076 C 
ATOM     67  H30 ILE d   1      -7.235 -31.691 -34.324  0.00  0.00     0.027 H 
ATOM     68  H31 ILE d   1      -8.184 -31.172 -35.758  0.00  0.00     0.027 H 
ATOM     69  H32 ILE d   1      -8.694 -30.664 -34.112  0.00  0.00     0.027 H 
ENDBRANCH  63  66
ENDBRANCH  61  63
BRANCH  61  70
ATOM     70  CG2 ILE d   1      -7.807 -28.486 -36.989  0.00  0.00    -0.071 C 
ATOM     71  H27 ILE d   1      -8.308 -27.584 -37.370  0.00  0.00     0.028 H 
ATOM     72  H28 ILE d   1      -8.400 -29.374 -37.254  0.00  0.00     0.028 H 
ATOM     73  H29 ILE d   1      -6.806 -28.566 -37.438  0.00  0.00     0.028 H 
ENDBRANCH  61  70
ENDBRANCH  19  61
ENDBRANCH  16  19
ENDBRANCH  13  15
BRANCH  13  74
ATOM     74  CB  ASN d   1      -2.615 -26.438 -33.548  0.00  0.00     0.036 C 
ATOM     75  H35 ASN d   1      -2.760 -26.854 -32.540  0.00  0.00     0.051 H 
ATOM     76  H36 ASN d   1      -3.133 -25.470 -33.624  0.00  0.00     0.051 H 
BRANCH  74  77
ATOM     77  CG  ASN d   1      -1.144 -26.194 -33.742  0.00  0.00     0.217 C 
ATOM     78  OD1 ASN d   1      -0.369 -27.116 -33.984  0.00  0.00    -0.274 OA
ATOM     79  ND2 ASN d   1      -0.704 -24.947 -33.552  0.00  0.00    -0.370 N 
ATOM     80  H37 ASN d   1       0.266 -24.736 -33.669  0.00  0.00     0.159 HD
ATOM     81  H38 ASN d   1      -1.345 -24.225 -33.292  0.00  0.00     0.159 HD
ENDBRANCH  74  77
ENDBRANCH  13  74
ENDBRANCH  10  13
ENDBRANCH   7   9
BRANCH   7  82
ATOM     82  CB  THR d   1      -3.008 -31.906 -35.922  0.00  0.00     0.060 C 
ATOM     83  H41 THR d   1      -2.498 -32.870 -36.066  0.00  0.00     0.086 H 
BRANCH  82  84
ATOM     84  OG1 THR d   1      -3.441 -31.454 -37.217  0.00  0.00    -0.393 OA
ATOM     85  H42 THR d   1      -4.073 -32.068 -37.571  0.00  0.00     0.210 HD
ENDBRANCH  82  84
BRANCH  82  86
ATOM     86  CG2 THR d   1      -4.197 -32.163 -35.004  0.00  0.00    -0.050 C 
ATOM     87  H43 THR d   1      -4.895 -32.857 -35.494  0.00  0.00     0.031 H 
ATOM     88  H44 THR d   1      -4.711 -31.213 -34.795  0.00  0.00     0.031 H 
ATOM     89  H45 THR d   1      -3.843 -32.604 -34.061  0.00  0.00     0.031 H 
ENDBRANCH  82  86
ENDBRANCH   7  82
ENDBRANCH   4   7
ENDBRANCH   1   3
BRANCH   1  90
ATOM     90  C   ASN d   1       2.110 -28.773 -36.797  0.00  0.00     0.241 C 
ATOM     91  O   ASN d   1       3.109 -28.510 -37.480  0.00  0.00    -0.271 OA
ATOM     92  N   GLY d   1       1.769 -28.085 -35.707  0.00  0.00    -0.351 N 
ATOM     93  H52 GLY d   1       0.961 -28.364 -35.188  0.00  0.00     0.163 HD
BRANCH  92  94
ATOM     94  CA  GLY d   1       2.543 -26.936 -35.251  0.00  0.00     0.069 C 
ATOM     95  H53 GLY d   1       3.606 -27.123 -35.465  0.00  0.00     0.078 H 
ATOM     96  H54 GLY d   1       2.401 -26.827 -34.166  0.00  0.00     0.078 H 
BRANCH  94  97
ATOM     97  C   GLY d   1       2.136 -25.637 -35.925  0.00  0.00     0.236 C 
ATOM     98  O   GLY d   1       2.946 -24.713 -36.028  0.00  0.00    -0.272 OA
ATOM     99  N   SER d   1       0.860 -25.549 -36.361  0.00  0.00    -0.344 N 
ATOM    100  H55 SER d   1       0.280 -26.351 -36.222  0.00  0.00     0.163 HD
BRANCH  99 101
ATOM    101  CA  SER d   1       0.241 -24.390 -37.020  0.00  0.00     0.109 C 
ATOM    102  H56 SER d   1       0.520 -23.484 -36.462  0.00  0.00     0.090 H 
BRANCH 101 103
ATOM    103  C   SER d   1      -1.287 -24.520 -37.007  0.00  0.00     0.243 C 
ATOM    104  O   SER d   1      -1.811 -25.619 -36.859  0.00  0.00    -0.271 OA
ATOM    105  N   TRP d   1      -1.998 -23.402 -37.164  0.00  0.00    -0.346 N 
ATOM    106  H60 TRP d   1      -1.509 -22.540 -37.293  0.00  0.00     0.163 HD
BRANCH 105 107
ATOM    107  CA  TRP d   1      -3.460 -23.380 -37.156  0.00  0.00     0.093 C 
ATOM    108  H61 TRP d   1      -3.784 -24.245 -36.560  0.00  0.00     0.088 H 
BRANCH 107 109
ATOM    109  C   TRP d   1      -4.096 -23.542 -38.537  0.00  0.00     0.241 C 
ATOM    110  O   TRP d   1      -3.727 -22.853 -39.501  0.00  0.00    -0.271 OA
ATOM    111  N   HIS d   1      -5.062 -24.463 -38.615  0.00  0.00    -0.346 N 
ATOM    112  H70 HIS d   1      -5.266 -25.003 -37.798  0.00  0.00     0.163 HD
BRANCH 111 113
ATOM    113  CA  HIS d   1      -5.834 -24.725 -39.820  0.00  0.00     0.094 C 
ATOM    114  H71 HIS d   1      -5.754 -23.821 -40.441  0.00  0.00     0.088 H 
BRANCH 113 115
ATOM    115  C   HIS d   1      -7.323 -24.896 -39.507  0.00  0.00     0.241 C 
ATOM    116  O   HIS d   1      -7.698 -25.300 -38.395  0.00  0.00    -0.271 OA
ATOM    117  N   ILE d   1      -8.161 -24.547 -40.494  0.00  0.00    -0.346 N 
ATOM    118  H77 ILE d   1      -7.761 -24.236 -41.356  0.00  0.00     0.163 HD
BRANCH 117 119
ATOM    119  CA  ILE d   1      -9.618 -24.590 -40.396  0.00  0.00     0.092 C 
ATOM    120  H78 ILE d   1      -9.874 -24.242 -39.384  0.00  0.00     0.088 H 
BRANCH 119 121
ATOM    121  C   ILE d   1     -10.155 -26.022 -40.486  0.00  0.00     0.241 C 
ATOM    122  O   ILE d   1     -10.065 -26.647 -41.539  0.00  0.00    -0.271 OA
ATOM    123  N   ASN d   1     -10.618 -26.565 -39.342  0.00  0.00    -0.344 N 
ATOM    124  H88 ASN d   1     -10.556 -26.007 -38.514  0.00  0.00     0.163 HD
BRANCH 123 125
ATOM    125  CA  ASN d   1     -11.207 -27.909 -39.205  0.00  0.00     0.104 C 
ATOM    126  H89 ASN d   1     -12.114 -27.942 -39.826  0.00  0.00     0.090 H 
BRANCH 125 127
ATOM    127  C   ASN d   1     -11.614 -28.151 -37.759  0.00  0.00     0.197 C 
ATOM    128  O   ASN d   1     -12.457 -29.043 -37.476  0.00  0.00    -0.646 OA
ATOM    129  O   ASN d   1     -11.105 -27.455 -36.840  0.00  0.00    -0.646 OA
ENDBRANCH 125 127
BRANCH 125 130
ATOM    130  CB  ASN d   1     -10.261 -29.031 -39.701  0.00  0.00     0.037 C 
ATOM    131  H90 ASN d   1      -9.850 -29.544 -38.819  0.00  0.00     0.051 H 
ATOM    132  H91 ASN d   1      -9.443 -28.561 -40.266  0.00  0.00     0.051 H 
BRANCH 130 133
ATOM    133  CG  ASN d   1     -10.910 -30.077 -40.595  0.00  0.00     0.217 C 
ATOM    134  OD1 ASN d   1     -12.140 -30.173 -40.721  0.00  0.00    -0.274 OA
ATOM    135  ND2 ASN d   1     -10.084 -30.896 -41.240  0.00  0.00    -0.370 N 
ATOM    136  H92 ASN d   1     -10.452 -31.604 -41.843  0.00  0.00     0.159 HD
ATOM    137  H93 ASN d   1      -9.095 -30.803 -41.123  0.00  0.00     0.159 HD
ENDBRANCH 130 133
ENDBRANCH 125 130
ENDBRANCH 123 125
ENDBRANCH 119 121
BRANCH 119 138
ATOM    138  CB  ILE d   1     -10.271 -23.557 -41.379  0.00  0.00    -0.030 C 
ATOM    139  H79 ILE d   1      -9.657 -22.652 -41.259  0.00  0.00     0.043 H 
BRANCH 138 140
ATOM    140  CG1 ILE d   1     -11.680 -23.115 -40.956  0.00  0.00    -0.063 C 
ATOM    141  H80 ILE d   1     -12.131 -23.912 -40.346  0.00  0.00     0.033 H 
ATOM    142  H81 ILE d   1     -12.286 -22.958 -41.860  0.00  0.00     0.033 H 
BRANCH 140 143
ATOM    143  CD1 ILE d   1     -11.670 -21.794 -40.125  0.00  0.00    -0.076 C 
ATOM    144  H85 ILE d   1     -12.701 -21.526 -39.850  0.00  0.00     0.027 H 
ATOM    145  H86 ILE d   1     -11.229 -20.986 -40.727  0.00  0.00     0.027 H 
ATOM    146  H87 ILE d   1     -11.073 -21.939 -39.212  0.00  0.00     0.027 H 
ENDBRANCH 140 143
ENDBRANCH 138 140
BRANCH 138 147
ATOM    147  CG2 ILE d   1     -10.138 -23.897 -42.875  0.00  0.00    -0.071 C 
ATOM    148  H82 ILE d   1      -9.104 -24.202 -43.091  0.00  0.00     0.028 H 
ATOM    149  H83 ILE d   1     -10.392 -23.012 -43.476  0.00  0.00     0.028 H 
ATOM    150  H84 ILE d   1     -10.823 -24.720 -43.126  0.00  0.00     0.028 H 
ENDBRANCH 138 147
ENDBRANCH 119 138
ENDBRANCH 117 119
ENDBRANCH 113 115
BRANCH 113 151
ATOM    151  CB  HIS d   1      -5.250 -25.869 -40.664  0.00  0.00     0.002 C 
ATOM    152  H72 HIS d   1      -4.157 -25.748 -40.690  0.00  0.00     0.046 H 
ATOM    153  H73 HIS d   1      -5.654 -25.780 -41.683  0.00  0.00     0.046 H 
BRANCH 151 154
ATOM    154  CG  HIS d   1      -5.551 -27.247 -40.167  0.00  0.00     0.030 A 
ATOM    155  ND1 HIS d   1      -4.691 -27.907 -39.302  0.00  0.00    -0.353 N 
ATOM    156  CE1 HIS d   1      -5.222 -29.104 -39.113  0.00  0.00     0.063 A 
ATOM    157  H74 HIS d   1      -3.820 -27.541 -38.892  0.00  0.00     0.166 HD
ATOM    158  NE2 HIS d   1      -6.359 -29.250 -39.802  0.00  0.00    -0.254 NA
ATOM    159  H76 HIS d   1      -4.788 -29.874 -38.477  0.00  0.00     0.143 H 
ATOM    160  CD2 HIS d   1      -6.581 -28.070 -40.474  0.00  0.00     0.025 A 
ATOM    161  H75 HIS d   1      -7.423 -27.842 -41.127  0.00  0.00     0.117 H 
ENDBRANCH 151 154
ENDBRANCH 113 151
ENDBRANCH 111 113
ENDBRANCH 107 109
BRANCH 107 162
ATOM    162  CB  TRP d   1      -3.980 -22.119 -36.446  0.00  0.00    -0.012 C 
ATOM    163  H62 TRP d   1      -5.079 -22.115 -36.481  0.00  0.00     0.044 H 
ATOM    164  H63 TRP d   1      -3.594 -21.230 -36.966  0.00  0.00     0.044 H 
BRANCH 162 165
ATOM    165  CG  TRP d   1      -3.538 -22.080 -35.020  0.00  0.00    -0.028 A 
ATOM    166  CD1 TRP d   1      -2.418 -21.483 -34.531  0.00  0.00    -0.015 A 
ATOM    167  NE1 TRP d   1      -2.257 -21.791 -33.207  0.00  0.00    -0.365 N 
ATOM    168  H64 TRP d   1      -1.746 -20.851 -35.110  0.00  0.00     0.112 H 
ATOM    169  CE2 TRP d   1      -3.286 -22.602 -32.808  0.00  0.00     0.042 A 
ATOM    170  H65 TRP d   1      -1.486 -21.465 -32.607  0.00  0.00     0.165 HD
ATOM    171  CD2 TRP d   1      -4.099 -22.831 -33.938  0.00  0.00    -0.002 A 
ATOM    172  CZ2 TRP d   1      -3.560 -23.175 -31.565  0.00  0.00    -0.056 A 
ATOM    173  CE3 TRP d   1      -5.226 -23.667 -33.807  0.00  0.00    -0.070 A 
ATOM    174  CZ3 TRP d   1      -5.494 -24.235 -32.576  0.00  0.00    -0.082 A 
ATOM    175  H66 TRP d   1      -5.871 -23.861 -34.656  0.00  0.00     0.084 H 
ATOM    176  CH2 TRP d   1      -4.663 -23.994 -31.475  0.00  0.00    -0.081 A 
ATOM    177  H68 TRP d   1      -6.360 -24.877 -32.461  0.00  0.00     0.083 H 
ATOM    178  H69 TRP d   1      -4.894 -24.465 -30.526  0.00  0.00     0.083 H 
ATOM    179  H67 TRP d   1      -2.929 -22.983 -30.705  0.00  0.00     0.086 H 
ENDBRANCH 162 165
ENDBRANCH 107 162
ENDBRANCH 105 107
ENDBRANCH 101 103
BRANCH 101 180
ATOM    180  CB  SER d   1       0.743 -24.248 -38.456  0.00  0.00     0.044 C 
ATOM    181  H57 SER d   1       1.807 -23.969 -38.438  0.00  0.00     0.077 H 
ATOM    182  H58 SER d   1       0.166 -23.460 -38.962  0.00  0.00     0.077 H 
BRANCH 180 183
ATOM    183  OG  SER d   1       0.595 -25.464 -39.173  0.00  0.00    -0.398 OA
ATOM    184  H59 SER d   1      -0.323 -25.708 -39.195  0.00  0.00     0.209 HD
ENDBRANCH 180 183
ENDBRANCH 101 180
ENDBRANCH  99 101
ENDBRANCH  94  97
ENDBRANCH  92  94
ENDBRANCH   1  90
BRANCH   1 185
ATOM    185  CB  ASN d   1       0.903 -29.882 -38.712  0.00  0.00     0.036 C 
ATOM    186  H48 ASN d   1       0.348 -30.788 -38.998  0.00  0.00     0.051 H 
ATOM    187  H49 ASN d   1       1.859 -29.851 -39.255  0.00  0.00     0.051 H 
BRANCH 185 188
ATOM    188  CG  ASN d   1       0.084 -28.670 -39.114  0.00  0.00     0.217 C 
ATOM    189  OD1 ASN d   1      -0.622 -28.043 -38.300  0.00  0.00    -0.274 OA
ATOM    190  ND2 ASN d   1       0.152 -28.315 -40.386  0.00  0.00    -0.370 N 
ATOM    191  H50 ASN d   1      -0.365 -27.524 -40.713  0.00  0.00     0.159 HD
ATOM    192  H51 ASN d   1       0.721 -28.837 -41.021  0.00  0.00     0.159 HD
ENDBRANCH 185 188
ENDBRANCH   1 185
TORSDOF 54
