REMARK  5 active torsions:
REMARK  status: ('A' for Active; 'I' for Inactive)
REMARK    1  A    between atoms: N_1  and  CA_2 
REMARK    2  A    between atoms: CA_2  and  C_3 
REMARK    3  A    between atoms: CA_2  and  CB_5 
REMARK    4  A    between atoms: CB_5  and  CG_6 
REMARK    5  A    between atoms: CZ_11  and  OH_12 
ROOT
ATOM      1  CG  TYR d   1     -12.423 -77.145 -18.862  0.00  0.00    -0.056 A 
ATOM      2  CD1 TYR d   1     -12.564 -77.066 -17.480  0.00  0.00    -0.074 A 
ATOM      3  CD2 TYR d   1     -13.071 -76.187 -19.655  0.00  0.00    -0.074 A 
ATOM      4  CE1 TYR d   1     -13.327 -76.058 -16.893  0.00  0.00    -0.051 A 
ATOM      5  CE2 TYR d   1     -13.832 -75.179 -19.086  0.00  0.00    -0.051 A 
ATOM      6  CZ  TYR d   1     -13.964 -75.110 -17.712  0.00  0.00     0.065 A 
ATOM      7  H7  TYR d   1     -12.073 -77.799 -16.850  0.00  0.00     0.084 H 
ATOM      8  H8  TYR d   1     -12.975 -76.236 -20.734  0.00  0.00     0.084 H 
ATOM      9  H9  TYR d   1     -13.428 -76.006 -15.815  0.00  0.00     0.087 H 
ATOM     10  H10 TYR d   1     -14.323 -74.446 -19.717  0.00  0.00     0.087 H 
ENDROOT
BRANCH   1  11
ATOM     11  CB  TYR d   1     -11.591 -78.232 -19.502  0.00  0.00    -0.005 C 
ATOM     12  H5  TYR d   1     -11.842 -79.186 -19.015  0.00  0.00     0.044 H 
ATOM     13  H6  TYR d   1     -11.858 -78.283 -20.568  0.00  0.00     0.044 H 
BRANCH  11  14
ATOM     14  CA  TYR d   1     -10.050 -78.028 -19.399  0.00  0.00     0.186 C 
ATOM     15  H4  TYR d   1      -9.774 -77.953 -18.337  0.00  0.00     0.101 H 
BRANCH  14  16
ATOM     16  N   TYR d   1      -9.579 -76.753 -20.088  0.00  0.00    -0.065 N 
ATOM     17  H1  TYR d   1     -10.032 -75.957 -19.667  0.00  0.00     0.275 HD
ATOM     18  H2  TYR d   1      -9.814 -76.794 -21.067  0.00  0.00     0.275 HD
ATOM     19  H3  TYR d   1      -8.580 -76.665 -19.985  0.00  0.00     0.275 HD
ENDBRANCH  14  16
BRANCH  14  20
ATOM     20  C   TYR d   1      -9.404 -79.280 -19.986  0.00  0.00     0.204 C 
ATOM     21  O   TYR d   1      -9.337 -80.362 -19.377  0.00  0.00    -0.646 OA
ATOM     22  OXT TYR d   1      -8.984 -79.247 -21.138  0.00  0.00    -0.646 OA
ENDBRANCH  14  20
ENDBRANCH  11  14
ENDBRANCH   1  11
BRANCH   6  23
ATOM     23  OH  TYR d   1     -14.711 -74.073 -17.186  0.00  0.00    -0.361 OA
ATOM     24  H11 TYR d   1     -14.722 -74.141 -16.239  0.00  0.00     0.217 HD
ENDBRANCH   6  23
TORSDOF 5
