REMARK WARNING: 32 MAX_TORS EXCEEDED!!!
REMARK  54 active torsions:
REMARK  status: ('A' for Active; 'I' for Inactive)
REMARK    1  A    between atoms: N_1  and  CA_2 
REMARK    2  A    between atoms: CA_2  and  C_3 
REMARK    3  A    between atoms: CA_2  and  CB_5 
REMARK       I    between atoms: C_3  and  N_9 
REMARK    4  A    between atoms: CB_5  and  CG1_6 
REMARK    5  A    between atoms: CB_5  and  CG2_7 
REMARK    6  A    between atoms: CG1_6  and  CD1_8 
REMARK    7  A    between atoms: N_9  and  CA_10 
REMARK    8  A    between atoms: CA_10  and  C_11 
REMARK    9  A    between atoms: CA_10  and  CB_13 
REMARK       I    between atoms: C_11  and  N_16 
REMARK   10  A    between atoms: CB_13  and  OG1_14 
REMARK   11  A    between atoms: CB_13  and  CG2_15 
REMARK   12  A    between atoms: N_16  and  CA_17 
REMARK   13  A    between atoms: CA_17  and  C_18 
REMARK   14  A    between atoms: CA_17  and  CB_20 
REMARK       I    between atoms: C_18  and  N_28 
REMARK   15  A    between atoms: CB_20  and  CG_21 
REMARK   16  A    between atoms: CZ_26  and  OH_27 
REMARK   17  A    between atoms: N_28  and  CA_29 
REMARK   18  A    between atoms: CA_29  and  C_30 
REMARK   19  A    between atoms: CA_29  and  CB_32 
REMARK       I    between atoms: C_30  and  N_36 
REMARK   20  A    between atoms: CB_32  and  CG_33 
REMARK   21  A    between atoms: N_36  and  CA_37 
REMARK   22  A    between atoms: CA_37  and  C_38 
REMARK   23  A    between atoms: CA_37  and  CB_40 
REMARK       I    between atoms: C_38  and  N_45 
REMARK   24  A    between atoms: CB_40  and  CG_41 
REMARK   25  A    between atoms: CG_41  and  CD_42 
REMARK   26  A    between atoms: CD_42  and  CE_43 
REMARK   27  A    between atoms: CE_43  and  NZ_44 
REMARK   28  A    between atoms: N_45  and  CA_46 
REMARK   29  A    between atoms: CA_46  and  C_47 
REMARK       I    between atoms: C_47  and  N_49 
REMARK   30  A    between atoms: N_49  and  CA_50 
REMARK   31  A    between atoms: CA_50  and  C_51 
REMARK   32  A    between atoms: CA_50  and  CB_53 
REMARK       I    between atoms: C_51  and  N_57 
REMARK   33  A    between atoms: CB_53  and  CG1_54 
REMARK   34  A    between atoms: CB_53  and  CG2_55 
REMARK   35  A    between atoms: CG1_54  and  CD1_56 
REMARK   36  A    between atoms: N_57  and  CA_58 
REMARK   37  A    between atoms: CA_58  and  C_59 
REMARK   38  A    between atoms: CA_58  and  CB_61 
REMARK       I    between atoms: C_59  and  N_66 
REMARK   39  A    between atoms: CB_61  and  CG_62 
REMARK   40  A    between atoms: CG_62  and  CD_63 
REMARK       I    between atoms: CD_63  and  NE2_65 
REMARK   41  A    between atoms: N_66  and  CA_67 
REMARK   42  A    between atoms: CA_67  and  C_68 
REMARK   43  A    between atoms: CA_67  and  CB_70 
REMARK       I    between atoms: C_68  and  N_73 
REMARK   44  A    between atoms: CB_70  and  OG1_71 
REMARK   45  A    between atoms: CB_70  and  CG2_72 
REMARK   46  A    between atoms: N_73  and  CA_74 
REMARK   47  A    between atoms: CA_74  and  C_75 
REMARK   48  A    between atoms: CA_74  and  CB_77 
REMARK       I    between atoms: C_75  and  N_81 
REMARK   49  A    between atoms: CB_77  and  CG_78 
REMARK   50  A    between atoms: N_81  and  CA_82 
REMARK   51  A    between atoms: CA_82  and  C_83 
REMARK   52  A    between atoms: CA_82  and  CB_85 
REMARK   53  A    between atoms: CB_85  and  CG_86 
REMARK   54  A    between atoms: CG_86  and  CD_87 
REMARK       I    between atoms: CD_87  and  NE2_89 
ROOT
ATOM      1  C   LYS d   1      25.812 118.597  58.433  0.00  0.00     0.240 C 
ATOM      2  O   LYS d   1      26.548 119.589  58.481  0.00  0.00    -0.271 OA
ATOM      3  N   GLY d   1      25.055 118.312  57.380  0.00  0.00    -0.351 N 
ATOM      4  H47 GLY d   1      24.533 117.459  57.369  0.00  0.00     0.163 HD
ENDROOT
BRANCH   1   5
ATOM      5  CA  LYS d   1      25.728 117.623  59.610  0.00  0.00     0.089 C 
ATOM      6  H35 LYS d   1      25.247 116.697  59.262  0.00  0.00     0.087 H 
BRANCH   5   7
ATOM      7  N   LYS d   1      27.047 117.287  60.131  0.00  0.00    -0.346 N 
ATOM      8  C   ASP d   1      27.292 116.103  60.688  0.00  0.00     0.241 C 
ATOM      9  O   ASP d   1      26.452 115.201  60.770  0.00  0.00    -0.271 OA
ATOM     10  H34 LYS d   1      27.784 117.960  60.069  0.00  0.00     0.163 HD
BRANCH   8  11
ATOM     11  CA  ASP d   1      28.689 115.881  61.207  0.00  0.00     0.098 C 
ATOM     12  H31 ASP d   1      29.125 116.837  61.532  0.00  0.00     0.088 H 
BRANCH  11  13
ATOM     13  N   ASP d   1      28.606 114.969  62.345  0.00  0.00    -0.345 N 
ATOM     14  C   TYR d   1      28.721 115.417  63.588  0.00  0.00     0.241 C 
ATOM     15  O   TYR d   1      28.991 116.581  63.859  0.00  0.00    -0.271 OA
ATOM     16  H30 ASP d   1      28.460 113.993  62.184  0.00  0.00     0.163 HD
BRANCH  14  17
ATOM     17  CA  TYR d   1      28.480 114.419  64.689  0.00  0.00     0.093 C 
ATOM     18  H22 TYR d   1      28.871 113.428  64.416  0.00  0.00     0.088 H 
BRANCH  17  19
ATOM     19  N   TYR d   1      29.184 114.929  65.864  0.00  0.00    -0.346 N 
ATOM     20  C   THR d   1      29.907 114.148  66.656  0.00  0.00     0.243 C 
ATOM     21  O   THR d   1      29.869 112.917  66.607  0.00  0.00    -0.271 OA
ATOM     22  H21 TYR d   1      29.118 115.903  66.079  0.00  0.00     0.163 HD
BRANCH  20  23
ATOM     23  CA  THR d   1      30.803 114.875  67.656  0.00  0.00     0.113 C 
ATOM     24  H15 THR d   1      30.208 115.664  68.139  0.00  0.00     0.091 H 
BRANCH  23  25
ATOM     25  N   THR d   1      31.332 114.017  68.718  0.00  0.00    -0.344 N 
ATOM     26  C   ILE d   1      31.026 114.240  69.996  0.00  0.00     0.249 C 
ATOM     27  O   ILE d   1      30.258 115.131  70.354  0.00  0.00    -0.271 OA
ATOM     28  H14 THR d   1      31.932 113.253  68.481  0.00  0.00     0.163 HD
BRANCH  26  29
ATOM     29  CA  ILE d   1      31.684 113.341  71.030  0.00  0.00     0.179 C 
ATOM     30  H4  ILE d   1      32.452 112.723  70.543  0.00  0.00     0.099 H 
BRANCH  29  31
ATOM     31  N   ILE d   1      32.316 114.173  72.048  0.00  0.00    -0.066 N 
ATOM     32  H1  ILE d   1      33.008 114.765  71.616  0.00  0.00     0.275 HD
ATOM     33  H2  ILE d   1      32.760 113.584  72.735  0.00  0.00     0.275 HD
ATOM     34  H3  ILE d   1      31.617 114.745  72.496  0.00  0.00     0.275 HD
ENDBRANCH  29  31
BRANCH  29  35
ATOM     35  CB  ILE d   1      30.623 112.424  71.649  0.00  0.00    -0.022 C 
ATOM     36  H5  ILE d   1      29.836 113.053  72.090  0.00  0.00     0.043 H 
BRANCH  35  37
ATOM     37  CG1 ILE d   1      31.247 111.583  72.772  0.00  0.00    -0.063 C 
ATOM     38  H6  ILE d   1      31.820 112.253  73.430  0.00  0.00     0.033 H 
ATOM     39  H7  ILE d   1      31.926 110.846  72.318  0.00  0.00     0.033 H 
BRANCH  37  40
ATOM     40  CD1 ILE d   1      30.231 110.841  73.613  0.00  0.00    -0.076 C 
ATOM     41  H11 ILE d   1      30.751 110.264  74.392  0.00  0.00     0.027 H 
ATOM     42  H12 ILE d   1      29.655 110.156  72.973  0.00  0.00     0.027 H 
ATOM     43  H13 ILE d   1      29.549 111.563  74.085  0.00  0.00     0.027 H 
ENDBRANCH  37  40
ENDBRANCH  35  37
BRANCH  35  44
ATOM     44  CG2 ILE d   1      29.982 111.550  70.580  0.00  0.00    -0.070 C 
ATOM     45  H8  ILE d   1      29.548 112.188  69.796  0.00  0.00     0.028 H 
ATOM     46  H9  ILE d   1      29.190 110.937  71.034  0.00  0.00     0.028 H 
ATOM     47  H10 ILE d   1      30.745 110.893  70.137  0.00  0.00     0.028 H 
ENDBRANCH  35  44
ENDBRANCH  29  35
ENDBRANCH  26  29
ENDBRANCH  23  25
BRANCH  23  48
ATOM     48  CB  THR d   1      31.934 115.536  66.846  0.00  0.00     0.060 C 
ATOM     49  H16 THR d   1      31.486 116.145  66.047  0.00  0.00     0.086 H 
BRANCH  48  50
ATOM     50  OG1 THR d   1      32.755 114.522  66.252  0.00  0.00    -0.393 OA
ATOM     51  H17 THR d   1      33.452 114.932  65.753  0.00  0.00     0.210 HD
ENDBRANCH  48  50
BRANCH  48  52
ATOM     52  CG2 THR d   1      32.787 116.443  67.731  0.00  0.00    -0.050 C 
ATOM     53  H18 THR d   1      33.584 116.900  67.127  0.00  0.00     0.031 H 
ATOM     54  H19 THR d   1      33.235 115.849  68.541  0.00  0.00     0.031 H 
ATOM     55  H20 THR d   1      32.155 117.233  68.163  0.00  0.00     0.031 H 
ENDBRANCH  48  52
ENDBRANCH  23  48
ENDBRANCH  20  23
ENDBRANCH  17  19
BRANCH  17  56
ATOM     56  CB  TYR d   1      26.972 114.338  64.909  0.00  0.00    -0.014 C 
ATOM     57  H23 TYR d   1      26.510 113.988  63.974  0.00  0.00     0.043 H 
ATOM     58  H24 TYR d   1      26.608 115.349  65.142  0.00  0.00     0.043 H 
BRANCH  56  59
ATOM     59  CG  TYR d   1      26.532 113.417  66.019  0.00  0.00    -0.056 A 
ATOM     60  CD1 TYR d   1      26.334 112.066  65.788  0.00  0.00    -0.074 A 
ATOM     61  CE1 TYR d   1      25.915 111.218  66.812  0.00  0.00    -0.051 A 
ATOM     62  H25 TYR d   1      26.507 111.662  64.797  0.00  0.00     0.084 H 
ATOM     63  CZ  TYR d   1      25.687 111.733  68.072  0.00  0.00     0.065 A 
ATOM     64  H27 TYR d   1      25.769 110.161  66.620  0.00  0.00     0.087 H 
ATOM     65  CE2 TYR d   1      25.872 113.074  68.315  0.00  0.00    -0.051 A 
ATOM     66  CD2 TYR d   1      26.290 113.906  67.294  0.00  0.00    -0.074 A 
ATOM     67  H28 TYR d   1      25.690 113.477  69.305  0.00  0.00     0.087 H 
ATOM     68  H26 TYR d   1      26.432 114.962  67.494  0.00  0.00     0.084 H 
BRANCH  63  69
ATOM     69  OH  TYR d   1      25.271 110.914  69.100  0.00  0.00    -0.361 OA
ATOM     70  H29 TYR d   1      25.189 110.023  68.780  0.00  0.00     0.217 HD
ENDBRANCH  63  69
ENDBRANCH  56  59
ENDBRANCH  17  56
ENDBRANCH  14  17
ENDBRANCH  11  13
BRANCH  11  71
ATOM     71  CB  ASP d   1      29.545 115.288  60.092  0.00  0.00     0.043 C 
ATOM     72  H32 ASP d   1      29.538 115.980  59.237  0.00  0.00     0.052 H 
ATOM     73  H33 ASP d   1      29.110 114.325  59.788  0.00  0.00     0.052 H 
BRANCH  71  74
ATOM     74  CG  ASP d   1      30.978 115.059  60.518  0.00  0.00     0.175 C 
ATOM     75  OD1 ASP d   1      31.466 115.777  61.415  0.00  0.00    -0.648 OA
ATOM     76  OD2 ASP d   1      31.621 114.160  59.943  0.00  0.00    -0.648 OA
ENDBRANCH  71  74
ENDBRANCH  11  71
ENDBRANCH   8  11
ENDBRANCH   5   7
BRANCH   5  77
ATOM     77  CB  LYS d   1      24.872 118.238  60.719  0.00  0.00    -0.038 C 
ATOM     78  H36 LYS d   1      25.351 119.170  61.054  0.00  0.00     0.036 H 
ATOM     79  H37 LYS d   1      24.824 117.528  61.558  0.00  0.00     0.036 H 
BRANCH  77  80
ATOM     80  CG  LYS d   1      23.462 118.555  60.278  0.00  0.00    -0.061 C 
ATOM     81  H38 LYS d   1      23.504 119.233  59.413  0.00  0.00     0.033 H 
ATOM     82  H39 LYS d   1      22.933 119.049  61.106  0.00  0.00     0.033 H 
BRANCH  80  83
ATOM     83  CD  LYS d   1      22.692 117.297  59.882  0.00  0.00    -0.043 C 
ATOM     84  H40 LYS d   1      22.652 116.615  60.744  0.00  0.00     0.035 H 
ATOM     85  H41 LYS d   1      23.214 116.804  59.049  0.00  0.00     0.035 H 
BRANCH  83  86
ATOM     86  CE  LYS d   1      21.258 117.636  59.444  0.00  0.00     0.080 C 
ATOM     87  H42 LYS d   1      21.294 118.125  58.459  0.00  0.00     0.075 H 
ATOM     88  H43 LYS d   1      20.815 118.324  60.179  0.00  0.00     0.075 H 
BRANCH  86  89
ATOM     89  NZ  LYS d   1      20.401 116.418  59.346  0.00  0.00    -0.079 N 
ATOM     90  H44 LYS d   1      19.472 116.683  59.057  0.00  0.00     0.274 HD
ATOM     91  H45 LYS d   1      20.357 115.965  60.245  0.00  0.00     0.274 HD
ATOM     92  H46 LYS d   1      20.795 115.783  58.669  0.00  0.00     0.274 HD
ENDBRANCH  86  89
ENDBRANCH  83  86
ENDBRANCH  80  83
ENDBRANCH  77  80
ENDBRANCH   5  77
ENDBRANCH   1   5
BRANCH   3  93
ATOM     93  CA  GLY d   1      24.969 119.214  56.243  0.00  0.00     0.069 C 
ATOM     94  H48 GLY d   1      25.162 118.658  55.314  0.00  0.00     0.078 H 
ATOM     95  H49 GLY d   1      25.713 120.017  56.351  0.00  0.00     0.078 H 
BRANCH  93  96
ATOM     96  C   GLY d   1      23.571 119.813  56.200  0.00  0.00     0.236 C 
ATOM     97  O   GLY d   1      22.595 119.109  56.451  0.00  0.00    -0.272 OA
ATOM     98  N   ILE d   1      23.460 121.106  55.917  0.00  0.00    -0.346 N 
ATOM     99  H50 ILE d   1      24.280 121.668  55.809  0.00  0.00     0.163 HD
BRANCH  98 100
ATOM    100  CA  ILE d   1      22.131 121.708  55.763  0.00  0.00     0.092 C 
ATOM    101  H51 ILE d   1      21.412 120.886  55.632  0.00  0.00     0.088 H 
BRANCH 100 102
ATOM    102  C   ILE d   1      22.091 122.570  54.519  0.00  0.00     0.241 C 
ATOM    103  O   ILE d   1      23.132 123.013  54.027  0.00  0.00    -0.271 OA
ATOM    104  N   GLN d   1      20.881 122.815  54.027  0.00  0.00    -0.346 N 
ATOM    105  H61 GLN d   1      20.082 122.439  54.497  0.00  0.00     0.163 HD
BRANCH 104 106
ATOM    106  CA  GLN d   1      20.680 123.613  52.827  0.00  0.00     0.090 C 
ATOM    107  H62 GLN d   1      21.551 124.266  52.671  0.00  0.00     0.087 H 
BRANCH 106 108
ATOM    108  C   GLN d   1      19.421 124.467  52.970  0.00  0.00     0.241 C 
ATOM    109  O   GLN d   1      18.338 123.933  53.202  0.00  0.00    -0.271 OA
ATOM    110  N   THR d   1      19.554 125.784  52.834  0.00  0.00    -0.344 N 
ATOM    111  H69 THR d   1      20.464 126.174  52.694  0.00  0.00     0.163 HD
BRANCH 110 112
ATOM    112  CA  THR d   1      18.385 126.675  52.886  0.00  0.00     0.113 C 
ATOM    113  H70 THR d   1      17.877 126.521  53.849  0.00  0.00     0.091 H 
BRANCH 112 114
ATOM    114  C   THR d   1      17.398 126.358  51.749  0.00  0.00     0.243 C 
ATOM    115  O   THR d   1      17.800 125.839  50.700  0.00  0.00    -0.271 OA
ATOM    116  N   ASP d   1      16.115 126.671  51.935  0.00  0.00    -0.345 N 
ATOM    117  H76 ASP d   1      15.815 127.108  52.783  0.00  0.00     0.163 HD
BRANCH 116 118
ATOM    118  CA  ASP d   1      15.152 126.362  50.871  0.00  0.00     0.098 C 
ATOM    119  H77 ASP d   1      15.519 125.436  50.405  0.00  0.00     0.088 H 
BRANCH 118 120
ATOM    120  C   ASP d   1      15.116 127.401  49.754  0.00  0.00     0.241 C 
ATOM    121  O   ASP d   1      14.686 127.095  48.652  0.00  0.00    -0.271 OA
ATOM    122  N   GLN d   1      15.573 128.616  50.043  0.00  0.00    -0.345 N 
ATOM    123  H80 GLN d   1      15.852 128.820  50.981  0.00  0.00     0.163 HD
BRANCH 122 124
ATOM    124  CA  GLN d   1      15.679 129.659  49.031  0.00  0.00     0.096 C 
ATOM    125  H81 GLN d   1      15.187 129.313  48.110  0.00  0.00     0.089 H 
BRANCH 124 126
ATOM    126  C   GLN d   1      17.161 129.920  48.745  0.00  0.00     0.196 C 
ATOM    127  O   GLN d   1      18.033 129.302  49.363  0.00  0.00    -0.646 OA
ATOM    128  OXT GLN d   1      17.525 130.756  47.915  0.00  0.00    -0.646 OA
ENDBRANCH 124 126
BRANCH 124 129
ATOM    129  CB  GLN d   1      15.002 130.966  49.494  0.00  0.00    -0.029 C 
ATOM    130  H82 GLN d   1      15.026 131.680  48.658  0.00  0.00     0.037 H 
ATOM    131  H83 GLN d   1      15.578 131.371  50.339  0.00  0.00     0.037 H 
BRANCH 129 132
ATOM    132  CG  GLN d   1      13.551 130.803  49.941  0.00  0.00     0.011 C 
ATOM    133  H84 GLN d   1      13.158 131.788  50.235  0.00  0.00     0.047 H 
ATOM    134  H85 GLN d   1      13.521 130.123  50.805  0.00  0.00     0.047 H 
BRANCH 132 135
ATOM    135  CD  GLN d   1      12.672 130.235  48.843  0.00  0.00     0.215 C 
ATOM    136  OE1 GLN d   1      12.698 130.705  47.699  0.00  0.00    -0.274 OA
ATOM    137  NE2 GLN d   1      11.902 129.208  49.177  0.00  0.00    -0.370 N 
ATOM    138  H86 GLN d   1      11.301 128.791  48.495  0.00  0.00     0.159 HD
ATOM    139  H87 GLN d   1      11.923 128.850  50.111  0.00  0.00     0.159 HD
ENDBRANCH 132 135
ENDBRANCH 129 132
ENDBRANCH 124 129
ENDBRANCH 122 124
ENDBRANCH 118 120
BRANCH 118 140
ATOM    140  CB  ASP d   1      13.737 126.036  51.395  0.00  0.00     0.043 C 
ATOM    141  H78 ASP d   1      13.785 125.098  51.967  0.00  0.00     0.052 H 
ATOM    142  H79 ASP d   1      13.067 125.906  50.532  0.00  0.00     0.052 H 
BRANCH 140 143
ATOM    143  CG  ASP d   1      13.162 127.116  52.291  0.00  0.00     0.175 C 
ATOM    144  OD1 ASP d   1      12.839 128.208  51.780  0.00  0.00    -0.648 OA
ATOM    145  OD2 ASP d   1      12.982 126.855  53.504  0.00  0.00    -0.648 OA
ENDBRANCH 140 143
ENDBRANCH 118 140
ENDBRANCH 116 118
ENDBRANCH 112 114
BRANCH 112 146
ATOM    146  CB  THR d   1      18.802 128.159  52.777  0.00  0.00     0.060 C 
ATOM    147  H71 THR d   1      17.896 128.782  52.748  0.00  0.00     0.086 H 
BRANCH 146 148
ATOM    148  OG1 THR d   1      19.543 128.361  51.570  0.00  0.00    -0.393 OA
ATOM    149  H72 THR d   1      19.002 128.129  50.825  0.00  0.00     0.210 HD
ENDBRANCH 146 148
BRANCH 146 150
ATOM    150  CG2 THR d   1      19.647 128.572  53.996  0.00  0.00    -0.050 C 
ATOM    151  H73 THR d   1      19.934 129.630  53.901  0.00  0.00     0.031 H 
ATOM    152  H74 THR d   1      20.552 127.949  54.043  0.00  0.00     0.031 H 
ATOM    153  H75 THR d   1      19.058 128.433  54.915  0.00  0.00     0.031 H 
ENDBRANCH 146 150
ENDBRANCH 112 146
ENDBRANCH 110 112
ENDBRANCH 106 108
BRANCH 106 154
ATOM    154  CB  GLN d   1      20.511 122.678  51.618  0.00  0.00    -0.030 C 
ATOM    155  H63 GLN d   1      19.695 121.973  51.833  0.00  0.00     0.037 H 
ATOM    156  H64 GLN d   1      21.448 122.121  51.473  0.00  0.00     0.037 H 
BRANCH 154 157
ATOM    157  CG  GLN d   1      20.184 123.418  50.330  0.00  0.00     0.011 C 
ATOM    158  H65 GLN d   1      19.270 124.011  50.483  0.00  0.00     0.047 H 
ATOM    159  H66 GLN d   1      20.013 122.682  49.531  0.00  0.00     0.047 H 
BRANCH 157 160
ATOM    160  CD  GLN d   1      21.306 124.347  49.908  0.00  0.00     0.215 C 
ATOM    161  OE1 GLN d   1      22.436 123.909  49.693  0.00  0.00    -0.274 OA
ATOM    162  NE2 GLN d   1      21.002 125.636  49.787  0.00  0.00    -0.370 N 
ATOM    163  H67 GLN d   1      21.705 126.292  49.511  0.00  0.00     0.159 HD
ATOM    164  H68 GLN d   1      20.070 125.950  49.972  0.00  0.00     0.159 HD
ENDBRANCH 157 160
ENDBRANCH 154 157
ENDBRANCH 106 154
ENDBRANCH 104 106
ENDBRANCH 100 102
BRANCH 100 165
ATOM    165  CB  ILE d   1      21.673 122.533  56.998  0.00  0.00    -0.030 C 
ATOM    166  H52 ILE d   1      20.675 122.937  56.770  0.00  0.00     0.043 H 
BRANCH 165 167
ATOM    167  CG1 ILE d   1      22.599 123.730  57.239  0.00  0.00    -0.063 C 
ATOM    168  H53 ILE d   1      23.601 123.475  56.863  0.00  0.00     0.033 H 
ATOM    169  H54 ILE d   1      22.650 123.916  58.322  0.00  0.00     0.033 H 
BRANCH 167 170
ATOM    170  CD1 ILE d   1      22.139 125.016  56.550  0.00  0.00    -0.076 C 
ATOM    171  H58 ILE d   1      22.852 125.825  56.770  0.00  0.00     0.027 H 
ATOM    172  H59 ILE d   1      21.142 125.295  56.922  0.00  0.00     0.027 H 
ATOM    173  H60 ILE d   1      22.093 124.853  55.463  0.00  0.00     0.027 H 
ENDBRANCH 167 170
ENDBRANCH 165 167
BRANCH 165 174
ATOM    174  CG2 ILE d   1      21.525 121.640  58.247  0.00  0.00    -0.071 C 
ATOM    175  H55 ILE d   1      20.853 120.800  58.019  0.00  0.00     0.028 H 
ATOM    176  H56 ILE d   1      21.105 122.232  59.073  0.00  0.00     0.028 H 
ATOM    177  H57 ILE d   1      22.512 121.251  58.539  0.00  0.00     0.028 H 
ENDBRANCH 165 174
ENDBRANCH 100 165
ENDBRANCH  98 100
ENDBRANCH  93  96
ENDBRANCH   3  93
TORSDOF 54
