REMARK WARNING: 32 MAX_TORS EXCEEDED!!!
REMARK  39 active torsions:
REMARK  status: ('A' for Active; 'I' for Inactive)
REMARK    1  A    between atoms: N_1  and  CA_2 
REMARK    2  A    between atoms: CA_2  and  C_3 
REMARK    3  A    between atoms: CA_2  and  CB_5 
REMARK       I    between atoms: C_3  and  N_6 
REMARK    4  A    between atoms: N_6  and  CA_7 
REMARK    5  A    between atoms: CA_7  and  C_8 
REMARK    6  A    between atoms: CA_7  and  CB_10 
REMARK       I    between atoms: C_8  and  N_13 
REMARK    7  A    between atoms: CB_10  and  CG1_11 
REMARK    8  A    between atoms: CB_10  and  CG2_12 
REMARK    9  A    between atoms: CA_14  and  C_15 
REMARK       I    between atoms: C_15  and  N_20 
REMARK   10  A    between atoms: N_20  and  CA_21 
REMARK   11  A    between atoms: CA_21  and  C_22 
REMARK   12  A    between atoms: CA_21  and  CB_24 
REMARK       I    between atoms: C_22  and  N_29 
REMARK   13  A    between atoms: CB_24  and  CG_25 
REMARK   14  A    between atoms: CG_25  and  CD_26 
REMARK       I    between atoms: CD_26  and  NE2_28 
REMARK   15  A    between atoms: N_29  and  CA_30 
REMARK   16  A    between atoms: CA_30  and  C_31 
REMARK   17  A    between atoms: CA_30  and  CB_33 
REMARK       I    between atoms: C_31  and  N_43 
REMARK   18  A    between atoms: CB_33  and  CG_34 
REMARK   19  A    between atoms: N_43  and  CA_44 
REMARK   20  A    between atoms: CA_44  and  C_45 
REMARK   21  A    between atoms: CA_44  and  CB_47 
REMARK       I    between atoms: C_45  and  N_52 
REMARK   22  A    between atoms: CB_47  and  CG_48 
REMARK   23  A    between atoms: CG_48  and  CD_49 
REMARK   24  A    between atoms: N_52  and  CA_53 
REMARK   25  A    between atoms: CA_53  and  C_54 
REMARK   26  A    between atoms: CA_53  and  CB_56 
REMARK       I    between atoms: C_54  and  N_59 
REMARK   27  A    between atoms: CB_56  and  CG1_57 
REMARK   28  A    between atoms: CB_56  and  CG2_58 
REMARK   29  A    between atoms: N_59  and  CA_60 
REMARK   30  A    between atoms: CA_60  and  C_61 
REMARK   31  A    between atoms: CA_60  and  CB_63 
REMARK       I    between atoms: C_61  and  N_70 
REMARK   32  A    between atoms: CB_63  and  CG_64 
REMARK   33  A    between atoms: N_70  and  CA_71 
REMARK   34  A    between atoms: CA_71  and  C_72 
REMARK   35  A    between atoms: CA_71  and  CB_74 
REMARK       I    between atoms: C_72  and  N_81 
REMARK   36  A    between atoms: CB_74  and  CG_75 
REMARK   37  A    between atoms: N_81  and  CA_82 
REMARK   38  A    between atoms: CA_82  and  C_83 
REMARK   39  A    between atoms: CA_82  and  CB_85 
ROOT
ATOM      1  C   TRP d   1       1.379 -12.204  -0.636  0.00  0.00     0.241 C 
ATOM      2  O   TRP d   1       1.550 -12.635  -1.763  0.00  0.00    -0.271 OA
ATOM      3  N   GLU d   1       1.325 -12.986   0.434  0.00  0.00    -0.346 N 
ATOM      4  H   GLU d   1       1.006 -12.591   1.319  0.00  0.00     0.163 HD
ENDROOT
BRANCH   1   5
ATOM      5  CA  TRP d   1       1.171 -10.712  -0.398  0.00  0.00     0.093 C 
ATOM      6  H   TRP d   1       0.714 -10.312  -1.303  0.00  0.00     0.088 H 
BRANCH   5   7
ATOM      7  N   TRP d   1       0.287 -10.453   0.725  0.00  0.00    -0.346 N 
ATOM      8  C   GLN d   1      -0.942 -10.936   0.802  0.00  0.00     0.241 C 
ATOM      9  O   GLN d   1      -1.426 -11.691  -0.038  0.00  0.00    -0.271 OA
ATOM     10  H   TRP d   1       0.630  -9.872   1.490  0.00  0.00     0.163 HD
BRANCH   8  11
ATOM     11  CA  GLN d   1      -1.743 -10.528   2.024  0.00  0.00     0.090 C 
ATOM     12  H   GLN d   1      -1.229  -9.765   2.609  0.00  0.00     0.087 H 
BRANCH  11  13
ATOM     13  N   GLN d   1      -3.018 -10.015   1.554  0.00  0.00    -0.346 N 
ATOM     14  C   PRO d   1      -3.264  -8.715   1.425  0.00  0.00     0.241 C 
ATOM     15  O   PRO d   1      -2.487  -7.831   1.791  0.00  0.00    -0.271 OA
ATOM     16  H   GLN d   1      -3.754 -10.679   1.313  0.00  0.00     0.163 HD
BRANCH  14  17
ATOM     17  CA  PRO d   1      -4.608  -8.345   0.816  0.00  0.00     0.091 C 
ATOM     18  N   PRO d   1      -5.160  -7.130   1.424  0.00  0.00    -0.337 N 
ATOM     19  C   VAL d   1      -5.574  -7.061   2.698  0.00  0.00     0.243 C 
ATOM     20  CD  PRO d   1      -5.131  -5.979   0.501  0.00  0.00    -0.001 C 
ATOM     21  O   VAL d   1      -5.469  -8.000   3.495  0.00  0.00    -0.271 OA
ATOM     22  CG  PRO d   1      -4.253  -6.457  -0.622  0.00  0.00    -0.048 C 
ATOM     23  H   PRO d   1      -4.752  -5.073   0.973  0.00  0.00     0.064 H 
ATOM     24  H   PRO d   1      -6.125  -5.689   0.161  0.00  0.00     0.064 H 
ATOM     25  CB  PRO d   1      -4.436  -7.948  -0.654  0.00  0.00    -0.036 C 
ATOM     26  H   PRO d   1      -4.527  -5.997  -1.571  0.00  0.00     0.035 H 
ATOM     27  H   PRO d   1      -3.210  -6.182  -0.464  0.00  0.00     0.035 H 
ATOM     28  H   PRO d   1      -5.293  -8.242  -1.260  0.00  0.00     0.036 H 
ATOM     29  H   PRO d   1      -3.589  -8.454  -1.117  0.00  0.00     0.036 H 
ATOM     30  H   PRO d   1      -5.247  -9.216   0.965  0.00  0.00     0.087 H 
BRANCH  19  31
ATOM     31  CA  VAL d   1      -6.184  -5.735   3.129  0.00  0.00     0.092 C 
ATOM     32  H   VAL d   1      -6.190  -5.062   2.272  0.00  0.00     0.088 H 
BRANCH  31  33
ATOM     33  N   VAL d   1      -7.589  -5.875   3.516  0.00  0.00    -0.346 N 
ATOM     34  C   ASP d   1      -8.547  -5.962   2.589  0.00  0.00     0.248 C 
ATOM     35  O   ASP d   1      -8.313  -5.981   1.373  0.00  0.00    -0.271 OA
ATOM     36  H   VAL d   1      -7.839  -5.907   4.504  0.00  0.00     0.163 HD
BRANCH  34  37
ATOM     37  CA  ASP d   1      -9.984  -6.032   3.089  0.00  0.00     0.172 C 
ATOM     38  H   ASP d   1     -10.254  -7.083   3.192  0.00  0.00     0.098 H 
BRANCH  37  39
ATOM     39  N   ASP d   1     -10.131  -5.417   4.407  0.00  0.00    -0.067 N 
ATOM     40  H   ASP d   1      -9.500  -5.873   5.066  0.00  0.00     0.275 HD
ATOM     41  H   ASP d   1      -9.901  -4.425   4.346  0.00  0.00     0.275 HD
ATOM     42  H   ASP d   1     -11.094  -5.525   4.726  0.00  0.00     0.275 HD
ENDBRANCH  37  39
BRANCH  37  43
ATOM     43  CB  ASP d   1     -10.918  -5.368   2.079  0.00  0.00    -0.042 C 
ATOM     44  H   ASP d   1     -10.631  -4.324   1.952  0.00  0.00     0.030 H 
ATOM     45  H   ASP d   1     -10.844  -5.885   1.123  0.00  0.00     0.030 H 
ATOM     46  H   ASP d   1     -11.944  -5.422   2.444  0.00  0.00     0.030 H 
ENDBRANCH  37  43
ENDBRANCH  34  37
ENDBRANCH  31  33
BRANCH  31  47
ATOM     47  CB  VAL d   1      -5.310  -5.073   4.224  0.00  0.00    -0.033 C 
ATOM     48  H   VAL d   1      -5.500  -5.582   5.169  0.00  0.00     0.042 H 
BRANCH  47  49
ATOM     49  CG1 VAL d   1      -3.824  -5.211   3.885  0.00  0.00    -0.071 C 
ATOM     50  H   VAL d   1      -3.565  -6.268   3.817  0.00  0.00     0.028 H 
ATOM     51  H   VAL d   1      -3.624  -4.724   2.931  0.00  0.00     0.028 H 
ATOM     52  H   VAL d   1      -3.229  -4.739   4.667  0.00  0.00     0.028 H 
ENDBRANCH  47  49
BRANCH  47  53
ATOM     53  CG2 VAL d   1      -5.674  -3.603   4.370  0.00  0.00    -0.071 C 
ATOM     54  H   VAL d   1      -5.506  -3.092   3.422  0.00  0.00     0.028 H 
ATOM     55  H   VAL d   1      -6.724  -3.516   4.650  0.00  0.00     0.028 H 
ATOM     56  H   VAL d   1      -5.052  -3.151   5.143  0.00  0.00     0.028 H 
ENDBRANCH  47  53
ENDBRANCH  31  47
ENDBRANCH  19  31
ENDBRANCH  14  17
ENDBRANCH  11  13
BRANCH  11  57
ATOM     57  CB  GLN d   1      -1.953 -11.762   2.903  0.00  0.00    -0.030 C 
ATOM     58  H   GLN d   1      -1.010 -11.954   3.414  0.00  0.00     0.037 H 
ATOM     59  H   GLN d   1      -2.283 -12.568   2.248  0.00  0.00     0.037 H 
BRANCH  57  60
ATOM     60  CG  GLN d   1      -3.009 -11.597   3.969  0.00  0.00     0.011 C 
ATOM     61  H   GLN d   1      -3.159 -12.562   4.453  0.00  0.00     0.047 H 
ATOM     62  H   GLN d   1      -3.920 -11.234   3.494  0.00  0.00     0.047 H 
BRANCH  60  63
ATOM     63  CD  GLN d   1      -2.595 -10.599   5.022  0.00  0.00     0.215 C 
ATOM     64  OE1 GLN d   1      -2.936  -9.411   4.948  0.00  0.00    -0.274 OA
ATOM     65  NE2 GLN d   1      -1.842 -11.071   6.007  0.00  0.00    -0.370 N 
ATOM     66  H   GLN d   1      -1.519 -10.447   6.746  0.00  0.00     0.159 HD
ATOM     67  H   GLN d   1      -1.586 -12.058   6.025  0.00  0.00     0.159 HD
ENDBRANCH  60  63
ENDBRANCH  57  60
ENDBRANCH  11  57
ENDBRANCH   8  11
ENDBRANCH   5   7
BRANCH   5  68
ATOM     68  CB  TRP d   1       2.499 -10.034  -0.123  0.00  0.00    -0.012 C 
ATOM     69  H   TRP d   1       2.835 -10.413   0.842  0.00  0.00     0.044 H 
ATOM     70  H   TRP d   1       2.309  -8.963  -0.189  0.00  0.00     0.044 H 
BRANCH  68  71
ATOM     71  CG  TRP d   1       3.603 -10.314  -1.080  0.00  0.00    -0.028 A 
ATOM     72  CD1 TRP d   1       4.794 -10.927  -0.798  0.00  0.00    -0.015 A 
ATOM     73  NE1 TRP d   1       5.582 -10.968  -1.919  0.00  0.00    -0.365 N 
ATOM     74  H   TRP d   1       5.075 -11.325   0.177  0.00  0.00     0.112 H 
ATOM     75  CE2 TRP d   1       4.908 -10.378  -2.956  0.00  0.00     0.042 A 
ATOM     76  H   TRP d   1       6.517 -11.372  -1.972  0.00  0.00     0.165 HD
ATOM     77  CD2 TRP d   1       3.659  -9.948  -2.460  0.00  0.00    -0.002 A 
ATOM     78  CZ2 TRP d   1       5.294 -10.184  -4.285  0.00  0.00    -0.056 A 
ATOM     79  CE3 TRP d   1       2.772  -9.302  -3.329  0.00  0.00    -0.070 A 
ATOM     80  CZ3 TRP d   1       3.159  -9.110  -4.654  0.00  0.00    -0.082 A 
ATOM     81  H   TRP d   1       1.800  -8.957  -2.977  0.00  0.00     0.084 H 
ATOM     82  CH2 TRP d   1       4.410  -9.550  -5.115  0.00  0.00    -0.081 A 
ATOM     83  H   TRP d   1       2.479  -8.610  -5.344  0.00  0.00     0.083 H 
ATOM     84  H   TRP d   1       4.683  -9.383  -6.157  0.00  0.00     0.083 H 
ATOM     85  H   TRP d   1       6.264 -10.525  -4.647  0.00  0.00     0.086 H 
ENDBRANCH  68  71
ENDBRANCH   5  68
ENDBRANCH   1   5
BRANCH   3  86
ATOM     86  CA  GLU d   1       1.707 -14.389   0.386  0.00  0.00     0.090 C 
ATOM     87  H   GLU d   1       2.670 -14.425  -0.124  0.00  0.00     0.087 H 
BRANCH  86  88
ATOM     88  C   GLU d   1       0.734 -15.254  -0.418  0.00  0.00     0.241 C 
ATOM     89  O   GLU d   1       1.048 -16.386  -0.752  0.00  0.00    -0.271 OA
ATOM     90  N   VAL d   1      -0.453 -14.737  -0.701  0.00  0.00    -0.346 N 
ATOM     91  H   VAL d   1      -0.693 -13.804  -0.366  0.00  0.00     0.163 HD
BRANCH  90  92
ATOM     92  CA  VAL d   1      -1.421 -15.498  -1.492  0.00  0.00     0.092 C 
ATOM     93  H   VAL d   1      -1.131 -16.548  -1.458  0.00  0.00     0.088 H 
BRANCH  92  94
ATOM     94  C   VAL d   1      -1.391 -15.013  -2.941  0.00  0.00     0.241 C 
ATOM     95  O   VAL d   1      -2.181 -15.470  -3.765  0.00  0.00    -0.271 OA
ATOM     96  N   PHE d   1      -0.464 -14.093  -3.225  0.00  0.00    -0.346 N 
ATOM     97  H   PHE d   1       0.119 -13.748  -2.462  0.00  0.00     0.163 HD
BRANCH  96  98
ATOM     98  CA  PHE d   1      -0.235 -13.550  -4.566  0.00  0.00     0.093 C 
ATOM     99  H   PHE d   1      -1.039 -13.929  -5.196  0.00  0.00     0.088 H 
BRANCH  98 100
ATOM    100  C   PHE d   1       1.096 -13.999  -5.140  0.00  0.00     0.241 C 
ATOM    101  O   PHE d   1       1.255 -14.088  -6.361  0.00  0.00    -0.271 OA
ATOM    102  N   PHE d   1       2.051 -14.264  -4.251  0.00  0.00    -0.346 N 
ATOM    103  H   PHE d   1       1.821 -14.230  -3.258  0.00  0.00     0.163 HD
BRANCH 102 104
ATOM    104  CA  PHE d   1       3.411 -14.600  -4.646  0.00  0.00     0.093 C 
ATOM    105  H   PHE d   1       3.343 -15.173  -5.571  0.00  0.00     0.088 H 
BRANCH 104 106
ATOM    106  C   PHE d   1       4.120 -15.466  -3.614  0.00  0.00     0.241 C 
ATOM    107  O   PHE d   1       4.756 -16.462  -3.954  0.00  0.00    -0.271 OA
ATOM    108  N   LYS d   1       4.031 -15.073  -2.352  0.00  0.00    -0.345 N 
ATOM    109  H   LYS d   1       3.404 -14.309  -2.102  0.00  0.00     0.163 HD
BRANCH 108 110
ATOM    110  CA  LYS d   1       4.831 -15.732  -1.311  0.00  0.00     0.093 C 
ATOM    111  H   LYS d   1       5.493 -16.424  -1.832  0.00  0.00     0.089 H 
BRANCH 110 112
ATOM    112  C   LYS d   1       3.993 -16.600  -0.345  0.00  0.00     0.196 C 
ATOM    113  O   LYS d   1       3.391 -17.632  -0.746  0.00  0.00    -0.646 OA
ATOM    114  O   LYS d   1       3.910 -16.269   0.868  0.00  0.00    -0.646 OA
ENDBRANCH 110 112
BRANCH 110 115
ATOM    115  CB  LYS d   1       5.724 -14.682  -0.523  0.00  0.00    -0.048 C 
ATOM    116  H   LYS d   1       6.399 -14.186  -1.220  0.00  0.00     0.030 H 
ATOM    117  H   LYS d   1       5.079 -13.941  -0.050  0.00  0.00     0.030 H 
ATOM    118  H   LYS d   1       6.304 -15.201   0.240  0.00  0.00     0.030 H 
ENDBRANCH 110 115
ENDBRANCH 108 110
ENDBRANCH 104 106
BRANCH 104 119
ATOM    119  CB  PHE d   1       4.219 -13.319  -4.866  0.00  0.00    -0.014 C 
ATOM    120  H   PHE d   1       4.281 -12.809  -3.905  0.00  0.00     0.043 H 
ATOM    121  H   PHE d   1       3.711 -12.748  -5.643  0.00  0.00     0.043 H 
BRANCH 119 122
ATOM    122  CG  PHE d   1       5.632 -13.553  -5.337  0.00  0.00    -0.056 A 
ATOM    123  CD1 PHE d   1       5.925 -13.601  -6.694  0.00  0.00    -0.077 A 
ATOM    124  CE1 PHE d   1       7.229 -13.802  -7.128  0.00  0.00    -0.082 A 
ATOM    125  H   PHE d   1       5.125 -13.480  -7.424  0.00  0.00     0.084 H 
ATOM    126  CZ  PHE d   1       8.250 -13.965  -6.199  0.00  0.00    -0.083 A 
ATOM    127  H   PHE d   1       7.451 -13.832  -8.195  0.00  0.00     0.083 H 
ATOM    128  CE2 PHE d   1       7.965 -13.923  -4.846  0.00  0.00    -0.082 A 
ATOM    129  H   PHE d   1       9.274 -14.126  -6.536  0.00  0.00     0.083 H 
ATOM    130  CD2 PHE d   1       6.669 -13.709  -4.423  0.00  0.00    -0.077 A 
ATOM    131  H   PHE d   1       8.762 -14.059  -4.115  0.00  0.00     0.083 H 
ATOM    132  H   PHE d   1       6.454 -13.661  -3.355  0.00  0.00     0.084 H 
ENDBRANCH 119 122
ENDBRANCH 104 119
ENDBRANCH 102 104
ENDBRANCH  98 100
BRANCH  98 133
ATOM    133  CB  PHE d   1      -0.256 -12.014  -4.540  0.00  0.00    -0.014 C 
ATOM    134  H   PHE d   1       0.111 -11.663  -5.505  0.00  0.00     0.043 H 
ATOM    135  H   PHE d   1       0.360 -11.690  -3.701  0.00  0.00     0.043 H 
BRANCH 133 136
ATOM    136  CG  PHE d   1      -1.623 -11.445  -4.343  0.00  0.00    -0.056 A 
ATOM    137  CD1 PHE d   1      -2.346 -10.967  -5.421  0.00  0.00    -0.077 A 
ATOM    138  CE1 PHE d   1      -3.615 -10.458  -5.245  0.00  0.00    -0.082 A 
ATOM    139  H   PHE d   1      -1.908 -10.993  -6.419  0.00  0.00     0.084 H 
ATOM    140  CZ  PHE d   1      -4.182 -10.435  -3.978  0.00  0.00    -0.083 A 
ATOM    141  H   PHE d   1      -4.172 -10.074  -6.099  0.00  0.00     0.083 H 
ATOM    142  CE2 PHE d   1      -3.472 -10.926  -2.897  0.00  0.00    -0.082 A 
ATOM    143  H   PHE d   1      -5.184 -10.031  -3.835  0.00  0.00     0.083 H 
ATOM    144  CD2 PHE d   1      -2.203 -11.426  -3.079  0.00  0.00    -0.077 A 
ATOM    145  H   PHE d   1      -3.917 -10.917  -1.902  0.00  0.00     0.083 H 
ATOM    146  H   PHE d   1      -1.647 -11.811  -2.224  0.00  0.00     0.084 H 
ENDBRANCH 133 136
ENDBRANCH  98 133
ENDBRANCH  96  98
ENDBRANCH  92  94
BRANCH  92 147
ATOM    147  CB  VAL d   1      -2.859 -15.429  -0.902  0.00  0.00    -0.033 C 
ATOM    148  H   VAL d   1      -3.480 -16.140  -1.448  0.00  0.00     0.042 H 
BRANCH 147 149
ATOM    149  CG1 VAL d   1      -2.838 -15.797   0.578  0.00  0.00    -0.071 C 
ATOM    150  H   VAL d   1      -2.452 -16.810   0.694  0.00  0.00     0.028 H 
ATOM    151  H   VAL d   1      -2.197 -15.099   1.116  0.00  0.00     0.028 H 
ATOM    152  H   VAL d   1      -3.850 -15.745   0.979  0.00  0.00     0.028 H 
ENDBRANCH 147 149
BRANCH 147 153
ATOM    153  CG2 VAL d   1      -3.449 -14.039  -1.066  0.00  0.00    -0.071 C 
ATOM    154  H   VAL d   1      -2.822 -13.316  -0.545  0.00  0.00     0.028 H 
ATOM    155  H   VAL d   1      -3.493 -13.787  -2.126  0.00  0.00     0.028 H 
ATOM    156  H   VAL d   1      -4.454 -14.020  -0.645  0.00  0.00     0.028 H 
ENDBRANCH 147 153
ENDBRANCH  92 147
ENDBRANCH  90  92
ENDBRANCH  86  88
BRANCH  86 157
ATOM    157  CB  GLU d   1       1.828 -14.953   1.804  0.00  0.00    -0.029 C 
ATOM    158  H   GLU d   1       2.536 -14.331   2.351  0.00  0.00     0.037 H 
ATOM    159  H   GLU d   1       2.151 -15.991   1.724  0.00  0.00     0.037 H 
BRANCH 157 160
ATOM    160  CG  GLU d   1       0.504 -14.933   2.565  0.00  0.00     0.018 C 
ATOM    161  H   GLU d   1      -0.025 -15.856   2.326  0.00  0.00     0.049 H 
ATOM    162  H   GLU d   1      -0.032 -14.033   2.264  0.00  0.00     0.049 H 
BRANCH 160 163
ATOM    163  CD  GLU d   1       0.672 -14.881   4.083  0.00  0.00     0.172 C 
ATOM    164  OE1 GLU d   1       1.715 -15.357   4.589  0.00  0.00    -0.648 OA
ATOM    165  OE2 GLU d   1      -0.243 -14.358   4.766  0.00  0.00    -0.648 OA
ENDBRANCH 160 163
ENDBRANCH 157 160
ENDBRANCH  86 157
ENDBRANCH   3  86
TORSDOF 39
