REMARK  15 active torsions:
REMARK  status: ('A' for Active; 'I' for Inactive)
REMARK    1  A    between atoms: CAB_1  and  OAW_2 
REMARK    2  A    between atoms: OAW_2  and  CBC_3 
REMARK    3  A    between atoms: CBB_5  and  OAV_6 
REMARK    4  A    between atoms: OAV_6  and  CAA_7 
REMARK    5  A    between atoms: CAY_10  and  CAR_11 
REMARK    6  A    between atoms: CAR_11  and  CBA_12 
REMARK    7  A    between atoms: CAZ_19  and  CAC_20 
REMARK    8  A    between atoms: CBD_22  and  CBH_23 
REMARK    9  A    between atoms: CBH_23  and  CBG_24 
REMARK   10  A    between atoms: CBH_23  and  CAQ_27 
REMARK   11  A    between atoms: CBG_24  and  CAD_25 
REMARK   12  A    between atoms: CBG_24  and  OAF_26 
REMARK   13  A    between atoms: CAQ_27  and  CAO_28 
REMARK   14  A    between atoms: CAO_28  and  CAP_29 
REMARK   15  A    between atoms: CAP_29  and  CAX_30 
ROOT
ATOM      1  CBA 19F d   1     -14.384  24.008  26.069  0.00  0.00     0.132 A 
ATOM      2  NAU 19F d   1     -15.256  23.862  27.151  0.00  0.00    -0.308 N 
ATOM      3  CBE 19F d   1     -16.530  23.339  26.979  0.00  0.00     0.277 A 
ATOM      4  OAE 19F d   1     -17.264  23.243  27.963  0.00  0.00    -0.266 OA
ATOM      5  NAT 19F d   1     -14.827  23.606  24.875  0.00  0.00    -0.152 NA
ATOM      6  NBI 19F d   1     -16.011  23.126  24.762  0.00  0.00    -0.210 N 
ATOM      7  CBF 19F d   1     -16.906  22.970  25.746  0.00  0.00     0.152 A 
ATOM      8  CAZ 19F d   1     -18.008  22.442  25.188  0.00  0.00     0.067 A 
ATOM      9  NAS 19F d   1     -17.817  22.262  23.880  0.00  0.00    -0.235 NA
ATOM     10  CBD 19F d   1     -16.593  22.714  23.634  0.00  0.00     0.135 A 
ATOM     11  H12 19F d   1     -14.957  24.139  28.064  0.00  0.00     0.170 HD
ENDROOT
BRANCH  10  12
ATOM     12  CBH 19F d   1     -15.912  22.676  22.247  0.00  0.00     0.030 C 
ATOM     13  H16 19F d   1     -16.605  22.111  21.607  0.00  0.00     0.056 H 
BRANCH  12  14
ATOM     14  CBG 19F d   1     -14.603  21.866  22.263  0.00  0.00     0.042 C 
ATOM     15  H17 19F d   1     -13.879  22.347  22.937  0.00  0.00     0.083 H 
BRANCH  14  16
ATOM     16  CAD 19F d   1     -14.879  20.444  22.748  0.00  0.00    -0.052 C 
ATOM     17  H18 19F d   1     -13.940  19.871  22.757  0.00  0.00     0.030 H 
ATOM     18  H19 19F d   1     -15.598  19.959  22.072  0.00  0.00     0.030 H 
ATOM     19  H20 19F d   1     -15.297  20.478  23.765  0.00  0.00     0.030 H 
ENDBRANCH  14  16
BRANCH  14  20
ATOM     20  OAF 19F d   1     -14.077  21.835  20.937  0.00  0.00    -0.395 OA
ATOM     21  H21 19F d   1     -13.267  21.339  20.930  0.00  0.00     0.210 HD
ENDBRANCH  14  20
ENDBRANCH  12  14
BRANCH  12  22
ATOM     22  CAQ 19F d   1     -15.735  24.045  21.537  0.00  0.00    -0.052 C 
ATOM     23  H22 19F d   1     -15.125  23.901  20.633  0.00  0.00     0.034 H 
ATOM     24  H23 19F d   1     -15.220  24.736  22.220  0.00  0.00     0.034 H 
BRANCH  22  25
ATOM     25  CAO 19F d   1     -17.097  24.666  21.129  0.00  0.00    -0.061 C 
ATOM     26  H24 19F d   1     -17.691  24.882  22.029  0.00  0.00     0.033 H 
ATOM     27  H25 19F d   1     -17.648  23.964  20.486  0.00  0.00     0.033 H 
BRANCH  25  28
ATOM     28  CAP 19F d   1     -16.826  25.972  20.360  0.00  0.00    -0.041 C 
ATOM     29  H26 19F d   1     -16.153  25.756  19.517  0.00  0.00     0.040 H 
ATOM     30  H27 19F d   1     -16.345  26.692  21.039  0.00  0.00     0.040 H 
BRANCH  28  31
ATOM     31  CAX 19F d   1     -18.011  26.538  19.862  0.00  0.00    -0.058 A 
ATOM     32  CAJ 19F d   1     -18.298  26.417  18.506  0.00  0.00    -0.077 A 
ATOM     33  CAH 19F d   1     -19.458  26.959  17.956  0.00  0.00    -0.082 A 
ATOM     34  H28 19F d   1     -17.603  25.889  17.863  0.00  0.00     0.084 H 
ATOM     35  CAG 19F d   1     -20.347  27.634  18.775  0.00  0.00    -0.083 A 
ATOM     36  H29 19F d   1     -19.662  26.853  16.897  0.00  0.00     0.083 H 
ATOM     37  CAI 19F d   1     -20.067  27.755  20.132  0.00  0.00    -0.082 A 
ATOM     38  H30 19F d   1     -21.253  28.064  18.363  0.00  0.00     0.083 H 
ATOM     39  CAK 19F d   1     -18.901  27.215  20.674  0.00  0.00    -0.077 A 
ATOM     40  H31 19F d   1     -20.765  28.276  20.777  0.00  0.00     0.083 H 
ATOM     41  H32 19F d   1     -18.693  27.326  21.732  0.00  0.00     0.084 H 
ENDBRANCH  28  31
ENDBRANCH  25  28
ENDBRANCH  22  25
ENDBRANCH  12  22
ENDBRANCH  10  12
BRANCH   8  42
ATOM     42  CAC 19F d   1     -19.331  22.054  25.877  0.00  0.00    -0.033 C 
ATOM     43  H13 19F d   1     -20.029  21.648  25.129  0.00  0.00     0.035 H 
ATOM     44  H14 19F d   1     -19.774  22.944  26.347  0.00  0.00     0.035 H 
ATOM     45  H15 19F d   1     -19.134  21.293  26.646  0.00  0.00     0.035 H 
ENDBRANCH   8  42
BRANCH   1  46
ATOM     46  CAR 19F d   1     -13.068  24.510  26.237  0.00  0.00     0.016 C 
ATOM     47  H10 19F d   1     -12.748  24.309  27.270  0.00  0.00     0.051 H 
ATOM     48  H11 19F d   1     -12.403  23.982  25.538  0.00  0.00     0.051 H 
BRANCH  46  49
ATOM     49  CAY 19F d   1     -12.958  25.878  26.001  0.00  0.00    -0.048 A 
ATOM     50  CAN 19F d   1     -12.975  26.360  24.693  0.00  0.00    -0.042 A 
ATOM     51  CBC 19F d   1     -12.869  27.729  24.462  0.00  0.00     0.102 A 
ATOM     52  H4  19F d   1     -13.070  25.673  23.860  0.00  0.00     0.088 H 
ATOM     53  CBB 19F d   1     -12.737  28.616  25.526  0.00  0.00     0.101 A 
ATOM     54  CAM 19F d   1     -12.708  28.141  26.838  0.00  0.00    -0.048 A 
ATOM     55  CAL 19F d   1     -12.811  26.767  27.075  0.00  0.00    -0.074 A 
ATOM     56  H8  19F d   1     -12.606  28.832  27.667  0.00  0.00     0.087 H 
ATOM     57  H9  19F d   1     -12.777  26.389  28.090  0.00  0.00     0.084 H 
BRANCH  51  58
ATOM     58  OAW 19F d   1     -12.885  28.286  23.216  0.00  0.00    -0.353 OA
BRANCH  58  59
ATOM     59  CAB 19F d   1     -13.020  27.334  22.153  0.00  0.00     0.010 C 
ATOM     60  H1  19F d   1     -13.024  27.861  21.187  0.00  0.00     0.066 H 
ATOM     61  H2  19F d   1     -13.963  26.781  22.273  0.00  0.00     0.066 H 
ATOM     62  H3  19F d   1     -12.176  26.629  22.182  0.00  0.00     0.066 H 
ENDBRANCH  58  59
ENDBRANCH  51  58
BRANCH  53  63
ATOM     63  OAV 19F d   1     -12.635  29.940  25.197  0.00  0.00    -0.353 OA
BRANCH  63  64
ATOM     64  CAA 19F d   1     -12.504  30.765  26.359  0.00  0.00     0.010 C 
ATOM     65  H5  19F d   1     -12.425  31.819  26.053  0.00  0.00     0.066 H 
ATOM     66  H6  19F d   1     -11.600  30.476  26.914  0.00  0.00     0.066 H 
ATOM     67  H7  19F d   1     -13.387  30.635  27.002  0.00  0.00     0.066 H 
ENDBRANCH  63  64
ENDBRANCH  53  63
ENDBRANCH  46  49
ENDBRANCH   1  46
TORSDOF 15
