REMARK  8 active torsions:
REMARK  status: ('A' for Active; 'I' for Inactive)
REMARK    1  A    between atoms: C1_1  and  N1_2 
REMARK    2  A    between atoms: C5_11  and  C7_14 
REMARK       I    between atoms: C7_14  and  N6_15 
REMARK    3  A    between atoms: N6_15  and  C8_16 
REMARK    4  A    between atoms: C8_16  and  C9_17 
REMARK       I    between atoms: C9_17  and  N7_19 
REMARK    5  A    between atoms: N7_19  and  C10_20 
REMARK    6  A    between atoms: C10_20  and  C18_21 
REMARK    7  A    between atoms: C10_20  and  C11_23 
REMARK    8  A    between atoms: C11_23  and  C12_24 
ROOT
ATOM      1  C8  RS8 d   1       9.309 -17.840 -10.143  0.00  0.00     0.069 C 
ATOM      2  H7  RS8 d   1      10.198 -17.193 -10.121  0.00  0.00     0.078 H 
ATOM      3  H8  RS8 d   1       8.630 -17.558  -9.325  0.00  0.00     0.078 H 
ENDROOT
BRANCH   1   4
ATOM      4  N6  RS8 d   1       9.724 -19.228  -9.962  0.00  0.00    -0.347 N 
ATOM      5  C7  RS8 d   1       9.433 -19.880  -8.846  0.00  0.00     0.272 C 
ATOM      6  O2  RS8 d   1       8.552 -19.487  -8.074  0.00  0.00    -0.266 OA
ATOM      7  H6  RS8 d   1      10.233 -19.691 -10.688  0.00  0.00     0.163 HD
BRANCH   5   8
ATOM      8  C5  RS8 d   1       9.973 -21.267  -8.648  0.00  0.00     0.144 C 
ATOM      9  N4  RS8 d   1       9.731 -21.907  -7.515  0.00  0.00    -0.221 NA
ATOM     10  C4  RS8 d   1      10.099 -23.192  -7.424  0.00  0.00     0.178 C 
ATOM     11  C3  RS8 d   1      10.954 -23.775  -8.462  0.00  0.00     0.171 C 
ATOM     12  N3  RS8 d   1       9.958 -23.901  -6.296  0.00  0.00    -0.172 N 
ATOM     13  C2  RS8 d   1      11.292 -25.149  -8.261  0.00  0.00     0.292 C 
ATOM     14  N5  RS8 d   1      11.232 -23.106  -9.586  0.00  0.00    -0.249 NA
ATOM     15  O1  RS8 d   1      11.975 -25.744  -9.131  0.00  0.00    -0.265 OA
ATOM     16  N2  RS8 d   1      10.981 -25.814  -7.180  0.00  0.00    -0.154 N 
ATOM     17  C1  RS8 d   1      10.223 -25.185  -6.251  0.00  0.00     0.680 C 
ATOM     18  H3  RS8 d   1      11.292 -26.755  -7.044  0.00  0.00     0.187 HD
ATOM     19  C6  RS8 d   1      10.799 -21.855  -9.669  0.00  0.00     0.036 C 
ATOM     20  H5  RS8 d   1      11.075 -21.258 -10.531  0.00  0.00     0.118 H 
ATOM     21  H4  RS8 d   1       9.633 -23.426  -5.442  0.00  0.00     0.186 HD
BRANCH  17  22
ATOM     22  N1  RS8 d   1       9.903 -25.817  -5.124  0.00  0.00    -0.234 N 
ATOM     23  H1  RS8 d   1      10.087 -26.826  -5.029  0.00  0.00     0.174 HD
ATOM     24  H2  RS8 d   1       9.471 -25.297  -4.347  0.00  0.00     0.174 HD
ENDBRANCH  17  22
ENDBRANCH   5   8
ENDBRANCH   1   4
BRANCH   1  25
ATOM     25  C9  RS8 d   1       8.589 -17.654 -11.475  0.00  0.00     0.236 C 
ATOM     26  O3  RS8 d   1       8.381 -16.495 -11.781  0.00  0.00    -0.272 OA
ATOM     27  N7  RS8 d   1       8.271 -18.773 -12.161  0.00  0.00    -0.345 N 
ATOM     28  H9  RS8 d   1       8.576 -19.646 -11.781  0.00  0.00     0.163 HD
BRANCH  27  29
ATOM     29  C10 RS8 d   1       7.513 -18.812 -13.420  0.00  0.00     0.100 C 
ATOM     30  H10 RS8 d   1       7.466 -17.797 -13.840  0.00  0.00     0.090 H 
BRANCH  29  31
ATOM     31  C18 RS8 d   1       6.084 -19.179 -13.079  0.00  0.00     0.197 C 
ATOM     32  O5  RS8 d   1       5.165 -19.180 -13.893  0.00  0.00    -0.646 OA
ATOM     33  O4  RS8 d   1       5.774 -19.492 -11.824  0.00  0.00    -0.646 OA
ENDBRANCH  29  31
BRANCH  29  34
ATOM     34  C11 RS8 d   1       8.377 -19.652 -14.421  0.00  0.00    -0.013 C 
ATOM     35  H11 RS8 d   1       9.406 -19.264 -14.445  0.00  0.00     0.043 H 
ATOM     36  H12 RS8 d   1       7.941 -19.598 -15.430  0.00  0.00     0.043 H 
BRANCH  34  37
ATOM     37  C12 RS8 d   1       8.377 -21.135 -13.919  0.00  0.00    -0.056 A 
ATOM     38  C13 RS8 d   1       7.348 -22.030 -14.237  0.00  0.00    -0.077 A 
ATOM     39  C14 RS8 d   1       7.308 -23.373 -13.844  0.00  0.00    -0.082 A 
ATOM     40  H13 RS8 d   1       6.522 -21.655 -14.831  0.00  0.00     0.084 H 
ATOM     41  C15 RS8 d   1       8.336 -23.854 -13.009  0.00  0.00    -0.083 A 
ATOM     42  H15 RS8 d   1       6.508 -24.026 -14.173  0.00  0.00     0.083 H 
ATOM     43  C16 RS8 d   1       9.337 -22.940 -12.663  0.00  0.00    -0.082 A 
ATOM     44  H17 RS8 d   1       8.351 -24.878 -12.654  0.00  0.00     0.083 H 
ATOM     45  C17 RS8 d   1       9.387 -21.613 -13.113  0.00  0.00    -0.077 A 
ATOM     46  H16 RS8 d   1      10.127 -23.280 -12.003  0.00  0.00     0.083 H 
ATOM     47  H14 RS8 d   1      10.212 -20.970 -12.830  0.00  0.00     0.084 H 
ENDBRANCH  34  37
ENDBRANCH  29  34
ENDBRANCH  27  29
ENDBRANCH   1  25
TORSDOF 8
