REMARK  11 active torsions:
REMARK  status: ('A' for Active; 'I' for Inactive)
REMARK    1  A    between atoms: C5_11  and  C7_14 
REMARK       I    between atoms: C7_14  and  N6_15 
REMARK    2  A    between atoms: N6_15  and  C8_16 
REMARK    3  A    between atoms: C8_16  and  C9_17 
REMARK       I    between atoms: C9_17  and  N7_19 
REMARK    4  A    between atoms: N7_19  and  C10_20 
REMARK    5  A    between atoms: C10_20  and  C18_21 
REMARK    6  A    between atoms: C10_20  and  C11_23 
REMARK       I    between atoms: C18_21  and  N8_30 
REMARK    7  A    between atoms: C11_23  and  C12_24 
REMARK    8  A    between atoms: N8_30  and  C19_31 
REMARK    9  A    between atoms: C19_31  and  C27_32 
REMARK   10  A    between atoms: C19_31  and  C20_34 
REMARK   11  A    between atoms: C20_34  and  C21_35 
ROOT
ATOM      1  C10 19M d   1     -26.093  15.379 -13.553  0.00  0.00     0.093 C 
ATOM      2  H10 19M d   1     -25.907  16.414 -13.875  0.00  0.00     0.088 H 
ENDROOT
BRANCH   1   3
ATOM      3  N7  19M d   1     -25.585  15.229 -12.198  0.00  0.00    -0.346 N 
ATOM      4  C9  19M d   1     -25.335  16.282 -11.423  0.00  0.00     0.236 C 
ATOM      5  O3  19M d   1     -25.616  17.423 -11.734  0.00  0.00    -0.272 OA
ATOM      6  H9  19M d   1     -25.419  14.310 -11.839  0.00  0.00     0.163 HD
BRANCH   4   7
ATOM      7  C8  19M d   1     -24.664  16.016 -10.103  0.00  0.00     0.069 C 
ATOM      8  H7  19M d   1     -23.779  16.664 -10.017  0.00  0.00     0.078 H 
ATOM      9  H8  19M d   1     -25.370  16.249  -9.292  0.00  0.00     0.078 H 
BRANCH   7  10
ATOM     10  N6  19M d   1     -24.246  14.634  -9.978  0.00  0.00    -0.347 N 
ATOM     11  C7  19M d   1     -24.523  13.983  -8.852  0.00  0.00     0.272 C 
ATOM     12  O2  19M d   1     -25.257  14.458  -8.005  0.00  0.00    -0.266 OA
ATOM     13  H6  19M d   1     -23.759  14.179 -10.724  0.00  0.00     0.163 HD
BRANCH  11  14
ATOM     14  C5  19M d   1     -24.005  12.597  -8.655  0.00  0.00     0.144 A 
ATOM     15  N4  19M d   1     -24.328  11.926  -7.532  0.00  0.00    -0.221 NA
ATOM     16  C4  19M d   1     -23.891  10.668  -7.377  0.00  0.00     0.178 A 
ATOM     17  C3  19M d   1     -23.066  10.069  -8.441  0.00  0.00     0.171 A 
ATOM     18  N3  19M d   1     -24.170   9.952  -6.291  0.00  0.00    -0.172 N 
ATOM     19  C2  19M d   1     -22.601   8.683  -8.243  0.00  0.00     0.292 A 
ATOM     20  N5  19M d   1     -22.764  10.772  -9.543  0.00  0.00    -0.249 NA
ATOM     21  O1  19M d   1     -21.896   8.128  -9.117  0.00  0.00    -0.265 OA
ATOM     22  N2  19M d   1     -22.960   8.068  -7.095  0.00  0.00    -0.154 N 
ATOM     23  C1  19M d   1     -23.729   8.694  -6.149  0.00  0.00     0.680 A 
ATOM     24  H3  19M d   1     -22.656   7.130  -6.931  0.00  0.00     0.187 HD
ATOM     25  N1  19M d   1     -24.072   8.042  -5.003  0.00  0.00    -0.234 N 
ATOM     26  H1  19M d   1     -23.757   7.074  -4.847  0.00  0.00     0.174 HD
ATOM     27  H2  19M d   1     -24.646   8.517  -4.292  0.00  0.00     0.174 HD
ATOM     28  C6  19M d   1     -23.223  12.017  -9.654  0.00  0.00     0.036 A 
ATOM     29  H5  19M d   1     -22.984  12.593 -10.541  0.00  0.00     0.118 H 
ATOM     30  H4  19M d   1     -24.738  10.374  -5.542  0.00  0.00     0.186 HD
ENDBRANCH  11  14
ENDBRANCH   7  10
ENDBRANCH   4   7
ENDBRANCH   1   3
BRANCH   1  31
ATOM     31  C18 19M d   1     -27.576  15.134 -13.601  0.00  0.00     0.241 C 
ATOM     32  O4  19M d   1     -28.182  15.168 -14.660  0.00  0.00    -0.271 OA
ATOM     33  N8  19M d   1     -28.164  14.881 -12.433  0.00  0.00    -0.344 N 
ATOM     34  H18 19M d   1     -27.592  14.800 -11.617  0.00  0.00     0.163 HD
BRANCH  33  35
ATOM     35  C19 19M d   1     -29.598  14.718 -12.295  0.00  0.00     0.100 C 
ATOM     36  H19 19M d   1     -29.963  14.087 -13.119  0.00  0.00     0.090 H 
BRANCH  35  37
ATOM     37  C27 19M d   1     -30.323  16.035 -12.341  0.00  0.00     0.197 C 
ATOM     38  O6  19M d   1     -31.500  16.089 -12.668  0.00  0.00    -0.646 OA
ATOM     39  O5  19M d   1     -29.690  17.163 -12.017  0.00  0.00    -0.646 OA
ENDBRANCH  35  37
BRANCH  35  40
ATOM     40  C20 19M d   1     -29.885  14.027 -10.967  0.00  0.00    -0.013 C 
ATOM     41  H20 19M d   1     -30.971  14.002 -10.797  0.00  0.00     0.043 H 
ATOM     42  H21 19M d   1     -29.399  14.585 -10.153  0.00  0.00     0.043 H 
BRANCH  40  43
ATOM     43  C21 19M d   1     -29.348  12.611 -10.995  0.00  0.00    -0.056 A 
ATOM     44  C22 19M d   1     -30.001  11.630 -11.739  0.00  0.00    -0.077 A 
ATOM     45  C23 19M d   1     -29.510  10.327 -11.763  0.00  0.00    -0.082 A 
ATOM     46  H22 19M d   1     -30.893  11.882 -12.300  0.00  0.00     0.084 H 
ATOM     47  C24 19M d   1     -28.365   9.999 -11.041  0.00  0.00    -0.083 A 
ATOM     48  H24 19M d   1     -30.020   9.567 -12.344  0.00  0.00     0.083 H 
ATOM     49  C25 19M d   1     -27.711  10.978 -10.300  0.00  0.00    -0.082 A 
ATOM     50  H26 19M d   1     -27.985   8.984 -11.056  0.00  0.00     0.083 H 
ATOM     51  C26 19M d   1     -28.201  12.283 -10.272  0.00  0.00    -0.077 A 
ATOM     52  H25 19M d   1     -26.817  10.725  -9.742  0.00  0.00     0.083 H 
ATOM     53  H23 19M d   1     -27.691  13.042  -9.689  0.00  0.00     0.084 H 
ENDBRANCH  40  43
ENDBRANCH  35  40
ENDBRANCH  33  35
ENDBRANCH   1  31
BRANCH   1  54
ATOM     54  C11 19M d   1     -25.356  14.442 -14.514  0.00  0.00    -0.014 C 
ATOM     55  H11 19M d   1     -24.299  14.740 -14.582  0.00  0.00     0.043 H 
ATOM     56  H12 19M d   1     -25.818  14.498 -15.511  0.00  0.00     0.043 H 
BRANCH  54  57
ATOM     57  C12 19M d   1     -25.452  13.026 -13.988  0.00  0.00    -0.056 A 
ATOM     58  C13 19M d   1     -26.488  12.192 -14.406  0.00  0.00    -0.077 A 
ATOM     59  C14 19M d   1     -26.586  10.893 -13.928  0.00  0.00    -0.082 A 
ATOM     60  H13 19M d   1     -27.224  12.562 -15.111  0.00  0.00     0.084 H 
ATOM     61  C15 19M d   1     -25.643  10.422 -13.020  0.00  0.00    -0.083 A 
ATOM     62  H15 19M d   1     -27.392  10.249 -14.260  0.00  0.00     0.083 H 
ATOM     63  C16 19M d   1     -24.609  11.250 -12.605  0.00  0.00    -0.082 A 
ATOM     64  H17 19M d   1     -25.716   9.410 -12.637  0.00  0.00     0.083 H 
ATOM     65  C17 19M d   1     -24.510  12.554 -13.082  0.00  0.00    -0.077 A 
ATOM     66  H16 19M d   1     -23.872  10.878 -11.903  0.00  0.00     0.083 H 
ATOM     67  H14 19M d   1     -23.703  13.197 -12.749  0.00  0.00     0.084 H 
ENDBRANCH  54  57
ENDBRANCH   1  54
TORSDOF 11
