REMARK  10 active torsions:
REMARK  status: ('A' for Active; 'I' for Inactive)
REMARK    1  A    between atoms: C_1  and  N_2 
REMARK    2  A    between atoms: C4_11  and  C6_14 
REMARK       I    between atoms: C6_14  and  N5_15 
REMARK    3  A    between atoms: N5_15  and  C7_16 
REMARK    4  A    between atoms: C7_16  and  C9_17 
REMARK    5  A    between atoms: C7_16  and  C8_19 
REMARK       I    between atoms: C9_17  and  N6_21 
REMARK    6  A    between atoms: C8_19  and  O2_20 
REMARK    7  A    between atoms: N6_21  and  C10_22 
REMARK    8  A    between atoms: C10_22  and  C20_23 
REMARK    9  A    between atoms: C10_22  and  C11_25 
REMARK   10  A    between atoms: C11_25  and  C12_26 
ROOT
ATOM      1  C7  19L d   1     -25.762  15.337 -10.798  0.00  0.00     0.110 C 
ATOM      2  H7  19L d   1     -25.581  16.128 -10.055  0.00  0.00     0.090 H 
ENDROOT
BRANCH   1   3
ATOM      3  N5  19L d   1     -25.036  14.176 -10.402  0.00  0.00    -0.340 N 
ATOM      4  C6  19L d   1     -24.941  13.760  -9.092  0.00  0.00     0.272 C 
ATOM      5  O1  19L d   1     -25.570  14.296  -8.211  0.00  0.00    -0.266 OA
ATOM      6  H6  19L d   1     -24.574  13.639 -11.108  0.00  0.00     0.163 HD
BRANCH   4   7
ATOM      7  C4  19L d   1     -24.221  12.484  -8.846  0.00  0.00     0.144 A 
ATOM      8  N3  19L d   1     -24.547  11.753  -7.742  0.00  0.00    -0.221 NA
ATOM      9  C3  19L d   1     -23.984  10.564  -7.559  0.00  0.00     0.178 A 
ATOM     10  C2  19L d   1     -23.088   9.987  -8.526  0.00  0.00     0.171 A 
ATOM     11  N2  19L d   1     -24.304   9.854  -6.484  0.00  0.00    -0.172 N 
ATOM     12  C1  19L d   1     -22.677   8.661  -8.305  0.00  0.00     0.292 C 
ATOM     13  N4  19L d   1     -22.724  10.851  -9.608  0.00  0.00    -0.249 NA
ATOM     14  O   19L d   1     -21.848   8.182  -9.130  0.00  0.00    -0.265 OA
ATOM     15  N1  19L d   1     -23.065   7.942  -7.244  0.00  0.00    -0.154 N 
ATOM     16  C   19L d   1     -23.911   8.596  -6.399  0.00  0.00     0.680 C 
ATOM     17  H3  19L d   1     -22.759   7.003  -7.085  0.00  0.00     0.187 HD
ATOM     18  C5  19L d   1     -23.218  12.052  -9.789  0.00  0.00     0.036 A 
ATOM     19  H5  19L d   1     -22.890  12.687 -10.604  0.00  0.00     0.118 H 
ATOM     20  H4  19L d   1     -24.853  10.280  -5.724  0.00  0.00     0.186 HD
BRANCH  16  21
ATOM     21  N   19L d   1     -24.305   7.879  -5.300  0.00  0.00    -0.234 N 
ATOM     22  H1  19L d   1     -24.019   6.895  -5.197  0.00  0.00     0.174 HD
ATOM     23  H2  19L d   1     -24.887   8.324  -4.576  0.00  0.00     0.174 HD
ENDBRANCH  16  21
ENDBRANCH   4   7
ENDBRANCH   1   3
BRANCH   1  24
ATOM     24  C9  19L d   1     -27.277  15.080 -10.858  0.00  0.00     0.243 C 
ATOM     25  O3  19L d   1     -27.996  16.092 -11.044  0.00  0.00    -0.271 OA
ATOM     26  N6  19L d   1     -27.787  13.886 -10.590  0.00  0.00    -0.344 N 
ATOM     27  H11 19L d   1     -27.192  13.104 -10.405  0.00  0.00     0.163 HD
BRANCH  26  28
ATOM     28  C10 19L d   1     -29.246  13.742 -10.572  0.00  0.00     0.100 C 
ATOM     29  H12 19L d   1     -29.681  14.700 -10.252  0.00  0.00     0.090 H 
BRANCH  28  30
ATOM     30  C20 19L d   1     -29.478  12.709  -9.496  0.00  0.00     0.197 C 
ATOM     31  O4  19L d   1     -30.746  12.562  -9.091  0.00  0.00    -0.646 OA
ATOM     32  O5  19L d   1     -28.601  11.965  -8.983  0.00  0.00    -0.646 OA
ENDBRANCH  28  30
BRANCH  28  33
ATOM     33  C11 19L d   1     -29.940  13.372 -11.907  0.00  0.00    -0.011 C 
ATOM     34  H13 19L d   1     -29.709  14.152 -12.647  0.00  0.00     0.044 H 
ATOM     35  H14 19L d   1     -31.026  13.338 -11.737  0.00  0.00     0.044 H 
BRANCH  33  36
ATOM     36  C12 19L d   1     -29.498  12.025 -12.471  0.00  0.00    -0.028 A 
ATOM     37  C13 19L d   1     -29.851  10.780 -12.024  0.00  0.00    -0.015 A 
ATOM     38  N7  19L d   1     -29.223   9.748 -12.695  0.00  0.00    -0.365 N 
ATOM     39  H15 19L d   1     -30.561  10.618 -11.214  0.00  0.00     0.112 H 
ATOM     40  C14 19L d   1     -28.404  10.308 -13.628  0.00  0.00     0.042 A 
ATOM     41  H16 19L d   1     -29.351   8.741 -12.521  0.00  0.00     0.165 HD
ATOM     42  C15 19L d   1     -28.506  11.776 -13.558  0.00  0.00    -0.002 A 
ATOM     43  C19 19L d   1     -27.498   9.736 -14.527  0.00  0.00    -0.056 A 
ATOM     44  C16 19L d   1     -27.719  12.653 -14.328  0.00  0.00    -0.070 A 
ATOM     45  C17 19L d   1     -26.885  12.033 -15.290  0.00  0.00    -0.082 A 
ATOM     46  H17 19L d   1     -27.749  13.728 -14.194  0.00  0.00     0.084 H 
ATOM     47  C18 19L d   1     -26.816  10.608 -15.365  0.00  0.00    -0.081 A 
ATOM     48  H19 19L d   1     -26.299  12.640 -15.970  0.00  0.00     0.083 H 
ATOM     49  H20 19L d   1     -26.185  10.176 -16.133  0.00  0.00     0.083 H 
ATOM     50  H18 19L d   1     -27.336   8.665 -14.568  0.00  0.00     0.086 H 
ENDBRANCH  33  36
ENDBRANCH  28  33
ENDBRANCH  26  28
ENDBRANCH   1  24
BRANCH   1  51
ATOM     51  C8  19L d   1     -25.227  15.822 -12.180  0.00  0.00     0.044 C 
ATOM     52  H8  19L d   1     -24.129  15.886 -12.156  0.00  0.00     0.077 H 
ATOM     53  H9  19L d   1     -25.647  16.810 -12.419  0.00  0.00     0.077 H 
BRANCH  51  54
ATOM     54  O2  19L d   1     -25.642  14.860 -13.167  0.00  0.00    -0.398 OA
ATOM     55  H10 19L d   1     -25.279  14.009 -12.950  0.00  0.00     0.209 HD
ENDBRANCH  51  54
ENDBRANCH   1  51
TORSDOF 10
