REMARK  5 active torsions:
REMARK  status: ('A' for Active; 'I' for Inactive)
REMARK    1  A    between atoms: C5_11  and  C7_14 
REMARK       I    between atoms: C7_14  and  N6_15 
REMARK    2  A    between atoms: N6_15  and  C8_16 
REMARK    3  A    between atoms: C8_16  and  C9_17 
REMARK       I    between atoms: C9_17  and  N7_19 
REMARK    4  A    between atoms: N7_19  and  C10_20 
REMARK    5  A    between atoms: C10_20  and  C11_21 
ROOT
ATOM      1  C1  19J d   1      23.870  -8.848  -6.370  0.00  0.00     0.680 A 
ATOM      2  N1  19J d   1      24.225  -8.153  -5.258  0.00  0.00    -0.234 N 
ATOM      3  O1  19J d   1      21.883  -8.328  -9.243  0.00  0.00    -0.265 OA
ATOM      4  C2  19J d   1      22.645  -8.868  -8.412  0.00  0.00     0.292 A 
ATOM      5  N2  19J d   1      23.055  -8.239  -7.291  0.00  0.00    -0.154 N 
ATOM      6  C3  19J d   1      23.137 -10.231  -8.642  0.00  0.00     0.171 A 
ATOM      7  N3  19J d   1      24.350 -10.095  -6.531  0.00  0.00    -0.172 N 
ATOM      8  C4  19J d   1      24.033 -10.807  -7.627  0.00  0.00     0.178 A 
ATOM      9  N4  19J d   1      24.492 -12.053  -7.823  0.00  0.00    -0.221 NA
ATOM     10  C5  19J d   1      24.143 -12.741  -8.925  0.00  0.00     0.144 A 
ATOM     11  N5  19J d   1      22.801 -10.942  -9.736  0.00  0.00    -0.249 NA
ATOM     12  C6  19J d   1      23.300 -12.181  -9.885  0.00  0.00     0.036 A 
ATOM     13  H1  19J d   1      23.870  -7.197  -5.113  0.00  0.00     0.174 HD
ATOM     14  H2  19J d   1      24.849  -8.582  -4.560  0.00  0.00     0.174 HD
ATOM     15  H3  19J d   1      22.756  -7.299  -7.126  0.00  0.00     0.187 HD
ATOM     16  H4  19J d   1      24.963 -10.506  -5.812  0.00  0.00     0.186 HD
ATOM     17  H5  19J d   1      23.043 -12.756 -10.767  0.00  0.00     0.118 H 
ENDROOT
BRANCH  10  18
ATOM     18  C7  19J d   1      24.724 -14.108  -9.121  0.00  0.00     0.272 C 
ATOM     19  O2  19J d   1      25.372 -14.618  -8.233  0.00  0.00    -0.266 OA
ATOM     20  N6  19J d   1      24.597 -14.695 -10.300  0.00  0.00    -0.347 N 
ATOM     21  H6  19J d   1      24.016 -14.267 -10.992  0.00  0.00     0.163 HD
BRANCH  20  22
ATOM     22  C8  19J d   1      25.272 -15.940 -10.623  0.00  0.00     0.069 C 
ATOM     23  H7  19J d   1      24.833 -16.334 -11.551  0.00  0.00     0.078 H 
ATOM     24  H8  19J d   1      25.089 -16.648  -9.802  0.00  0.00     0.078 H 
BRANCH  22  25
ATOM     25  C9  19J d   1      26.774 -15.832 -10.824  0.00  0.00     0.235 C 
ATOM     26  O3  19J d   1      27.463 -16.841 -10.834  0.00  0.00    -0.272 OA
ATOM     27  N7  19J d   1      27.306 -14.622 -10.984  0.00  0.00    -0.350 N 
ATOM     28  H9  19J d   1      26.740 -13.814 -10.820  0.00  0.00     0.163 HD
BRANCH  27  29
ATOM     29  C10 19J d   1      28.691 -14.447 -11.392  0.00  0.00     0.075 C 
ATOM     30  H10 19J d   1      29.318 -15.148 -10.822  0.00  0.00     0.080 H 
ATOM     31  H11 19J d   1      28.997 -13.415 -11.168  0.00  0.00     0.080 H 
BRANCH  29  32
ATOM     32  C11 19J d   1      28.895 -14.705 -12.874  0.00  0.00     0.191 C 
ATOM     33  O5  19J d   1      29.311 -13.812 -13.601  0.00  0.00    -0.647 OA
ATOM     34  O4  19J d   1      28.628 -15.899 -13.413  0.00  0.00    -0.647 OA
ENDBRANCH  29  32
ENDBRANCH  27  29
ENDBRANCH  22  25
ENDBRANCH  20  22
ENDBRANCH  10  18
TORSDOF 5
