REMARK  11 active torsions:
REMARK  status: ('A' for Active; 'I' for Inactive)
REMARK    1  A    between atoms: C1_1  and  O2_2 
REMARK    2  A    between atoms: O2_2  and  C3_3 
REMARK    3  A    between atoms: C6_6  and  C11_11 
REMARK    4  A    between atoms: C8_8  and  O9_9 
REMARK    5  A    between atoms: O9_9  and  C10_10 
REMARK    6  A    between atoms: C13_13  and  C16_16 
REMARK       I    between atoms: C16_16  and  N18_18 
REMARK    7  A    between atoms: N18_18  and  C19_19 
REMARK    8  A    between atoms: C19_19  and  C21_20 
REMARK    9  A    between atoms: C19_19  and  C30_29 
REMARK   10  A    between atoms: C21_20  and  C22_21 
REMARK   11  A    between atoms: C30_29  and  O31_30 
ROOT
ATOM      1  C22 4HV d   1     -11.845 -31.795  13.838  0.00  0.00    -0.055 A 
ATOM      2  C23 4HV d   1     -12.194 -31.721  15.182  0.00  0.00    -0.077 A 
ATOM      3  C24 4HV d   1     -12.391 -30.500  15.786  0.00  0.00    -0.081 A 
ATOM      4  C25 4HV d   1     -12.270 -29.327  15.068  0.00  0.00    -0.063 A 
ATOM      5  C26 4HV d   1     -11.943 -29.374  13.715  0.00  0.00     0.045 A 
ATOM      6  C27 4HV d   1     -11.728 -30.628  13.109  0.00  0.00    -0.057 A 
ATOM      7  C28 4HV d   1     -11.816 -28.136  12.983  0.00  0.00     0.099 C 
ATOM      8  N29 4HV d   1     -11.736 -27.144  12.411  0.00  0.00    -0.191 NA
ATOM      9  H16 4HV d   1     -12.312 -32.632  15.758  0.00  0.00     0.084 H 
ATOM     10  H17 4HV d   1     -12.645 -30.459  16.839  0.00  0.00     0.083 H 
ATOM     11  H18 4HV d   1     -12.429 -28.372  15.556  0.00  0.00     0.085 H 
ATOM     12  H19 4HV d   1     -11.468 -30.677  12.058  0.00  0.00     0.086 H 
ENDROOT
BRANCH   1  13
ATOM     13  C21 4HV d   1     -11.673 -33.158  13.218  0.00  0.00    -0.020 C 
ATOM     14  H14 4HV d   1     -11.996 -33.919  13.943  0.00  0.00     0.043 H 
ATOM     15  H15 4HV d   1     -12.302 -33.219  12.318  0.00  0.00     0.043 H 
BRANCH  13  16
ATOM     16  C19 4HV d   1     -10.225 -33.439  12.824  0.00  0.00     0.036 C 
ATOM     17  H13 4HV d   1      -9.809 -32.594  12.256  0.00  0.00     0.076 H 
BRANCH  16  18
ATOM     18  N18 4HV d   1      -9.482 -33.569  14.086  0.00  0.00    -0.350 N 
ATOM     19  C16 4HV d   1      -8.371 -32.826  14.402  0.00  0.00     0.254 C 
ATOM     20  O17 4HV d   1      -7.858 -32.027  13.625  0.00  0.00    -0.268 OA
ATOM     21  H12 4HV d   1      -9.805 -34.239  14.755  0.00  0.00     0.163 HD
BRANCH  19  22
ATOM     22  C13 4HV d   1      -7.739 -33.011  15.734  0.00  0.00     0.057 A 
ATOM     23  C12 4HV d   1      -6.543 -32.352  16.288  0.00  0.00    -0.032 A 
ATOM     24  C11 4HV d   1      -6.367 -32.873  17.540  0.00  0.00     0.086 A 
ATOM     25  H10 4HV d   1      -5.924 -31.601  15.799  0.00  0.00     0.089 H 
ATOM     26  O15 4HV d   1      -7.364 -33.735  17.774  0.00  0.00    -0.321 OA
ATOM     27  C14 4HV d   1      -8.196 -33.828  16.722  0.00  0.00     0.035 A 
ATOM     28  H11 4HV d   1      -9.087 -34.453  16.669  0.00  0.00     0.125 H 
BRANCH  24  29
ATOM     29  C6  4HV d   1      -5.396 -32.500  18.574  0.00  0.00     0.001 A 
ATOM     30  C5  4HV d   1      -4.368 -31.562  18.394  0.00  0.00    -0.068 A 
ATOM     31  C4  4HV d   1      -3.544 -31.226  19.479  0.00  0.00    -0.047 A 
ATOM     32  H5  4HV d   1      -4.212 -31.101  17.425  0.00  0.00     0.085 H 
ATOM     33  C3  4HV d   1      -3.781 -31.790  20.755  0.00  0.00     0.101 A 
ATOM     34  H4  4HV d   1      -2.723 -30.532  19.339  0.00  0.00     0.087 H 
ATOM     35  C8  4HV d   1      -4.813 -32.717  20.925  0.00  0.00     0.102 A 
ATOM     36  C7  4HV d   1      -5.624 -33.042  19.850  0.00  0.00    -0.035 A 
ATOM     37  H6  4HV d   1      -6.451 -33.728  19.996  0.00  0.00     0.089 H 
BRANCH  33  38
ATOM     38  O2  4HV d   1      -3.018 -31.492  21.850  0.00  0.00    -0.353 OA
BRANCH  38  39
ATOM     39  C1  4HV d   1      -2.211 -30.300  21.819  0.00  0.00     0.010 C 
ATOM     40  H1  4HV d   1      -1.662 -30.204  22.767  0.00  0.00     0.066 H 
ATOM     41  H2  4HV d   1      -2.859 -29.422  21.680  0.00  0.00     0.066 H 
ATOM     42  H3  4HV d   1      -1.495 -30.363  20.986  0.00  0.00     0.066 H 
ENDBRANCH  38  39
ENDBRANCH  33  38
BRANCH  35  43
ATOM     43  O9  4HV d   1      -5.039 -33.296  22.137  0.00  0.00    -0.353 OA
BRANCH  43  44
ATOM     44  C10 4HV d   1      -6.046 -34.316  22.154  0.00  0.00     0.010 C 
ATOM     45  H7  4HV d   1      -6.147 -34.714  23.174  0.00  0.00     0.066 H 
ATOM     46  H8  4HV d   1      -5.757 -35.128  21.471  0.00  0.00     0.066 H 
ATOM     47  H9  4HV d   1      -7.006 -33.889  21.830  0.00  0.00     0.066 H 
ENDBRANCH  43  44
ENDBRANCH  35  43
ENDBRANCH  24  29
ENDBRANCH  19  22
ENDBRANCH  16  18
BRANCH  16  48
ATOM     48  C30 4HV d   1     -10.240 -34.693  11.901  0.00  0.00     0.036 C 
ATOM     49  H20 4HV d   1     -10.516 -34.406  10.876  0.00  0.00     0.077 H 
ATOM     50  H21 4HV d   1     -10.959 -35.434  12.280  0.00  0.00     0.077 H 
BRANCH  48  51
ATOM     51  O31 4HV d   1      -8.925 -35.231  11.921  0.00  0.00    -0.399 OA
ATOM     52  H22 4HV d   1      -8.695 -35.469  12.812  0.00  0.00     0.209 HD
ENDBRANCH  48  51
ENDBRANCH  16  48
ENDBRANCH  13  16
ENDBRANCH   1  13
TORSDOF 11
