REMARK  7 active torsions:
REMARK  status: ('A' for Active; 'I' for Inactive)
REMARK    1  A    between atoms: C1_1  and  C11_11 
REMARK    2  A    between atoms: C14_14  and  C17_17 
REMARK    3  A    between atoms: N18_18  and  C28_28 
REMARK    4  A    between atoms: N20_20  and  C21_21 
REMARK       I    between atoms: N24_24  and  C29_29 
REMARK    5  A    between atoms: C29_29  and  C31_31 
REMARK    6  A    between atoms: C31_31  and  O32_32 
REMARK    7  A    between atoms: C31_31  and  C33_33 
ROOT
ATOM      1  C1  19P d   1      43.775  13.267  30.474  0.00  0.00     0.069 A 
ATOM      2  C2  19P d   1      44.188  12.279  29.567  0.00  0.00    -0.052 A 
ATOM      3  C3  19P d   1      45.472  12.273  29.108  0.00  0.00    -0.051 A 
ATOM      4  C4  19P d   1      46.354  13.272  29.564  0.00  0.00     0.087 A 
ATOM      5  C5  19P d   1      45.872  14.240  30.480  0.00  0.00     0.115 A 
ATOM      6  N6  19P d   1      44.607  14.200  30.896  0.00  0.00    -0.243 NA
ATOM      7  N7  19P d   1      47.623  13.311  29.144  0.00  0.00    -0.256 NA
ATOM      8  C8  19P d   1      48.462  14.231  29.556  0.00  0.00     0.031 A 
ATOM      9  C9  19P d   1      48.069  15.223  30.457  0.00  0.00     0.085 A 
ATOM     10  C10 19P d   1      46.763  15.238  30.932  0.00  0.00     0.099 A 
ATOM     11  N18 19P d   1      48.724  16.297  31.051  0.00  0.00    -0.300 N 
ATOM     12  C19 19P d   1      47.848  16.934  31.852  0.00  0.00     0.330 A 
ATOM     13  N20 19P d   1      46.655  16.311  31.797  0.00  0.00    -0.290 N 
ATOM     14  O27 19P d   1      48.096  17.919  32.522  0.00  0.00    -0.246 OA
ATOM     15  H1  19P d   1      43.488  11.522  29.232  0.00  0.00     0.087 H 
ATOM     16  H2  19P d   1      45.806  11.516  28.408  0.00  0.00     0.087 H 
ATOM     17  H3  19P d   1      49.482  14.221  29.189  0.00  0.00     0.118 H 
ENDROOT
BRANCH  13  18
ATOM     18  C21 19P d   1      45.448  16.706  32.527  0.00  0.00     0.025 C 
ATOM     19  C22 19P d   1      44.342  17.336  31.678  0.00  0.00    -0.030 C 
ATOM     20  C23 19P d   1      43.440  18.192  32.575  0.00  0.00    -0.001 C 
ATOM     21  H11 19P d   1      43.744  16.543  31.206  0.00  0.00     0.038 H 
ATOM     22  H12 19P d   1      44.792  17.969  30.899  0.00  0.00     0.038 H 
ATOM     23  N24 19P d   1      42.950  17.360  33.682  0.00  0.00    -0.350 N 
ATOM     24  H13 19P d   1      42.588  18.570  31.991  0.00  0.00     0.064 H 
ATOM     25  H14 19P d   1      44.014  19.040  32.976  0.00  0.00     0.064 H 
ATOM     26  C25 19P d   1      43.927  16.635  34.508  0.00  0.00    -0.001 C 
ATOM     27  C29 19P d   1      41.631  17.265  33.938  0.00  0.00     0.248 C 
ATOM     28  C26 19P d   1      44.823  15.798  33.590  0.00  0.00    -0.030 C 
ATOM     29  H15 19P d   1      43.399  15.975  35.212  0.00  0.00     0.064 H 
ATOM     30  H16 19P d   1      44.542  17.353  35.070  0.00  0.00     0.064 H 
ATOM     31  H17 19P d   1      45.619  15.326  34.184  0.00  0.00     0.038 H 
ATOM     32  H18 19P d   1      44.221  15.019  33.100  0.00  0.00     0.038 H 
ATOM     33  O30 19P d   1      41.232  16.510  34.800  0.00  0.00    -0.270 OA
ATOM     34  H10 19P d   1      45.825  17.547  33.127  0.00  0.00     0.073 H 
BRANCH  27  35
ATOM     35  C31 19P d   1      40.649  18.095  33.152  0.00  0.00     0.109 C 
ATOM     36  H22 19P d   1      40.823  17.948  32.076  0.00  0.00     0.097 H 
BRANCH  35  37
ATOM     37  O32 19P d   1      39.317  17.693  33.478  0.00  0.00    -0.387 OA
ATOM     38  H23 19P d   1      39.202  16.775  33.261  0.00  0.00     0.210 HD
ENDBRANCH  35  37
BRANCH  35  39
ATOM     39  C33 19P d   1      40.836  19.573  33.502  0.00  0.00    -0.044 C 
ATOM     40  H24 19P d   1      40.119  20.179  32.928  0.00  0.00     0.031 H 
ATOM     41  H25 19P d   1      41.861  19.882  33.251  0.00  0.00     0.031 H 
ATOM     42  H26 19P d   1      40.662  19.720  34.578  0.00  0.00     0.031 H 
ENDBRANCH  35  39
ENDBRANCH  27  35
ENDBRANCH  13  18
BRANCH  11  43
ATOM     43  C28 19P d   1      50.125  16.670  30.843  0.00  0.00    -0.009 C 
ATOM     44  H19 19P d   1      50.590  15.967  30.136  0.00  0.00     0.057 H 
ATOM     45  H20 19P d   1      50.661  16.633  31.803  0.00  0.00     0.057 H 
ATOM     46  H21 19P d   1      50.176  17.689  30.433  0.00  0.00     0.057 H 
ENDBRANCH  11  43
BRANCH   1  47
ATOM     47  C11 19P d   1      42.375  13.267  30.961  0.00  0.00     0.010 A 
ATOM     48  C12 19P d   1      41.337  12.839  30.134  0.00  0.00     0.015 A 
ATOM     49  N13 19P d   1      40.093  12.837  30.566  0.00  0.00    -0.265 NA
ATOM     50  H4  19P d   1      41.556  12.505  29.126  0.00  0.00     0.116 H 
ATOM     51  C14 19P d   1      39.778  13.236  31.783  0.00  0.00     0.030 A 
ATOM     52  C15 19P d   1      40.750  13.677  32.664  0.00  0.00    -0.059 A 
ATOM     53  C16 19P d   1      42.074  13.692  32.259  0.00  0.00    -0.068 A 
ATOM     54  H5  19P d   1      40.478  14.007  33.660  0.00  0.00     0.086 H 
ATOM     55  H6  19P d   1      42.857  14.025  32.931  0.00  0.00     0.085 H 
BRANCH  51  56
ATOM     56  C17 19P d   1      38.337  13.213  32.222  0.00  0.00    -0.035 C 
ATOM     57  H7  19P d   1      38.263  13.577  33.257  0.00  0.00     0.035 H 
ATOM     58  H8  19P d   1      37.953  12.184  32.167  0.00  0.00     0.035 H 
ATOM     59  H9  19P d   1      37.742  13.862  31.562  0.00  0.00     0.035 H 
ENDBRANCH  51  56
ENDBRANCH   1  47
TORSDOF 7
