REMARK  8 active torsions:
REMARK  status: ('A' for Active; 'I' for Inactive)
REMARK    1  A    between atoms: C3_3  and  C10_10 
REMARK    2  A    between atoms: C7_7  and  C13_13 
REMARK       I    between atoms: C13_13  and  N14_14 
REMARK    3  A    between atoms: N14_14  and  C16_16 
REMARK    4  A    between atoms: C16_16  and  C17_17 
REMARK    5  A    between atoms: C16_16  and  C21_21 
REMARK    6  A    between atoms: C17_17  and  C18_18 
REMARK    7  A    between atoms: C17_17  and  C19_19 
REMARK    8  A    between atoms: C17_17  and  C20_20 
ROOT
ATOM      1  C13 933 d   1       2.051 -13.648  -4.629  0.00  0.00     0.255 C 
ATOM      2  N14 933 d   1       2.279 -14.963  -4.871  0.00  0.00    -0.352 N 
ATOM      3  O15 933 d   1       2.889 -12.789  -4.856  0.00  0.00    -0.268 OA
ATOM      4  H9  933 d   1       1.548 -15.605  -4.640  0.00  0.00     0.163 HD
ENDROOT
BRANCH   1   5
ATOM      5  C7  933 d   1       0.728 -13.302  -4.096  0.00  0.00     0.080 A 
ATOM      6  C6  933 d   1      -0.321 -14.281  -3.784  0.00  0.00     0.120 A 
ATOM      7  N4  933 d   1      -0.381 -15.606  -3.858  0.00  0.00    -0.247 NA
ATOM      8  C5  933 d   1      -1.434 -13.539  -3.325  0.00  0.00     0.157 A 
ATOM      9  C3  933 d   1      -1.489 -16.239  -3.506  0.00  0.00     0.057 A 
ATOM     10  C2  933 d   1      -2.583 -15.512  -3.044  0.00  0.00     0.029 A 
ATOM     11  N1  933 d   1      -2.542 -14.191  -2.965  0.00  0.00    -0.239 NA
ATOM     12  H1  933 d   1      -3.483 -16.036  -2.744  0.00  0.00     0.118 H 
ATOM     13  N9  933 d   1      -1.080 -12.211  -3.360  0.00  0.00    -0.348 N 
ATOM     14  C8  933 d   1       0.195 -12.072  -3.826  0.00  0.00    -0.004 A 
ATOM     15  H3  933 d   1      -1.690 -11.432  -3.075  0.00  0.00     0.167 HD
ATOM     16  H2  933 d   1       0.711 -11.123  -3.962  0.00  0.00     0.113 H 
BRANCH   9  17
ATOM     17  C10 933 d   1      -1.574 -17.745  -3.576  0.00  0.00    -0.010 A 
ATOM     18  C11 933 d   1      -0.915 -18.461  -4.760  0.00  0.00    -0.056 A 
ATOM     19  C12 933 d   1      -0.282 -18.537  -3.365  0.00  0.00    -0.056 A 
ATOM     20  H5  933 d   1      -0.428 -17.877  -5.554  0.00  0.00     0.034 H 
ATOM     21  H6  933 d   1      -1.390 -19.351  -5.198  0.00  0.00     0.034 H 
ATOM     22  H7  933 d   1      -0.302 -19.482  -2.803  0.00  0.00     0.034 H 
ATOM     23  H8  933 d   1       0.660 -18.008  -3.159  0.00  0.00     0.034 H 
ATOM     24  H4  933 d   1      -2.531 -18.099  -3.166  0.00  0.00     0.049 H 
ENDBRANCH   9  17
ENDBRANCH   1   5
BRANCH   2  25
ATOM     25  C16 933 d   1       3.511 -15.521  -5.445  0.00  0.00     0.015 C 
ATOM     26  H10 933 d   1       4.287 -14.742  -5.478  0.00  0.00     0.073 H 
BRANCH  25  27
ATOM     27  C17 933 d   1       3.205 -15.984  -6.890  0.00  0.00    -0.031 C 
BRANCH  27  28
ATOM     28  C18 933 d   1       2.725 -14.786  -7.721  0.00  0.00    -0.068 C 
ATOM     29  H11 933 d   1       2.508 -15.116  -8.748  0.00  0.00     0.028 H 
ATOM     30  H12 933 d   1       3.510 -14.016  -7.742  0.00  0.00     0.028 H 
ATOM     31  H13 933 d   1       1.813 -14.368  -7.269  0.00  0.00     0.028 H 
ENDBRANCH  27  28
BRANCH  27  32
ATOM     32  C19 933 d   1       4.461 -16.527  -7.575  0.00  0.00    -0.068 C 
ATOM     33  H14 933 d   1       4.842 -17.391  -7.011  0.00  0.00     0.028 H 
ATOM     34  H15 933 d   1       5.230 -15.742  -7.606  0.00  0.00     0.028 H 
ATOM     35  H16 933 d   1       4.214 -16.839  -8.601  0.00  0.00     0.028 H 
ENDBRANCH  27  32
BRANCH  27  36
ATOM     36  C20 933 d   1       2.118 -17.066  -6.936  0.00  0.00    -0.068 C 
ATOM     37  H17 933 d   1       1.207 -16.691  -6.447  0.00  0.00     0.028 H 
ATOM     38  H18 933 d   1       2.473 -17.965  -6.411  0.00  0.00     0.028 H 
ATOM     39  H19 933 d   1       1.895 -17.317  -7.983  0.00  0.00     0.028 H 
ENDBRANCH  27  36
ENDBRANCH  25  27
BRANCH  25  40
ATOM     40  C21 933 d   1       4.006 -16.672  -4.555  0.00  0.00    -0.057 C 
ATOM     41  H20 933 d   1       4.929 -17.094  -4.980  0.00  0.00     0.030 H 
ATOM     42  H21 933 d   1       3.235 -17.454  -4.505  0.00  0.00     0.030 H 
ATOM     43  H22 933 d   1       4.209 -16.292  -3.543  0.00  0.00     0.030 H 
ENDBRANCH  25  40
ENDBRANCH   2  25
TORSDOF 8
