REMARK  8 active torsions:
REMARK  status: ('A' for Active; 'I' for Inactive)
REMARK    1  A    between atoms: C1_1  and  C10_10 
REMARK    2  A    between atoms: C8_8  and  C19_19 
REMARK       I    between atoms: C10_10  and  N11_11 
REMARK    3  A    between atoms: N11_11  and  C13_13 
REMARK    4  A    between atoms: C13_13  and  C14_14 
REMARK    5  A    between atoms: C13_13  and  C15_15 
REMARK    6  A    between atoms: C15_15  and  C16_16 
REMARK    7  A    between atoms: C15_15  and  C17_17 
REMARK    8  A    between atoms: C15_15  and  O18_18 
ROOT
ATOM      1  C10 19Q d   1       2.002 -13.859  -4.644  0.00  0.00     0.255 C 
ATOM      2  N11 19Q d   1       2.185 -15.177  -4.897  0.00  0.00    -0.350 N 
ATOM      3  O12 19Q d   1       2.887 -13.018  -4.808  0.00  0.00    -0.268 OA
ATOM      4  H4  19Q d   1       1.429 -15.803  -4.706  0.00  0.00     0.163 HD
ENDROOT
BRANCH   1   5
ATOM      5  C1  19Q d   1       0.651 -13.519  -4.167  0.00  0.00     0.080 A 
ATOM      6  C2  19Q d   1       0.102 -12.292  -3.931  0.00  0.00    -0.004 A 
ATOM      7  N3  19Q d   1      -1.201 -12.444  -3.510  0.00  0.00    -0.348 N 
ATOM      8  H1  19Q d   1       0.615 -11.339  -4.056  0.00  0.00     0.113 H 
ATOM      9  C5  19Q d   1      -1.538 -13.798  -3.457  0.00  0.00     0.157 A 
ATOM     10  H2  19Q d   1      -1.836 -11.669  -3.269  0.00  0.00     0.167 HD
ATOM     11  C4  19Q d   1      -0.387 -14.515  -3.874  0.00  0.00     0.120 A 
ATOM     12  N6  19Q d   1      -2.651 -14.481  -3.106  0.00  0.00    -0.239 NA
ATOM     13  N9  19Q d   1      -0.420 -15.834  -3.922  0.00  0.00    -0.247 NA
ATOM     14  C8  19Q d   1      -1.538 -16.499  -3.580  0.00  0.00     0.057 A 
ATOM     15  C7  19Q d   1      -2.668 -15.808  -3.159  0.00  0.00     0.029 A 
ATOM     16  H3  19Q d   1      -3.562 -16.351  -2.874  0.00  0.00     0.118 H 
BRANCH  14  17
ATOM     17  C19 19Q d   1      -1.572 -18.012  -3.641  0.00  0.00    -0.010 A 
ATOM     18  C20 19Q d   1      -1.043 -18.711  -4.896  0.00  0.00    -0.056 A 
ATOM     19  C21 19Q d   1      -0.207 -18.740  -3.608  0.00  0.00    -0.056 A 
ATOM     20  H17 19Q d   1      -0.705 -18.113  -5.755  0.00  0.00     0.034 H 
ATOM     21  H18 19Q d   1      -1.527 -19.631  -5.256  0.00  0.00     0.034 H 
ATOM     22  H19 19Q d   1      -0.096 -19.678  -3.044  0.00  0.00     0.034 H 
ATOM     23  H20 19Q d   1       0.726 -18.160  -3.543  0.00  0.00     0.034 H 
ATOM     24  H16 19Q d   1      -2.446 -18.406  -3.103  0.00  0.00     0.049 H 
ENDBRANCH  14  17
ENDBRANCH   1   5
BRANCH   2  25
ATOM     25  C13 19Q d   1       3.424 -15.735  -5.433  0.00  0.00     0.038 C 
ATOM     26  H5  19Q d   1       4.215 -14.971  -5.431  0.00  0.00     0.076 H 
BRANCH  25  27
ATOM     27  C14 19Q d   1       3.876 -16.933  -4.573  0.00  0.00    -0.055 C 
ATOM     28  H6  19Q d   1       4.809 -17.347  -4.983  0.00  0.00     0.030 H 
ATOM     29  H7  19Q d   1       3.095 -17.708  -4.584  0.00  0.00     0.030 H 
ATOM     30  H8  19Q d   1       4.046 -16.599  -3.539  0.00  0.00     0.030 H 
ENDBRANCH  25  27
BRANCH  25  31
ATOM     31  C15 19Q d   1       3.112 -16.172  -6.900  0.00  0.00     0.070 C 
BRANCH  31  32
ATOM     32  C16 19Q d   1       1.860 -17.069  -7.011  0.00  0.00    -0.046 C 
ATOM     33  H9  19Q d   1       1.696 -17.341  -8.064  0.00  0.00     0.031 H 
ATOM     34  H10 19Q d   1       0.983 -16.523  -6.632  0.00  0.00     0.031 H 
ATOM     35  H11 19Q d   1       2.009 -17.982  -6.416  0.00  0.00     0.031 H 
ENDBRANCH  31  32
BRANCH  31  36
ATOM     36  C17 19Q d   1       2.784 -14.957  -7.754  0.00  0.00    -0.046 C 
ATOM     37  H12 19Q d   1       3.631 -14.255  -7.733  0.00  0.00     0.031 H 
ATOM     38  H13 19Q d   1       1.886 -14.461  -7.356  0.00  0.00     0.031 H 
ATOM     39  H14 19Q d   1       2.598 -15.276  -8.790  0.00  0.00     0.031 H 
ENDBRANCH  31  36
BRANCH  31  40
ATOM     40  O18 19Q d   1       4.272 -16.868  -7.424  0.00  0.00    -0.389 OA
ATOM     41  H15 19Q d   1       5.036 -16.308  -7.351  0.00  0.00     0.210 HD
ENDBRANCH  31  40
ENDBRANCH  25  31
ENDBRANCH   2  25
TORSDOF 8
