REMARK  8 active torsions:
REMARK  status: ('A' for Active; 'I' for Inactive)
REMARK    1  A    between atoms: C2_2  and  C12_12 
REMARK    2  A    between atoms: C7_7  and  C10_10 
REMARK       I    between atoms: C10_10  and  N13_13 
REMARK    3  A    between atoms: N13_13  and  C16_16 
REMARK    4  A    between atoms: C16_16  and  C17_17 
REMARK    5  A    between atoms: C16_16  and  C21_21 
REMARK    6  A    between atoms: C17_17  and  C18_18 
REMARK    7  A    between atoms: C17_17  and  C19_19 
REMARK    8  A    between atoms: C17_17  and  O20_20 
ROOT
ATOM      1  C10 19R d   1       1.809 -13.493  -5.066  0.00  0.00     0.255 C 
ATOM      2  O11 19R d   1       2.607 -12.579  -5.201  0.00  0.00    -0.268 OA
ATOM      3  N13 19R d   1       2.035 -14.732  -5.554  0.00  0.00    -0.350 N 
ATOM      4  H5  19R d   1       1.333 -15.429  -5.410  0.00  0.00     0.163 HD
ENDROOT
BRANCH   1   5
ATOM      5  C7  19R d   1       0.535 -13.244  -4.384  0.00  0.00     0.080 A 
ATOM      6  C6  19R d   1      -0.465 -14.245  -4.007  0.00  0.00     0.120 A 
ATOM      7  N3  19R d   1      -0.544 -15.579  -4.114  0.00  0.00    -0.247 NA
ATOM      8  C5  19R d   1      -1.519 -13.509  -3.413  0.00  0.00     0.157 A 
ATOM      9  C2  19R d   1      -1.614 -16.206  -3.660  0.00  0.00     0.057 A 
ATOM     10  C1  19R d   1      -2.640 -15.480  -3.069  0.00  0.00     0.029 A 
ATOM     11  N4  19R d   1      -2.586 -14.162  -2.955  0.00  0.00    -0.239 NA
ATOM     12  H1  19R d   1      -3.509 -16.007  -2.691  0.00  0.00     0.118 H 
ATOM     13  N9  19R d   1      -1.170 -12.178  -3.434  0.00  0.00    -0.348 N 
ATOM     14  C8  19R d   1       0.041 -12.025  -4.013  0.00  0.00    -0.004 A 
ATOM     15  H3  19R d   1      -1.748 -11.411  -3.062  0.00  0.00     0.167 HD
ATOM     16  H2  19R d   1       0.548 -11.073  -4.162  0.00  0.00     0.113 H 
BRANCH   9  17
ATOM     17  C12 19R d   1      -1.752 -17.706  -3.752  0.00  0.00    -0.010 A 
ATOM     18  C14 19R d   1      -1.066 -18.429  -4.917  0.00  0.00    -0.056 A 
ATOM     19  C15 19R d   1      -0.514 -18.565  -3.491  0.00  0.00    -0.056 A 
ATOM     20  H6  19R d   1      -0.508 -17.853  -5.671  0.00  0.00     0.034 H 
ATOM     21  H7  19R d   1      -1.559 -19.285  -5.401  0.00  0.00     0.034 H 
ATOM     22  H8  19R d   1      -0.611 -19.519  -2.953  0.00  0.00     0.034 H 
ATOM     23  H9  19R d   1       0.440 -18.088  -3.223  0.00  0.00     0.034 H 
ATOM     24  H4  19R d   1      -2.743 -18.024  -3.397  0.00  0.00     0.049 H 
ENDBRANCH   9  17
ENDBRANCH   1   5
BRANCH   3  25
ATOM     25  C16 19R d   1       3.253 -15.117  -6.285  0.00  0.00     0.038 C 
ATOM     26  H10 19R d   1       4.089 -14.472  -5.978  0.00  0.00     0.076 H 
BRANCH  25  27
ATOM     27  C17 19R d   1       3.612 -16.586  -5.986  0.00  0.00     0.070 C 
BRANCH  27  28
ATOM     28  C18 19R d   1       4.692 -17.081  -6.960  0.00  0.00    -0.046 C 
ATOM     29  H11 19R d   1       4.937 -18.129  -6.734  0.00  0.00     0.031 H 
ATOM     30  H12 19R d   1       5.595 -16.462  -6.852  0.00  0.00     0.031 H 
ATOM     31  H13 19R d   1       4.318 -17.006  -7.992  0.00  0.00     0.031 H 
ENDBRANCH  27  28
BRANCH  27  32
ATOM     32  C19 19R d   1       4.123 -16.718  -4.546  0.00  0.00    -0.046 C 
ATOM     33  H14 19R d   1       3.350 -16.364  -3.849  0.00  0.00     0.031 H 
ATOM     34  H15 19R d   1       5.033 -16.113  -4.423  0.00  0.00     0.031 H 
ATOM     35  H16 19R d   1       4.353 -17.773  -4.334  0.00  0.00     0.031 H 
ENDBRANCH  27  32
BRANCH  27  36
ATOM     36  O20 19R d   1       2.453 -17.407  -6.107  0.00  0.00    -0.389 OA
ATOM     37  H17 19R d   1       1.785 -17.101  -5.505  0.00  0.00     0.210 HD
ENDBRANCH  27  36
ENDBRANCH  25  27
BRANCH  25  38
ATOM     38  C21 19R d   1       2.978 -14.927  -7.785  0.00  0.00    -0.055 C 
ATOM     39  H18 19R d   1       3.873 -15.207  -8.360  0.00  0.00     0.030 H 
ATOM     40  H19 19R d   1       2.731 -13.873  -7.982  0.00  0.00     0.030 H 
ATOM     41  H20 19R d   1       2.134 -15.564  -8.087  0.00  0.00     0.030 H 
ENDBRANCH  25  38
ENDBRANCH   3  25
TORSDOF 8
