REMARK  5 active torsions:
REMARK  status: ('A' for Active; 'I' for Inactive)
REMARK       I    between atoms: C23_23  and  N1_1 
REMARK    1  A    between atoms: C8_8  and  C20_20 
REMARK    2  A    between atoms: C16_16  and  C15_15 
REMARK       I    between atoms: N17_17  and  C16_16 
REMARK    3  A    between atoms: C19_19  and  N17_17 
REMARK    4  A    between atoms: C19_19  and  C23_23 
REMARK    5  A    between atoms: C19_19  and  C24_24 
ROOT
ATOM      1  C16 19S d   1       1.849 -13.124  -4.975  0.00  0.00     0.256 C 
ATOM      2  N17 19S d   1       2.125 -14.353  -5.427  0.00  0.00    -0.344 N 
ATOM      3  O18 19S d   1       2.635 -12.204  -5.126  0.00  0.00    -0.268 OA
ATOM      4  H14 19S d   1       1.442 -15.065  -5.265  0.00  0.00     0.163 HD
ENDROOT
BRANCH   2   5
ATOM      5  C19 19S d   1       3.340 -14.741  -6.137  0.00  0.00     0.086 C 
ATOM      6  H15 19S d   1       4.027 -13.889  -6.244  0.00  0.00     0.087 H 
BRANCH   5   7
ATOM      7  C23 19S d   1       4.016 -15.886  -5.418  0.00  0.00     0.242 C 
ATOM      8  N1  19S d   1       5.354 -16.089  -5.584  0.00  0.00    -0.350 N 
ATOM      9  C2  19S d   1       6.161 -15.202  -6.432  0.00  0.00    -0.002 C 
ATOM     10  C6  19S d   1       6.076 -17.192  -4.935  0.00  0.00    -0.002 C 
ATOM     11  C3  19S d   1       7.160 -14.501  -5.509  0.00  0.00    -0.050 C 
ATOM     12  H1  19S d   1       5.516 -14.460  -6.926  0.00  0.00     0.064 H 
ATOM     13  H2  19S d   1       6.696 -15.789  -7.194  0.00  0.00     0.064 H 
ATOM     14  C4  19S d   1       8.036 -15.553  -4.815  0.00  0.00    -0.062 C 
ATOM     15  H3  19S d   1       6.614 -13.920  -4.751  0.00  0.00     0.035 H 
ATOM     16  H4  19S d   1       7.796 -13.826  -6.101  0.00  0.00     0.035 H 
ATOM     17  C5  19S d   1       7.217 -16.618  -4.067  0.00  0.00    -0.050 C 
ATOM     18  H5  19S d   1       8.691 -15.043  -4.093  0.00  0.00     0.033 H 
ATOM     19  H6  19S d   1       8.651 -16.055  -5.577  0.00  0.00     0.033 H 
ATOM     20  H7  19S d   1       6.781 -16.162  -3.166  0.00  0.00     0.035 H 
ATOM     21  H8  19S d   1       7.887 -17.440  -3.775  0.00  0.00     0.035 H 
ATOM     22  H9  19S d   1       6.498 -17.857  -5.703  0.00  0.00     0.064 H 
ATOM     23  H10 19S d   1       5.382 -17.761  -4.299  0.00  0.00     0.064 H 
ATOM     24  O25 19S d   1       3.323 -16.619  -4.719  0.00  0.00    -0.271 OA
ENDBRANCH   5   7
BRANCH   5  25
ATOM     25  C24 19S d   1       2.867 -15.265  -7.504  0.00  0.00    -0.049 C 
ATOM     26  H21 19S d   1       3.738 -15.578  -8.098  0.00  0.00     0.030 H 
ATOM     27  H22 19S d   1       2.328 -14.467  -8.036  0.00  0.00     0.030 H 
ATOM     28  H23 19S d   1       2.197 -16.124  -7.355  0.00  0.00     0.030 H 
ENDBRANCH   5  25
ENDBRANCH   2   5
BRANCH   1  29
ATOM     29  C15 19S d   1       0.535 -12.963  -4.334  0.00  0.00     0.080 A 
ATOM     30  C11 19S d   1      -0.365 -14.071  -4.004  0.00  0.00     0.120 A 
ATOM     31  N10 19S d   1      -0.263 -15.396  -4.130  0.00  0.00    -0.247 NA
ATOM     32  C12 19S d   1      -1.531 -13.481  -3.450  0.00  0.00     0.157 A 
ATOM     33  C8  19S d   1      -1.272 -16.175  -3.737  0.00  0.00     0.057 A 
ATOM     34  C9  19S d   1      -2.423 -15.606  -3.192  0.00  0.00     0.029 A 
ATOM     35  N7  19S d   1      -2.535 -14.280  -3.051  0.00  0.00    -0.239 NA
ATOM     36  H11 19S d   1      -3.239 -16.247  -2.878  0.00  0.00     0.118 H 
ATOM     37  N13 19S d   1      -1.339 -12.111  -3.449  0.00  0.00    -0.348 N 
ATOM     38  C14 19S d   1      -0.123 -11.815  -3.989  0.00  0.00    -0.004 A 
ATOM     39  H12 19S d   1      -2.014 -11.419  -3.094  0.00  0.00     0.167 HD
ATOM     40  H13 19S d   1       0.269 -10.808  -4.126  0.00  0.00     0.113 H 
BRANCH  33  41
ATOM     41  C20 19S d   1      -1.187 -17.673  -3.899  0.00  0.00    -0.010 A 
ATOM     42  C21 19S d   1      -0.485 -18.188  -5.163  0.00  0.00    -0.056 A 
ATOM     43  C22 19S d   1       0.163 -18.393  -3.784  0.00  0.00    -0.056 A 
ATOM     44  H17 19S d   1      -0.045 -17.476  -5.877  0.00  0.00     0.034 H 
ATOM     45  H18 19S d   1      -0.898 -19.048  -5.710  0.00  0.00     0.034 H 
ATOM     46  H19 19S d   1       0.214 -19.400  -3.344  0.00  0.00     0.034 H 
ATOM     47  H20 19S d   1       1.066 -17.828  -3.511  0.00  0.00     0.034 H 
ATOM     48  H16 19S d   1      -2.101 -18.151  -3.517  0.00  0.00     0.049 H 
ENDBRANCH  33  41
ENDBRANCH   1  29
TORSDOF 5
