REMARK  6 active torsions:
REMARK  status: ('A' for Active; 'I' for Inactive)
REMARK    1  A    between atoms: C12_7  and  C15_10 
REMARK    2  A    between atoms: C15_10  and  C18_11 
REMARK    3  A    between atoms: C22_14  and  N27_17 
REMARK    4  A    between atoms: N27_17  and  C29_18 
REMARK    5  A    between atoms: C29_18  and  C32_19 
REMARK    6  A    between atoms: C37_22  and  C42_25 
ROOT
ATOM      1  C18 647 d   1      14.334  -1.985   8.208  0.00  0.00    -0.036 A 
ATOM      2  C19 647 d   1      15.590  -2.177   7.645  0.00  0.00     0.011 A 
ATOM      3  N21 647 d   1      16.104  -3.406   7.356  0.00  0.00    -0.243 NA
ATOM      4  C22 647 d   1      15.337  -4.515   7.631  0.00  0.00     0.123 A 
ATOM      5  C23 647 d   1      14.089  -4.407   8.212  0.00  0.00    -0.038 A 
ATOM      6  C25 647 d   1      13.594  -3.146   8.487  0.00  0.00    -0.072 A 
ATOM      7  H8  647 d   1      16.193  -1.304   7.424  0.00  0.00     0.115 H 
ATOM      8  H9  647 d   1      13.510  -5.292   8.447  0.00  0.00     0.089 H 
ATOM      9  H10 647 d   1      12.609  -3.050   8.930  0.00  0.00     0.084 H 
ENDROOT
BRANCH   4  10
ATOM     10  N27 647 d   1      15.921  -5.734   7.351  0.00  0.00    -0.371 N 
ATOM     11  H11 647 d   1      15.464  -6.620   7.608  0.00  0.00     0.161 HD
BRANCH  10  12
ATOM     12  C29 647 d   1      17.198  -5.713   6.683  0.00  0.00     0.018 C 
ATOM     13  H12 647 d   1      17.278  -4.726   6.203  0.00  0.00     0.071 H 
ATOM     14  H13 647 d   1      17.154  -6.494   5.910  0.00  0.00     0.071 H 
BRANCH  12  15
ATOM     15  C32 647 d   1      18.472  -5.924   7.413  0.00  0.00    -0.041 A 
ATOM     16  C33 647 d   1      18.551  -6.168   8.791  0.00  0.00    -0.074 A 
ATOM     17  C35 647 d   1      19.814  -6.333   9.375  0.00  0.00    -0.068 A 
ATOM     18  H14 647 d   1      17.652  -6.228   9.394  0.00  0.00     0.084 H 
ATOM     19  C37 647 d   1      20.960  -6.255   8.574  0.00  0.00     0.047 A 
ATOM     20  H15 647 d   1      19.903  -6.520  10.439  0.00  0.00     0.084 H 
ATOM     21  C38 647 d   1      20.879  -5.993   7.195  0.00  0.00    -0.068 A 
ATOM     22  C40 647 d   1      19.619  -5.838   6.629  0.00  0.00    -0.074 A 
ATOM     23  H16 647 d   1      21.775  -5.914   6.590  0.00  0.00     0.084 H 
ATOM     24  H17 647 d   1      19.529  -5.648   5.566  0.00  0.00     0.084 H 
BRANCH  19  25
ATOM     25  C42 647 d   1      22.302  -6.464   9.173  0.00  0.00     0.417 C 
ATOM     26  F43 647 d   1      22.809  -5.480   9.949  0.00  0.00    -0.166 F 
ATOM     27  F44 647 d   1      22.264  -7.573   9.928  0.00  0.00    -0.166 F 
ATOM     28  F45 647 d   1      23.252  -6.687   8.258  0.00  0.00    -0.166 F 
ENDBRANCH  19  25
ENDBRANCH  12  15
ENDBRANCH  10  12
ENDBRANCH   4  10
BRANCH   1  29
ATOM     29  C15 647 d   1      13.801  -0.609   8.521  0.00  0.00    -0.013 C 
ATOM     30  H6  647 d   1      14.482   0.143   8.095  0.00  0.00     0.047 H 
ATOM     31  H7  647 d   1      12.805  -0.500   8.068  0.00  0.00     0.047 H 
BRANCH  29  32
ATOM     32  C12 647 d   1      13.690  -0.384  10.007  0.00  0.00    -0.024 A 
ATOM     33  C10 647 d   1      13.867  -1.311  11.034  0.00  0.00    -0.014 A 
ATOM     34  N8  647 d   1      13.675  -0.685  12.251  0.00  0.00    -0.350 N 
ATOM     35  H5  647 d   1      14.117  -2.362  10.898  0.00  0.00     0.112 H 
ATOM     36  C14 647 d   1      13.346   0.630  12.050  0.00  0.00     0.138 A 
ATOM     37  H4  647 d   1      13.766  -1.139  13.171  0.00  0.00     0.166 HD
ATOM     38  N5  647 d   1      13.091   1.524  13.033  0.00  0.00    -0.242 NA
ATOM     39  C13 647 d   1      13.345   0.864  10.671  0.00  0.00     0.018 A 
ATOM     40  C3  647 d   1      12.800   2.781  12.579  0.00  0.00     0.004 A 
ATOM     41  C1  647 d   1      12.741   3.149  11.234  0.00  0.00    -0.065 A 
ATOM     42  H2  647 d   1      12.601   3.548  13.319  0.00  0.00     0.114 H 
ATOM     43  C6  647 d   1      13.022   2.174  10.249  0.00  0.00    -0.067 A 
ATOM     44  H1  647 d   1      12.485   4.163  10.950  0.00  0.00     0.085 H 
ATOM     45  H3  647 d   1      12.991   2.425   9.195  0.00  0.00     0.085 H 
ENDBRANCH  29  32
ENDBRANCH   1  29
TORSDOF 6
