REMARK  8 active torsions:
REMARK  status: ('A' for Active; 'I' for Inactive)
REMARK    1  A    between atoms: CAQ_2  and  CAW_4 
REMARK    2  A    between atoms: CAX_13  and  CAN_14 
REMARK    3  A    between atoms: CAN_14  and  CAL_15 
REMARK    4  A    between atoms: CAL_15  and  CAM_16 
REMARK    5  A    between atoms: CAM_16  and  OAP_17 
REMARK    6  A    between atoms: OAP_17  and  CAU_18 
REMARK    7  A    between atoms: CAR_20  and  CAA_21 
REMARK    8  A    between atoms: CAS_24  and  CAB_25 
ROOT
ATOM      1  CAL 19H d   1       0.597 -46.094   6.926  0.00  0.00    -0.041 C 
ATOM      2  H7  19H d   1       1.034 -45.148   6.573  0.00  0.00     0.036 H 
ATOM      3  H8  19H d   1       1.187 -46.477   7.772  0.00  0.00     0.036 H 
ENDROOT
BRANCH   1   4
ATOM      4  CAN 19H d   1       0.671 -47.111   5.789  0.00  0.00    -0.036 C 
ATOM      5  H5  19H d   1      -0.180 -46.920   5.118  0.00  0.00     0.040 H 
ATOM      6  H6  19H d   1       1.612 -46.934   5.247  0.00  0.00     0.040 H 
BRANCH   4   7
ATOM      7  CAX 19H d   1       0.630 -48.662   6.191  0.00  0.00    -0.012 A 
ATOM      8  CAW 19H d   1       1.729 -49.263   6.560  0.00  0.00     0.117 A 
ATOM      9  NAO 19H d   1       1.234 -50.547   6.745  0.00  0.00    -0.350 N 
ATOM     10  CAY 19H d   1      -0.111 -50.615   6.466  0.00  0.00     0.045 A 
ATOM     11  H1  19H d   1       1.803 -51.349   7.053  0.00  0.00     0.166 HD
ATOM     12  CAK 19H d   1      -0.927 -51.630   6.523  0.00  0.00    -0.035 A 
ATOM     13  CAZ 19H d   1      -0.477 -49.385   6.103  0.00  0.00    -0.001 A 
ATOM     14  CAT 19H d   1      -2.291 -51.489   6.203  0.00  0.00     0.036 A 
ATOM     15  H2  19H d   1      -0.548 -52.601   6.822  0.00  0.00     0.089 H 
ATOM     16 CL2  19H d   1      -3.373 -52.830   6.296  0.00  0.00    -0.084 Cl
ATOM     17  CAG 19H d   1      -2.722 -50.230   5.826  0.00  0.00    -0.061 A 
ATOM     18  CAH 19H d   1      -1.744 -49.197   5.792  0.00  0.00    -0.069 A 
ATOM     19  H3  19H d   1      -3.757 -50.039   5.568  0.00  0.00     0.086 H 
ATOM     20  H4  19H d   1      -2.058 -48.203   5.495  0.00  0.00     0.085 H 
BRANCH   8  21
ATOM     21  CAQ 19H d   1       2.943 -48.940   6.773  0.00  0.00     0.227 C 
ATOM     22  OAC 19H d   1       3.760 -49.533   7.586  0.00  0.00    -0.643 OA
ATOM     23  OAD 19H d   1       3.533 -47.932   6.222  0.00  0.00    -0.643 OA
ENDBRANCH   8  21
ENDBRANCH   4   7
ENDBRANCH   1   4
BRANCH   1  24
ATOM     24  CAM 19H d   1      -0.819 -45.816   7.415  0.00  0.00     0.026 C 
ATOM     25  H9  19H d   1      -0.809 -44.905   8.031  0.00  0.00     0.075 H 
ATOM     26  H10 19H d   1      -1.157 -46.667   8.025  0.00  0.00     0.075 H 
BRANCH  24  27
ATOM     27  OAP 19H d   1      -1.758 -45.627   6.310  0.00  0.00    -0.351 OA
BRANCH  27  28
ATOM     28  CAU 19H d   1      -2.999 -45.360   6.686  0.00  0.00     0.069 A 
ATOM     29  CAI 19H d   1      -3.545 -45.850   7.867  0.00  0.00    -0.043 A 
ATOM     30  CAR 19H d   1      -4.901 -45.594   8.235  0.00  0.00    -0.037 A 
ATOM     31  H11 19H d   1      -2.924 -46.444   8.528  0.00  0.00     0.088 H 
ATOM     32  CAV 19H d   1      -5.666 -44.827   7.311  0.00  0.00     0.046 A 
ATOM     33 CL1  19H d   1      -7.288 -44.433   7.653  0.00  0.00    -0.083 Cl
ATOM     34  CAS 19H d   1      -5.163 -44.331   6.066  0.00  0.00    -0.037 A 
ATOM     35  CAJ 19H d   1      -3.809 -44.664   5.780  0.00  0.00    -0.043 A 
ATOM     36  H18 19H d   1      -3.389 -44.368   4.825  0.00  0.00     0.088 H 
BRANCH  30  37
ATOM     37  CAA 19H d   1      -5.349 -46.055   9.382  0.00  0.00    -0.050 C 
ATOM     38  H12 19H d   1      -4.548 -46.611   9.892  0.00  0.00     0.033 H 
ATOM     39  H13 19H d   1      -6.202 -46.725   9.200  0.00  0.00     0.033 H 
ATOM     40  H14 19H d   1      -5.671 -45.215  10.014  0.00  0.00     0.033 H 
ENDBRANCH  30  37
BRANCH  34  41
ATOM     41  CAB 19H d   1      -5.896 -43.632   5.232  0.00  0.00    -0.050 C 
ATOM     42  H15 19H d   1      -5.295 -43.365   4.351  0.00  0.00     0.033 H 
ATOM     43  H16 19H d   1      -6.244 -42.715   5.730  0.00  0.00     0.033 H 
ATOM     44  H17 19H d   1      -6.764 -44.230   4.916  0.00  0.00     0.033 H 
ENDBRANCH  34  41
ENDBRANCH  27  28
ENDBRANCH  24  27
ENDBRANCH   1  24
TORSDOF 8
