REMARK  8 active torsions:
REMARK  status: ('A' for Active; 'I' for Inactive)
REMARK    1  A    between atoms: C1_1  and  O14_10 
REMARK    2  A    between atoms: C11_7  and  C15_11 
REMARK    3  A    between atoms: O14_10  and  C27_18 
REMARK    4  A    between atoms: C15_11  and  C18_12 
REMARK    5  A    between atoms: C22_15  and  N31_19 
REMARK    6  A    between atoms: N31_19  and  C33_20 
REMARK    7  A    between atoms: C33_20  and  C36_21 
REMARK    8  A    between atoms: C41_24  and  C46_27 
ROOT
ATOM      1  C18 64M d   1      35.253  13.809  73.877  0.00  0.00    -0.036 A 
ATOM      2  C19 64M d   1      35.966  13.570  75.014  0.00  0.00     0.011 A 
ATOM      3  N21 64M d   1      37.270  13.300  75.043  0.00  0.00    -0.243 NA
ATOM      4  C22 64M d   1      37.923  13.244  73.886  0.00  0.00     0.123 A 
ATOM      5  C23 64M d   1      37.286  13.469  72.697  0.00  0.00    -0.038 A 
ATOM      6  C25 64M d   1      35.944  13.755  72.696  0.00  0.00    -0.072 A 
ATOM      7  H7  64M d   1      35.436  13.602  75.959  0.00  0.00     0.115 H 
ATOM      8  H8  64M d   1      37.836  13.422  71.764  0.00  0.00     0.089 H 
ATOM      9  H9  64M d   1      35.430  13.938  71.759  0.00  0.00     0.084 H 
ENDROOT
BRANCH   1  10
ATOM     10  C15 64M d   1      33.800  14.099  73.902  0.00  0.00    -0.013 C 
ATOM     11  H5  64M d   1      33.440  14.201  74.936  0.00  0.00     0.047 H 
ATOM     12  H6  64M d   1      33.575  15.019  73.343  0.00  0.00     0.047 H 
BRANCH  10  13
ATOM     13  C11 64M d   1      33.187  12.920  73.244  0.00  0.00    -0.024 A 
ATOM     14  C9  64M d   1      33.799  11.778  72.807  0.00  0.00    -0.014 A 
ATOM     15  N7  64M d   1      32.868  10.967  72.258  0.00  0.00    -0.350 N 
ATOM     16  H4  64M d   1      34.862  11.558  72.888  0.00  0.00     0.112 H 
ATOM     17  C13 64M d   1      31.659  11.562  72.325  0.00  0.00     0.138 A 
ATOM     18  H3  64M d   1      33.053  10.039  71.852  0.00  0.00     0.166 HD
ATOM     19  N4  64M d   1      30.524  11.036  71.889  0.00  0.00    -0.240 NA
ATOM     20  C12 64M d   1      31.823  12.769  72.931  0.00  0.00     0.021 A 
ATOM     21  C2  64M d   1      29.469  11.833  72.091  0.00  0.00     0.036 A 
ATOM     22  C1  64M d   1      29.506  13.069  72.681  0.00  0.00     0.086 A 
ATOM     23  H1  64M d   1      28.503  11.470  71.760  0.00  0.00     0.119 H 
ATOM     24  C5  64M d   1      30.700  13.557  73.112  0.00  0.00    -0.035 A 
ATOM     25  H2  64M d   1      30.770  14.531  73.582  0.00  0.00     0.089 H 
BRANCH  22  26
ATOM     26  O14 64M d   1      28.519  13.933  72.915  0.00  0.00    -0.354 OA
BRANCH  26  27
ATOM     27  C27 64M d   1      29.028  15.073  73.553  0.00  0.00     0.010 C 
ATOM     28  H10 64M d   1      28.209  15.783  73.744  0.00  0.00     0.066 H 
ATOM     29  H11 64M d   1      29.782  15.548  72.908  0.00  0.00     0.066 H 
ATOM     30  H12 64M d   1      29.492  14.783  74.507  0.00  0.00     0.066 H 
ENDBRANCH  26  27
ENDBRANCH  22  26
ENDBRANCH  10  13
ENDBRANCH   1  10
BRANCH   4  31
ATOM     31  N31 64M d   1      39.259  12.967  73.857  0.00  0.00    -0.371 N 
ATOM     32  H13 64M d   1      39.649  12.316  73.160  0.00  0.00     0.161 HD
BRANCH  31  33
ATOM     33  C33 64M d   1      40.102  13.604  74.819  0.00  0.00     0.018 C 
ATOM     34  H14 64M d   1      39.537  14.370  75.371  0.00  0.00     0.071 H 
ATOM     35  H15 64M d   1      40.962  14.072  74.319  0.00  0.00     0.071 H 
BRANCH  33  36
ATOM     36  C36 64M d   1      40.564  12.543  75.745  0.00  0.00    -0.041 A 
ATOM     37  C37 64M d   1      39.832  11.381  75.875  0.00  0.00    -0.074 A 
ATOM     38  C39 64M d   1      40.265  10.387  76.740  0.00  0.00    -0.068 A 
ATOM     39  H16 64M d   1      38.921  11.245  75.303  0.00  0.00     0.084 H 
ATOM     40  C41 64M d   1      41.423  10.551  77.479  0.00  0.00     0.047 A 
ATOM     41  H17 64M d   1      39.691   9.473  76.838  0.00  0.00     0.084 H 
ATOM     42  C42 64M d   1      42.148  11.718  77.340  0.00  0.00    -0.068 A 
ATOM     43  C44 64M d   1      41.723  12.714  76.478  0.00  0.00    -0.074 A 
ATOM     44  H18 64M d   1      43.059  11.855  77.912  0.00  0.00     0.084 H 
ATOM     45  H19 64M d   1      42.299  13.627  76.378  0.00  0.00     0.084 H 
BRANCH  40  46
ATOM     46  C46 64M d   1      41.896   9.508  78.405  0.00  0.00     0.417 C 
ATOM     47  F47 64M d   1      42.936   9.873  79.138  0.00  0.00    -0.166 F 
ATOM     48  F48 64M d   1      41.012   9.118  79.301  0.00  0.00    -0.166 F 
ATOM     49  F49 64M d   1      42.258   8.382  77.812  0.00  0.00    -0.166 F 
ENDBRANCH  40  46
ENDBRANCH  33  36
ENDBRANCH  31  33
ENDBRANCH   4  31
TORSDOF 8
