REMARK  4 active torsions:
REMARK  status: ('A' for Active; 'I' for Inactive)
REMARK    1  A    between atoms: C1'_3  and  N_5 
REMARK    2  A    between atoms: N_5  and  C1_6 
REMARK    3  A    between atoms: C1_6  and  C2_7 
REMARK    4  A    between atoms: C2_7  and  S_8 
ROOT
ATOM      1  C3' NHE d   1       1.400 -51.929  52.418  0.00  0.00    -0.063 C 
ATOM      2  C2' NHE d   1       0.518 -52.275  53.623  0.00  0.00    -0.038 C 
ATOM      3  C1' NHE d   1       0.262 -53.774  53.726  0.00  0.00     0.102 C 
ATOM      4  C6' NHE d   1       0.567 -54.470  52.400  0.00  0.00    -0.038 C 
ATOM      5  C5' NHE d   1       2.042 -54.326  52.018  0.00  0.00    -0.063 C 
ATOM      6  C4' NHE d   1       2.553 -52.909  52.253  0.00  0.00    -0.065 C 
ATOM      7  H1  NHE d   1       1.811 -50.918  52.557  0.00  0.00     0.033 H 
ATOM      8  H2  NHE d   1       0.782 -51.952  51.508  0.00  0.00     0.033 H 
ATOM      9  H3  NHE d   1      -0.446 -51.756  53.519  0.00  0.00     0.036 H 
ATOM     10  H4  NHE d   1       1.020 -51.936  54.541  0.00  0.00     0.036 H 
ATOM     11  H5  NHE d   1       1.090 -54.135  54.354  0.00  0.00     0.084 H 
ATOM     12  H6  NHE d   1      -0.052 -54.021  51.610  0.00  0.00     0.036 H 
ATOM     13  H7  NHE d   1       0.325 -55.539  52.493  0.00  0.00     0.036 H 
ATOM     14  H14 NHE d   1       2.160 -54.575  50.953  0.00  0.00     0.033 H 
ATOM     15  H15 NHE d   1       2.637 -55.024  52.626  0.00  0.00     0.033 H 
ATOM     16  H16 NHE d   1       3.168 -52.896  53.165  0.00  0.00     0.033 H 
ATOM     17  H17 NHE d   1       3.166 -52.601  51.393  0.00  0.00     0.033 H 
ENDROOT
BRANCH   3  18
ATOM     18  N   NHE d   1      -0.901 -54.094  54.582  0.00  0.00    -0.070 N 
ATOM     19  H8  NHE d   1      -1.736 -53.849  54.073  0.00  0.00     0.277 HD
ATOM     20  H9  NHE d   1      -0.837 -53.529  55.414  0.00  0.00     0.277 HD
BRANCH  18  21
ATOM     21  C1  NHE d   1      -1.023 -55.498  54.999  0.00  0.00     0.097 C 
ATOM     22  H10 NHE d   1      -0.098 -55.824  55.496  0.00  0.00     0.077 H 
ATOM     23  H11 NHE d   1      -1.213 -56.135  54.123  0.00  0.00     0.077 H 
BRANCH  21  24
ATOM     24  C2  NHE d   1      -2.202 -55.585  55.976  0.00  0.00     0.068 C 
ATOM     25  H12 NHE d   1      -2.327 -54.615  56.480  0.00  0.00     0.062 H 
ATOM     26  H13 NHE d   1      -1.995 -56.363  56.725  0.00  0.00     0.062 H 
BRANCH  24  27
ATOM     27  S   NHE d   1      -3.609 -55.967  55.160  0.00  0.00     0.103 S 
ATOM     28  O1  NHE d   1      -4.652 -56.108  56.156  0.00  0.00    -0.595 OA
ATOM     29  O2  NHE d   1      -3.860 -54.878  54.237  0.00  0.00    -0.595 OA
ATOM     30  O3  NHE d   1      -3.320 -57.229  54.479  0.00  0.00    -0.595 OA
ENDBRANCH  24  27
ENDBRANCH  21  24
ENDBRANCH  18  21
ENDBRANCH   3  18
TORSDOF 4
