REMARK  8 active torsions:
REMARK  status: ('A' for Active; 'I' for Inactive)
REMARK    1  A    between atoms: C4_2  and  C3_3 
REMARK       I    between atoms: C4_2  and  N5_8 
REMARK    2  A    between atoms: C3_3  and  C2_4 
REMARK    3  A    between atoms: C3_3  and  N7_7 
REMARK    4  A    between atoms: C2_4  and  C1_5 
REMARK    5  A    between atoms: C2_4  and  O6_6 
REMARK    6  A    between atoms: N5_8  and  S9_9 
REMARK    7  A    between atoms: S9_9  and  C12_12 
REMARK    8  A    between atoms: C16_16  and  C18_18 
ROOT
ATOM      1  C12 1B2 d   1      31.930 -40.398  30.546  0.00  0.00     0.080 A 
ATOM      2  C13 1B2 d   1      30.803 -40.229  29.734  0.00  0.00    -0.060 A 
ATOM      3  C14 1B2 d   1      30.877 -40.267  28.339  0.00  0.00    -0.081 A 
ATOM      4  C15 1B2 d   1      32.148 -40.398  27.739  0.00  0.00    -0.072 A 
ATOM      5  C16 1B2 d   1      33.288 -40.598  28.512  0.00  0.00    -0.024 A 
ATOM      6  C17 1B2 d   1      33.172 -40.600  29.924  0.00  0.00    -0.050 A 
ATOM      7  H11 1B2 d   1      29.840 -40.063  30.203  0.00  0.00     0.085 H 
ATOM      8  H12 1B2 d   1      29.981 -40.198  27.733  0.00  0.00     0.083 H 
ATOM      9  H13 1B2 d   1      32.237 -40.342  26.660  0.00  0.00     0.084 H 
ATOM     10  H14 1B2 d   1      34.055 -40.760  30.532  0.00  0.00     0.087 H 
ENDROOT
BRANCH   1  11
ATOM     11  S9  1B2 d   1      31.783 -40.426  32.200  0.00  0.00     0.265 S 
ATOM     12  O10 1B2 d   1      31.316 -41.729  32.513  0.00  0.00    -0.200 OA
ATOM     13  O11 1B2 d   1      33.104 -40.311  32.723  0.00  0.00    -0.200 OA
BRANCH  11  14
ATOM     14  N5  1B2 d   1      30.809 -39.305  32.768  0.00  0.00    -0.248 N 
ATOM     15  C4  1B2 d   1      31.010 -37.989  32.623  0.00  0.00     0.264 C 
ATOM     16  O8  1B2 d   1      31.934 -37.481  31.977  0.00  0.00    -0.270 OA
ATOM     17  H10 1B2 d   1      29.994 -39.602  33.266  0.00  0.00     0.182 HD
BRANCH  15  18
ATOM     18  C3  1B2 d   1      29.925 -37.126  33.246  0.00  0.00     0.200 C 
ATOM     19  H1  1B2 d   1      29.363 -37.726  33.977  0.00  0.00     0.103 H 
BRANCH  18  20
ATOM     20  C2  1B2 d   1      28.986 -36.660  32.125  0.00  0.00     0.068 C 
ATOM     21  H2  1B2 d   1      29.607 -36.329  31.280  0.00  0.00     0.086 H 
BRANCH  20  22
ATOM     22  C1  1B2 d   1      28.087 -37.784  31.629  0.00  0.00    -0.050 C 
ATOM     23  H3  1B2 d   1      27.434 -37.405  30.829  0.00  0.00     0.031 H 
ATOM     24  H4  1B2 d   1      27.470 -38.155  32.461  0.00  0.00     0.031 H 
ATOM     25  H5  1B2 d   1      28.707 -38.604  31.238  0.00  0.00     0.031 H 
ENDBRANCH  20  22
BRANCH  20  26
ATOM     26  O6  1B2 d   1      28.203 -35.544  32.568  0.00  0.00    -0.393 OA
ATOM     27  H6  1B2 d   1      27.677 -35.221  31.846  0.00  0.00     0.210 HD
ENDBRANCH  20  26
ENDBRANCH  18  20
BRANCH  18  28
ATOM     28  N7  1B2 d   1      30.475 -35.946  33.919  0.00  0.00    -0.064 N 
ATOM     29  H7  1B2 d   1      31.094 -36.239  34.658  0.00  0.00     0.275 HD
ATOM     30  H8  1B2 d   1      29.722 -35.400  34.308  0.00  0.00     0.275 HD
ATOM     31  H9  1B2 d   1      30.987 -35.388  33.254  0.00  0.00     0.275 HD
ENDBRANCH  18  28
ENDBRANCH  15  18
ENDBRANCH  11  14
ENDBRANCH   1  11
BRANCH   5  32
ATOM     32  C18 1B2 d   1      34.602 -40.815  27.827  0.00  0.00    -0.025 A 
ATOM     33  C19 1B2 d   1      34.608 -41.425  26.555  0.00  0.00    -0.059 A 
ATOM     34  C20 1B2 d   1      35.832 -41.635  25.885  0.00  0.00     0.012 A 
ATOM     35  H15 1B2 d   1      33.676 -41.731  26.094  0.00  0.00     0.086 H 
ATOM     36  C26 1B2 d   1      36.064 -42.240  24.583  0.00  0.00     0.034 A 
ATOM     37  C21 1B2 d   1      37.076 -41.249  26.538  0.00  0.00     0.061 A 
ATOM     38  N25 1B2 d   1      37.414 -42.166  24.486  0.00  0.00    -0.186 NA
ATOM     39  H16 1B2 d   1      35.344 -42.645  23.874  0.00  0.00     0.118 H 
ATOM     40  N24 1B2 d   1      38.020 -41.571  25.631  0.00  0.00    -0.278 N 
ATOM     41  H17 1B2 d   1      39.031 -41.411  25.748  0.00  0.00     0.189 HD
ATOM     42  C22 1B2 d   1      37.057 -40.637  27.807  0.00  0.00    -0.054 A 
ATOM     43  C23 1B2 d   1      35.814 -40.452  28.427  0.00  0.00    -0.070 A 
ATOM     44  H18 1B2 d   1      37.975 -40.319  28.288  0.00  0.00     0.087 H 
ATOM     45  H19 1B2 d   1      35.790 -40.008  29.416  0.00  0.00     0.084 H 
ENDBRANCH   5  32
TORSDOF 8
