REMARK  8 active torsions:
REMARK  status: ('A' for Active; 'I' for Inactive)
REMARK    1  A    between atoms: C4_2  and  C3_3 
REMARK       I    between atoms: C4_2  and  N5_8 
REMARK    2  A    between atoms: C3_3  and  C2_4 
REMARK    3  A    between atoms: C3_3  and  N7_7 
REMARK    4  A    between atoms: C2_4  and  C1_5 
REMARK    5  A    between atoms: C2_4  and  O6_6 
REMARK    6  A    between atoms: N5_8  and  S9_9 
REMARK    7  A    between atoms: S9_9  and  C12_12 
REMARK    8  A    between atoms: C16_16  and  C18_18 
ROOT
ATOM      1  C12 1B2 d   1       4.709 -25.746 -14.956  0.00  0.00     0.080 A 
ATOM      2  C13 1B2 d   1       5.568 -26.089 -16.013  0.00  0.00    -0.060 A 
ATOM      3  C14 1B2 d   1       5.473 -25.386 -17.218  0.00  0.00    -0.081 A 
ATOM      4  C15 1B2 d   1       4.528 -24.354 -17.362  0.00  0.00    -0.072 A 
ATOM      5  C16 1B2 d   1       3.674 -24.003 -16.308  0.00  0.00    -0.024 A 
ATOM      6  C17 1B2 d   1       3.771 -24.709 -15.109  0.00  0.00    -0.050 A 
ATOM      7  H11 1B2 d   1       6.293 -26.886 -15.896  0.00  0.00     0.085 H 
ATOM      8  H12 1B2 d   1       6.129 -25.637 -18.043  0.00  0.00     0.083 H 
ATOM      9  H13 1B2 d   1       4.459 -23.822 -18.304  0.00  0.00     0.084 H 
ATOM     10  H14 1B2 d   1       3.115 -24.455 -14.284  0.00  0.00     0.087 H 
ENDROOT
BRANCH   1  11
ATOM     11  S9  1B2 d   1       4.784 -26.534 -13.569  0.00  0.00     0.265 S 
ATOM     12  O10 1B2 d   1       3.812 -25.910 -12.709  0.00  0.00    -0.200 OA
ATOM     13  O11 1B2 d   1       4.360 -27.886 -13.781  0.00  0.00    -0.200 OA
BRANCH  11  14
ATOM     14  N5  1B2 d   1       6.294 -26.461 -12.948  0.00  0.00    -0.248 N 
ATOM     15  C4  1B2 d   1       7.091 -27.491 -12.612  0.00  0.00     0.264 C 
ATOM     16  O8  1B2 d   1       7.052 -28.589 -13.132  0.00  0.00    -0.270 OA
ATOM     17  H10 1B2 d   1       6.668 -25.545 -12.801  0.00  0.00     0.182 HD
BRANCH  15  18
ATOM     18  C3  1B2 d   1       8.062 -27.253 -11.490  0.00  0.00     0.200 C 
ATOM     19  H1  1B2 d   1       7.814 -26.298 -11.004  0.00  0.00     0.103 H 
BRANCH  18  20
ATOM     20  C2  1B2 d   1       9.531 -27.273 -11.874  0.00  0.00     0.068 C 
ATOM     21  H2  1B2 d   1       9.733 -28.157 -12.497  0.00  0.00     0.086 H 
BRANCH  20  22
ATOM     22  C1  1B2 d   1       9.942 -26.044 -12.662  0.00  0.00    -0.050 C 
ATOM     23  H3  1B2 d   1      11.011 -26.110 -12.913  0.00  0.00     0.031 H 
ATOM     24  H4  1B2 d   1       9.762 -25.143 -12.057  0.00  0.00     0.031 H 
ATOM     25  H5  1B2 d   1       9.351 -25.987 -13.588  0.00  0.00     0.031 H 
ENDBRANCH  20  22
BRANCH  20  26
ATOM     26  O6  1B2 d   1      10.250 -27.396 -10.615  0.00  0.00    -0.393 OA
ATOM     27  H6  1B2 d   1       9.959 -28.178 -10.160  0.00  0.00     0.210 HD
ENDBRANCH  20  26
ENDBRANCH  18  20
BRANCH  18  28
ATOM     28  N7  1B2 d   1       7.971 -28.360 -10.560  0.00  0.00    -0.064 N 
ATOM     29  H7  1B2 d   1       7.022 -28.446 -10.231  0.00  0.00     0.275 HD
ATOM     30  H8  1B2 d   1       8.584 -28.193  -9.777  0.00  0.00     0.275 HD
ATOM     31  H9  1B2 d   1       8.244 -29.212 -11.024  0.00  0.00     0.275 HD
ENDBRANCH  18  28
ENDBRANCH  15  18
ENDBRANCH  11  14
ENDBRANCH   1  11
BRANCH   5  32
ATOM     32  C18 1B2 d   1       2.666 -22.900 -16.473  0.00  0.00    -0.025 A 
ATOM     33  C19 1B2 d   1       2.973 -21.779 -17.269  0.00  0.00    -0.059 A 
ATOM     34  C20 1B2 d   1       2.026 -20.761 -17.437  0.00  0.00     0.012 A 
ATOM     35  H15 1B2 d   1       3.941 -21.704 -17.751  0.00  0.00     0.086 H 
ATOM     36  C26 1B2 d   1       2.116 -19.538 -18.181  0.00  0.00     0.034 A 
ATOM     37  C21 1B2 d   1       0.715 -20.874 -16.771  0.00  0.00     0.061 A 
ATOM     38  N25 1B2 d   1       0.905 -18.946 -17.975  0.00  0.00    -0.186 NA
ATOM     39  H16 1B2 d   1       2.954 -19.169 -18.771  0.00  0.00     0.118 H 
ATOM     40  N24 1B2 d   1       0.075 -19.745 -17.136  0.00  0.00    -0.278 N 
ATOM     41  H17 1B2 d   1      -0.882 -19.494 -16.848  0.00  0.00     0.189 HD
ATOM     42  C22 1B2 d   1       0.427 -21.995 -15.984  0.00  0.00    -0.054 A 
ATOM     43  C23 1B2 d   1       1.402 -22.996 -15.849  0.00  0.00    -0.070 A 
ATOM     44  H18 1B2 d   1      -0.532 -22.089 -15.488  0.00  0.00     0.087 H 
ATOM     45  H19 1B2 d   1       1.178 -23.870 -15.247  0.00  0.00     0.084 H 
ENDBRANCH   5  32
TORSDOF 8
