REMARK  13 active torsions:
REMARK  status: ('A' for Active; 'I' for Inactive)
REMARK    1  A    between atoms: N_1  and  CA_2 
REMARK    2  A    between atoms: CA_2  and  C_3 
REMARK    3  A    between atoms: CA_2  and  CB_5 
REMARK       I    between atoms: C_3  and  N_12 
REMARK    4  A    between atoms: CB_5  and  CG_6 
REMARK    5  A    between atoms: CG_6  and  CD_7 
REMARK    6  A    between atoms: CD_7  and  NE_8 
REMARK       I    between atoms: NE_8  and  CZ_9 
REMARK       I    between atoms: CZ_9  and  NH1_10 
REMARK    7  A    between atoms: N_12  and  CA_13 
REMARK    8  A    between atoms: CA_13  and  C_14 
REMARK       I    between atoms: C_14  and  N_16 
REMARK    9  A    between atoms: N_16  and  CA_17 
REMARK   10  A    between atoms: CA_17  and  C_18 
REMARK   11  A    between atoms: CA_17  and  CB_20 
REMARK   12  A    between atoms: CB_20  and  OG1_21 
REMARK   13  A    between atoms: CB_20  and  CG2_22 
ROOT
ATOM      1  CA  ARG d   1      14.187 -17.160  14.927  0.00  0.00     0.176 C 
ATOM      2  H4  ARG d   1      14.721 -18.084  14.663  0.00  0.00     0.099 H 
ENDROOT
BRANCH   1   3
ATOM      3  N   ARG d   1      12.953 -17.097  14.146  0.00  0.00    -0.067 N 
ATOM      4  H1  ARG d   1      13.178 -17.068  13.164  0.00  0.00     0.275 HD
ATOM      5  H2  ARG d   1      12.438 -16.268  14.398  0.00  0.00     0.275 HD
ATOM      6  H3  ARG d   1      12.392 -17.912  14.338  0.00  0.00     0.275 HD
ENDBRANCH   1   3
BRANCH   1   7
ATOM      7  C   ARG d   1      13.856 -17.205  16.419  0.00  0.00     0.248 C 
ATOM      8  O   ARG d   1      12.919 -16.553  16.869  0.00  0.00    -0.271 OA
ATOM      9  N   GLY d   1      14.631 -17.972  17.180  0.00  0.00    -0.351 N 
ATOM     10  H16 GLY d   1      15.514 -18.278  16.825  0.00  0.00     0.163 HD
BRANCH   9  11
ATOM     11  CA  GLY d   1      14.226 -18.377  18.516  0.00  0.00     0.069 C 
ATOM     12  H17 GLY d   1      14.690 -19.357  18.701  0.00  0.00     0.078 H 
ATOM     13  H18 GLY d   1      13.132 -18.488  18.492  0.00  0.00     0.078 H 
BRANCH  11  14
ATOM     14  C   GLY d   1      14.548 -17.510  19.724  0.00  0.00     0.236 C 
ATOM     15  O   GLY d   1      13.871 -16.516  19.986  0.00  0.00    -0.272 OA
ATOM     16  N   THR d   1      15.597 -17.903  20.445  0.00  0.00    -0.343 N 
ATOM     17  H19 THR d   1      16.278 -18.483  19.998  0.00  0.00     0.163 HD
BRANCH  16  18
ATOM     18  CA  THR d   1      15.822 -17.544  21.850  0.00  0.00     0.120 C 
ATOM     19  H20 THR d   1      16.906 -17.525  22.034  0.00  0.00     0.093 H 
BRANCH  18  20
ATOM     20  C   THR d   1      15.177 -18.627  22.710  0.00  0.00     0.199 C 
ATOM     21  O   THR d   1      15.538 -18.857  23.865  0.00  0.00    -0.646 OA
ATOM     22  OXT THR d   1      14.265 -19.311  22.250  0.00  0.00    -0.646 OA
ENDBRANCH  18  20
BRANCH  18  23
ATOM     23  CB  THR d   1      15.240 -16.172  22.258  0.00  0.00     0.061 C 
ATOM     24  H21 THR d   1      14.172 -16.141  21.995  0.00  0.00     0.086 H 
BRANCH  23  25
ATOM     25  OG1 THR d   1      15.929 -15.123  21.569  0.00  0.00    -0.393 OA
ATOM     26  H22 THR d   1      15.826 -15.240  20.632  0.00  0.00     0.210 HD
ENDBRANCH  23  25
BRANCH  23  27
ATOM     27  CG2 THR d   1      15.395 -15.961  23.754  0.00  0.00    -0.050 C 
ATOM     28  H23 THR d   1      14.977 -14.982  24.031  0.00  0.00     0.031 H 
ATOM     29  H24 THR d   1      16.462 -15.993  24.020  0.00  0.00     0.031 H 
ATOM     30  H25 THR d   1      14.858 -16.755  24.294  0.00  0.00     0.031 H 
ENDBRANCH  23  27
ENDBRANCH  18  23
ENDBRANCH  16  18
ENDBRANCH  11  14
ENDBRANCH   9  11
ENDBRANCH   1   7
BRANCH   1  31
ATOM     31  CB  ARG d   1      15.090 -15.973  14.592  0.00  0.00    -0.029 C 
ATOM     32  H5  ARG d   1      14.886 -15.170  15.315  0.00  0.00     0.036 H 
ATOM     33  H6  ARG d   1      14.841 -15.626  13.578  0.00  0.00     0.036 H 
BRANCH  31  34
ATOM     34  CG  ARG d   1      16.572 -16.286  14.636  0.00  0.00    -0.047 C 
ATOM     35  H7  ARG d   1      16.767 -17.186  14.035  0.00  0.00     0.035 H 
ATOM     36  H8  ARG d   1      16.870 -16.470  15.679  0.00  0.00     0.035 H 
BRANCH  34  37
ATOM     37  CD  ARG d   1      17.390 -15.131  14.082  0.00  0.00     0.009 C 
ATOM     38  H9  ARG d   1      16.924 -14.183  14.389  0.00  0.00     0.064 H 
ATOM     39  H10 ARG d   1      17.401 -15.195  12.984  0.00  0.00     0.064 H 
BRANCH  37  40
ATOM     40  NE  ARG d   1      18.765 -15.163  14.572  0.00  0.00    -0.227 N 
ATOM     41  CZ  ARG d   1      19.783 -15.716  13.920  0.00  0.00     0.665 C 
ATOM     42  NH1 ARG d   1      19.592 -16.284  12.736  0.00  0.00    -0.235 N 
ATOM     43  NH2 ARG d   1      20.997 -15.696  14.451  0.00  0.00    -0.235 N 
ATOM     44  H12 ARG d   1      20.385 -16.711  12.236  0.00  0.00     0.174 HD
ATOM     45  H13 ARG d   1      18.651 -16.298  12.317  0.00  0.00     0.174 HD
ATOM     46  H14 ARG d   1      21.150 -15.256  15.370  0.00  0.00     0.174 HD
ATOM     47  H15 ARG d   1      21.788 -16.120  13.945  0.00  0.00     0.174 HD
ATOM     48  H11 ARG d   1      18.959 -14.727  15.485  0.00  0.00     0.177 HD
ENDBRANCH  37  40
ENDBRANCH  34  37
ENDBRANCH  31  34
ENDBRANCH   1  31
TORSDOF 13
