REMARK  8 active torsions:
REMARK  status: ('A' for Active; 'I' for Inactive)
REMARK    1  A    between atoms: CBE_6  and  CAR_7 
REMARK    2  A    between atoms: CAR_7  and  CAO_8 
REMARK    3  A    between atoms: CAO_8  and  CAX_9 
REMARK       I    between atoms: CAX_9  and  NAS_11 
REMARK    4  A    between atoms: NAS_11  and  CAY_12 
REMARK    5  A    between atoms: CBA_15  and  CBB_16 
REMARK    6  A    between atoms: CAZ_23  and  NAT_24 
REMARK    7  A    between atoms: NAT_24  and  SBF_25 
REMARK    8  A    between atoms: SBF_25  and  CBC_28 
ROOT
ATOM      1  CAY 1A9 d   1      -6.164  -8.061  -0.210  0.00  0.00     0.037 A 
ATOM      2  CAI 1A9 d   1      -6.576  -8.898   0.806  0.00  0.00    -0.031 A 
ATOM      3  CAJ 1A9 d   1      -7.051  -7.153  -0.775  0.00  0.00    -0.045 A 
ATOM      4  CBA 1A9 d   1      -8.358  -7.124  -0.310  0.00  0.00    -0.004 A 
ATOM      5  CAK 1A9 d   1      -8.772  -7.958   0.717  0.00  0.00    -0.044 A 
ATOM      6  CAZ 1A9 d   1      -7.875  -8.855   1.274  0.00  0.00     0.045 A 
ATOM      7  H17 1A9 d   1      -5.872  -9.598   1.242  0.00  0.00     0.090 H 
ATOM      8  H18 1A9 d   1      -6.729  -6.481  -1.562  0.00  0.00     0.088 H 
ATOM      9  H21 1A9 d   1      -9.791  -7.909   1.082  0.00  0.00     0.088 H 
ENDROOT
BRANCH   1  10
ATOM     10  NAS 1A9 d   1      -4.795  -8.206  -0.590  0.00  0.00    -0.327 N 
ATOM     11  CAX 1A9 d   1      -4.109  -7.518  -1.628  0.00  0.00     0.222 C 
ATOM     12  OAA 1A9 d   1      -4.669  -6.681  -2.327  0.00  0.00    -0.273 OA
ATOM     13  H16 1A9 d   1      -4.258  -8.867  -0.066  0.00  0.00     0.169 HD
BRANCH  11  14
ATOM     14  CAO 1A9 d   1      -2.671  -7.880  -1.808  0.00  0.00     0.010 C 
ATOM     15  H14 1A9 d   1      -2.148  -7.738  -0.851  0.00  0.00     0.047 H 
ATOM     16  H15 1A9 d   1      -2.607  -8.937  -2.107  0.00  0.00     0.047 H 
BRANCH  14  17
ATOM     17  CAR 1A9 d   1      -2.005  -7.049  -2.844  0.00  0.00    -0.054 C 
ATOM     18  H12 1A9 d   1      -2.430  -7.299  -3.827  0.00  0.00     0.034 H 
ATOM     19  H13 1A9 d   1      -2.193  -5.988  -2.622  0.00  0.00     0.034 H 
BRANCH  17  20
ATOM     20  CBE 1A9 d   1      -0.519  -7.281  -2.885  0.00  0.00    -0.054 C 
ATOM     21  CAP 1A9 d   1       0.210  -6.426  -1.890  0.00  0.00    -0.062 C 
ATOM     22  CAM 1A9 d   1       1.695  -6.497  -2.035  0.00  0.00    -0.065 C 
ATOM     23  H1  1A9 d   1      -0.106  -5.381  -2.028  0.00  0.00     0.033 H 
ATOM     24  H2  1A9 d   1      -0.059  -6.760  -0.877  0.00  0.00     0.033 H 
ATOM     25  CAL 1A9 d   1       2.202  -7.882  -2.309  0.00  0.00    -0.065 C 
ATOM     26  H3  1A9 d   1       2.154  -6.136  -1.103  0.00  0.00     0.033 H 
ATOM     27  H4  1A9 d   1       1.996  -5.845  -2.868  0.00  0.00     0.033 H 
ATOM     28  CAN 1A9 d   1       1.209  -9.004  -2.215  0.00  0.00    -0.065 C 
ATOM     29  H5  1A9 d   1       3.006  -8.089  -1.587  0.00  0.00     0.033 H 
ATOM     30  H6  1A9 d   1       2.614  -7.888  -3.329  0.00  0.00     0.033 H 
ATOM     31  CAQ 1A9 d   1      -0.191  -8.726  -2.677  0.00  0.00    -0.062 C 
ATOM     32  H7  1A9 d   1       1.154  -9.309  -1.159  0.00  0.00     0.033 H 
ATOM     33  H8  1A9 d   1       1.596  -9.839  -2.818  0.00  0.00     0.033 H 
ATOM     34  H9  1A9 d   1      -0.884  -9.127  -1.923  0.00  0.00     0.033 H 
ATOM     35  H10 1A9 d   1      -0.345  -9.250  -3.632  0.00  0.00     0.033 H 
ATOM     36  H11 1A9 d   1      -0.168  -6.998  -3.888  0.00  0.00     0.040 H 
ENDBRANCH  17  20
ENDBRANCH  14  17
ENDBRANCH  11  14
ENDBRANCH   1  10
BRANCH   6  37
ATOM     37  NAT 1A9 d   1      -8.237  -9.719   2.350  0.00  0.00    -0.280 N 
ATOM     38  H22 1A9 d   1      -8.921 -10.438   2.227  0.00  0.00     0.179 HD
BRANCH  37  39
ATOM     39  SBF 1A9 d   1      -7.490  -9.493   3.803  0.00  0.00     0.269 S 
ATOM     40  OAC 1A9 d   1      -8.143 -10.226   4.872  0.00  0.00    -0.200 OA
ATOM     41  OAD 1A9 d   1      -6.099  -9.956   3.651  0.00  0.00    -0.200 OA
BRANCH  39  42
ATOM     42  CBC 1A9 d   1      -7.429  -7.796   4.297  0.00  0.00     0.120 A 
ATOM     43  SAV 1A9 d   1      -6.595  -6.660   3.474  0.00  0.00    -0.088 SA
ATOM     44  CAF 1A9 d   1      -6.895  -5.364   4.421  0.00  0.00    -0.044 A 
ATOM     45  CAE 1A9 d   1      -7.719  -5.747   5.515  0.00  0.00    -0.075 A 
ATOM     46  H23 1A9 d   1      -6.520  -4.357   4.242  0.00  0.00     0.095 H 
ATOM     47  CAG 1A9 d   1      -8.045  -7.206   5.467  0.00  0.00    -0.053 A 
ATOM     48  H24 1A9 d   1      -8.068  -5.065   6.289  0.00  0.00     0.084 H 
ATOM     49  H25 1A9 d   1      -8.651  -7.741   6.197  0.00  0.00     0.086 H 
ENDBRANCH  39  42
ENDBRANCH  37  39
ENDBRANCH   6  37
BRANCH   4  50
ATOM     50  CBB 1A9 d   1      -9.323  -6.163  -0.892  0.00  0.00     0.052 A 
ATOM     51  CAH 1A9 d   1      -9.030  -5.164  -1.893  0.00  0.00    -0.013 A 
ATOM     52  SAW 1A9 d   1     -10.459  -4.307  -2.219  0.00  0.00    -0.039 SA
ATOM     53  H19 1A9 d   1      -8.061  -4.990  -2.358  0.00  0.00     0.098 H 
ATOM     54  CBD 1A9 d   1     -11.425  -5.131  -1.139  0.00  0.00     0.288 A 
ATOM     55  OAB 1A9 d   1     -12.620  -4.962  -0.896  0.00  0.00    -0.260 OA
ATOM     56  NAU 1A9 d   1     -10.671  -6.061  -0.548  0.00  0.00    -0.316 N 
ATOM     57  H20 1A9 d   1     -11.068  -6.677   0.133  0.00  0.00     0.169 HD
ENDBRANCH   4  50
TORSDOF 8
