REMARK  8 active torsions:
REMARK  status: ('A' for Active; 'I' for Inactive)
REMARK    1  A    between atoms: CAA_1  and  CAM_2 
REMARK    2  A    between atoms: CAM_2  and  CAN_3 
REMARK    3  A    between atoms: CAN_3  and  CAT_4 
REMARK       I    between atoms: CAT_4  and  NAO_6 
REMARK    4  A    between atoms: NAO_6  and  CAU_7 
REMARK    5  A    between atoms: CAW_10  and  CAX_11 
REMARK    6  A    between atoms: CAV_18  and  NAP_19 
REMARK    7  A    between atoms: NAP_19  and  SBA_20 
REMARK    8  A    between atoms: SBA_20  and  CAY_23 
ROOT
ATOM      1  CAU 1A8 d   1       6.149  -8.068   0.171  0.00  0.00     0.037 A 
ATOM      2  CAJ 1A8 d   1       6.591  -8.916  -0.828  0.00  0.00    -0.031 A 
ATOM      3  CAK 1A8 d   1       7.028  -7.170   0.763  0.00  0.00    -0.045 A 
ATOM      4  CAW 1A8 d   1       8.343  -7.155   0.348  0.00  0.00    -0.004 A 
ATOM      5  CAL 1A8 d   1       8.797  -7.994  -0.651  0.00  0.00    -0.044 A 
ATOM      6  CAV 1A8 d   1       7.915  -8.878  -1.238  0.00  0.00     0.045 A 
ATOM      7  H9  1A8 d   1       5.901  -9.612  -1.292  0.00  0.00     0.090 H 
ATOM      8  H10 1A8 d   1       6.686  -6.493   1.538  0.00  0.00     0.088 H 
ATOM      9  H13 1A8 d   1       9.832  -7.958  -0.970  0.00  0.00     0.088 H 
ENDROOT
BRANCH   1  10
ATOM     10  NAO 1A8 d   1       4.766  -8.170   0.520  0.00  0.00    -0.327 N 
ATOM     11  CAT 1A8 d   1       4.085  -7.485   1.562  0.00  0.00     0.222 C 
ATOM     12  OAB 1A8 d   1       4.642  -6.693   2.307  0.00  0.00    -0.273 OA
ATOM     13  H8  1A8 d   1       4.215  -8.795  -0.033  0.00  0.00     0.169 HD
BRANCH  11  14
ATOM     14  CAN 1A8 d   1       2.626  -7.769   1.708  0.00  0.00     0.009 C 
ATOM     15  H6  1A8 d   1       2.062  -7.110   1.032  0.00  0.00     0.047 H 
ATOM     16  H7  1A8 d   1       2.435  -8.819   1.441  0.00  0.00     0.047 H 
BRANCH  14  17
ATOM     17  CAM 1A8 d   1       2.175  -7.533   3.106  0.00  0.00    -0.061 C 
ATOM     18  H4  1A8 d   1       2.534  -6.552   3.450  0.00  0.00     0.033 H 
ATOM     19  H5  1A8 d   1       1.076  -7.557   3.149  0.00  0.00     0.033 H 
BRANCH  17  20
ATOM     20  CAA 1A8 d   1       2.734  -8.604   3.976  0.00  0.00    -0.076 C 
ATOM     21  H1  1A8 d   1       2.408  -8.441   5.014  0.00  0.00     0.027 H 
ATOM     22  H2  1A8 d   1       3.833  -8.579   3.929  0.00  0.00     0.027 H 
ATOM     23  H3  1A8 d   1       2.375  -9.584   3.628  0.00  0.00     0.027 H 
ENDBRANCH  17  20
ENDBRANCH  14  17
ENDBRANCH  11  14
ENDBRANCH   1  10
BRANCH   6  24
ATOM     24  NAP 1A8 d   1       8.356  -9.705  -2.300  0.00  0.00    -0.280 N 
ATOM     25  H14 1A8 d   1       9.016 -10.446  -2.179  0.00  0.00     0.179 HD
BRANCH  24  26
ATOM     26  SBA 1A8 d   1       7.677  -9.329  -3.753  0.00  0.00     0.269 S 
ATOM     27  OAD 1A8 d   1       6.371  -9.948  -3.754  0.00  0.00    -0.200 OA
ATOM     28  OAE 1A8 d   1       8.323 -10.044  -4.838  0.00  0.00    -0.200 OA
BRANCH  26  29
ATOM     29  CAY 1A8 d   1       7.464  -7.590  -4.160  0.00  0.00     0.120 A 
ATOM     30  SAR 1A8 d   1       6.643  -6.499  -3.272  0.00  0.00    -0.088 SA
ATOM     31  CAG 1A8 d   1       6.742  -5.140  -4.157  0.00  0.00    -0.044 A 
ATOM     32  CAF 1A8 d   1       7.474  -5.439  -5.333  0.00  0.00    -0.075 A 
ATOM     33  H15 1A8 d   1       6.321  -4.171  -3.893  0.00  0.00     0.095 H 
ATOM     34  CAH 1A8 d   1       7.897  -6.889  -5.351  0.00  0.00    -0.053 A 
ATOM     35  H16 1A8 d   1       7.701  -4.720  -6.119  0.00  0.00     0.084 H 
ATOM     36  H17 1A8 d   1       8.459  -7.351  -6.161  0.00  0.00     0.086 H 
ENDBRANCH  26  29
ENDBRANCH  24  26
ENDBRANCH   6  24
BRANCH   4  37
ATOM     37  CAX 1A8 d   1       9.309  -6.204   0.945  0.00  0.00     0.052 A 
ATOM     38  CAI 1A8 d   1       9.029  -5.231   1.966  0.00  0.00    -0.013 A 
ATOM     39  SAS 1A8 d   1      10.457  -4.379   2.289  0.00  0.00    -0.039 SA
ATOM     40  H11 1A8 d   1       8.066  -5.070   2.448  0.00  0.00     0.098 H 
ATOM     41  CAZ 1A8 d   1      11.400  -5.184   1.164  0.00  0.00     0.288 A 
ATOM     42  OAC 1A8 d   1      12.588  -5.018   0.908  0.00  0.00    -0.260 OA
ATOM     43  NAQ 1A8 d   1      10.645  -6.099   0.571  0.00  0.00    -0.316 N 
ATOM     44  H12 1A8 d   1      11.028  -6.701  -0.130  0.00  0.00     0.169 HD
ENDBRANCH   4  37
TORSDOF 8
