REMARK  14 active torsions:
REMARK  status: ('A' for Active; 'I' for Inactive)
REMARK    1  A    between atoms: C7_2  and  C1_4 
REMARK    2  A    between atoms: C1_4  and  N6_5 
REMARK    3  A    between atoms: C1_4  and  C2_7 
REMARK    4  A    between atoms: C1_4  and  C10_15 
REMARK    5  A    between atoms: N6_5  and  C18_6 
REMARK    6  A    between atoms: C2_7  and  C3_8 
REMARK    7  A    between atoms: C3_8  and  C4_9 
REMARK    8  A    between atoms: C4_9  and  C5_10 
REMARK    9  A    between atoms: C5_10  and  B19_11 
REMARK   10  A    between atoms: B19_11  and  O21_13 
REMARK   11  A    between atoms: B19_11  and  O20_14 
REMARK   12  A    between atoms: B19_11  and  O22_12 
REMARK   13  A    between atoms: C10_15  and  C11_16 
REMARK   14  A    between atoms: C11_16  and  N12_17 
ROOT
ATOM      1  C1  X8A d   1     -21.324  17.427 -11.870  0.00  0.00     0.213 C 
ENDROOT
BRANCH   1   2
ATOM      2  C7  X8A d   1     -20.228  16.394 -11.625  0.00  0.00     0.210 C 
ATOM      3  O9  X8A d   1     -19.980  15.963 -10.495  0.00  0.00    -0.646 OA
ATOM      4  O8  X8A d   1     -19.557  15.979 -12.589  0.00  0.00    -0.646 OA
ENDBRANCH   1   2
BRANCH   1   5
ATOM      5  N6  X8A d   1     -21.319  17.804 -13.282  0.00  0.00    -0.060 N 
ATOM      6  H1  X8A d   1     -21.320  16.935 -13.793  0.00  0.00     0.278 HD
ATOM      7  H2  X8A d   1     -20.443  18.280 -13.430  0.00  0.00     0.278 HD
BRANCH   5   8
ATOM      8  C18 X8A d   1     -22.325  18.634 -13.926  0.00  0.00     0.066 C 
ATOM      9  H3  X8A d   1     -22.073  18.756 -14.990  0.00  0.00     0.067 H 
ATOM     10  H4  X8A d   1     -22.352  19.620 -13.440  0.00  0.00     0.067 H 
ATOM     11  H5  X8A d   1     -23.310  18.153 -13.835  0.00  0.00     0.067 H 
ENDBRANCH   5   8
ENDBRANCH   1   5
BRANCH   1  12
ATOM     12  C2  X8A d   1     -22.703  16.871 -11.517  0.00  0.00    -0.024 C 
ATOM     13  H6  X8A d   1     -23.462  17.515 -11.985  0.00  0.00     0.037 H 
ATOM     14  H7  X8A d   1     -22.817  16.905 -10.424  0.00  0.00     0.037 H 
BRANCH  12  15
ATOM     15  C3  X8A d   1     -22.947  15.436 -11.976  0.00  0.00    -0.063 C 
ATOM     16  H8  X8A d   1     -22.316  14.765 -11.374  0.00  0.00     0.033 H 
ATOM     17  H9  X8A d   1     -22.662  15.355 -13.035  0.00  0.00     0.033 H 
BRANCH  15  18
ATOM     18  C4  X8A d   1     -24.405  14.991 -11.831  0.00  0.00    -0.071 C 
ATOM     19  H10 X8A d   1     -25.037  15.631 -12.465  0.00  0.00     0.032 H 
ATOM     20  H11 X8A d   1     -24.708  15.103 -10.780  0.00  0.00     0.032 H 
BRANCH  18  21
ATOM     21  C5  X8A d   1     -24.601  13.536 -12.248  0.00  0.00    -0.069 C 
ATOM     22  H12 X8A d   1     -24.198  13.387 -13.261  0.00  0.00     0.023 H 
ATOM     23  H14 X8A d   1     -24.072  12.878 -11.543  0.00  0.00     0.023 H 
BRANCH  21  24
ATOM     24  B19 X8A d   1     -26.121  13.063 -12.333  0.00  0.00     0.318 B 
BRANCH  24  25
ATOM     25  O21 X8A d   1     -26.398  11.619 -12.661  0.00  0.00     0.000 OA
ATOM     26  H16 X8A d   1     -27.274  11.539 -13.020  0.00  0.00     0.000 HD
ATOM     27  H17 X8A d   1     -27.274  11.539 -13.020  0.00  0.00     0.000 HD
ENDBRANCH  24  25
BRANCH  24  28
ATOM     28  O20 X8A d   1     -27.082  13.625 -11.329  0.00  0.00     0.000 OA
ATOM     29  H18 X8A d   1     -26.864  14.534 -11.158  0.00  0.00     0.000 HD
ATOM     30  H19 X8A d   1     -26.864  14.534 -11.158  0.00  0.00     0.000 HD
ENDBRANCH  24  28
BRANCH  24  31
ATOM     31  O22 X8A d   1     -26.627  13.673 -13.625  0.00  0.00    -0.467 OA
ATOM     32  H15 X8A d   1     -27.363  13.155 -13.190  0.00  0.00     0.181 HD
ENDBRANCH  24  31
ENDBRANCH  21  24
ENDBRANCH  18  21
ENDBRANCH  15  18
ENDBRANCH  12  15
ENDBRANCH   1  12
BRANCH   1  33
ATOM     33  C10 X8A d   1     -21.087  18.647 -10.980  0.00  0.00    -0.001 C 
ATOM     34  H20 X8A d   1     -21.064  18.319  -9.930  0.00  0.00     0.040 H 
ATOM     35  H21 X8A d   1     -21.916  19.355 -11.125  0.00  0.00     0.040 H 
BRANCH  33  36
ATOM     36  C11 X8A d   1     -19.774  19.359 -11.298  0.00  0.00     0.086 C 
ATOM     37  H22 X8A d   1     -19.601  19.339 -12.384  0.00  0.00     0.076 H 
ATOM     38  H23 X8A d   1     -18.947  18.846 -10.786  0.00  0.00     0.076 H 
BRANCH  36  39
ATOM     39  N12 X8A d   1     -19.841  20.766 -10.837  0.00  0.00    -0.071 N 
ATOM     40  C17 X8A d   1     -20.074  20.834  -9.392  0.00  0.00     0.084 C 
ATOM     41  C16 X8A d   1     -20.345  22.274  -9.000  0.00  0.00    -0.042 C 
ATOM     42  H25 X8A d   1     -19.185  20.468  -8.858  0.00  0.00     0.076 H 
ATOM     43  H26 X8A d   1     -20.942  20.211  -9.129  0.00  0.00     0.076 H 
ATOM     44  C15 X8A d   1     -19.175  23.180  -9.364  0.00  0.00    -0.062 C 
ATOM     45  H27 X8A d   1     -20.512  22.324  -7.914  0.00  0.00     0.035 H 
ATOM     46  H28 X8A d   1     -21.246  22.624  -9.525  0.00  0.00     0.035 H 
ATOM     47  C14 X8A d   1     -18.816  22.988 -10.830  0.00  0.00    -0.042 C 
ATOM     48  H29 X8A d   1     -18.307  22.925  -8.738  0.00  0.00     0.033 H 
ATOM     49  H30 X8A d   1     -19.457  24.229  -9.191  0.00  0.00     0.033 H 
ATOM     50  C13 X8A d   1     -18.615  21.511 -11.150  0.00  0.00     0.084 C 
ATOM     51  H31 X8A d   1     -17.886  23.534 -11.048  0.00  0.00     0.035 H 
ATOM     52  H32 X8A d   1     -19.629  23.385 -11.455  0.00  0.00     0.035 H 
ATOM     53  H33 X8A d   1     -18.381  21.397 -12.219  0.00  0.00     0.076 H 
ATOM     54  H34 X8A d   1     -17.783  21.116 -10.548  0.00  0.00     0.076 H 
ATOM     55  H24 X8A d   1     -20.613  21.211 -11.309  0.00  0.00     0.279 HD
ENDBRANCH  36  39
ENDBRANCH  33  36
ENDBRANCH   1  33
TORSDOF 14
