REMARK  4 active torsions:
REMARK  status: ('A' for Active; 'I' for Inactive)
REMARK    1  A    between atoms: CAS_5  and  SAU_6 
REMARK    2  A    between atoms: SAU_6  and  NAL_9 
REMARK    3  A    between atoms: NAL_9  and  CAP_10 
REMARK    4  A    between atoms: CAQ_15  and  CAR_16 
ROOT
ATOM      1  CAP 1A4 d   1      -7.716   8.351  -0.865  0.00  0.00     0.043 A 
ATOM      2  CAK 1A4 d   1      -8.671   7.510  -0.323  0.00  0.00    -0.044 A 
ATOM      3  CAG 1A4 d   1      -6.430   8.318  -0.345  0.00  0.00    -0.057 A 
ATOM      4  CAE 1A4 d   1      -6.114   7.458   0.702  0.00  0.00    -0.080 A 
ATOM      5  CAH 1A4 d   1      -7.078   6.625   1.246  0.00  0.00    -0.071 A 
ATOM      6  CAQ 1A4 d   1      -8.359   6.663   0.729  0.00  0.00    -0.007 A 
ATOM      7  H5  1A4 d   1      -9.677   7.513  -0.726  0.00  0.00     0.088 H 
ATOM      8  H6  1A4 d   1      -5.666   8.967  -0.757  0.00  0.00     0.086 H 
ATOM      9  H7  1A4 d   1      -5.104   7.440   1.096  0.00  0.00     0.083 H 
ATOM     10  H8  1A4 d   1      -6.832   5.956   2.062  0.00  0.00     0.084 H 
ENDROOT
BRANCH   1  11
ATOM     11  NAL 1A4 d   1      -8.053   9.223  -1.949  0.00  0.00    -0.280 N 
ATOM     12  H4  1A4 d   1      -8.793   9.888  -1.848  0.00  0.00     0.179 HD
BRANCH  11  13
ATOM     13  SAU 1A4 d   1      -7.220   9.124  -3.354  0.00  0.00     0.269 S 
ATOM     14  OAB 1A4 d   1      -5.842   9.481  -3.095  0.00  0.00    -0.200 OA
ATOM     15  OAC 1A4 d   1      -7.787  10.063  -4.339  0.00  0.00    -0.200 OA
BRANCH  13  16
ATOM     16  CAS 1A4 d   1      -7.246   7.490  -4.035  0.00  0.00     0.120 A 
ATOM     17  CAI 1A4 d   1      -7.894   7.059  -5.251  0.00  0.00    -0.053 A 
ATOM     18  CAD 1A4 d   1      -7.623   5.569  -5.449  0.00  0.00    -0.075 A 
ATOM     19  H1  1A4 d   1      -8.479   7.692  -5.917  0.00  0.00     0.086 H 
ATOM     20  CAF 1A4 d   1      -6.809   5.057  -4.384  0.00  0.00    -0.044 A 
ATOM     21  H2  1A4 d   1      -7.996   4.977  -6.283  0.00  0.00     0.084 H 
ATOM     22  SAN 1A4 d   1      -6.477   6.254  -3.359  0.00  0.00    -0.088 SA
ATOM     23  H3  1A4 d   1      -6.471   4.027  -4.285  0.00  0.00     0.095 H 
ENDBRANCH  13  16
ENDBRANCH  11  13
ENDBRANCH   1  11
BRANCH   6  24
ATOM     24  CAR 1A4 d   1      -9.431   5.784   1.244  0.00  0.00     0.051 A 
ATOM     25  CAJ 1A4 d   1      -9.351   4.771   2.200  0.00  0.00    -0.014 A 
ATOM     26  SAO 1A4 d   1     -10.728   4.094   2.401  0.00  0.00    -0.053 SA
ATOM     27  H9  1A4 d   1      -8.442   4.494   2.733  0.00  0.00     0.098 H 
ATOM     28  CAT 1A4 d   1     -11.638   4.930   1.319  0.00  0.00     0.221 A 
ATOM     29  OAA 1A4 d   1     -12.951   4.809   1.038  0.00  0.00    -0.164 OA
ATOM     30  NAM 1A4 d   1     -10.807   5.920   0.681  0.00  0.00    -0.328 N 
ATOM     31  H10 1A4 d   1     -11.099   6.578  -0.013  0.00  0.00     0.168 HD
ENDBRANCH   6  24
TORSDOF 4
