REMARK  5 active torsions:
REMARK  status: ('A' for Active; 'I' for Inactive)
REMARK    1  A    between atoms: CAR_6  and  CAN_7 
REMARK    2  A    between atoms: CAN_7  and  SAW_8 
REMARK    3  A    between atoms: SAW_8  and  NAO_11 
REMARK    4  A    between atoms: NAO_11  and  CAS_12 
REMARK    5  A    between atoms: CAT_17  and  CAU_18 
ROOT
ATOM      1  NAO 1A3 d   1      -4.605   7.945   0.723  0.00  0.00    -0.284 N 
ATOM      2  H8  1A3 d   1      -4.013   8.416   0.069  0.00  0.00     0.178 HD
ENDROOT
BRANCH   1   3
ATOM      3  SAW 1A3 d   1      -3.895   7.553   2.148  0.00  0.00     0.234 S 
ATOM      4  OAB 1A3 d   1      -3.860   6.124   2.320  0.00  0.00    -0.205 OA
ATOM      5  OAC 1A3 d   1      -4.681   8.166   3.226  0.00  0.00    -0.205 OA
BRANCH   3   6
ATOM      6  CAN 1A3 d   1      -2.250   8.215   2.252  0.00  0.00     0.070 C 
ATOM      7  H6  1A3 d   1      -2.071   8.827   1.356  0.00  0.00     0.066 H 
ATOM      8  H7  1A3 d   1      -2.194   8.851   3.147  0.00  0.00     0.066 H 
BRANCH   6   9
ATOM      9  CAR 1A3 d   1      -1.159   7.191   2.341  0.00  0.00    -0.043 A 
ATOM     10  CAH 1A3 d   1      -0.157   7.151   1.379  0.00  0.00    -0.076 A 
ATOM     11  CAE 1A3 d   1       0.859   6.210   1.472  0.00  0.00    -0.082 A 
ATOM     12  H1  1A3 d   1      -0.169   7.855   0.555  0.00  0.00     0.084 H 
ATOM     13  CAD 1A3 d   1       0.889   5.305   2.521  0.00  0.00    -0.083 A 
ATOM     14  H2  1A3 d   1       1.636   6.183   0.717  0.00  0.00     0.083 H 
ATOM     15  CAF 1A3 d   1      -0.102   5.347   3.487  0.00  0.00    -0.082 A 
ATOM     16  H3  1A3 d   1       1.683   4.569   2.585  0.00  0.00     0.083 H 
ATOM     17  CAI 1A3 d   1      -1.114   6.293   3.397  0.00  0.00    -0.076 A 
ATOM     18  H4  1A3 d   1      -0.088   4.643   4.311  0.00  0.00     0.083 H 
ATOM     19  H5  1A3 d   1      -1.880   6.330   4.163  0.00  0.00     0.084 H 
ENDBRANCH   6   9
ENDBRANCH   3   6
ENDBRANCH   1   3
BRANCH   1  20
ATOM     20  CAS 1A3 d   1      -5.961   7.711   0.269  0.00  0.00     0.043 A 
ATOM     21  CAM 1A3 d   1      -6.907   6.879   0.889  0.00  0.00    -0.044 A 
ATOM     22  CAT 1A3 d   1      -8.186   6.749   0.327  0.00  0.00    -0.007 A 
ATOM     23  H9  1A3 d   1      -6.651   6.341   1.795  0.00  0.00     0.088 H 
ATOM     24  CAK 1A3 d   1      -8.508   7.420  -0.842  0.00  0.00    -0.071 A 
ATOM     25  CAG 1A3 d   1      -7.577   8.236  -1.460  0.00  0.00    -0.080 A 
ATOM     26  H12 1A3 d   1      -9.495   7.305  -1.275  0.00  0.00     0.084 H 
ATOM     27  CAJ 1A3 d   1      -6.317   8.370  -0.900  0.00  0.00    -0.057 A 
ATOM     28  H11 1A3 d   1      -7.831   8.764  -2.372  0.00  0.00     0.083 H 
ATOM     29  H10 1A3 d   1      -5.589   9.007  -1.388  0.00  0.00     0.086 H 
BRANCH  22  30
ATOM     30  CAU 1A3 d   1      -9.265   5.889   0.895  0.00  0.00     0.051 A 
ATOM     31  CAL 1A3 d   1      -9.142   4.880   1.918  0.00  0.00    -0.014 A 
ATOM     32  SAQ 1A3 d   1     -10.561   4.229   2.156  0.00  0.00    -0.053 SA
ATOM     33  H13 1A3 d   1      -8.224   4.612   2.439  0.00  0.00     0.098 H 
ATOM     34  CAV 1A3 d   1     -11.474   5.014   1.086  0.00  0.00     0.221 A 
ATOM     35  OAA 1A3 d   1     -12.803   4.849   0.861  0.00  0.00    -0.164 OA
ATOM     36  NAP 1A3 d   1     -10.679   5.957   0.395  0.00  0.00    -0.328 N 
ATOM     37  H14 1A3 d   1     -11.008   6.575  -0.319  0.00  0.00     0.168 HD
ENDBRANCH  22  30
ENDBRANCH   1  20
TORSDOF 5
