REMARK  6 active torsions:
REMARK  status: ('A' for Active; 'I' for Inactive)
REMARK    1  A    between atoms: C5_3  and  C6_4 
REMARK    2  A    between atoms: C6_4  and  C7_5 
REMARK    3  A    between atoms: C8_8  and  N13_9 
REMARK    4  A    between atoms: C16_11  and  N18_12 
REMARK    5  A    between atoms: C10_16  and  S19_19 
REMARK    6  A    between atoms: S19_19  and  C20_20 
ROOT
ATOM      1 CL1  1A0 d   1     -10.252  -2.058 -11.633  0.00  0.00    -0.081 Cl
ATOM      2  C4  1A0 d   1     -11.439  -3.219 -12.383  0.00  0.00     0.074 A 
ATOM      3  C5  1A0 d   1     -12.836  -3.285 -11.944  0.00  0.00     0.033 A 
ATOM      4  N1  1A0 d   1     -13.370  -4.305 -12.649  0.00  0.00    -0.342 N 
ATOM      5  C3  1A0 d   1     -11.137  -4.257 -13.371  0.00  0.00     0.080 A 
ATOM      6  C8  1A0 d   1     -10.028  -4.816 -14.203  0.00  0.00     0.144 A 
ATOM      7  N9  1A0 d   1     -10.335  -5.859 -14.996  0.00  0.00    -0.204 NA
ATOM      8  C10 1A0 d   1     -11.568  -6.405 -15.023  0.00  0.00     0.197 A 
ATOM      9  N11 1A0 d   1     -12.602  -5.944 -14.305  0.00  0.00    -0.204 NA
ATOM     10  C2  1A0 d   1     -12.468  -4.901 -13.459  0.00  0.00     0.146 A 
ATOM     11  H6  1A0 d   1     -14.355  -4.596 -12.577  0.00  0.00     0.167 HD
ENDROOT
BRANCH   6  12
ATOM     12  N13 1A0 d   1      -8.743  -4.290 -14.330  0.00  0.00    -0.363 N 
ATOM     13  C17 1A0 d   1      -8.408  -2.932 -13.918  0.00  0.00     0.023 C 
ATOM     14  C16 1A0 d   1      -7.460  -2.514 -15.045  0.00  0.00     0.117 C 
ATOM     15  H7  1A0 d   1      -7.904  -2.918 -12.940  0.00  0.00     0.067 H 
ATOM     16  H8  1A0 d   1      -9.300  -2.289 -13.880  0.00  0.00     0.067 H 
ATOM     17  C15 1A0 d   1      -6.856  -3.807 -15.581  0.00  0.00    -0.022 C 
ATOM     18  H9  1A0 d   1      -6.681  -1.835 -14.669  0.00  0.00     0.086 H 
ATOM     19  C14 1A0 d   1      -7.737  -4.976 -15.136  0.00  0.00    -0.002 C 
ATOM     20  H13 1A0 d   1      -5.839  -3.935 -15.181  0.00  0.00     0.038 H 
ATOM     21  H14 1A0 d   1      -6.816  -3.770 -16.680  0.00  0.00     0.038 H 
ATOM     22  H15 1A0 d   1      -8.192  -5.487 -15.997  0.00  0.00     0.064 H 
ATOM     23  H16 1A0 d   1      -7.169  -5.702 -14.537  0.00  0.00     0.064 H 
BRANCH  14  24
ATOM     24  N18 1A0 d   1      -8.205  -1.884 -16.123  0.00  0.00    -0.073 N 
ATOM     25  H10 1A0 d   1      -7.570  -1.614 -16.858  0.00  0.00     0.274 HD
ATOM     26  H11 1A0 d   1      -8.679  -1.067 -15.771  0.00  0.00     0.274 HD
ATOM     27  H12 1A0 d   1      -8.883  -2.534 -16.488  0.00  0.00     0.274 HD
ENDBRANCH  14  24
ENDBRANCH   6  12
BRANCH   8  28
ATOM     28  S19 1A0 d   1     -11.863  -7.778 -15.951  0.00  0.00    -0.049 SA
BRANCH  28  29
ATOM     29  C20 1A0 d   1     -10.603  -8.107 -17.053  0.00  0.00     0.028 A 
ATOM     30  C25 1A0 d   1      -9.986  -7.045 -17.718  0.00  0.00     0.021 A 
ATOM     31  N24 1A0 d   1      -9.001  -7.220 -18.612  0.00  0.00    -0.238 NA
ATOM     32  H17 1A0 d   1     -10.317  -6.036 -17.503  0.00  0.00     0.117 H 
ATOM     33  C23 1A0 d   1      -8.577  -8.470 -18.900  0.00  0.00     0.178 A 
ATOM     34  N26 1A0 d   1      -7.585  -8.672 -19.807  0.00  0.00    -0.238 NA
ATOM     35  C22 1A0 d   1      -9.198  -9.638 -18.229  0.00  0.00     0.105 A 
ATOM     36  C27 1A0 d   1      -7.173  -9.913 -20.079  0.00  0.00     0.021 A 
ATOM     37  C28 1A0 d   1      -7.758 -11.014 -19.453  0.00  0.00     0.020 A 
ATOM     38  H18 1A0 d   1      -6.374 -10.067 -20.795  0.00  0.00     0.117 H 
ATOM     39  N29 1A0 d   1      -8.745 -10.869 -18.551  0.00  0.00    -0.256 NA
ATOM     40  H19 1A0 d   1      -7.409 -12.010 -19.700  0.00  0.00     0.117 H 
ATOM     41  C21 1A0 d   1     -10.223  -9.430 -17.301  0.00  0.00    -0.033 A 
ATOM     42  H20 1A0 d   1     -10.703 -10.260 -16.795  0.00  0.00     0.089 H 
ENDBRANCH  28  29
ENDBRANCH   8  28
BRANCH   3  43
ATOM     43  C6  1A0 d   1     -13.516  -2.386 -10.947  0.00  0.00    -0.028 C 
ATOM     44  H1  1A0 d   1     -14.037  -1.578 -11.481  0.00  0.00     0.041 H 
ATOM     45  H2  1A0 d   1     -12.762  -1.954 -10.273  0.00  0.00     0.041 H 
BRANCH  43  46
ATOM     46  C7  1A0 d   1     -14.522  -3.180 -10.133  0.00  0.00    -0.071 C 
ATOM     47  H3  1A0 d   1     -15.013  -2.515  -9.408  0.00  0.00     0.028 H 
ATOM     48  H4  1A0 d   1     -14.003  -3.988  -9.597  0.00  0.00     0.028 H 
ATOM     49  H5  1A0 d   1     -15.278  -3.612 -10.805  0.00  0.00     0.028 H 
ENDBRANCH  43  46
ENDBRANCH   3  43
TORSDOF 6
