REMARK  7 active torsions:
REMARK  status: ('A' for Active; 'I' for Inactive)
REMARK    1  A    between atoms: C19_2  and  C5_3 
REMARK    2  A    between atoms: C1_4  and  C21_5 
REMARK    3  A    between atoms: C21_5  and  C22_6 
REMARK    4  A    between atoms: C6_8  and  O17_9 
REMARK    5  A    between atoms: O17_9  and  C18_10 
REMARK    6  A    between atoms: C8_12  and  S10_16 
REMARK    7  A    between atoms: S10_16  and  C11_17 
ROOT
ATOM      1  C5  19Y d   1      14.659 -34.273   0.949  0.00  0.00     0.043 A 
ATOM      2  C1  19Y d   1      13.187 -34.206   0.936  0.00  0.00     0.025 A 
ATOM      3  C4  19Y d   1      15.170 -32.897   1.102  0.00  0.00     0.078 A 
ATOM      4  C6  19Y d   1      16.469 -32.201   1.194  0.00  0.00     0.181 A 
ATOM      5  N7  19Y d   1      16.444 -30.846   1.340  0.00  0.00    -0.197 NA
ATOM      6  C8  19Y d   1      15.297 -30.103   1.392  0.00  0.00     0.197 A 
ATOM      7  N9  19Y d   1      14.073 -30.720   1.313  0.00  0.00    -0.204 NA
ATOM      8  C3  19Y d   1      13.947 -32.068   1.169  0.00  0.00     0.146 A 
ATOM      9  N2  19Y d   1      12.874 -32.887   1.073  0.00  0.00    -0.343 N 
ATOM     10  H10 19Y d   1      11.904 -32.543   1.101  0.00  0.00     0.167 HD
ENDROOT
BRANCH   6  11
ATOM     11  S10 19Y d   1      15.443 -28.395   1.582  0.00  0.00    -0.049 SA
BRANCH  11  12
ATOM     12  C11 19Y d   1      17.057 -28.033   2.030  0.00  0.00     0.026 A 
ATOM     13  C16 19Y d   1      17.757 -28.855   2.915  0.00  0.00    -0.064 A 
ATOM     14  C15 19Y d   1      19.074 -28.517   3.237  0.00  0.00    -0.065 A 
ATOM     15  H11 19Y d   1      17.290 -29.735   3.342  0.00  0.00     0.085 H 
ATOM     16  C14 19Y d   1      19.683 -27.387   2.684  0.00  0.00     0.002 A 
ATOM     17  H12 19Y d   1      19.632 -29.141   3.926  0.00  0.00     0.085 H 
ATOM     18  N13 19Y d   1      19.003 -26.606   1.830  0.00  0.00    -0.272 NA
ATOM     19  H13 19Y d   1      20.706 -27.141   2.945  0.00  0.00     0.114 H 
ATOM     20  C12 19Y d   1      17.729 -26.911   1.500  0.00  0.00     0.018 A 
ATOM     21  H14 19Y d   1      17.203 -26.270   0.802  0.00  0.00     0.116 H 
ENDBRANCH  11  12
ENDBRANCH   6  11
BRANCH   4  22
ATOM     22  O17 19Y d   1      17.662 -32.874   1.146  0.00  0.00    -0.339 OA
BRANCH  22  23
ATOM     23  C18 19Y d   1      18.738 -32.344   1.939  0.00  0.00     0.012 C 
ATOM     24  H7  19Y d   1      19.632 -32.973   1.811  0.00  0.00     0.067 H 
ATOM     25  H8  19Y d   1      18.443 -32.336   2.999  0.00  0.00     0.067 H 
ATOM     26  H9  19Y d   1      18.962 -31.317   1.613  0.00  0.00     0.067 H 
ENDBRANCH  22  23
ENDBRANCH   4  22
BRANCH   1  27
ATOM     27  C19 19Y d   1      15.569 -35.454   0.846  0.00  0.00     0.121 C 
ATOM     28  O20 19Y d   1      15.129 -36.595   0.712  0.00  0.00    -0.301 OA
ATOM     29  H1  19Y d   1      16.646 -35.301   0.891  0.00  0.00     0.151 H 
ENDBRANCH   1  27
BRANCH   2  30
ATOM     30  C21 19Y d   1      12.229 -35.362   0.817  0.00  0.00    -0.029 C 
ATOM     31  H2  19Y d   1      11.985 -35.733   1.823  0.00  0.00     0.041 H 
ATOM     32  H3  19Y d   1      12.704 -36.166   0.236  0.00  0.00     0.041 H 
BRANCH  30  33
ATOM     33  C22 19Y d   1      10.960 -34.938   0.126  0.00  0.00    -0.071 C 
ATOM     34  H4  19Y d   1      10.278 -35.798   0.051  0.00  0.00     0.028 H 
ATOM     35  H5  19Y d   1      11.197 -34.570  -0.883  0.00  0.00     0.028 H 
ATOM     36  H6  19Y d   1      10.477 -34.137   0.705  0.00  0.00     0.028 H 
ENDBRANCH  30  33
ENDBRANCH   2  30
TORSDOF 7
