REMARK  12 active torsions:
REMARK  status: ('A' for Active; 'I' for Inactive)
REMARK    1  A    between atoms: N40_1  and  C41_2 
REMARK    2  A    between atoms: C37_3  and  N40_1 
REMARK    3  A    between atoms: C37_3  and  C39_4 
REMARK    4  A    between atoms: C35_5  and  C37_3 
REMARK       I    between atoms: N34_10  and  C35_5 
REMARK    5  A    between atoms: C30_7  and  C32_9 
REMARK       I    between atoms: N10_26  and  C30_7 
REMARK    6  A    between atoms: C32_9  and  N34_10 
REMARK    7  A    between atoms: C32_9  and  C42_11 
REMARK    8  A    between atoms: C2_20  and  C1_19 
REMARK    9  A    between atoms: O3_21  and  C2_20 
REMARK   10  A    between atoms: C4_22  and  O3_21 
REMARK   11  A    between atoms: C11_27  and  C16_31 
REMARK       I    between atoms: C16_31  and  N18_33 
REMARK   12  A    between atoms: N18_33  and  C19_34 
ROOT
ATOM      1  C30 1AQ d   1      -3.744   1.604 -30.812  0.00  0.00     0.243 C 
ATOM      2  O31 1AQ d   1      -2.894   2.368 -30.404  0.00  0.00    -0.271 OA
ATOM      3  C4  1AQ d   1      -9.777   1.378 -30.027  0.00  0.00     0.063 C 
ATOM      4  C6  1AQ d   1      -8.668   0.590 -30.787  0.00  0.00    -0.011 C 
ATOM      5  C7  1AQ d   1      -7.525   1.617 -30.932  0.00  0.00     0.121 C 
ATOM      6  C9  1AQ d   1      -6.141   0.954 -30.985  0.00  0.00     0.025 C 
ATOM      7  N10 1AQ d   1      -5.052   1.859 -30.519  0.00  0.00    -0.333 N 
ATOM      8  C11 1AQ d   1      -5.333   3.055 -29.698  0.00  0.00     0.115 C 
ATOM      9  C13 1AQ d   1      -6.784   3.553 -29.805  0.00  0.00     0.111 C 
ATOM     10  N14 1AQ d   1      -7.641   2.401 -29.676  0.00  0.00    -0.060 N 
ATOM     11  C15 1AQ d   1      -9.071   2.636 -29.470  0.00  0.00     0.108 C 
ATOM     12  H26 1AQ d   1     -10.587   1.660 -30.716  0.00  0.00     0.086 H 
ATOM     13  H27 1AQ d   1      -9.027   0.260 -31.773  0.00  0.00     0.040 H 
ATOM     14  H28 1AQ d   1      -8.339  -0.284 -30.206  0.00  0.00     0.040 H 
ATOM     15  H29 1AQ d   1      -7.670   2.247 -31.822  0.00  0.00     0.087 H 
ATOM     16  H30 1AQ d   1      -5.932   0.658 -32.023  0.00  0.00     0.067 H 
ATOM     17  H31 1AQ d   1      -6.154   0.060 -30.344  0.00  0.00     0.067 H 
ATOM     18  H32 1AQ d   1      -4.664   3.862 -30.031  0.00  0.00     0.090 H 
ATOM     19  H33 1AQ d   1      -6.946   4.036 -30.780  0.00  0.00     0.080 H 
ATOM     20  H34 1AQ d   1      -6.996   4.272 -29.000  0.00  0.00     0.080 H 
ATOM     21  H35 1AQ d   1      -7.303   1.856 -28.898  0.00  0.00     0.280 HD
ATOM     22  H36 1AQ d   1      -9.291   2.759 -28.399  0.00  0.00     0.080 H 
ATOM     23  H37 1AQ d   1      -9.396   3.534 -30.016  0.00  0.00     0.080 H 
ENDROOT
BRANCH   1  24
ATOM     24  C32 1AQ d   1      -3.261   0.444 -31.652  0.00  0.00     0.093 C 
ATOM     25  H10 1AQ d   1      -4.072   0.094 -32.307  0.00  0.00     0.088 H 
BRANCH  24  26
ATOM     26  N34 1AQ d   1      -2.106   0.938 -32.392  0.00  0.00    -0.346 N 
ATOM     27  C35 1AQ d   1      -2.115   1.287 -33.682  0.00  0.00     0.248 C 
ATOM     28  O36 1AQ d   1      -3.121   1.218 -34.346  0.00  0.00    -0.271 OA
ATOM     29  H11 1AQ d   1      -1.241   1.022 -31.897  0.00  0.00     0.163 HD
BRANCH  27  30
ATOM     30  C37 1AQ d   1      -0.819   1.764 -34.277  0.00  0.00     0.174 C 
ATOM     31  H6  1AQ d   1       0.007   1.536 -33.587  0.00  0.00     0.098 H 
BRANCH  30  32
ATOM     32  N40 1AQ d   1      -0.586   1.065 -35.551  0.00  0.00    -0.067 N 
ATOM     33  H1  1AQ d   1      -1.419   1.136 -36.114  0.00  0.00     0.277 HD
ATOM     34  H2  1AQ d   1       0.181   1.512 -36.028  0.00  0.00     0.277 HD
BRANCH  32  35
ATOM     35  C41 1AQ d   1      -0.260  -0.365 -35.367  0.00  0.00     0.066 C 
ATOM     36  H3  1AQ d   1      -0.097  -0.833 -36.349  0.00  0.00     0.067 H 
ATOM     37  H4  1AQ d   1      -1.093  -0.868 -34.855  0.00  0.00     0.067 H 
ATOM     38  H5  1AQ d   1       0.653  -0.458 -34.761  0.00  0.00     0.067 H 
ENDBRANCH  32  35
ENDBRANCH  30  32
BRANCH  30  39
ATOM     39  C39 1AQ d   1      -0.894   3.277 -34.481  0.00  0.00    -0.041 C 
ATOM     40  H7  1AQ d   1      -1.068   3.769 -33.513  0.00  0.00     0.030 H 
ATOM     41  H8  1AQ d   1      -1.721   3.514 -35.167  0.00  0.00     0.030 H 
ATOM     42  H9  1AQ d   1       0.053   3.637 -34.910  0.00  0.00     0.030 H 
ENDBRANCH  30  39
ENDBRANCH  27  30
ENDBRANCH  24  26
BRANCH  24  43
ATOM     43  C42 1AQ d   1      -2.638  -0.725 -30.887  0.00  0.00    -0.026 C 
ATOM     44  C43 1AQ d   1      -3.288  -1.105 -29.558  0.00  0.00    -0.054 C 
ATOM     45  C44 1AQ d   1      -2.294  -2.064 -28.880  0.00  0.00    -0.004 C 
ATOM     46  H13 1AQ d   1      -4.252  -1.607 -29.730  0.00  0.00     0.034 H 
ATOM     47  H14 1AQ d   1      -3.446  -0.211 -28.937  0.00  0.00     0.034 H 
ATOM     48  C45 1AQ d   1      -1.930  -3.264 -29.784  0.00  0.00     0.243 C 
ATOM     49  H15 1AQ d   1      -2.746  -2.444 -27.952  0.00  0.00     0.041 H 
ATOM     50  H16 1AQ d   1      -1.375  -1.510 -28.640  0.00  0.00     0.041 H 
ATOM     51  F46 1AQ d   1      -0.866  -3.969 -29.226  0.00  0.00    -0.206 F 
ATOM     52  F47 1AQ d   1      -3.035  -4.110 -29.874  0.00  0.00    -0.206 F 
ATOM     53  C48 1AQ d   1      -1.513  -2.873 -31.203  0.00  0.00    -0.004 C 
ATOM     54  C49 1AQ d   1      -2.590  -1.963 -31.790  0.00  0.00    -0.054 C 
ATOM     55  H17 1AQ d   1      -1.412  -3.776 -31.823  0.00  0.00     0.041 H 
ATOM     56  H18 1AQ d   1      -0.552  -2.339 -31.174  0.00  0.00     0.041 H 
ATOM     57  H19 1AQ d   1      -2.328  -1.675 -32.819  0.00  0.00     0.034 H 
ATOM     58  H20 1AQ d   1      -3.564  -2.474 -31.789  0.00  0.00     0.034 H 
ATOM     59  H12 1AQ d   1      -1.603  -0.431 -30.657  0.00  0.00     0.043 H 
ENDBRANCH  24  43
ENDBRANCH   1  24
BRANCH   8  60
ATOM     60  C16 1AQ d   1      -5.059   2.750 -28.259  0.00  0.00     0.242 C 
ATOM     61  O17 1AQ d   1      -4.991   1.598 -27.889  0.00  0.00    -0.271 OA
ATOM     62  N18 1AQ d   1      -4.900   3.788 -27.416  0.00  0.00    -0.350 N 
ATOM     63  H38 1AQ d   1      -4.962   4.718 -27.777  0.00  0.00     0.163 HD
BRANCH  62  64
ATOM     64  C19 1AQ d   1      -4.640   3.598 -25.989  0.00  0.00     0.042 C 
ATOM     65  C21 1AQ d   1      -6.010   3.429 -25.318  0.00  0.00    -0.022 C 
ATOM     66  C22 1AQ d   1      -5.972   3.920 -23.865  0.00  0.00     0.028 C 
ATOM     67  H40 1AQ d   1      -6.289   2.365 -25.331  0.00  0.00     0.039 H 
ATOM     68  H41 1AQ d   1      -6.758   4.011 -25.875  0.00  0.00     0.039 H 
ATOM     69  O23 1AQ d   1      -5.533   5.281 -23.835  0.00  0.00    -0.350 OA
ATOM     70  H42 1AQ d   1      -5.275   3.297 -23.285  0.00  0.00     0.075 H 
ATOM     71  H43 1AQ d   1      -6.979   3.849 -23.427  0.00  0.00     0.075 H 
ATOM     72  C24 1AQ d   1      -4.330   5.554 -24.403  0.00  0.00     0.077 A 
ATOM     73  C25 1AQ d   1      -3.587   6.629 -23.920  0.00  0.00    -0.050 A 
ATOM     74  C29 1AQ d   1      -3.854   4.779 -25.452  0.00  0.00    -0.002 A 
ATOM     75  C26 1AQ d   1      -2.366   6.927 -24.492  0.00  0.00    -0.080 A 
ATOM     76  H44 1AQ d   1      -3.965   7.228 -23.100  0.00  0.00     0.087 H 
ATOM     77  C27 1AQ d   1      -1.887   6.151 -25.538  0.00  0.00    -0.082 A 
ATOM     78  H45 1AQ d   1      -1.784   7.764 -24.125  0.00  0.00     0.083 H 
ATOM     79  C28 1AQ d   1      -2.622   5.080 -26.017  0.00  0.00    -0.072 A 
ATOM     80  H46 1AQ d   1      -0.928   6.386 -25.985  0.00  0.00     0.083 H 
ATOM     81  H47 1AQ d   1      -2.236   4.478 -26.832  0.00  0.00     0.084 H 
ATOM     82  H39 1AQ d   1      -4.047   2.684 -25.835  0.00  0.00     0.080 H 
ENDBRANCH  62  64
ENDBRANCH   8  60
BRANCH   3  83
ATOM     83  O3  1AQ d   1     -10.318   0.605 -28.941  0.00  0.00    -0.385 OA
BRANCH  83  84
ATOM     84  C2  1AQ d   1     -11.456  -0.223 -29.239  0.00  0.00     0.017 C 
ATOM     85  H24 1AQ d   1     -12.306   0.088 -28.614  0.00  0.00     0.073 H 
ATOM     86  H25 1AQ d   1     -11.720  -0.111 -30.301  0.00  0.00     0.073 H 
BRANCH  84  87
ATOM     87  C1  1AQ d   1     -11.123  -1.694 -28.950  0.00  0.00    -0.056 C 
ATOM     88  H21 1AQ d   1     -11.998  -2.320 -29.180  0.00  0.00     0.030 H 
ATOM     89  H22 1AQ d   1     -10.860  -1.809 -27.888  0.00  0.00     0.030 H 
ATOM     90  H23 1AQ d   1     -10.273  -2.007 -29.575  0.00  0.00     0.030 H 
ENDBRANCH  84  87
ENDBRANCH  83  84
ENDBRANCH   3  83
TORSDOF 12
