REMARK  9 active torsions:
REMARK  status: ('A' for Active; 'I' for Inactive)
REMARK    1  A    between atoms: N2_1  and  C1_2 
REMARK    2  A    between atoms: N2_1  and  C3_3 
REMARK    3  A    between atoms: C3_3  and  C5_4 
REMARK    4  A    between atoms: C3_3  and  C6_5 
REMARK       I    between atoms: C6_5  and  N8_7 
REMARK    5  A    between atoms: N8_7  and  C9_8 
REMARK    6  A    between atoms: C9_8  and  C17_9 
REMARK    7  A    between atoms: C9_8  and  C11_11 
REMARK       I    between atoms: C17_9  and  N19_17 
REMARK    8  A    between atoms: C28_25  and  C30_26 
REMARK       I    between atoms: C30_26  and  N32_28 
REMARK    9  A    between atoms: N32_28  and  C33_29 
ROOT
ATOM      1  C17 1BG d   1      22.543  -8.969 -13.682  0.00  0.00     0.243 C 
ATOM      2  O18 1BG d   1      21.711  -9.454 -12.920  0.00  0.00    -0.271 OA
ATOM      3  N19 1BG d   1      22.486  -9.229 -15.013  0.00  0.00    -0.333 N 
ATOM      4  C20 1BG d   1      23.546  -8.763 -15.954  0.00  0.00     0.025 C 
ATOM      5  C21 1BG d   1      22.934  -8.486 -17.315  0.00  0.00     0.119 C 
ATOM      6  C23 1BG d   1      23.949  -8.313 -18.446  0.00  0.00    -0.035 C 
ATOM      7  C24 1BG d   1      23.100  -8.575 -19.713  0.00  0.00    -0.040 C 
ATOM      8  C25 1BG d   1      21.851  -9.331 -19.190  0.00  0.00     0.084 C 
ATOM      9  N26 1BG d   1      22.165  -9.668 -17.782  0.00  0.00    -0.063 N 
ATOM     10  C27 1BG d   1      20.995  -9.902 -16.953  0.00  0.00     0.111 C 
ATOM     11  C28 1BG d   1      21.448 -10.149 -15.481  0.00  0.00     0.115 C 
ATOM     12  H23 1BG d   1      24.317  -9.541 -16.051  0.00  0.00     0.067 H 
ATOM     13  H24 1BG d   1      24.002  -7.841 -15.564  0.00  0.00     0.067 H 
ATOM     14  H25 1BG d   1      22.291  -7.596 -17.238  0.00  0.00     0.087 H 
ATOM     15  H26 1BG d   1      24.767  -9.043 -18.359  0.00  0.00     0.036 H 
ATOM     16  H27 1BG d   1      24.366  -7.295 -18.452  0.00  0.00     0.036 H 
ATOM     17  H28 1BG d   1      23.656  -9.193 -20.433  0.00  0.00     0.035 H 
ATOM     18  H29 1BG d   1      22.810  -7.627 -20.190  0.00  0.00     0.035 H 
ATOM     19  H30 1BG d   1      21.679 -10.245 -19.777  0.00  0.00     0.076 H 
ATOM     20  H31 1BG d   1      20.960  -8.688 -19.244  0.00  0.00     0.076 H 
ATOM     21  H32 1BG d   1      22.741 -10.494 -17.751  0.00  0.00     0.280 HD
ATOM     22  H33 1BG d   1      20.453 -10.784 -17.323  0.00  0.00     0.080 H 
ATOM     23  H34 1BG d   1      20.335  -9.023 -16.992  0.00  0.00     0.080 H 
ATOM     24  H35 1BG d   1      20.558  -9.993 -14.854  0.00  0.00     0.090 H 
ENDROOT
BRANCH   1  25
ATOM     25  C9  1BG d   1      23.643  -8.091 -13.115  0.00  0.00     0.093 C 
ATOM     26  H11 1BG d   1      23.780  -7.209 -13.758  0.00  0.00     0.088 H 
BRANCH  25  27
ATOM     27  N8  1BG d   1      23.202  -7.653 -11.776  0.00  0.00    -0.346 N 
ATOM     28  C6  1BG d   1      23.104  -6.356 -11.433  0.00  0.00     0.248 C 
ATOM     29  O7  1BG d   1      23.417  -5.439 -12.178  0.00  0.00    -0.271 OA
ATOM     30  H10 1BG d   1      22.967  -8.348 -11.097  0.00  0.00     0.163 HD
BRANCH  28  31
ATOM     31  C3  1BG d   1      22.616  -6.049 -10.041  0.00  0.00     0.174 C 
ATOM     32  H6  1BG d   1      23.067  -6.765  -9.338  0.00  0.00     0.098 H 
BRANCH  31  33
ATOM     33  N2  1BG d   1      23.006  -4.683  -9.642  0.00  0.00    -0.067 N 
ATOM     34  H1  1BG d   1      22.742  -4.048 -10.379  0.00  0.00     0.277 HD
ATOM     35  H2  1BG d   1      22.510  -4.443  -8.798  0.00  0.00     0.277 HD
BRANCH  33  36
ATOM     36  C1  1BG d   1      24.450  -4.536  -9.393  0.00  0.00     0.066 C 
ATOM     37  H3  1BG d   1      24.668  -3.498  -9.101  0.00  0.00     0.067 H 
ATOM     38  H4  1BG d   1      25.007  -4.784 -10.308  0.00  0.00     0.067 H 
ATOM     39  H5  1BG d   1      24.753  -5.216  -8.583  0.00  0.00     0.067 H 
ENDBRANCH  33  36
ENDBRANCH  31  33
BRANCH  31  40
ATOM     40  C5  1BG d   1      21.090  -6.196  -9.997  0.00  0.00    -0.041 C 
ATOM     41  H7  1BG d   1      20.811  -7.217 -10.296  0.00  0.00     0.030 H 
ATOM     42  H8  1BG d   1      20.632  -5.474 -10.688  0.00  0.00     0.030 H 
ATOM     43  H9  1BG d   1      20.732  -6.003  -8.975  0.00  0.00     0.030 H 
ENDBRANCH  31  40
ENDBRANCH  28  31
ENDBRANCH  25  27
BRANCH  25  44
ATOM     44  C11 1BG d   1      24.974  -8.874 -13.060  0.00  0.00    -0.026 C 
ATOM     45  C16 1BG d   1      24.823 -10.213 -12.308  0.00  0.00    -0.059 C 
ATOM     46  C15 1BG d   1      26.163 -10.965 -12.228  0.00  0.00    -0.065 C 
ATOM     47  H13 1BG d   1      24.091 -10.841 -12.838  0.00  0.00     0.033 H 
ATOM     48  H14 1BG d   1      24.464 -10.012 -11.288  0.00  0.00     0.033 H 
ATOM     49  C14 1BG d   1      27.199 -10.052 -11.575  0.00  0.00    -0.065 C 
ATOM     50  H15 1BG d   1      26.496 -11.237 -13.241  0.00  0.00     0.033 H 
ATOM     51  H16 1BG d   1      26.040 -11.877 -11.625  0.00  0.00     0.033 H 
ATOM     52  C13 1BG d   1      27.412  -8.792 -12.423  0.00  0.00    -0.065 C 
ATOM     53  H17 1BG d   1      28.152 -10.593 -11.484  0.00  0.00     0.033 H 
ATOM     54  H18 1BG d   1      26.846  -9.760 -10.575  0.00  0.00     0.033 H 
ATOM     55  C12 1BG d   1      26.091  -8.011 -12.442  0.00  0.00    -0.059 C 
ATOM     56  H19 1BG d   1      27.695  -9.074 -13.448  0.00  0.00     0.033 H 
ATOM     57  H20 1BG d   1      28.206  -8.173 -11.981  0.00  0.00     0.033 H 
ATOM     58  H21 1BG d   1      25.814  -7.740 -11.413  0.00  0.00     0.033 H 
ATOM     59  H22 1BG d   1      26.218  -7.097 -13.040  0.00  0.00     0.033 H 
ATOM     60  H12 1BG d   1      25.265  -9.107 -14.095  0.00  0.00     0.043 H 
ENDBRANCH  25  44
ENDBRANCH   1  25
BRANCH  11  61
ATOM     61  C30 1BG d   1      21.950 -11.554 -15.225  0.00  0.00     0.242 C 
ATOM     62  O31 1BG d   1      23.137 -11.808 -15.019  0.00  0.00    -0.271 OA
ATOM     63  N32 1BG d   1      20.997 -12.507 -15.174  0.00  0.00    -0.351 N 
ATOM     64  H36 1BG d   1      20.048 -12.238 -15.336  0.00  0.00     0.163 HD
BRANCH  63  65
ATOM     65  C33 1BG d   1      21.282 -13.916 -14.893  0.00  0.00     0.038 C 
ATOM     66  C34 1BG d   1      21.737 -14.643 -16.171  0.00  0.00    -0.042 C 
ATOM     67  C35 1BG d   1      20.539 -15.145 -16.980  0.00  0.00    -0.059 C 
ATOM     68  H38 1BG d   1      22.365 -15.501 -15.891  0.00  0.00     0.036 H 
ATOM     69  H39 1BG d   1      22.322 -13.947 -16.791  0.00  0.00     0.036 H 
ATOM     70  C36 1BG d   1      19.764 -16.177 -16.143  0.00  0.00    -0.040 C 
ATOM     71  H40 1BG d   1      20.893 -15.615 -17.909  0.00  0.00     0.033 H 
ATOM     72  H41 1BG d   1      19.880 -14.299 -17.225  0.00  0.00     0.033 H 
ATOM     73  C37 1BG d   1      19.352 -15.567 -14.811  0.00  0.00    -0.050 A 
ATOM     74  H42 1BG d   1      20.405 -17.052 -15.960  0.00  0.00     0.040 H 
ATOM     75  H43 1BG d   1      18.865 -16.490 -16.693  0.00  0.00     0.040 H 
ATOM     76  C38 1BG d   1      18.238 -16.093 -14.155  0.00  0.00    -0.076 A 
ATOM     77  C42 1BG d   1      20.065 -14.525 -14.237  0.00  0.00    -0.029 A 
ATOM     78  C39 1BG d   1      17.821 -15.567 -12.941  0.00  0.00    -0.082 A 
ATOM     79  H44 1BG d   1      17.694 -16.919 -14.598  0.00  0.00     0.084 H 
ATOM     80  C40 1BG d   1      18.523 -14.501 -12.380  0.00  0.00    -0.082 A 
ATOM     81  H45 1BG d   1      16.957 -15.981 -12.433  0.00  0.00     0.083 H 
ATOM     82  C41 1BG d   1      19.635 -13.982 -13.023  0.00  0.00    -0.074 A 
ATOM     83  H46 1BG d   1      18.198 -14.077 -11.437  0.00  0.00     0.083 H 
ATOM     84  H47 1BG d   1      20.174 -13.151 -12.583  0.00  0.00     0.084 H 
ATOM     85  H37 1BG d   1      22.113 -13.967 -14.174  0.00  0.00     0.080 H 
ENDBRANCH  63  65
ENDBRANCH  11  61
TORSDOF 9
