REMARK  12 active torsions:
REMARK  status: ('A' for Active; 'I' for Inactive)
REMARK    1  A    between atoms: N40_1  and  C41_2 
REMARK    2  A    between atoms: C37_3  and  N40_1 
REMARK    3  A    between atoms: C37_3  and  C39_4 
REMARK    4  A    between atoms: C35_5  and  C37_3 
REMARK       I    between atoms: N34_10  and  C35_5 
REMARK    5  A    between atoms: C30_7  and  C32_9 
REMARK       I    between atoms: N10_26  and  C30_7 
REMARK    6  A    between atoms: C32_9  and  N34_10 
REMARK    7  A    between atoms: C32_9  and  C42_11 
REMARK    8  A    between atoms: C2_20  and  C1_19 
REMARK    9  A    between atoms: O3_21  and  C2_20 
REMARK   10  A    between atoms: C4_22  and  O3_21 
REMARK   11  A    between atoms: C11_27  and  C16_31 
REMARK       I    between atoms: C16_31  and  N18_33 
REMARK   12  A    between atoms: N18_33  and  C19_34 
ROOT
ATOM      1  C30 1AQ d   1       8.106  24.031  21.352  0.00  0.00     0.243 C 
ATOM      2  O31 1AQ d   1       7.609  24.090  22.463  0.00  0.00    -0.271 OA
ATOM      3  C4  1AQ d   1      11.736  20.106  18.515  0.00  0.00     0.063 C 
ATOM      4  C6  1AQ d   1      11.133  21.518  18.298  0.00  0.00    -0.011 C 
ATOM      5  C7  1AQ d   1      10.029  21.565  19.379  0.00  0.00     0.121 C 
ATOM      6  C9  1AQ d   1       9.656  22.997  19.735  0.00  0.00     0.025 C 
ATOM      7  N10 1AQ d   1       8.990  23.052  21.065  0.00  0.00    -0.333 N 
ATOM      8  C11 1AQ d   1       9.335  22.122  22.149  0.00  0.00     0.115 C 
ATOM      9  C13 1AQ d   1       9.858  20.755  21.662  0.00  0.00     0.111 C 
ATOM     10  N14 1AQ d   1      10.733  20.942  20.522  0.00  0.00    -0.060 N 
ATOM     11  C15 1AQ d   1      11.271  19.708  19.940  0.00  0.00     0.108 C 
ATOM     12  H26 1AQ d   1      11.360  19.397  17.763  0.00  0.00     0.086 H 
ATOM     13  H27 1AQ d   1      10.709  21.621  17.288  0.00  0.00     0.040 H 
ATOM     14  H28 1AQ d   1      11.886  22.303  18.461  0.00  0.00     0.040 H 
ATOM     15  H29 1AQ d   1       9.134  21.001  19.079  0.00  0.00     0.087 H 
ATOM     16  H30 1AQ d   1       8.970  23.392  18.971  0.00  0.00     0.067 H 
ATOM     17  H31 1AQ d   1      10.568  23.612  19.762  0.00  0.00     0.067 H 
ATOM     18  H32 1AQ d   1       8.421  21.936  22.732  0.00  0.00     0.090 H 
ATOM     19  H33 1AQ d   1       9.008  20.122  21.369  0.00  0.00     0.080 H 
ATOM     20  H34 1AQ d   1      10.416  20.267  22.475  0.00  0.00     0.080 H 
ATOM     21  H35 1AQ d   1      11.496  21.530  20.818  0.00  0.00     0.280 HD
ATOM     22  H36 1AQ d   1      12.119  19.338  20.534  0.00  0.00     0.080 H 
ATOM     23  H37 1AQ d   1      10.492  18.933  19.890  0.00  0.00     0.080 H 
ENDROOT
BRANCH   1  24
ATOM     24  C32 1AQ d   1       7.691  25.047  20.328  0.00  0.00     0.093 C 
ATOM     25  H10 1AQ d   1       7.560  24.552  19.355  0.00  0.00     0.088 H 
BRANCH  24  26
ATOM     26  N34 1AQ d   1       6.406  25.572  20.777  0.00  0.00    -0.346 N 
ATOM     27  C35 1AQ d   1       5.299  25.528  20.012  0.00  0.00     0.248 C 
ATOM     28  O36 1AQ d   1       5.356  25.049  18.900  0.00  0.00    -0.271 OA
ATOM     29  H11 1AQ d   1       6.345  25.980  21.688  0.00  0.00     0.163 HD
BRANCH  27  30
ATOM     30  C37 1AQ d   1       4.002  26.086  20.564  0.00  0.00     0.174 C 
ATOM     31  H6  1AQ d   1       4.243  26.924  21.235  0.00  0.00     0.098 H 
BRANCH  30  32
ATOM     32  N40 1AQ d   1       3.121  26.604  19.483  0.00  0.00    -0.067 N 
ATOM     33  H1  1AQ d   1       3.081  25.919  18.745  0.00  0.00     0.277 HD
ATOM     34  H2  1AQ d   1       2.197  26.745  19.861  0.00  0.00     0.277 HD
BRANCH  32  35
ATOM     35  C41 1AQ d   1       3.599  27.884  18.913  0.00  0.00     0.066 C 
ATOM     36  H3  1AQ d   1       2.909  28.214  18.122  0.00  0.00     0.067 H 
ATOM     37  H4  1AQ d   1       4.604  27.744  18.488  0.00  0.00     0.067 H 
ATOM     38  H5  1AQ d   1       3.640  28.646  19.705  0.00  0.00     0.067 H 
ENDBRANCH  32  35
ENDBRANCH  30  32
BRANCH  30  39
ATOM     39  C39 1AQ d   1       3.296  24.991  21.386  0.00  0.00    -0.041 C 
ATOM     40  H7  1AQ d   1       3.973  24.631  22.174  0.00  0.00     0.030 H 
ATOM     41  H8  1AQ d   1       3.024  24.154  20.726  0.00  0.00     0.030 H 
ATOM     42  H9  1AQ d   1       2.387  25.406  21.845  0.00  0.00     0.030 H 
ENDBRANCH  30  39
ENDBRANCH  27  30
ENDBRANCH  24  26
BRANCH  24  43
ATOM     43  C42 1AQ d   1       8.742  26.147  20.165  0.00  0.00    -0.026 C 
ATOM     44  C43 1AQ d   1       8.260  27.132  19.086  0.00  0.00    -0.054 C 
ATOM     45  C44 1AQ d   1       9.357  28.177  18.839  0.00  0.00    -0.004 C 
ATOM     46  H13 1AQ d   1       7.343  27.634  19.428  0.00  0.00     0.034 H 
ATOM     47  H14 1AQ d   1       8.054  26.586  18.154  0.00  0.00     0.034 H 
ATOM     48  C45 1AQ d   1       9.723  28.911  20.145  0.00  0.00     0.243 C 
ATOM     49  H15 1AQ d   1       8.996  28.910  18.103  0.00  0.00     0.041 H 
ATOM     50  H16 1AQ d   1      10.252  27.673  18.446  0.00  0.00     0.041 H 
ATOM     51  F46 1AQ d   1      10.829  29.736  19.886  0.00  0.00    -0.206 F 
ATOM     52  F47 1AQ d   1       8.629  29.697  20.540  0.00  0.00    -0.206 F 
ATOM     53  C48 1AQ d   1      10.089  27.940  21.287  0.00  0.00    -0.004 C 
ATOM     54  C49 1AQ d   1       8.979  26.893  21.496  0.00  0.00    -0.054 C 
ATOM     55  H17 1AQ d   1      10.224  28.512  22.217  0.00  0.00     0.041 H 
ATOM     56  H18 1AQ d   1      11.027  27.424  21.034  0.00  0.00     0.041 H 
ATOM     57  H19 1AQ d   1       9.288  26.177  22.271  0.00  0.00     0.034 H 
ATOM     58  H20 1AQ d   1       8.052  27.395  21.809  0.00  0.00     0.034 H 
ATOM     59  H12 1AQ d   1       9.690  25.692  19.842  0.00  0.00     0.043 H 
ENDBRANCH  24  43
ENDBRANCH   1  24
BRANCH   8  60
ATOM     60  C16 1AQ d   1      10.348  22.775  23.051  0.00  0.00     0.242 C 
ATOM     61  O17 1AQ d   1      10.993  23.726  22.643  0.00  0.00    -0.271 OA
ATOM     62  N18 1AQ d   1      10.492  22.304  24.304  0.00  0.00    -0.350 N 
ATOM     63  H38 1AQ d   1       9.943  21.517  24.585  0.00  0.00     0.163 HD
BRANCH  62  64
ATOM     64  C19 1AQ d   1      11.417  22.894  25.274  0.00  0.00     0.042 C 
ATOM     65  C21 1AQ d   1      12.839  22.341  25.093  0.00  0.00    -0.022 C 
ATOM     66  C22 1AQ d   1      13.087  21.087  25.950  0.00  0.00     0.028 C 
ATOM     67  H40 1AQ d   1      13.561  23.118  25.384  0.00  0.00     0.039 H 
ATOM     68  H41 1AQ d   1      12.986  22.082  24.034  0.00  0.00     0.039 H 
ATOM     69  O23 1AQ d   1      12.799  21.406  27.323  0.00  0.00    -0.350 OA
ATOM     70  H42 1AQ d   1      14.137  20.774  25.855  0.00  0.00     0.075 H 
ATOM     71  H43 1AQ d   1      12.430  20.272  25.613  0.00  0.00     0.075 H 
ATOM     72  C24 1AQ d   1      11.560  21.902  27.599  0.00  0.00     0.077 A 
ATOM     73  C25 1AQ d   1      11.008  21.670  28.863  0.00  0.00    -0.050 A 
ATOM     74  C29 1AQ d   1      10.848  22.622  26.651  0.00  0.00    -0.002 A 
ATOM     75  C26 1AQ d   1       9.742  22.155  29.152  0.00  0.00    -0.080 A 
ATOM     76  H44 1AQ d   1      11.565  21.116  29.610  0.00  0.00     0.087 H 
ATOM     77  C27 1AQ d   1       9.035  22.876  28.194  0.00  0.00    -0.082 A 
ATOM     78  H45 1AQ d   1       9.302  21.973  30.126  0.00  0.00     0.083 H 
ATOM     79  C28 1AQ d   1       9.581  23.110  26.944  0.00  0.00    -0.072 A 
ATOM     80  H46 1AQ d   1       8.048  23.258  28.429  0.00  0.00     0.083 H 
ATOM     81  H47 1AQ d   1       9.025  23.669  26.200  0.00  0.00     0.084 H 
ATOM     82  H39 1AQ d   1      11.456  23.982  25.117  0.00  0.00     0.080 H 
ENDBRANCH  62  64
ENDBRANCH   8  60
BRANCH   3  83
ATOM     83  O3  1AQ d   1      13.161  20.156  18.463  0.00  0.00    -0.385 OA
BRANCH  83  84
ATOM     84  C2  1AQ d   1      13.784  19.102  17.723  0.00  0.00     0.017 C 
ATOM     85  H24 1AQ d   1      13.480  18.131  18.142  0.00  0.00     0.073 H 
ATOM     86  H25 1AQ d   1      13.472  19.160  16.670  0.00  0.00     0.073 H 
BRANCH  84  87
ATOM     87  C1  1AQ d   1      15.309  19.241  17.812  0.00  0.00    -0.056 C 
ATOM     88  H21 1AQ d   1      15.785  18.429  17.242  0.00  0.00     0.030 H 
ATOM     89  H22 1AQ d   1      15.622  19.182  18.865  0.00  0.00     0.030 H 
ATOM     90  H23 1AQ d   1      15.614  20.211  17.393  0.00  0.00     0.030 H 
ENDBRANCH  84  87
ENDBRANCH  83  84
ENDBRANCH   3  83
TORSDOF 12
