REMARK  32 active torsions:
REMARK  status: ('A' for Active; 'I' for Inactive)
REMARK    1  A    between atoms: N_1  and  CA_2 
REMARK    2  A    between atoms: CA_2  and  C_3 
REMARK    3  A    between atoms: CA_2  and  CB_5 
REMARK       I    between atoms: C_3  and  N_9 
REMARK    4  A    between atoms: CB_5  and  CG_6 
REMARK    5  A    between atoms: CG_6  and  CD1_7 
REMARK    6  A    between atoms: CG_6  and  CD2_8 
REMARK    7  A    between atoms: N_9  and  CA_10 
REMARK    8  A    between atoms: CA_10  and  C_11 
REMARK    9  A    between atoms: CA_10  and  CB_13 
REMARK       I    between atoms: C_11  and  N_21 
REMARK   10  A    between atoms: CB_13  and  CG_14 
REMARK   11  A    between atoms: CZ_19  and  OH_20 
REMARK   12  A    between atoms: N_21  and  CA_22 
REMARK   13  A    between atoms: CA_22  and  C_23 
REMARK   14  A    between atoms: CA_22  and  CB_25 
REMARK       I    between atoms: C_23  and  N_32 
REMARK   15  A    between atoms: CB_25  and  CG_26 
REMARK   16  A    between atoms: N_32  and  CA_33 
REMARK   17  A    between atoms: CA_33  and  C_34 
REMARK   18  A    between atoms: CA_33  and  CB_36 
REMARK       I    between atoms: C_34  and  N_43 
REMARK   19  A    between atoms: CB_36  and  CG_37 
REMARK   20  A    between atoms: CA_44  and  C_45 
REMARK       I    between atoms: C_45  and  N_50 
REMARK   21  A    between atoms: N_50  and  CA_51 
REMARK   22  A    between atoms: CA_51  and  C_52 
REMARK   23  A    between atoms: CA_51  and  CB_54 
REMARK       I    between atoms: C_52  and  N_61 
REMARK   24  A    between atoms: CB_54  and  CG_55 
REMARK   25  A    between atoms: CG_55  and  CD_56 
REMARK   26  A    between atoms: CD_56  and  NE_57 
REMARK       I    between atoms: NE_57  and  CZ_58 
REMARK       I    between atoms: CZ_58  and  NH1_59 
REMARK       I    between atoms: CZ_58  and  NH2_60 
REMARK   27  A    between atoms: CA_62  and  C_63 
REMARK       I    between atoms: C_63  and  N_68 
REMARK   28  A    between atoms: N_68  and  CA_69 
REMARK   29  A    between atoms: CA_69  and  C_70 
REMARK   30  A    between atoms: CA_69  and  CB_72 
REMARK       I    between atoms: C_70  and  N_75 
REMARK   31  A    between atoms: CB_72  and  OG1_73 
REMARK   32  A    between atoms: CB_72  and  CG2_74 
ROOT
ATOM      1  CA  ALC d   1     -39.221  34.275 -14.528  0.00  0.00     0.090 C 
ATOM      2  H39 ALC d   1     -38.350  34.003 -15.143  0.00  0.00     0.087 H 
ENDROOT
BRANCH   1   3
ATOM      3  N   ALC d   1     -40.439  33.802 -15.179  0.00  0.00    -0.346 N 
ATOM      4  C   ALC d   1     -40.453  32.630 -15.809  0.00  0.00     0.241 C 
ATOM      5  O   ALC d   1     -39.504  31.809 -15.776  0.00  0.00    -0.271 OA
ATOM      6  H38 ALC d   1     -41.267  34.362 -15.151  0.00  0.00     0.163 HD
BRANCH   4   7
ATOM      7  CA  ALC d   1     -41.772  32.296 -16.457  0.00  0.00     0.089 C 
ATOM      8  H24 ALC d   1     -42.343  33.224 -16.608  0.00  0.00     0.087 H 
BRANCH   7   9
ATOM      9  N   ALC d   1     -41.562  31.651 -17.734  0.00  0.00    -0.346 N 
ATOM     10  C   TYR d   1     -42.030  32.185 -18.846  0.00  0.00     0.241 C 
ATOM     11  O   TYR d   1     -42.583  33.306 -18.919  0.00  0.00    -0.271 OA
ATOM     12  H23 ALC d   1     -41.056  30.790 -17.775  0.00  0.00     0.163 HD
BRANCH  10  13
ATOM     13  CA  TYR d   1     -41.831  31.342 -20.111  0.00  0.00     0.093 C 
ATOM     14  H15 TYR d   1     -40.824  30.902 -20.150  0.00  0.00     0.088 H 
BRANCH  13  15
ATOM     15  N   TYR d   1     -42.817  30.343 -20.191  0.00  0.00    -0.346 N 
ATOM     16  C   LEU d   1     -42.557  29.081 -20.521  0.00  0.00     0.249 C 
ATOM     17  O   LEU d   1     -41.402  28.635 -20.636  0.00  0.00    -0.271 OA
ATOM     18  H14 TYR d   1     -43.764  30.595 -19.989  0.00  0.00     0.163 HD
BRANCH  16  19
ATOM     19  CA  LEU d   1     -43.809  28.212 -20.801  0.00  0.00     0.176 C 
ATOM     20  H4  LEU d   1     -44.578  28.923 -21.138  0.00  0.00     0.099 H 
BRANCH  19  21
ATOM     21  N   LEU d   1     -43.625  27.251 -21.952  0.00  0.00    -0.066 N 
ATOM     22  H1  LEU d   1     -44.470  26.718 -22.083  0.00  0.00     0.275 HD
ATOM     23  H2  LEU d   1     -42.861  26.626 -21.749  0.00  0.00     0.275 HD
ATOM     24  H3  LEU d   1     -43.421  27.769 -22.793  0.00  0.00     0.275 HD
ENDBRANCH  19  21
BRANCH  19  25
ATOM     25  CB  LEU d   1     -44.424  27.519 -19.520  0.00  0.00    -0.028 C 
ATOM     26  H5  LEU d   1     -44.172  28.172 -18.671  0.00  0.00     0.037 H 
ATOM     27  H6  LEU d   1     -43.899  26.558 -19.413  0.00  0.00     0.037 H 
BRANCH  25  28
ATOM     28  CG  LEU d   1     -45.933  27.199 -19.380  0.00  0.00    -0.059 C 
ATOM     29  H7  LEU d   1     -46.407  28.120 -19.009  0.00  0.00     0.038 H 
BRANCH  28  30
ATOM     30  CD1 LEU d   1     -46.671  26.818 -20.669  0.00  0.00    -0.073 C 
ATOM     31  H8  LEU d   1     -47.728  26.616 -20.440  0.00  0.00     0.028 H 
ATOM     32  H9  LEU d   1     -46.211  25.918 -21.103  0.00  0.00     0.028 H 
ATOM     33  H10 LEU d   1     -46.604  27.647 -21.389  0.00  0.00     0.028 H 
ENDBRANCH  28  30
BRANCH  28  34
ATOM     34  CD2 LEU d   1     -46.166  26.108 -18.336  0.00  0.00    -0.073 C 
ATOM     35  H11 LEU d   1     -45.640  26.372 -17.406  0.00  0.00     0.028 H 
ATOM     36  H12 LEU d   1     -45.782  25.150 -18.715  0.00  0.00     0.028 H 
ATOM     37  H13 LEU d   1     -47.244  26.017 -18.135  0.00  0.00     0.028 H 
ENDBRANCH  28  34
ENDBRANCH  25  28
ENDBRANCH  19  25
ENDBRANCH  16  19
ENDBRANCH  13  15
BRANCH  13  38
ATOM     38  CB  TYR d   1     -42.075  32.337 -21.266  0.00  0.00    -0.014 C 
ATOM     39  H16 TYR d   1     -41.410  33.203 -21.131  0.00  0.00     0.043 H 
ATOM     40  H17 TYR d   1     -43.123  32.670 -21.228  0.00  0.00     0.043 H 
BRANCH  38  41
ATOM     41  CG  TYR d   1     -41.799  31.708 -22.677  0.00  0.00    -0.056 A 
ATOM     42  CD1 TYR d   1     -40.475  31.483 -23.075  0.00  0.00    -0.074 A 
ATOM     43  CE1 TYR d   1     -40.153  30.875 -24.294  0.00  0.00    -0.051 A 
ATOM     44  H18 TYR d   1     -39.671  31.791 -22.416  0.00  0.00     0.084 H 
ATOM     45  CZ  TYR d   1     -41.201  30.409 -25.115  0.00  0.00     0.065 A 
ATOM     46  H20 TYR d   1     -39.119  30.765 -24.601  0.00  0.00     0.087 H 
ATOM     47  CE2 TYR d   1     -42.547  30.573 -24.747  0.00  0.00    -0.051 A 
ATOM     48  CD2 TYR d   1     -42.851  31.177 -23.497  0.00  0.00    -0.074 A 
ATOM     49  H21 TYR d   1     -43.342  30.244 -25.407  0.00  0.00     0.087 H 
ATOM     50  H19 TYR d   1     -43.880  31.237 -23.162  0.00  0.00     0.084 H 
BRANCH  45  51
ATOM     51  OH  TYR d   1     -40.828  29.795 -26.293  0.00  0.00    -0.361 OA
ATOM     52  H22 TYR d   1     -39.880  29.783 -26.356  0.00  0.00     0.217 HD
ENDBRANCH  45  51
ENDBRANCH  38  41
ENDBRANCH  13  38
ENDBRANCH  10  13
ENDBRANCH   7   9
BRANCH   7  53
ATOM     53  CB  ALC d   1     -42.579  31.337 -15.548  0.00  0.00    -0.035 C 
ATOM     54  H25 ALC d   1     -42.646  31.776 -14.542  0.00  0.00     0.037 H 
ATOM     55  H26 ALC d   1     -42.051  30.373 -15.493  0.00  0.00     0.037 H 
BRANCH  53  56
ATOM     56  CG  ALC d   1     -44.012  31.091 -16.081  0.00  0.00    -0.052 C 
ATOM     57  CD2 ALC d   1     -44.715  29.903 -15.329  0.00  0.00    -0.062 C 
ATOM     58  CE2 ALC d   1     -46.205  29.794 -15.822  0.00  0.00    -0.065 C 
ATOM     59  H28 ALC d   1     -44.698  30.091 -14.245  0.00  0.00     0.033 H 
ATOM     60  H29 ALC d   1     -44.185  28.964 -15.546  0.00  0.00     0.033 H 
ATOM     61  CZ  ALC d   1     -46.965  31.073 -15.458  0.00  0.00    -0.065 C 
ATOM     62  H30 ALC d   1     -46.688  28.932 -15.339  0.00  0.00     0.033 H 
ATOM     63  H31 ALC d   1     -46.220  29.658 -16.913  0.00  0.00     0.033 H 
ATOM     64  CE1 ALC d   1     -46.337  32.192 -16.305  0.00  0.00    -0.065 C 
ATOM     65  H32 ALC d   1     -46.851  31.294 -14.387  0.00  0.00     0.033 H 
ATOM     66  H33 ALC d   1     -48.033  30.965 -15.698  0.00  0.00     0.033 H 
ATOM     67  CD1 ALC d   1     -44.844  32.350 -15.917  0.00  0.00    -0.062 C 
ATOM     68  H34 ALC d   1     -46.868  33.137 -16.117  0.00  0.00     0.033 H 
ATOM     69  H35 ALC d   1     -46.414  31.933 -17.371  0.00  0.00     0.033 H 
ATOM     70  H36 ALC d   1     -44.406  33.136 -16.550  0.00  0.00     0.033 H 
ATOM     71  H37 ALC d   1     -44.794  32.659 -14.863  0.00  0.00     0.033 H 
ATOM     72  H27 ALC d   1     -43.949  30.841 -17.150  0.00  0.00     0.040 H 
ENDBRANCH  53  56
ENDBRANCH   7  53
ENDBRANCH   4   7
ENDBRANCH   1   3
BRANCH   1  73
ATOM     73  C   ALC d   1     -39.135  33.574 -13.138  0.00  0.00     0.243 C 
ATOM     74  O   ALC d   1     -40.150  33.070 -12.614  0.00  0.00    -0.271 OA
ATOM     75  N   PRO d   1     -37.928  33.564 -12.549  0.00  0.00    -0.337 N 
ATOM     76  CA  PRO d   1     -37.880  33.027 -11.172  0.00  0.00     0.091 C 
ATOM     77  CD  PRO d   1     -36.601  33.964 -13.063  0.00  0.00    -0.001 C 
ATOM     78  CB  PRO d   1     -36.391  33.147 -10.793  0.00  0.00    -0.036 C 
ATOM     79  H53 PRO d   1     -38.216  31.980 -11.152  0.00  0.00     0.087 H 
ATOM     80  CG  PRO d   1     -35.663  33.193 -12.164  0.00  0.00    -0.048 C 
ATOM     81  H54 PRO d   1     -36.065  32.276 -10.205  0.00  0.00     0.036 H 
ATOM     82  H55 PRO d   1     -36.205  34.067 -10.220  0.00  0.00     0.036 H 
ATOM     83  H56 PRO d   1     -35.500  32.177 -12.552  0.00  0.00     0.035 H 
ATOM     84  H57 PRO d   1     -34.697  33.711 -12.074  0.00  0.00     0.035 H 
ATOM     85  H58 PRO d   1     -36.446  35.048 -12.964  0.00  0.00     0.064 H 
ATOM     86  H59 PRO d   1     -36.476  33.670 -14.116  0.00  0.00     0.064 H 
BRANCH  76  87
ATOM     87  C   PRO d   1     -38.716  33.852 -10.191  0.00  0.00     0.241 C 
ATOM     88  O   PRO d   1     -38.972  35.017 -10.376  0.00  0.00    -0.271 OA
ATOM     89  N   ARG d   1     -39.180  33.155  -9.169  0.00  0.00    -0.346 N 
ATOM     90  H60 ARG d   1     -38.980  32.176  -9.128  0.00  0.00     0.163 HD
BRANCH  89  91
ATOM     91  CA  ARG d   1     -39.993  33.767  -8.069  0.00  0.00     0.089 C 
ATOM     92  H61 ARG d   1     -40.791  34.382  -8.510  0.00  0.00     0.087 H 
BRANCH  91  93
ATOM     93  C   ARG d   1     -39.088  34.660  -7.245  0.00  0.00     0.243 C 
ATOM     94  O   ARG d   1     -37.872  34.644  -7.339  0.00  0.00    -0.271 OA
ATOM     95  N   PRO d   1     -39.698  35.436  -6.348  0.00  0.00    -0.337 N 
ATOM     96  CA  PRO d   1     -38.788  36.274  -5.555  0.00  0.00     0.091 C 
ATOM     97  CD  PRO d   1     -41.122  35.711  -6.118  0.00  0.00    -0.001 C 
ATOM     98  CB  PRO d   1     -39.735  37.091  -4.702  0.00  0.00    -0.036 C 
ATOM     99  H73 PRO d   1     -38.185  36.913  -6.217  0.00  0.00     0.087 H 
ATOM    100  CG  PRO d   1     -41.046  37.070  -5.506  0.00  0.00    -0.048 C 
ATOM    101  H74 PRO d   1     -39.365  38.120  -4.578  0.00  0.00     0.036 H 
ATOM    102  H75 PRO d   1     -39.872  36.629  -3.713  0.00  0.00     0.036 H 
ATOM    103  H76 PRO d   1     -41.029  37.843  -6.289  0.00  0.00     0.035 H 
ATOM    104  H77 PRO d   1     -41.906  37.240  -4.842  0.00  0.00     0.035 H 
ATOM    105  H78 PRO d   1     -41.570  34.980  -5.428  0.00  0.00     0.064 H 
ATOM    106  H79 PRO d   1     -41.690  35.722  -7.060  0.00  0.00     0.064 H 
BRANCH  96 107
ATOM    107  C   PRO d   1     -37.856  35.495  -4.615  0.00  0.00     0.241 C 
ATOM    108  O   PRO d   1     -38.186  34.380  -4.226  0.00  0.00    -0.271 OA
ATOM    109  N   THR d   1     -36.675  36.065  -4.390  0.00  0.00    -0.344 N 
ATOM    110  H80 THR d   1     -36.453  36.955  -4.788  0.00  0.00     0.163 HD
BRANCH 109 111
ATOM    111  CA  THR d   1     -35.701  35.356  -3.542  0.00  0.00     0.113 C 
ATOM    112  H81 THR d   1     -35.627  34.312  -3.882  0.00  0.00     0.091 H 
BRANCH 111 113
ATOM    113  C   THR d   1     -36.230  35.374  -2.096  0.00  0.00     0.240 C 
ATOM    114  O   THR d   1     -37.068  36.190  -1.720  0.00  0.00    -0.271 OA
ATOM    115  N   THR d   1     -35.709  34.458  -1.274  0.00  0.00    -0.368 N 
ATOM    116  H87 THR d   1     -36.008  34.414  -0.321  0.00  0.00     0.159 HD
ATOM    117  H88 THR d   1     -35.020  33.817  -1.612  0.00  0.00     0.159 HD
ENDBRANCH 111 113
BRANCH 111 118
ATOM    118  CB  THR d   1     -34.327  35.979  -3.629  0.00  0.00     0.060 C 
ATOM    119  H82 THR d   1     -33.642  35.544  -2.887  0.00  0.00     0.086 H 
BRANCH 118 120
ATOM    120  OG1 THR d   1     -34.479  37.385  -3.437  0.00  0.00    -0.393 OA
ATOM    121  H83 THR d   1     -34.864  37.547  -2.584  0.00  0.00     0.210 HD
ENDBRANCH 118 120
BRANCH 118 122
ATOM    122  CG2 THR d   1     -33.810  35.768  -5.065  0.00  0.00    -0.050 C 
ATOM    123  H84 THR d   1     -32.808  36.211  -5.163  0.00  0.00     0.031 H 
ATOM    124  H85 THR d   1     -34.496  36.251  -5.776  0.00  0.00     0.031 H 
ATOM    125  H86 THR d   1     -33.757  34.691  -5.281  0.00  0.00     0.031 H 
ENDBRANCH 118 122
ENDBRANCH 111 118
ENDBRANCH 109 111
ENDBRANCH  96 107
ENDBRANCH  91  93
BRANCH  91 126
ATOM    126  CB  ARG d   1     -40.640  32.670  -7.221  0.00  0.00    -0.036 C 
ATOM    127  H62 ARG d   1     -41.021  33.104  -6.285  0.00  0.00     0.036 H 
ATOM    128  H63 ARG d   1     -39.894  31.895  -6.989  0.00  0.00     0.036 H 
BRANCH 126 129
ATOM    129  CG  ARG d   1     -41.800  32.047  -8.008  0.00  0.00    -0.048 C 
ATOM    130  H64 ARG d   1     -41.454  31.834  -9.030  0.00  0.00     0.035 H 
ATOM    131  H65 ARG d   1     -42.626  32.772  -8.045  0.00  0.00     0.035 H 
BRANCH 129 132
ATOM    132  CD  ARG d   1     -42.315  30.765  -7.400  0.00  0.00     0.009 C 
ATOM    133  H66 ARG d   1     -43.280  30.506  -7.860  0.00  0.00     0.064 H 
ATOM    134  H67 ARG d   1     -42.450  30.904  -6.317  0.00  0.00     0.064 H 
BRANCH 132 135
ATOM    135  NE  ARG d   1     -41.370  29.689  -7.631  0.00  0.00    -0.227 N 
ATOM    136  CZ  ARG d   1     -41.509  28.468  -7.146  0.00  0.00     0.665 C 
ATOM    137  NH1 ARG d   1     -40.587  27.552  -7.429  0.00  0.00    -0.235 N 
ATOM    138  NH2 ARG d   1     -42.548  28.171  -6.354  0.00  0.00    -0.235 N 
ATOM    139  H69 ARG d   1     -40.681  26.596  -7.059  0.00  0.00     0.174 HD
ATOM    140  H70 ARG d   1     -39.779  27.799  -8.018  0.00  0.00     0.174 HD
ATOM    141  H71 ARG d   1     -43.256  28.889  -6.142  0.00  0.00     0.174 HD
ATOM    142  H72 ARG d   1     -42.639  27.225  -5.957  0.00  0.00     0.174 HD
ATOM    143  H68 ARG d   1     -40.541  29.889  -8.208  0.00  0.00     0.177 HD
ENDBRANCH 132 135
ENDBRANCH 129 132
ENDBRANCH 126 129
ENDBRANCH  91 126
ENDBRANCH  89  91
ENDBRANCH  76  87
ENDBRANCH   1  73
BRANCH   1 144
ATOM    144  CB  ALC d   1     -39.229  35.775 -14.316  0.00  0.00    -0.035 C 
ATOM    145  H40 ALC d   1     -38.427  36.048 -13.615  0.00  0.00     0.037 H 
ATOM    146  H41 ALC d   1     -40.200  36.079 -13.899  0.00  0.00     0.037 H 
BRANCH 144 147
ATOM    147  CG  ALC d   1     -39.003  36.493 -15.650  0.00  0.00    -0.052 C 
ATOM    148  CD2 ALC d   1     -39.581  37.881 -15.428  0.00  0.00    -0.062 C 
ATOM    149  CE2 ALC d   1     -39.409  38.749 -16.715  0.00  0.00    -0.065 C 
ATOM    150  H43 ALC d   1     -39.055  38.364 -14.591  0.00  0.00     0.033 H 
ATOM    151  H44 ALC d   1     -40.651  37.795 -15.188  0.00  0.00     0.033 H 
ATOM    152  CZ  ALC d   1     -37.933  38.851 -16.978  0.00  0.00    -0.065 C 
ATOM    153  H45 ALC d   1     -39.835  39.751 -16.556  0.00  0.00     0.033 H 
ATOM    154  H46 ALC d   1     -39.913  38.267 -17.566  0.00  0.00     0.033 H 
ATOM    155  CE1 ALC d   1     -37.349  37.453 -17.111  0.00  0.00    -0.065 C 
ATOM    156  H47 ALC d   1     -37.446  39.375 -16.142  0.00  0.00     0.033 H 
ATOM    157  H48 ALC d   1     -37.764  39.410 -17.910  0.00  0.00     0.033 H 
ATOM    158  CD1 ALC d   1     -37.520  36.530 -15.898  0.00  0.00    -0.062 C 
ATOM    159  H49 ALC d   1     -36.271  37.556 -17.305  0.00  0.00     0.033 H 
ATOM    160  H50 ALC d   1     -37.832  36.968 -17.972  0.00  0.00     0.033 H 
ATOM    161  H51 ALC d   1     -37.139  35.523 -16.121  0.00  0.00     0.033 H 
ATOM    162  H52 ALC d   1     -36.991  36.937 -15.024  0.00  0.00     0.033 H 
ATOM    163  H42 ALC d   1     -39.514  35.984 -16.480  0.00  0.00     0.040 H 
ENDBRANCH 144 147
ENDBRANCH   1 144
TORSDOF 32
