REMARK  29 active torsions:
REMARK  status: ('A' for Active; 'I' for Inactive)
REMARK    1  A    between atoms: N_1  and  CA_2 
REMARK    2  A    between atoms: CA_2  and  C_3 
REMARK    3  A    between atoms: CA_2  and  CB_5 
REMARK       I    between atoms: C_3  and  N_9 
REMARK    4  A    between atoms: CB_5  and  CG_6 
REMARK    5  A    between atoms: CG_6  and  CD1_7 
REMARK    6  A    between atoms: CG_6  and  CD2_8 
REMARK    7  A    between atoms: N_9  and  CA_10 
REMARK    8  A    between atoms: CA_10  and  C_11 
REMARK    9  A    between atoms: CA_10  and  CB_13 
REMARK       I    between atoms: C_11  and  N_21 
REMARK   10  A    between atoms: CB_13  and  CG_14 
REMARK   11  A    between atoms: CZ_19  and  OH_20 
REMARK   12  A    between atoms: N_21  and  CA_22 
REMARK   13  A    between atoms: CA_22  and  C_23 
REMARK   14  A    between atoms: CA_22  and  CB_25 
REMARK       I    between atoms: C_23  and  N_32 
REMARK   15  A    between atoms: CB_25  and  CG_26 
REMARK   16  A    between atoms: N_32  and  CA_33 
REMARK   17  A    between atoms: CA_33  and  C_34 
REMARK   18  A    between atoms: CA_33  and  CB_36 
REMARK       I    between atoms: C_34  and  N_40 
REMARK   19  A    between atoms: CB_36  and  CG1_37 
REMARK   20  A    between atoms: CB_36  and  CG2_38 
REMARK   21  A    between atoms: CG1_37  and  CD1_39 
REMARK   22  A    between atoms: CA_41  and  C_42 
REMARK       I    between atoms: C_42  and  N_47 
REMARK   23  A    between atoms: N_47  and  CA_48 
REMARK   24  A    between atoms: CA_48  and  C_49 
REMARK   25  A    between atoms: CA_48  and  CB_51 
REMARK       I    between atoms: C_49  and  N_58 
REMARK   26  A    between atoms: CB_51  and  CG_52 
REMARK   27  A    between atoms: CG_52  and  CD_53 
REMARK   28  A    between atoms: CD_53  and  NE_54 
REMARK       I    between atoms: NE_54  and  CZ_55 
REMARK       I    between atoms: CZ_55  and  NH1_56 
REMARK   29  A    between atoms: CA_59  and  C_60 
REMARK       I    between atoms: C_60  and  N_65 
ROOT
ATOM      1  CA  ILE d   1     -39.206  34.481 -14.492  0.00  0.00     0.092 C 
ATOM      2  H39 ILE d   1     -38.459  33.688 -14.640  0.00  0.00     0.088 H 
ENDROOT
BRANCH   1   3
ATOM      3  N   ILE d   1     -40.469  34.029 -15.101  0.00  0.00    -0.346 N 
ATOM      4  C   ALC d   1     -40.566  32.862 -15.659  0.00  0.00     0.241 C 
ATOM      5  O   ALC d   1     -39.635  32.039 -15.674  0.00  0.00    -0.271 OA
ATOM      6  H38 ILE d   1     -41.266  34.633 -15.084  0.00  0.00     0.163 HD
BRANCH   4   7
ATOM      7  CA  ALC d   1     -41.912  32.589 -16.355  0.00  0.00     0.089 C 
ATOM      8  H24 ALC d   1     -42.325  33.553 -16.687  0.00  0.00     0.087 H 
BRANCH   7   9
ATOM      9  N   ALC d   1     -41.720  31.764 -17.514  0.00  0.00    -0.346 N 
ATOM     10  C   TYR d   1     -42.058  32.156 -18.731  0.00  0.00     0.241 C 
ATOM     11  O   TYR d   1     -42.316  33.355 -19.052  0.00  0.00    -0.271 OA
ATOM     12  H23 ALC d   1     -41.315  30.857 -17.396  0.00  0.00     0.163 HD
BRANCH  10  13
ATOM     13  CA  TYR d   1     -42.005  31.056 -19.747  0.00  0.00     0.093 C 
ATOM     14  H15 TYR d   1     -42.421  30.143 -19.296  0.00  0.00     0.088 H 
BRANCH  13  15
ATOM     15  N   TYR d   1     -42.789  31.385 -20.907  0.00  0.00    -0.346 N 
ATOM     16  C   LEU d   1     -44.088  30.995 -21.002  0.00  0.00     0.249 C 
ATOM     17  O   LEU d   1     -44.646  30.406 -20.085  0.00  0.00    -0.271 OA
ATOM     18  H14 TYR d   1     -42.374  31.907 -21.652  0.00  0.00     0.163 HD
BRANCH  16  19
ATOM     19  CA  LEU d   1     -44.844  31.268 -22.312  0.00  0.00     0.176 C 
ATOM     20  H4  LEU d   1     -44.193  31.866 -22.967  0.00  0.00     0.099 H 
BRANCH  19  21
ATOM     21  N   LEU d   1     -45.203  29.933 -23.084  0.00  0.00    -0.066 N 
ATOM     22  H1  LEU d   1     -45.696  30.159 -23.934  0.00  0.00     0.275 HD
ATOM     23  H2  LEU d   1     -45.786  29.354 -22.501  0.00  0.00     0.275 HD
ATOM     24  H3  LEU d   1     -44.355  29.437 -23.309  0.00  0.00     0.275 HD
ENDBRANCH  19  21
BRANCH  19  25
ATOM     25  CB  LEU d   1     -46.087  32.091 -21.994  0.00  0.00    -0.028 C 
ATOM     26  H5  LEU d   1     -46.713  31.493 -21.316  0.00  0.00     0.037 H 
ATOM     27  H6  LEU d   1     -46.624  32.255 -22.940  0.00  0.00     0.037 H 
BRANCH  25  28
ATOM     28  CG  LEU d   1     -45.880  33.475 -21.333  0.00  0.00    -0.059 C 
ATOM     29  H7  LEU d   1     -45.039  33.440 -20.625  0.00  0.00     0.038 H 
BRANCH  28  30
ATOM     30  CD1 LEU d   1     -45.614  34.495 -22.435  0.00  0.00    -0.073 C 
ATOM     31  H8  LEU d   1     -45.464  35.488 -21.987  0.00  0.00     0.028 H 
ATOM     32  H9  LEU d   1     -46.474  34.528 -23.119  0.00  0.00     0.028 H 
ATOM     33  H10 LEU d   1     -44.712  34.205 -22.994  0.00  0.00     0.028 H 
ENDBRANCH  28  30
BRANCH  28  34
ATOM     34  CD2 LEU d   1     -47.162  33.888 -20.620  0.00  0.00    -0.073 C 
ATOM     35  H11 LEU d   1     -47.382  33.170 -19.817  0.00  0.00     0.028 H 
ATOM     36  H12 LEU d   1     -47.994  33.900 -21.339  0.00  0.00     0.028 H 
ATOM     37  H13 LEU d   1     -47.035  34.892 -20.189  0.00  0.00     0.028 H 
ENDBRANCH  28  34
ENDBRANCH  25  28
ENDBRANCH  19  25
ENDBRANCH  16  19
ENDBRANCH  13  15
BRANCH  13  38
ATOM     38  CB  TYR d   1     -40.528  30.783 -20.146  0.00  0.00    -0.014 C 
ATOM     39  H16 TYR d   1     -39.929  30.666 -19.230  0.00  0.00     0.043 H 
ATOM     40  H17 TYR d   1     -40.152  31.641 -20.723  0.00  0.00     0.043 H 
BRANCH  38  41
ATOM     41  CG  TYR d   1     -40.385  29.533 -20.984  0.00  0.00    -0.056 A 
ATOM     42  CD1 TYR d   1     -40.147  28.283 -20.363  0.00  0.00    -0.074 A 
ATOM     43  CE1 TYR d   1     -40.069  27.110 -21.114  0.00  0.00    -0.051 A 
ATOM     44  H18 TYR d   1     -40.023  28.237 -19.287  0.00  0.00     0.084 H 
ATOM     45  CZ  TYR d   1     -40.186  27.206 -22.502  0.00  0.00     0.065 A 
ATOM     46  H20 TYR d   1     -39.922  26.150 -20.633  0.00  0.00     0.087 H 
ATOM     47  CE2 TYR d   1     -40.390  28.412 -23.138  0.00  0.00    -0.051 A 
ATOM     48  CD2 TYR d   1     -40.489  29.586 -22.373  0.00  0.00    -0.074 A 
ATOM     49  H21 TYR d   1     -40.473  28.454 -24.218  0.00  0.00     0.087 H 
ATOM     50  H19 TYR d   1     -40.647  30.538 -22.866  0.00  0.00     0.084 H 
BRANCH  45  51
ATOM     51  OH  TYR d   1     -40.054  26.055 -23.260  0.00  0.00    -0.361 OA
ATOM     52  H22 TYR d   1     -39.309  26.144 -23.842  0.00  0.00     0.217 HD
ENDBRANCH  45  51
ENDBRANCH  38  41
ENDBRANCH  13  38
ENDBRANCH  10  13
ENDBRANCH   7   9
BRANCH   7  53
ATOM     53  CB  ALC d   1     -42.936  31.941 -15.374  0.00  0.00    -0.035 C 
ATOM     54  H25 ALC d   1     -43.209  32.693 -14.619  0.00  0.00     0.037 H 
ATOM     55  H26 ALC d   1     -42.446  31.088 -14.882  0.00  0.00     0.037 H 
BRANCH  53  56
ATOM     56  CG  ALC d   1     -44.223  31.437 -16.031  0.00  0.00    -0.052 C 
ATOM     57  CD2 ALC d   1     -45.095  30.807 -14.902  0.00  0.00    -0.062 C 
ATOM     58  CE2 ALC d   1     -46.372  30.245 -15.604  0.00  0.00    -0.065 C 
ATOM     59  H28 ALC d   1     -45.372  31.572 -14.162  0.00  0.00     0.033 H 
ATOM     60  H29 ALC d   1     -44.545  29.995 -14.403  0.00  0.00     0.033 H 
ATOM     61  CZ  ALC d   1     -47.149  31.418 -16.254  0.00  0.00    -0.065 C 
ATOM     62  H30 ALC d   1     -47.012  29.746 -14.861  0.00  0.00     0.033 H 
ATOM     63  H31 ALC d   1     -46.078  29.523 -16.380  0.00  0.00     0.033 H 
ATOM     64  CE1 ALC d   1     -46.288  32.151 -17.299  0.00  0.00    -0.065 C 
ATOM     65  H32 ALC d   1     -47.444  32.131 -15.470  0.00  0.00     0.033 H 
ATOM     66  H33 ALC d   1     -48.049  31.022 -16.746  0.00  0.00     0.033 H 
ATOM     67  CD1 ALC d   1     -44.985  32.627 -16.591  0.00  0.00    -0.062 C 
ATOM     68  H34 ALC d   1     -46.837  33.018 -17.695  0.00  0.00     0.033 H 
ATOM     69  H35 ALC d   1     -46.038  31.468 -18.124  0.00  0.00     0.033 H 
ATOM     70  H36 ALC d   1     -44.350  33.155 -17.317  0.00  0.00     0.033 H 
ATOM     71  H37 ALC d   1     -45.247  33.309 -15.769  0.00  0.00     0.033 H 
ATOM     72  H27 ALC d   1     -44.003  30.704 -16.821  0.00  0.00     0.040 H 
ENDBRANCH  53  56
ENDBRANCH   7  53
ENDBRANCH   4   7
ENDBRANCH   1   3
BRANCH   1  73
ATOM     73  C   ILE d   1     -39.381  34.717 -13.000  0.00  0.00     0.243 C 
ATOM     74  O   ILE d   1     -40.307  35.427 -12.568  0.00  0.00    -0.271 OA
ATOM     75  N   PRO d   1     -38.466  34.167 -12.194  0.00  0.00    -0.337 N 
ATOM     76  CA  PRO d   1     -38.700  34.337 -10.752  0.00  0.00     0.091 C 
ATOM     77  CD  PRO d   1     -37.421  33.170 -12.445  0.00  0.00    -0.001 C 
ATOM     78  CB  PRO d   1     -37.763  33.299 -10.133  0.00  0.00    -0.036 C 
ATOM     79  H49 PRO d   1     -39.752  34.129 -10.509  0.00  0.00     0.087 H 
ATOM     80  CG  PRO d   1     -36.683  33.199 -11.136  0.00  0.00    -0.048 C 
ATOM     81  H50 PRO d   1     -38.273  32.333 -10.001  0.00  0.00     0.036 H 
ATOM     82  H51 PRO d   1     -37.374  33.644  -9.164  0.00  0.00     0.036 H 
ATOM     83  H52 PRO d   1     -36.099  32.278 -10.994  0.00  0.00     0.035 H 
ATOM     84  H53 PRO d   1     -36.014  34.070 -11.081  0.00  0.00     0.035 H 
ATOM     85  H54 PRO d   1     -36.772  33.466 -13.282  0.00  0.00     0.064 H 
ATOM     86  H55 PRO d   1     -37.849  32.177 -12.646  0.00  0.00     0.064 H 
BRANCH  76  87
ATOM     87  C   PRO d   1     -38.316  35.725 -10.201  0.00  0.00     0.241 C 
ATOM     88  O   PRO d   1     -37.660  36.573 -10.845  0.00  0.00    -0.271 OA
ATOM     89  N   ARG d   1     -38.696  35.939  -8.971  0.00  0.00    -0.346 N 
ATOM     90  H56 ARG d   1     -39.186  35.244  -8.445  0.00  0.00     0.163 HD
BRANCH  89  91
ATOM     91  CA  ARG d   1     -38.371  37.240  -8.401  0.00  0.00     0.089 C 
ATOM     92  H57 ARG d   1     -38.533  38.014  -9.165  0.00  0.00     0.087 H 
BRANCH  91  93
ATOM     93  C   ARG d   1     -36.877  37.282  -7.950  0.00  0.00     0.243 C 
ATOM     94  O   ARG d   1     -36.224  36.201  -7.870  0.00  0.00    -0.271 OA
ATOM     95  N   PRO d   1     -36.368  38.500  -7.683  0.00  0.00    -0.337 N 
ATOM     96  CA  PRO d   1     -34.970  38.582  -7.317  0.00  0.00     0.091 C 
ATOM     97  CD  PRO d   1     -36.988  39.837  -7.758  0.00  0.00    -0.001 C 
ATOM     98  CB  PRO d   1     -34.705  40.061  -7.264  0.00  0.00    -0.036 C 
ATOM     99  H69 PRO d   1     -34.320  38.094  -8.058  0.00  0.00     0.087 H 
ATOM    100  CG  PRO d   1     -35.819  40.721  -8.028  0.00  0.00    -0.048 C 
ATOM    101  H70 PRO d   1     -33.736  40.291  -7.731  0.00  0.00     0.036 H 
ATOM    102  H71 PRO d   1     -34.701  40.409  -6.221  0.00  0.00     0.036 H 
ATOM    103  H72 PRO d   1     -35.592  40.757  -9.104  0.00  0.00     0.035 H 
ATOM    104  H73 PRO d   1     -36.002  41.740  -7.657  0.00  0.00     0.035 H 
ATOM    105  H74 PRO d   1     -37.476  40.102  -6.809  0.00  0.00     0.064 H 
ATOM    106  H75 PRO d   1     -37.723  39.889  -8.575  0.00  0.00     0.064 H 
BRANCH  96 107
ATOM    107  C   PRO d   1     -34.819  37.908  -5.961  0.00  0.00     0.238 C 
ATOM    108  O   PRO d   1     -35.767  37.858  -5.166  0.00  0.00    -0.271 OA
ATOM    109  N   PRO d   1     -33.641  37.321  -5.717  0.00  0.00    -0.368 N 
ATOM    110  H76 PRO d   1     -33.483  36.862  -4.843  0.00  0.00     0.159 HD
ATOM    111  H77 PRO d   1     -32.919  37.342  -6.409  0.00  0.00     0.159 HD
ENDBRANCH  96 107
ENDBRANCH  91  93
BRANCH  91 112
ATOM    112  CB  ARG d   1     -39.281  37.519  -7.212  0.00  0.00    -0.036 C 
ATOM    113  H58 ARG d   1     -40.326  37.452  -7.548  0.00  0.00     0.036 H 
ATOM    114  H59 ARG d   1     -39.078  38.536  -6.847  0.00  0.00     0.036 H 
BRANCH 112 115
ATOM    115  CG  ARG d   1     -39.079  36.540  -6.058  0.00  0.00    -0.048 C 
ATOM    116  H60 ARG d   1     -38.005  36.345  -5.919  0.00  0.00     0.035 H 
ATOM    117  H61 ARG d   1     -39.598  35.595  -6.276  0.00  0.00     0.035 H 
BRANCH 115 118
ATOM    118  CD  ARG d   1     -39.656  37.165  -4.795  0.00  0.00     0.009 C 
ATOM    119  H62 ARG d   1     -40.525  37.782  -5.068  0.00  0.00     0.064 H 
ATOM    120  H63 ARG d   1     -38.888  37.799  -4.329  0.00  0.00     0.064 H 
BRANCH 118 121
ATOM    121  NE  ARG d   1     -40.077  36.157  -3.839  0.00  0.00    -0.227 N 
ATOM    122  CZ  ARG d   1     -39.474  35.914  -2.683  0.00  0.00     0.665 C 
ATOM    123  NH1 ARG d   1     -38.413  36.622  -2.320  0.00  0.00    -0.235 N 
ATOM    124  NH2 ARG d   1     -39.950  34.964  -1.884  0.00  0.00    -0.235 N 
ATOM    125  H65 ARG d   1     -37.948  36.429  -1.421  0.00  0.00     0.174 HD
ATOM    126  H66 ARG d   1     -38.054  37.364  -2.937  0.00  0.00     0.174 HD
ATOM    127  H67 ARG d   1     -40.774  34.416  -2.169  0.00  0.00     0.174 HD
ATOM    128  H68 ARG d   1     -39.495  34.776  -0.980  0.00  0.00     0.174 HD
ATOM    129  H64 ARG d   1     -40.904  35.590  -4.075  0.00  0.00     0.177 HD
ENDBRANCH 118 121
ENDBRANCH 115 118
ENDBRANCH 112 115
ENDBRANCH  91 112
ENDBRANCH  89  91
ENDBRANCH  76  87
ENDBRANCH   1  73
BRANCH   1 130
ATOM    130  CB  ILE d   1     -38.669  35.770 -15.116  0.00  0.00    -0.030 C 
ATOM    131  H40 ILE d   1     -39.419  36.551 -14.922  0.00  0.00     0.043 H 
BRANCH 130 132
ATOM    132  CG1 ILE d   1     -38.507  35.676 -16.669  0.00  0.00    -0.063 C 
ATOM    133  H41 ILE d   1     -39.420  35.214 -17.072  0.00  0.00     0.033 H 
ATOM    134  H42 ILE d   1     -37.645  35.025 -16.875  0.00  0.00     0.033 H 
BRANCH 132 135
ATOM    135  CD1 ILE d   1     -38.283  36.997 -17.421  0.00  0.00    -0.076 C 
ATOM    136  H46 ILE d   1     -38.185  36.794 -18.498  0.00  0.00     0.027 H 
ATOM    137  H47 ILE d   1     -37.364  37.477 -17.054  0.00  0.00     0.027 H 
ATOM    138  H48 ILE d   1     -39.139  37.666 -17.250  0.00  0.00     0.027 H 
ENDBRANCH 132 135
ENDBRANCH 130 132
BRANCH 130 139
ATOM    139  CG2 ILE d   1     -37.335  36.236 -14.434  0.00  0.00    -0.071 C 
ATOM    140  H43 ILE d   1     -37.480  36.292 -13.345  0.00  0.00     0.028 H 
ATOM    141  H44 ILE d   1     -37.054  37.228 -14.818  0.00  0.00     0.028 H 
ATOM    142  H45 ILE d   1     -36.536  35.515 -14.661  0.00  0.00     0.028 H 
ENDBRANCH 130 139
ENDBRANCH   1 130
TORSDOF 29
