REMARK  7 active torsions:
REMARK  status: ('A' for Active; 'I' for Inactive)
REMARK    1  A    between atoms: C05_6  and  N08_8 
REMARK    2  A    between atoms: C09_9  and  C28_28 
REMARK    3  A    between atoms: C12_12  and  C13_13 
REMARK    4  A    between atoms: C14_14  and  C15_15 
REMARK    5  A    between atoms: C18_18  and  C19_19 
REMARK    6  A    between atoms: C31_31  and  S34_34 
REMARK    7  A    between atoms: S34_34  and  C37_37 
ROOT
ATOM      1  C19 1AK d   1     -15.257  69.407  24.633  0.00  0.00     0.019 A 
ATOM      2  C20 1AK d   1     -15.071  69.507  25.995  0.00  0.00    -0.067 A 
ATOM      3  C21 1AK d   1     -14.620  70.731  26.550  0.00  0.00    -0.062 A 
ATOM      4  C22 1AK d   1     -14.363  71.820  25.726  0.00  0.00     0.044 A 
ATOM      5  C23 1AK d   1     -14.544  71.720  24.381  0.00  0.00    -0.062 A 
ATOM      6  C24 1AK d   1     -14.997  70.498  23.815  0.00  0.00    -0.067 A 
ATOM      7  C25 1AK d   1     -13.886  73.110  26.314  0.00  0.00     0.099 C 
ATOM      8  N26 1AK d   1     -13.527  74.085  26.758  0.00  0.00    -0.191 NA
ATOM      9  H7  1AK d   1     -15.268  68.656  26.637  0.00  0.00     0.085 H 
ATOM     10  H8  1AK d   1     -14.475  70.818  27.621  0.00  0.00     0.085 H 
ATOM     11  H9  1AK d   1     -14.343  72.572  23.742  0.00  0.00     0.085 H 
ATOM     12  H10 1AK d   1     -15.140  70.418  22.743  0.00  0.00     0.085 H 
ENDROOT
BRANCH   1  13
ATOM     13  C18 1AK d   1     -15.740  68.111  24.013  0.00  0.00     0.203 A 
ATOM     14  N17 1AK d   1     -16.242  67.049  24.654  0.00  0.00    -0.121 NA
ATOM     15  N16 1AK d   1     -16.555  66.094  23.712  0.00  0.00    -0.122 NA
ATOM     16  C15 1AK d   1     -16.241  66.587  22.497  0.00  0.00     0.192 A 
ATOM     17  O27 1AK d   1     -15.735  67.836  22.670  0.00  0.00    -0.269 OA
BRANCH  16  18
ATOM     18  C14 1AK d   1     -16.403  65.910  21.184  0.00  0.00    -0.026 C 
ATOM     19  C13 1AK d   1     -15.980  66.511  20.078  0.00  0.00    -0.032 C 
ATOM     20  H5  1AK d   1     -15.402  67.432  20.138  0.00  0.00     0.089 H 
ATOM     21  H6  1AK d   1     -16.866  64.926  21.129  0.00  0.00     0.090 H 
BRANCH  19  22
ATOM     22  C12 1AK d   1     -16.309  65.904  18.738  0.00  0.00     0.158 A 
ATOM     23  N08 1AK d   1     -16.208  66.516  17.480  0.00  0.00    -0.274 N 
ATOM     24  C09 1AK d   1     -16.621  65.570  16.553  0.00  0.00     0.187 A 
ATOM     25  N10 1AK d   1     -16.971  64.444  17.226  0.00  0.00    -0.127 NA
ATOM     26  N11 1AK d   1     -16.774  64.653  18.562  0.00  0.00    -0.129 NA
BRANCH  23  27
ATOM     27  C05 1AK d   1     -15.732  67.901  17.190  0.00  0.00     0.064 A 
ATOM     28  C04 1AK d   1     -16.561  69.030  17.502  0.00  0.00    -0.055 A 
ATOM     29  C03 1AK d   1     -16.114  70.299  17.232  0.00  0.00    -0.081 A 
ATOM     30  H4  1AK d   1     -17.537  68.881  17.950  0.00  0.00     0.087 H 
ATOM     31  C02 1AK d   1     -14.845  70.494  16.649  0.00  0.00    -0.081 A 
ATOM     32  H3  1AK d   1     -16.738  71.154  17.468  0.00  0.00     0.083 H 
ATOM     33  C01 1AK d   1     -14.007  69.345  16.335  0.00  0.00    -0.060 A 
ATOM     34  H2  1AK d   1     -14.494  71.497  16.435  0.00  0.00     0.083 H 
ATOM     35  C06 1AK d   1     -14.459  68.086  16.606  0.00  0.00     0.061 A 
ATOM     36  H1  1AK d   1     -13.030  69.489  15.889  0.00  0.00     0.086 H 
ATOM     37 CL1  1AK d   1     -13.492  66.721  16.241  0.00  0.00    -0.082 Cl
ENDBRANCH  23  27
BRANCH  24  38
ATOM     38  C28 1AK d   1     -16.719  65.726  15.011  0.00  0.00     0.104 A 
ATOM     39  C29 1AK d   1     -17.601  66.618  14.517  0.00  0.00    -0.050 A 
ATOM     40  C30 1AK d   1     -17.712  66.760  13.109  0.00  0.00    -0.058 A 
ATOM     41  H11 1AK d   1     -18.214  67.215  15.182  0.00  0.00     0.087 H 
ATOM     42  C31 1AK d   1     -16.921  65.972  12.315  0.00  0.00     0.076 A 
ATOM     43  H12 1AK d   1     -18.404  67.472  12.674  0.00  0.00     0.086 H 
ATOM     44  C32 1AK d   1     -16.057  65.077  12.870  0.00  0.00     0.024 A 
ATOM     45  N33 1AK d   1     -15.963  64.963  14.209  0.00  0.00    -0.256 NA
ATOM     46  H13 1AK d   1     -15.442  64.454  12.231  0.00  0.00     0.117 H 
BRANCH  42  47
ATOM     47  S34 1AK d   1     -17.047  66.119  10.548  0.00  0.00     0.173 S 
ATOM     48  O35 1AK d   1     -18.382  66.600  10.160  0.00  0.00    -0.223 OA
ATOM     49  O36 1AK d   1     -17.026  64.850   9.951  0.00  0.00    -0.223 OA
BRANCH  47  50
ATOM     50  C37 1AK d   1     -15.766  67.163   9.856  0.00  0.00     0.020 C 
ATOM     51  H14 1AK d   1     -15.889  67.220   8.764  0.00  0.00     0.049 H 
ATOM     52  H15 1AK d   1     -14.779  66.738  10.092  0.00  0.00     0.049 H 
ATOM     53  H16 1AK d   1     -15.843  68.172  10.287  0.00  0.00     0.049 H 
ENDBRANCH  47  50
ENDBRANCH  42  47
ENDBRANCH  24  38
ENDBRANCH  19  22
ENDBRANCH  16  18
ENDBRANCH   1  13
TORSDOF 7
