REMARK  6 active torsions:
REMARK  status: ('A' for Active; 'I' for Inactive)
REMARK    1  A    between atoms: C04_4  and  N13_13 
REMARK    2  A    between atoms: C05_5  and  N07_7 
REMARK       I    between atoms: N13_13  and  C14_14 
REMARK    3  A    between atoms: C14_14  and  C16_16 
REMARK    4  A    between atoms: C18_18  and  N21_21 
REMARK    5  A    between atoms: C27_27  and  O31_31 
REMARK    6  A    between atoms: O31_31  and  C32_32 
ROOT
ATOM      1  N13 1AM d   1       9.342  -2.918   9.985  0.00  0.00    -0.319 N 
ATOM      2  C14 1AM d   1       8.890  -1.763   9.432  0.00  0.00     0.275 C 
ATOM      3  O15 1AM d   1       7.794  -1.252   9.599  0.00  0.00    -0.266 OA
ATOM      4  H14 1AM d   1      10.293  -3.151   9.782  0.00  0.00     0.169 HD
ENDROOT
BRANCH   2   5
ATOM      5  C16 1AM d   1       9.914  -1.170   8.569  0.00  0.00     0.134 A 
ATOM      6  N17 1AM d   1      11.182  -1.756   8.443  0.00  0.00    -0.218 NA
ATOM      7  C18 1AM d   1      11.910  -1.050   7.591  0.00  0.00     0.176 A 
ATOM      8  S19 1AM d   1      11.132   0.291   6.904  0.00  0.00    -0.061 SA
ATOM      9  C20 1AM d   1       9.708  -0.057   7.788  0.00  0.00    -0.008 A 
ATOM     10  H15 1AM d   1       8.782   0.514   7.739  0.00  0.00     0.099 H 
BRANCH   7  11
ATOM     11  N21 1AM d   1      13.238  -1.357   7.324  0.00  0.00    -0.288 N 
ATOM     12  C22 1AM d   1      14.059  -0.591   6.491  0.00  0.00     0.260 A 
ATOM     13  C23 1AM d   1      15.399  -1.198   6.543  0.00  0.00     0.043 A 
ATOM     14  O30 1AM d   1      13.792   0.413   5.838  0.00  0.00    -0.267 OA
ATOM     15  C24 1AM d   1      15.336  -2.311   7.414  0.00  0.00    -0.024 A 
ATOM     16  C26 1AM d   1      16.571  -0.816   5.880  0.00  0.00    -0.035 A 
ATOM     17  C25 1AM d   1      13.945  -2.451   7.949  0.00  0.00     0.030 A 
ATOM     18  C29 1AM d   1      16.457  -3.104   7.630  0.00  0.00    -0.072 A 
ATOM     19  H16 1AM d   1      13.508  -3.418   7.662  0.00  0.00     0.072 H 
ATOM     20  H17 1AM d   1      13.932  -2.354   9.045  0.00  0.00     0.072 H 
ATOM     21  C28 1AM d   1      17.643  -2.740   6.937  0.00  0.00    -0.050 A 
ATOM     22  H20 1AM d   1      16.428  -3.959   8.295  0.00  0.00     0.084 H 
ATOM     23  C27 1AM d   1      17.704  -1.610   6.090  0.00  0.00     0.069 A 
ATOM     24  H19 1AM d   1      18.531  -3.349   7.062  0.00  0.00     0.087 H 
ATOM     25  H18 1AM d   1      16.600   0.054   5.234  0.00  0.00     0.089 H 
BRANCH  23  26
ATOM     26  O31 1AM d   1      18.931  -1.407   5.537  0.00  0.00    -0.356 OA
BRANCH  26  27
ATOM     27  C32 1AM d   1      19.098  -0.247   4.733  0.00  0.00     0.010 C 
ATOM     28  H21 1AM d   1      20.130  -0.209   4.354  0.00  0.00     0.066 H 
ATOM     29  H22 1AM d   1      18.896   0.650   5.337  0.00  0.00     0.066 H 
ATOM     30  H23 1AM d   1      18.397  -0.284   3.886  0.00  0.00     0.066 H 
ENDBRANCH  26  27
ENDBRANCH  23  26
ENDBRANCH   7  11
ENDBRANCH   2   5
BRANCH   1  31
ATOM     31  C04 1AM d   1       8.662  -3.821  10.796  0.00  0.00     0.074 A 
ATOM     32  C03 1AM d   1       7.281  -3.899  10.848  0.00  0.00     0.029 A 
ATOM     33  N02 1AM d   1       6.611  -4.827  11.546  0.00  0.00    -0.271 NA
ATOM     34  H2  1AM d   1       6.707  -3.167  10.291  0.00  0.00     0.118 H 
ATOM     35  C01 1AM d   1       7.356  -5.732  12.218  0.00  0.00     0.004 A 
ATOM     36  C06 1AM d   1       8.742  -5.762  12.214  0.00  0.00    -0.043 A 
ATOM     37  H1  1AM d   1       6.835  -6.485  12.799  0.00  0.00     0.114 H 
ATOM     38  C05 1AM d   1       9.419  -4.793  11.463  0.00  0.00     0.040 A 
ATOM     39  H3  1AM d   1       9.286  -6.513  12.775  0.00  0.00     0.088 H 
BRANCH  38  40
ATOM     40  N07 1AM d   1      10.796  -4.706  11.414  0.00  0.00    -0.278 NA
ATOM     41  C08 1AM d   1      11.560  -5.934  11.583  0.00  0.00     0.006 C 
ATOM     42  C09 1AM d   1      13.032  -5.618  11.329  0.00  0.00     0.093 C 
ATOM     43  H4  1AM d   1      11.212  -6.691  10.865  0.00  0.00     0.058 H 
ATOM     44  H5  1AM d   1      11.432  -6.314  12.607  0.00  0.00     0.058 H 
ATOM     45  N10 1AM d   1      13.569  -4.623  12.275  0.00  0.00    -0.073 N 
ATOM     46  H6  1AM d   1      13.137  -5.225  10.307  0.00  0.00     0.077 H 
ATOM     47  H7  1AM d   1      13.614  -6.546  11.426  0.00  0.00     0.077 H 
ATOM     48  C11 1AM d   1      12.805  -3.366  12.098  0.00  0.00     0.093 C 
ATOM     49  H8  1AM d   1      14.545  -4.460  12.083  0.00  0.00     0.277 HD
ATOM     50  H9  1AM d   1      13.464  -4.957  13.220  0.00  0.00     0.277 HD
ATOM     51  C12 1AM d   1      11.304  -3.549  12.253  0.00  0.00     0.006 C 
ATOM     52  H10 1AM d   1      13.007  -2.973  11.091  0.00  0.00     0.077 H 
ATOM     53  H11 1AM d   1      13.148  -2.640  12.850  0.00  0.00     0.077 H 
ATOM     54  H12 1AM d   1      11.075  -3.747  13.311  0.00  0.00     0.058 H 
ATOM     55  H13 1AM d   1      10.797  -2.627  11.934  0.00  0.00     0.058 H 
ENDBRANCH  38  40
ENDBRANCH   1  31
TORSDOF 6
