REMARK  4 active torsions:
REMARK  status: ('A' for Active; 'I' for Inactive)
REMARK    1  A    between atoms: C04_4  and  N13_13 
REMARK    2  A    between atoms: C05_5  and  N07_7 
REMARK       I    between atoms: N13_13  and  C14_14 
REMARK    3  A    between atoms: C14_14  and  C16_16 
REMARK    4  A    between atoms: C18_18  and  N21_21 
ROOT
ATOM      1  C01 1AO d   1      10.890  -5.455  14.434  0.00  0.00    -0.081 A 
ATOM      2  C02 1AO d   1      10.197  -4.487  13.704  0.00  0.00    -0.081 A 
ATOM      3  C03 1AO d   1      10.936  -3.569  12.966  0.00  0.00    -0.055 A 
ATOM      4  C04 1AO d   1      12.346  -3.631  12.963  0.00  0.00     0.056 A 
ATOM      5  C05 1AO d   1      13.062  -4.606  13.688  0.00  0.00     0.037 A 
ATOM      6  C06 1AO d   1      12.282  -5.537  14.444  0.00  0.00    -0.060 A 
ATOM      7  H1  1AO d   1      10.323  -6.172  15.017  0.00  0.00     0.083 H 
ATOM      8  H2  1AO d   1       9.114  -4.452  13.712  0.00  0.00     0.083 H 
ATOM      9  H3  1AO d   1      10.428  -2.803  12.391  0.00  0.00     0.087 H 
ATOM     10  H4  1AO d   1      12.774  -6.308  15.026  0.00  0.00     0.086 H 
ENDROOT
BRANCH   4  11
ATOM     11  N13 1AO d   1      13.132  -2.780  12.177  0.00  0.00    -0.320 N 
ATOM     12  C14 1AO d   1      12.790  -1.566  11.646  0.00  0.00     0.275 C 
ATOM     13  O15 1AO d   1      11.754  -0.936  11.814  0.00  0.00    -0.266 OA
ATOM     14  H15 1AO d   1      14.059  -3.099  11.979  0.00  0.00     0.169 HD
BRANCH  12  15
ATOM     15  C16 1AO d   1      13.875  -1.016  10.787  0.00  0.00     0.134 A 
ATOM     16  N17 1AO d   1      15.108  -1.619  10.615  0.00  0.00    -0.217 NA
ATOM     17  C18 1AO d   1      15.853  -0.892   9.801  0.00  0.00     0.195 A 
ATOM     18  S19 1AO d   1      15.150   0.556   9.266  0.00  0.00    -0.059 SA
ATOM     19  C20 1AO d   1      13.724   0.162  10.116  0.00  0.00    -0.008 A 
ATOM     20  H16 1AO d   1      12.819   0.767  10.122  0.00  0.00     0.099 H 
BRANCH  17  21
ATOM     21  N21 1AO d   1      17.141  -1.166   9.500  0.00  0.00    -0.209 N 
ATOM     22  N22 1AO d   1      17.876  -0.224   8.774  0.00  0.00    -0.177 NA
ATOM     23  C23 1AO d   1      19.103  -0.658   8.770  0.00  0.00     0.034 A 
ATOM     24  C24 1AO d   1      19.239  -1.868   9.496  0.00  0.00     0.012 A 
ATOM     25  H17 1AO d   1      19.927  -0.152   8.269  0.00  0.00     0.118 H 
ATOM     26  C25 1AO d   1      20.252  -2.744   9.789  0.00  0.00    -0.069 A 
ATOM     27  C29 1AO d   1      17.963  -2.169   9.973  0.00  0.00     0.072 A 
ATOM     28  C26 1AO d   1      20.043  -3.897  10.569  0.00  0.00    -0.082 A 
ATOM     29  H18 1AO d   1      21.246  -2.542   9.408  0.00  0.00     0.085 H 
ATOM     30  C27 1AO d   1      18.740  -4.168  11.045  0.00  0.00    -0.081 A 
ATOM     31  H19 1AO d   1      20.866  -4.564  10.800  0.00  0.00     0.083 H 
ATOM     32  C28 1AO d   1      17.676  -3.304  10.767  0.00  0.00    -0.054 A 
ATOM     33  H20 1AO d   1      18.563  -5.060  11.635  0.00  0.00     0.083 H 
ATOM     34  H21 1AO d   1      16.677  -3.495  11.143  0.00  0.00     0.087 H 
ENDBRANCH  17  21
ENDBRANCH  12  15
ENDBRANCH   4  11
BRANCH   5  35
ATOM     35  N07 1AO d   1      14.465  -4.587  13.704  0.00  0.00    -0.278 NA
ATOM     36  C08 1AO d   1      15.155  -5.840  13.934  0.00  0.00     0.006 C 
ATOM     37  C09 1AO d   1      16.675  -5.707  13.902  0.00  0.00     0.093 C 
ATOM     38  H5  1AO d   1      14.851  -6.554  13.155  0.00  0.00     0.058 H 
ATOM     39  H6  1AO d   1      14.859  -6.226  14.921  0.00  0.00     0.058 H 
ATOM     40  N10 1AO d   1      17.173  -4.608  14.799  0.00  0.00    -0.073 N 
ATOM     41  H7  1AO d   1      16.989  -5.490  12.870  0.00  0.00     0.077 H 
ATOM     42  H8  1AO d   1      17.120  -6.659  14.229  0.00  0.00     0.077 H 
ATOM     43  C11 1AO d   1      16.434  -3.382  14.565  0.00  0.00     0.093 C 
ATOM     44  H9  1AO d   1      18.150  -4.446  14.613  0.00  0.00     0.277 HD
ATOM     45  H10 1AO d   1      17.056  -4.887  15.761  0.00  0.00     0.277 HD
ATOM     46  C12 1AO d   1      14.937  -3.490  14.659  0.00  0.00     0.006 C 
ATOM     47  H11 1AO d   1      16.683  -3.026  13.555  0.00  0.00     0.077 H 
ATOM     48  H12 1AO d   1      16.766  -2.641  15.307  0.00  0.00     0.077 H 
ATOM     49  H13 1AO d   1      14.648  -3.746  15.689  0.00  0.00     0.058 H 
ATOM     50  H14 1AO d   1      14.478  -2.531  14.377  0.00  0.00     0.058 H 
ENDBRANCH   5  35
TORSDOF 4
