REMARK  4 active torsions:
REMARK  status: ('A' for Active; 'I' for Inactive)
REMARK    1  A    between atoms: C2_2  and  N8_8 
REMARK    2  A    between atoms: C6_6  and  N7_7 
REMARK    3  A    between atoms: N8_8  and  C9_9 
REMARK    4  A    between atoms: C12_12  and  O15_15 
ROOT
ATOM      1  N1  1BJ d   1      -2.133  -2.224  10.377  0.00  0.00    -0.075 NA
ATOM      2  C2  1BJ d   1      -2.804  -1.146  10.766  0.00  0.00     0.724 A 
ATOM      3  N3  1BJ d   1      -2.509  -0.569  11.933  0.00  0.00    -0.043 NA
ATOM      4  C4  1BJ d   1      -1.155  -2.735  11.133  0.00  0.00     0.025 A 
ATOM      5  C5  1BJ d   1      -0.819  -2.163  12.339  0.00  0.00    -0.019 A 
ATOM      6  C6  1BJ d   1      -1.528  -1.027  12.718  0.00  0.00     0.171 A 
ATOM      7  H1  1BJ d   1      -0.619  -3.613  10.791  0.00  0.00     0.115 H 
ATOM      8  H2  1BJ d   1      -0.038  -2.579  12.965  0.00  0.00     0.091 H 
ENDROOT
BRANCH   2   9
ATOM      9  N8  1BJ d   1      -3.828  -0.643   9.957  0.00  0.00    -0.218 N 
ATOM     10  H3  1BJ d   1      -3.885  -0.919   8.966  0.00  0.00     0.178 HD
BRANCH   9  11
ATOM     11  C9  1BJ d   1      -4.826   0.284  10.524  0.00  0.00     0.026 C 
ATOM     12  C10 1BJ d   1      -5.839  -0.490  11.380  0.00  0.00    -0.043 C 
ATOM     13  C11 1BJ d   1      -6.874   0.437  12.028  0.00  0.00    -0.039 C 
ATOM     14  H5  1BJ d   1      -5.297  -1.026  12.173  0.00  0.00     0.036 H 
ATOM     15  H6  1BJ d   1      -6.364  -1.215  10.740  0.00  0.00     0.036 H 
ATOM     16  C12 1BJ d   1      -7.561   1.299  10.960  0.00  0.00     0.035 C 
ATOM     17  H7  1BJ d   1      -6.370   1.092  12.754  0.00  0.00     0.036 H 
ATOM     18  H8  1BJ d   1      -7.631  -0.170  12.546  0.00  0.00     0.036 H 
ATOM     19  C13 1BJ d   1      -6.540   2.058  10.082  0.00  0.00    -0.039 C 
ATOM     20  H9  1BJ d   1      -8.180   0.656  10.317  0.00  0.00     0.082 H 
ATOM     21  C14 1BJ d   1      -5.543   1.089   9.425  0.00  0.00    -0.043 C 
ATOM     22  H10 1BJ d   1      -5.986   2.771  10.710  0.00  0.00     0.036 H 
ATOM     23  H11 1BJ d   1      -7.080   2.605   9.295  0.00  0.00     0.036 H 
ATOM     24  H12 1BJ d   1      -6.083   0.402   8.757  0.00  0.00     0.036 H 
ATOM     25  H13 1BJ d   1      -4.803   1.659   8.844  0.00  0.00     0.036 H 
ATOM     26  H4  1BJ d   1      -4.298   0.996  11.175  0.00  0.00     0.073 H 
BRANCH  16  27
ATOM     27  O15 1BJ d   1      -8.384   2.249  11.637  0.00  0.00    -0.396 OA
ATOM     28  H14 1BJ d   1      -9.015   1.790  12.179  0.00  0.00     0.210 HD
ENDBRANCH  16  27
ENDBRANCH   9  11
ENDBRANCH   2   9
BRANCH   6  29
ATOM     29  N7  1BJ d   1      -1.238  -0.424  13.940  0.00  0.00    -0.214 N 
ATOM     30  N17 1BJ d   1      -0.319  -0.939  14.859  0.00  0.00    -0.177 NA
ATOM     31  C16 1BJ d   1      -0.282  -0.186  15.916  0.00  0.00     0.034 A 
ATOM     32  C18 1BJ d   1      -1.239   0.898  15.725  0.00  0.00     0.012 A 
ATOM     33  H15 1BJ d   1       0.351  -0.337  16.789  0.00  0.00     0.118 H 
ATOM     34  C19 1BJ d   1      -1.821   0.703  14.461  0.00  0.00     0.072 A 
ATOM     35  C23 1BJ d   1      -1.622   1.990  16.518  0.00  0.00    -0.069 A 
ATOM     36  C20 1BJ d   1      -2.782   1.605  13.998  0.00  0.00    -0.054 A 
ATOM     37  C21 1BJ d   1      -3.147   2.666  14.797  0.00  0.00    -0.081 A 
ATOM     38  H16 1BJ d   1      -3.235   1.472  13.022  0.00  0.00     0.087 H 
ATOM     39  C22 1BJ d   1      -2.567   2.853  16.045  0.00  0.00    -0.082 A 
ATOM     40  H17 1BJ d   1      -3.898   3.365  14.447  0.00  0.00     0.083 H 
ATOM     41  H18 1BJ d   1      -2.870   3.698  16.653  0.00  0.00     0.083 H 
ATOM     42  H19 1BJ d   1      -1.174   2.146  17.492  0.00  0.00     0.085 H 
ENDBRANCH   6  29
TORSDOF 4
