REMARK  10 active torsions:
REMARK  status: ('A' for Active; 'I' for Inactive)
REMARK    1  A    between atoms: N1_1  and  C2_2 
REMARK    2  A    between atoms: N1_1  and  C17_17 
REMARK    3  A    between atoms: C6_6  and  N8_8 
REMARK    4  A    between atoms: C13_13  and  O24_24 
REMARK    5  A    between atoms: C20_20  and  O23_23 
REMARK    6  A    between atoms: O24_24  and  C25_25 
REMARK    7  A    between atoms: C25_25  and  C26_26 
REMARK    8  A    between atoms: C26_26  and  C27_27 
REMARK    9  A    between atoms: C27_27  and  S28_28 
REMARK   10  A    between atoms: S28_28  and  C29_29 
ROOT
ATOM      1  N8  1BK d   1      -1.304  -0.530  13.106  0.00  0.00    -0.214 N 
ATOM      2  N9  1BK d   1      -0.462  -1.072  14.076  0.00  0.00    -0.177 NA
ATOM      3  C10 1BK d   1      -0.419  -0.315  15.123  0.00  0.00     0.037 A 
ATOM      4  C11 1BK d   1      -1.846   0.642  13.606  0.00  0.00     0.075 A 
ATOM      5  C12 1BK d   1      -1.302   0.814  14.892  0.00  0.00     0.045 A 
ATOM      6  C13 1BK d   1      -1.638   1.920  15.691  0.00  0.00     0.082 A 
ATOM      7  C14 1BK d   1      -2.542   2.855  15.211  0.00  0.00    -0.050 A 
ATOM      8  C15 1BK d   1      -3.079   2.692  13.927  0.00  0.00    -0.078 A 
ATOM      9  C16 1BK d   1      -2.741   1.603  13.136  0.00  0.00    -0.054 A 
ATOM     10  H4  1BK d   1       0.174  -0.493  16.019  0.00  0.00     0.118 H 
ATOM     11  H5  1BK d   1      -2.830   3.703  15.822  0.00  0.00     0.087 H 
ATOM     12  H6  1BK d   1      -3.773   3.432  13.544  0.00  0.00     0.083 H 
ATOM     13  H7  1BK d   1      -3.175   1.499  12.148  0.00  0.00     0.087 H 
ENDROOT
BRANCH   1  14
ATOM     14  C6  1BK d   1      -1.544  -1.147  11.874  0.00  0.00     0.171 A 
ATOM     15  C5  1BK d   1      -0.777  -2.247  11.468  0.00  0.00    -0.019 A 
ATOM     16  C4  1BK d   1      -1.057  -2.824  10.238  0.00  0.00     0.025 A 
ATOM     17  H3  1BK d   1       0.014  -2.637  12.098  0.00  0.00     0.091 H 
ATOM     18  N3  1BK d   1      -2.052  -2.343   9.488  0.00  0.00    -0.075 NA
ATOM     19  H2  1BK d   1      -0.469  -3.664   9.886  0.00  0.00     0.115 H 
ATOM     20  C2  1BK d   1      -2.775  -1.306   9.907  0.00  0.00     0.724 A 
ATOM     21  N7  1BK d   1      -2.524  -0.727  11.073  0.00  0.00    -0.043 NA
BRANCH  20  22
ATOM     22  N1  1BK d   1      -3.804  -0.814   9.123  0.00  0.00    -0.218 N 
ATOM     23  H1  1BK d   1      -3.968  -1.206   8.185  0.00  0.00     0.178 HD
BRANCH  22  24
ATOM     24  C17 1BK d   1      -4.663   0.267   9.627  0.00  0.00     0.026 C 
ATOM     25  C18 1BK d   1      -5.795  -0.321  10.487  0.00  0.00    -0.043 C 
ATOM     26  C19 1BK d   1      -6.657   0.814  11.050  0.00  0.00    -0.039 C 
ATOM     27  H9  1BK d   1      -5.362  -0.898  11.317  0.00  0.00     0.036 H 
ATOM     28  H10 1BK d   1      -6.419  -0.982   9.868  0.00  0.00     0.036 H 
ATOM     29  C20 1BK d   1      -7.303   1.573   9.886  0.00  0.00     0.035 C 
ATOM     30  H11 1BK d   1      -6.027   1.501  11.634  0.00  0.00     0.036 H 
ATOM     31  H12 1BK d   1      -7.441   0.395  11.698  0.00  0.00     0.036 H 
ATOM     32  C21 1BK d   1      -6.219   2.160   8.964  0.00  0.00    -0.039 C 
ATOM     33  H13 1BK d   1      -7.937   0.887   9.306  0.00  0.00     0.082 H 
ATOM     34  C22 1BK d   1      -5.260   1.064   8.460  0.00  0.00    -0.043 C 
ATOM     35  H14 1BK d   1      -5.642   2.912   9.522  0.00  0.00     0.036 H 
ATOM     36  H15 1BK d   1      -6.704   2.637   8.100  0.00  0.00     0.036 H 
ATOM     37  H16 1BK d   1      -5.814   0.377   7.803  0.00  0.00     0.036 H 
ATOM     38  H17 1BK d   1      -4.444   1.535   7.893  0.00  0.00     0.036 H 
ATOM     39  H8  1BK d   1      -4.056   0.944  10.247  0.00  0.00     0.073 H 
BRANCH  29  40
ATOM     40  O23 1BK d   1      -8.105   2.620  10.430  0.00  0.00    -0.396 OA
ATOM     41  H18 1BK d   1      -8.770   2.246  10.997  0.00  0.00     0.210 HD
ENDBRANCH  29  40
ENDBRANCH  22  24
ENDBRANCH  20  22
ENDBRANCH   1  14
BRANCH   6  42
ATOM     42  O24 1BK d   1      -1.070   1.953  16.927  0.00  0.00    -0.350 OA
BRANCH  42  43
ATOM     43  C25 1BK d   1      -0.794   3.248  17.462  0.00  0.00     0.027 C 
ATOM     44  H19 1BK d   1      -1.682   3.638  17.982  0.00  0.00     0.075 H 
ATOM     45  H20 1BK d   1      -0.510   3.937  16.653  0.00  0.00     0.075 H 
BRANCH  43  46
ATOM     46  C26 1BK d   1       0.371   3.093  18.454  0.00  0.00    -0.033 C 
ATOM     47  H21 1BK d   1       0.596   4.068  18.912  0.00  0.00     0.037 H 
ATOM     48  H22 1BK d   1       1.260   2.724  17.922  0.00  0.00     0.037 H 
BRANCH  46  49
ATOM     49  C27 1BK d   1      -0.021   2.097  19.543  0.00  0.00     0.030 C 
ATOM     50  H23 1BK d   1      -0.221   1.121  19.077  0.00  0.00     0.056 H 
ATOM     51  H24 1BK d   1      -0.931   2.458  20.044  0.00  0.00     0.056 H 
BRANCH  49  52
ATOM     52  S28 1BK d   1       1.297   1.899  20.785  0.00  0.00     0.140 S 
ATOM     53  O30 1BK d   1       2.454   1.292  20.218  0.00  0.00    -0.228 OA
ATOM     54  O31 1BK d   1       1.444   3.106  21.526  0.00  0.00    -0.228 OA
BRANCH  52  55
ATOM     55  C29 1BK d   1       0.446   0.679  21.827  0.00  0.00     0.015 C 
ATOM     56  H25 1BK d   1       1.092   0.407  22.675  0.00  0.00     0.048 H 
ATOM     57  H26 1BK d   1       0.224  -0.219  21.233  0.00  0.00     0.048 H 
ATOM     58  H27 1BK d   1      -0.493   1.111  22.205  0.00  0.00     0.048 H 
ENDBRANCH  52  55
ENDBRANCH  49  52
ENDBRANCH  46  49
ENDBRANCH  43  46
ENDBRANCH  42  43
ENDBRANCH   6  42
TORSDOF 10
