REMARK  7 active torsions:
REMARK  status: ('A' for Active; 'I' for Inactive)
REMARK    1  A    between atoms: C19_2  and  C5_3 
REMARK    2  A    between atoms: C1_4  and  C21_5 
REMARK    3  A    between atoms: C21_5  and  C22_6 
REMARK    4  A    between atoms: C6_8  and  O17_9 
REMARK    5  A    between atoms: O17_9  and  C18_10 
REMARK    6  A    between atoms: C8_12  and  S10_16 
REMARK    7  A    between atoms: S10_16  and  C11_17 
ROOT
ATOM      1  C5  19Y d   1       9.108  65.769  13.700  0.00  0.00     0.043 A 
ATOM      2  C1  19Y d   1       8.710  64.345  13.766  0.00  0.00     0.025 A 
ATOM      3  C4  19Y d   1      10.325  65.943  14.518  0.00  0.00     0.078 A 
ATOM      4  C6  19Y d   1      11.270  67.011  14.924  0.00  0.00     0.181 A 
ATOM      5  N7  19Y d   1      12.287  66.664  15.739  0.00  0.00    -0.197 NA
ATOM      6  C8  19Y d   1      12.462  65.395  16.180  0.00  0.00     0.197 A 
ATOM      7  N9  19Y d   1      11.626  64.385  15.841  0.00  0.00    -0.204 NA
ATOM      8  C3  19Y d   1      10.567  64.579  15.031  0.00  0.00     0.146 A 
ATOM      9  N2  19Y d   1       9.621  63.740  14.566  0.00  0.00    -0.343 N 
ATOM     10  H10 19Y d   1       9.593  62.736  14.796  0.00  0.00     0.167 HD
ENDROOT
BRANCH   6  11
ATOM     11  S10 19Y d   1      13.765  65.049  17.201  0.00  0.00    -0.049 SA
BRANCH  11  12
ATOM     12  C11 19Y d   1      14.869  66.339  17.262  0.00  0.00     0.026 A 
ATOM     13  C16 19Y d   1      15.362  66.914  16.095  0.00  0.00    -0.064 A 
ATOM     14  C15 19Y d   1      16.266  67.972  16.187  0.00  0.00    -0.065 A 
ATOM     15  H11 19Y d   1      15.047  66.544  15.126  0.00  0.00     0.085 H 
ATOM     16  C14 19Y d   1      16.658  68.423  17.446  0.00  0.00     0.002 A 
ATOM     17  H12 19Y d   1      16.659  68.438  15.290  0.00  0.00     0.085 H 
ATOM     18  N13 19Y d   1      16.172  67.847  18.559  0.00  0.00    -0.272 NA
ATOM     19  H13 19Y d   1      17.360  69.245  17.528  0.00  0.00     0.114 H 
ATOM     20  C12 19Y d   1      15.299  66.828  18.493  0.00  0.00     0.018 A 
ATOM     21  H14 19Y d   1      14.925  66.382  19.407  0.00  0.00     0.116 H 
ENDBRANCH  11  12
ENDBRANCH   6  11
BRANCH   4  22
ATOM     22  O17 19Y d   1      11.146  68.307  14.510  0.00  0.00    -0.339 OA
BRANCH  22  23
ATOM     23  C18 19Y d   1      12.297  69.152  14.480  0.00  0.00     0.012 C 
ATOM     24  H7  19Y d   1      12.009  70.152  14.123  0.00  0.00     0.067 H 
ATOM     25  H8  19Y d   1      13.049  68.723  13.801  0.00  0.00     0.067 H 
ATOM     26  H9  19Y d   1      12.720  69.232  15.492  0.00  0.00     0.067 H 
ENDBRANCH  22  23
ENDBRANCH   4  22
BRANCH   1  27
ATOM     27  C19 19Y d   1       8.490  66.907  12.975  0.00  0.00     0.121 C 
ATOM     28  O20 19Y d   1       7.474  66.736  12.324  0.00  0.00    -0.301 OA
ATOM     29  H1  19Y d   1       8.945  67.895  13.025  0.00  0.00     0.151 H 
ENDBRANCH   1  27
BRANCH   2  30
ATOM     30  C21 19Y d   1       7.538  63.671  13.101  0.00  0.00    -0.029 C 
ATOM     31  H2  19Y d   1       7.884  63.157  12.192  0.00  0.00     0.041 H 
ATOM     32  H3  19Y d   1       6.790  64.430  12.831  0.00  0.00     0.041 H 
BRANCH  30  33
ATOM     33  C22 19Y d   1       6.904  62.656  14.038  0.00  0.00    -0.071 C 
ATOM     34  H4  19Y d   1       6.052  62.175  13.535  0.00  0.00     0.028 H 
ATOM     35  H5  19Y d   1       6.553  63.166  14.948  0.00  0.00     0.028 H 
ATOM     36  H6  19Y d   1       7.648  61.892  14.309  0.00  0.00     0.028 H 
ENDBRANCH  30  33
ENDBRANCH   2  30
TORSDOF 7
