REMARK  13 active torsions:
REMARK  status: ('A' for Active; 'I' for Inactive)
REMARK    1  A    between atoms: C18_2  and  C1_4 
REMARK    2  A    between atoms: C1_4  and  N2_5 
REMARK    3  A    between atoms: C1_4  and  C3_6 
REMARK    4  A    between atoms: C1_4  and  C10_14 
REMARK    5  A    between atoms: C3_6  and  C4_7 
REMARK    6  A    between atoms: C4_7  and  C5_8 
REMARK    7  A    between atoms: C5_8  and  C6_9 
REMARK    8  A    between atoms: C6_9  and  B7_10 
REMARK    9  A    between atoms: B7_10  and  O9_12 
REMARK   10  A    between atoms: B7_10  and  O19_13 
REMARK   11  A    between atoms: B7_10  and  O8_11 
REMARK   12  A    between atoms: C10_14  and  C11_15 
REMARK   13  A    between atoms: C11_15  and  N12_16 
ROOT
ATOM      1  C1  X7A d   1      33.534  87.061  71.200  0.00  0.00     0.211 C 
ENDROOT
BRANCH   1   2
ATOM      2  C18 X7A d   1      33.768  88.507  71.563  0.00  0.00     0.210 C 
ATOM      3  O20 X7A d   1      34.795  88.821  72.203  0.00  0.00    -0.646 OA
ATOM      4  O21 X7A d   1      32.908  89.353  71.225  0.00  0.00    -0.646 OA
ENDBRANCH   1   2
BRANCH   1   5
ATOM      5  N2  X7A d   1      32.130  86.887  70.799  0.00  0.00    -0.060 N 
ATOM      6  H1  X7A d   1      31.967  85.923  70.555  0.00  0.00     0.275 HD
ATOM      7  H2  X7A d   1      31.933  87.473  70.003  0.00  0.00     0.275 HD
ATOM      8  H3  X7A d   1      31.527  87.146  71.564  0.00  0.00     0.275 HD
ENDBRANCH   1   5
BRANCH   1   9
ATOM      9  C3  X7A d   1      34.325  86.665  69.941  0.00  0.00    -0.024 C 
ATOM     10  H4  X7A d   1      34.027  87.355  69.138  0.00  0.00     0.037 H 
ATOM     11  H5  X7A d   1      34.024  85.641  69.675  0.00  0.00     0.037 H 
BRANCH   9  12
ATOM     12  C4  X7A d   1      35.842  86.684  70.011  0.00  0.00    -0.063 C 
ATOM     13  H6  X7A d   1      36.172  86.103  70.885  0.00  0.00     0.033 H 
ATOM     14  H7  X7A d   1      36.187  87.724  70.111  0.00  0.00     0.033 H 
BRANCH  12  15
ATOM     15  C5  X7A d   1      36.442  86.073  68.743  0.00  0.00    -0.071 C 
ATOM     16  H8  X7A d   1      35.761  85.295  68.368  0.00  0.00     0.032 H 
ATOM     17  H9  X7A d   1      37.413  85.621  68.993  0.00  0.00     0.032 H 
BRANCH  15  18
ATOM     18  C6  X7A d   1      36.654  87.122  67.636  0.00  0.00    -0.069 C 
ATOM     19  H11 X7A d   1      36.901  88.092  68.092  0.00  0.00     0.023 H 
ATOM     20  H12 X7A d   1      35.733  87.220  67.043  0.00  0.00     0.023 H 
BRANCH  18  21
ATOM     21  B7  X7A d   1      37.138  86.511  66.266  0.00  0.00     0.318 B 
BRANCH  21  22
ATOM     22  O9  X7A d   1      37.733  87.458  65.274  0.00  0.00     0.000 OA
ATOM     23  H14 X7A d   1      37.040  87.962  64.864  0.00  0.00     0.000 HD
ATOM     24  H15 X7A d   1      37.040  87.962  64.864  0.00  0.00     0.000 HD
ENDBRANCH  21  22
BRANCH  21  25
ATOM     25  O19 X7A d   1      36.200  85.592  65.567  0.00  0.00     0.000 OA
ATOM     26  H16 X7A d   1      35.509  86.099  65.156  0.00  0.00     0.000 HD
ATOM     27  H17 X7A d   1      35.509  86.099  65.156  0.00  0.00     0.000 HD
ENDBRANCH  21  25
BRANCH  21  28
ATOM     28  O8  X7A d   1      38.306  85.546  66.618  0.00  0.00    -0.467 OA
ATOM     29  H13 X7A d   1      38.939  84.931  66.148  0.00  0.00     0.181 HD
ENDBRANCH  21  28
ENDBRANCH  18  21
ENDBRANCH  15  18
ENDBRANCH  12  15
ENDBRANCH   9  12
ENDBRANCH   1   9
BRANCH   1  30
ATOM     30  C10 X7A d   1      33.802  86.169  72.422  0.00  0.00    -0.001 C 
ATOM     31  H18 X7A d   1      34.796  86.412  72.825  0.00  0.00     0.040 H 
ATOM     32  H19 X7A d   1      33.784  85.117  72.101  0.00  0.00     0.040 H 
BRANCH  30  33
ATOM     33  C11 X7A d   1      32.764  86.362  73.529  0.00  0.00     0.086 C 
ATOM     34  H20 X7A d   1      31.761  86.229  73.099  0.00  0.00     0.076 H 
ATOM     35  H21 X7A d   1      32.859  87.383  73.928  0.00  0.00     0.076 H 
BRANCH  33  36
ATOM     36  N12 X7A d   1      32.935  85.401  74.640  0.00  0.00    -0.071 N 
ATOM     37  C13 X7A d   1      32.694  84.043  74.138  0.00  0.00     0.084 C 
ATOM     38  C14 X7A d   1      32.960  83.025  75.240  0.00  0.00    -0.042 C 
ATOM     39  H23 X7A d   1      33.364  83.844  73.289  0.00  0.00     0.076 H 
ATOM     40  H24 X7A d   1      31.648  83.957  73.808  0.00  0.00     0.076 H 
ATOM     41  C15 X7A d   1      32.052  83.284  76.434  0.00  0.00    -0.062 C 
ATOM     42  H25 X7A d   1      34.010  83.103  75.560  0.00  0.00     0.035 H 
ATOM     43  H26 X7A d   1      32.769  82.013  74.853  0.00  0.00     0.035 H 
ATOM     44  C16 X7A d   1      32.206  84.733  76.889  0.00  0.00    -0.042 C 
ATOM     45  H27 X7A d   1      32.329  82.610  77.258  0.00  0.00     0.033 H 
ATOM     46  H28 X7A d   1      31.006  83.100  76.146  0.00  0.00     0.033 H 
ATOM     47  C17 X7A d   1      31.980  85.694  75.720  0.00  0.00     0.084 C 
ATOM     48  H29 X7A d   1      33.221  84.881  77.287  0.00  0.00     0.035 H 
ATOM     49  H30 X7A d   1      31.469  84.944  77.678  0.00  0.00     0.035 H 
ATOM     50  H31 X7A d   1      30.954  85.574  75.342  0.00  0.00     0.076 H 
ATOM     51  H32 X7A d   1      32.125  86.728  76.065  0.00  0.00     0.076 H 
ATOM     52  H22 X7A d   1      33.875  85.467  74.998  0.00  0.00     0.279 HD
ENDBRANCH  33  36
ENDBRANCH  30  33
ENDBRANCH   1  30
TORSDOF 13
