REMARK  7 active torsions:
REMARK  status: ('A' for Active; 'I' for Inactive)
REMARK    1  A    between atoms: C10_8  and  N13_14 
REMARK    2  A    between atoms: C8_10  and  C11_11 
REMARK    3  A    between atoms: C8_10  and  C12_12 
REMARK    4  A    between atoms: N13_14  and  C14_15 
REMARK    5  A    between atoms: C14_15  and  C25_16 
REMARK    6  A    between atoms: C14_15  and  C18_22 
REMARK    7  A    between atoms: C18_22  and  C19_23 
ROOT
ATOM      1  N13 0ZA d   1      10.667 -17.759   7.533  0.00  0.00    -0.362 N 
ATOM      2  H12 0ZA d   1      10.320 -17.892   6.572  0.00  0.00     0.162 HD
ENDROOT
BRANCH   1   3
ATOM      3  C10 0ZA d   1      10.956 -16.540   7.973  0.00  0.00     0.130 C 
ATOM      4  C3  0ZA d   1      10.603 -15.393   7.060  0.00  0.00     0.016 A 
ATOM      5  C4  0ZA d   1       9.606 -15.540   6.061  0.00  0.00    -0.067 A 
ATOM      6  C2  0ZA d   1      11.322 -14.145   7.261  0.00  0.00    -0.040 A 
ATOM      7  C5  0ZA d   1       9.331 -14.450   5.255  0.00  0.00    -0.061 A 
ATOM      8  H2  0ZA d   1       9.076 -16.477   5.934  0.00  0.00     0.085 H 
ATOM      9  C6  0ZA d   1      10.055 -13.237   5.462  0.00  0.00     0.034 A 
ATOM     10  H1  0ZA d   1       8.578 -14.516   4.478  0.00  0.00     0.086 H 
ATOM     11 CL1  0ZA d   1       9.687 -11.827   4.412  0.00  0.00    -0.084 Cl
ATOM     12  C1  0ZA d   1      11.057 -13.075   6.413  0.00  0.00    -0.055 A 
ATOM     13  H3  0ZA d   1      11.612 -12.147   6.490  0.00  0.00     0.086 H 
ATOM     14  C7  0ZA d   1      12.343 -14.094   8.381  0.00  0.00    -0.015 C 
ATOM     15  C8  0ZA d   1      11.803 -14.913   9.558  0.00  0.00     0.052 C 
ATOM     16  H10 0ZA d   1      12.501 -13.051   8.694  0.00  0.00     0.043 H 
ATOM     17  H11 0ZA d   1      13.296 -14.521   8.036  0.00  0.00     0.043 H 
ATOM     18  N9  0ZA d   1      11.559 -16.287   9.068  0.00  0.00    -0.262 NA
BRANCH  15  19
ATOM     19  C11 0ZA d   1      12.861 -14.979  10.648  0.00  0.00    -0.051 C 
ATOM     20  H4  0ZA d   1      13.059 -13.966  11.028  0.00  0.00     0.030 H 
ATOM     21  H5  0ZA d   1      13.788 -15.403  10.234  0.00  0.00     0.030 H 
ATOM     22  H6  0ZA d   1      12.501 -15.615  11.470  0.00  0.00     0.030 H 
ENDBRANCH  15  19
BRANCH  15  23
ATOM     23  C12 0ZA d   1      10.520 -14.256  10.182  0.00  0.00    -0.051 C 
ATOM     24  H7  0ZA d   1      10.760 -13.240  10.528  0.00  0.00     0.030 H 
ATOM     25  H8  0ZA d   1      10.175 -14.861  11.033  0.00  0.00     0.030 H 
ATOM     26  H9  0ZA d   1       9.726 -14.207   9.422  0.00  0.00     0.030 H 
ENDBRANCH  15  23
ENDBRANCH   1   3
BRANCH   1  27
ATOM     27  C14 0ZA d   1      10.843 -18.912   8.415  0.00  0.00     0.074 C 
ATOM     28  H13 0ZA d   1      11.504 -18.663   9.258  0.00  0.00     0.085 H 
BRANCH  27  29
ATOM     29  C25 0ZA d   1      11.428 -19.950   7.558  0.00  0.00     0.152 A 
ATOM     30  N24 0ZA d   1      11.689 -21.209   8.009  0.00  0.00    -0.181 NA
ATOM     31  C29 0ZA d   1      12.145 -21.850   6.943  0.00  0.00     0.341 A 
ATOM     32  O28 0ZA d   1      12.493 -23.249   6.973  0.00  0.00    -0.139 OA
ATOM     33  O26 0ZA d   1      12.111 -21.101   5.841  0.00  0.00    -0.189 OA
ATOM     34  N27 0ZA d   1      11.648 -19.883   6.191  0.00  0.00    -0.241 N 
ATOM     35  H14 0ZA d   1      11.491 -19.074   5.573  0.00  0.00     0.196 HD
ENDBRANCH  27  29
BRANCH  27  36
ATOM     36  C18 0ZA d   1       9.477 -19.437   8.939  0.00  0.00    -0.015 C 
ATOM     37  H15 0ZA d   1       9.612 -20.423   9.408  0.00  0.00     0.043 H 
ATOM     38  H16 0ZA d   1       8.765 -19.522   8.104  0.00  0.00     0.043 H 
BRANCH  36  39
ATOM     39  C19 0ZA d   1       8.952 -18.447   9.964  0.00  0.00    -0.056 A 
ATOM     40  C24 0ZA d   1       9.532 -18.441  11.239  0.00  0.00    -0.077 A 
ATOM     41  C23 0ZA d   1       9.122 -17.536  12.232  0.00  0.00    -0.082 A 
ATOM     42  H17 0ZA d   1      10.317 -19.153  11.465  0.00  0.00     0.084 H 
ATOM     43  C22 0ZA d   1       8.101 -16.632  11.953  0.00  0.00    -0.083 A 
ATOM     44  H18 0ZA d   1       9.596 -17.542  13.207  0.00  0.00     0.083 H 
ATOM     45  C21 0ZA d   1       7.546 -16.617  10.663  0.00  0.00    -0.082 A 
ATOM     46  H19 0ZA d   1       7.741 -15.952  12.717  0.00  0.00     0.083 H 
ATOM     47  C20 0ZA d   1       7.938 -17.533   9.645  0.00  0.00    -0.077 A 
ATOM     48  H20 0ZA d   1       6.788 -15.877  10.432  0.00  0.00     0.083 H 
ATOM     49  H21 0ZA d   1       7.472 -17.524   8.666  0.00  0.00     0.084 H 
ENDBRANCH  36  39
ENDBRANCH  27  36
ENDBRANCH   1  27
TORSDOF 7
