REMARK  11 active torsions:
REMARK  status: ('A' for Active; 'I' for Inactive)
REMARK    1  A    between atoms: CAA_1  and  CAG_7 
REMARK    2  A    between atoms: CAC_3  and  NAZ_17 
REMARK    3  A    between atoms: NBG_24  and  CAD_4 
REMARK    4  A    between atoms: CAE_5  and  CAJ_10 
REMARK    5  A    between atoms: CAJ_10  and  CAK_11 
REMARK    6  A    between atoms: CAJ_10  and  OAW_14 
REMARK    7  A    between atoms: CAK_11  and  CAL_12 
REMARK    8  A    between atoms: CAK_11  and  OAY_16 
REMARK    9  A    between atoms: CAL_12  and  OAM_13 
REMARK   10  A    between atoms: OAW_14  and  CAX_15 
REMARK       I    between atoms: NAZ_17  and  CBA_18 
REMARK       I    between atoms: CBA_18  and  NBB_19 
REMARK   11  A    between atoms: CBD_21  and  CBE_22 
REMARK       I    between atoms: CBD_21  and  NBG_24 
ROOT
ATOM      1  CAA LNV d   1      -5.472 -30.134  35.980  0.00  0.00     0.144 C 
ATOM      2  CAB LNV d   1      -5.752 -28.722  35.601  0.00  0.00    -0.040 C 
ATOM      3  CAC LNV d   1      -7.044 -28.425  34.893  0.00  0.00     0.068 C 
ATOM      4  CAD LNV d   1      -8.038 -29.551  34.737  0.00  0.00     0.063 C 
ATOM      5  CAE LNV d   1      -7.345 -30.956  34.642  0.00  0.00     0.094 C 
ATOM      6  OAF LNV d   1      -6.332 -31.128  35.599  0.00  0.00    -0.335 OA
ATOM      7  H1  LNV d   1      -5.042 -27.928  35.830  0.00  0.00     0.084 H 
ATOM      8  H2  LNV d   1      -6.688 -28.323  33.857  0.00  0.00     0.083 H 
ATOM      9  H3  LNV d   1      -8.611 -29.574  35.676  0.00  0.00     0.080 H 
ATOM     10  H4  LNV d   1      -6.889 -31.024  33.643  0.00  0.00     0.091 H 
ENDROOT
BRANCH   5  11
ATOM     11  CAJ LNV d   1      -8.325 -32.126  34.799  0.00  0.00     0.092 C 
ATOM     12  H5  LNV d   1      -9.147 -31.994  34.080  0.00  0.00     0.091 H 
BRANCH  11  13
ATOM     13  CAK LNV d   1      -7.648 -33.455  34.526  0.00  0.00     0.083 C 
ATOM     14  H6  LNV d   1      -6.848 -33.612  35.264  0.00  0.00     0.090 H 
BRANCH  13  15
ATOM     15  CAL LNV d   1      -8.630 -34.616  34.601  0.00  0.00     0.043 C 
ATOM     16  H7  LNV d   1      -8.968 -34.705  35.644  0.00  0.00     0.078 H 
ATOM     17  H8  LNV d   1      -8.093 -35.531  34.310  0.00  0.00     0.078 H 
BRANCH  15  18
ATOM     18  OAM LNV d   1      -9.717 -34.513  33.824  0.00  0.00    -0.398 OA
ATOM     19  H9  LNV d   1      -9.450 -34.449  32.914  0.00  0.00     0.209 HD
ENDBRANCH  15  18
ENDBRANCH  13  15
BRANCH  13  20
ATOM     20  OAY LNV d   1      -7.136 -33.415  33.312  0.00  0.00    -0.391 OA
ATOM     21  H13 LNV d   1      -7.834 -33.291  32.679  0.00  0.00     0.210 HD
ENDBRANCH  13  20
ENDBRANCH  11  13
BRANCH  11  22
ATOM     22  OAW LNV d   1      -8.836 -32.136  36.059  0.00  0.00    -0.385 OA
BRANCH  22  23
ATOM     23  CAX LNV d   1     -10.108 -31.874  36.241  0.00  0.00     0.005 C 
ATOM     24  H10 LNV d   1     -10.343 -31.927  37.314  0.00  0.00     0.066 H 
ATOM     25  H11 LNV d   1     -10.716 -32.611  35.696  0.00  0.00     0.066 H 
ATOM     26  H12 LNV d   1     -10.332 -30.865  35.866  0.00  0.00     0.066 H 
ENDBRANCH  22  23
ENDBRANCH  11  22
ENDBRANCH   5  11
BRANCH   4  27
ATOM     27  NBG LNV d   1      -8.974 -29.297  33.744  0.00  0.00    -0.352 N 
ATOM     28  CBD LNV d   1     -10.241 -28.742  34.031  0.00  0.00     0.214 C 
ATOM     29  OBF LNV d   1     -10.616 -28.578  35.071  0.00  0.00    -0.274 OA
ATOM     30  H22 LNV d   1      -8.744 -29.514  32.795  0.00  0.00     0.163 HD
BRANCH  28  31
ATOM     31  CBE LNV d   1     -11.109 -28.641  32.857  0.00  0.00    -0.003 C 
ATOM     32  H19 LNV d   1     -10.522 -28.842  31.949  0.00  0.00     0.040 H 
ATOM     33  H20 LNV d   1     -11.535 -27.628  32.802  0.00  0.00     0.040 H 
ATOM     34  H21 LNV d   1     -11.922 -29.377  32.938  0.00  0.00     0.040 H 
ENDBRANCH  28  31
ENDBRANCH   4  27
BRANCH   3  35
ATOM     35  NAZ LNV d   1      -7.602 -27.135  35.116  0.00  0.00    -0.217 N 
ATOM     36  CBA LNV d   1      -8.293 -26.370  34.159  0.00  0.00     0.665 C 
ATOM     37  NBB LNV d   1      -8.086 -26.535  32.877  0.00  0.00    -0.235 N 
ATOM     38  NBC LNV d   1      -8.911 -25.333  34.605  0.00  0.00    -0.235 N 
ATOM     39  H15 LNV d   1      -8.604 -25.963  32.194  0.00  0.00     0.174 HD
ATOM     40  H16 LNV d   1      -7.406 -27.236  32.551  0.00  0.00     0.174 HD
ATOM     41  H17 LNV d   1      -9.064 -25.221  35.617  0.00  0.00     0.174 HD
ATOM     42  H18 LNV d   1      -9.252 -24.615  33.950  0.00  0.00     0.174 HD
ATOM     43  H14 LNV d   1      -7.491 -26.728  36.056  0.00  0.00     0.178 HD
ENDBRANCH   3  35
BRANCH   1  44
ATOM     44  CAG LNV d   1      -4.195 -30.529  36.620  0.00  0.00     0.233 C 
ATOM     45  OAH LNV d   1      -3.549 -29.594  37.302  0.00  0.00    -0.642 OA
ATOM     46  OAI LNV d   1      -4.034 -31.855  36.741  0.00  0.00    -0.642 OA
ENDBRANCH   1  44
TORSDOF 11
