REMARK  10 active torsions:
REMARK  status: ('A' for Active; 'I' for Inactive)
REMARK    1  A    between atoms: C1_1  and  C2_4 
REMARK    2  A    between atoms: C4_6  and  N4_20 
REMARK    3  A    between atoms: C5_7  and  N5_8 
REMARK       I    between atoms: N5_8  and  C10_9 
REMARK    4  A    between atoms: C10_9  and  C11_11 
REMARK    5  A    between atoms: C6_12  and  O7_14 
REMARK    6  A    between atoms: O7_14  and  C8_15 
REMARK    7  A    between atoms: C8_15  and  C9_16 
REMARK    8  A    between atoms: C8_15  and  C81_17 
REMARK    9  A    between atoms: C9_16  and  C91_19 
REMARK   10  A    between atoms: C81_17  and  C82_18 
ROOT
ATOM      1  C2  G39 d   1      30.479   5.588 -37.318  0.00  0.00     0.035 C 
ATOM      2  C3  G39 d   1      29.031   6.131 -37.360  0.00  0.00    -0.024 C 
ATOM      3  C4  G39 d   1      28.589   6.956 -36.179  0.00  0.00     0.122 C 
ATOM      4  C5  G39 d   1      29.584   7.980 -35.624  0.00  0.00     0.064 C 
ATOM      5  C6  G39 d   1      31.093   7.693 -35.802  0.00  0.00     0.061 C 
ATOM      6  C7  G39 d   1      31.518   6.330 -36.427  0.00  0.00    -0.026 C 
ATOM      7  H1  G39 d   1      30.776   6.124 -38.231  0.00  0.00     0.056 H 
ATOM      8  H2  G39 d   1      28.353   5.269 -37.438  0.00  0.00     0.037 H 
ATOM      9  H3  G39 d   1      28.934   6.756 -38.260  0.00  0.00     0.037 H 
ATOM     10  H4  G39 d   1      28.738   6.186 -35.408  0.00  0.00     0.087 H 
ATOM     11  H5  G39 d   1      29.502   8.678 -36.470  0.00  0.00     0.079 H 
ATOM     12  H10 G39 d   1      31.271   7.395 -34.758  0.00  0.00     0.086 H 
ATOM     13  H11 G39 d   1      32.408   6.516 -37.045  0.00  0.00     0.038 H 
ATOM     14  H12 G39 d   1      31.781   5.656 -35.598  0.00  0.00     0.038 H 
ENDROOT
BRANCH   5  15
ATOM     15  O7  G39 d   1      31.999   8.752 -35.794  0.00  0.00    -0.379 OA
BRANCH  15  16
ATOM     16  C8  G39 d   1      32.584   9.158 -34.587  0.00  0.00     0.038 C 
ATOM     17  H13 G39 d   1      31.735   9.358 -33.916  0.00  0.00     0.083 H 
BRANCH  16  18
ATOM     18  C9  G39 d   1      33.369   8.076 -33.902  0.00  0.00    -0.044 C 
ATOM     19  H14 G39 d   1      32.671   7.256 -33.677  0.00  0.00     0.036 H 
ATOM     20  H15 G39 d   1      33.756   8.496 -32.962  0.00  0.00     0.036 H 
BRANCH  18  21
ATOM     21  C91 G39 d   1      34.527   7.486 -34.637  0.00  0.00    -0.074 C 
ATOM     22  H21 G39 d   1      35.001   6.713 -34.015  0.00  0.00     0.027 H 
ATOM     23  H22 G39 d   1      35.260   8.275 -34.861  0.00  0.00     0.027 H 
ATOM     24  H23 G39 d   1      34.174   7.035 -35.576  0.00  0.00     0.027 H 
ENDBRANCH  18  21
ENDBRANCH  16  18
BRANCH  16  25
ATOM     25  C81 G39 d   1      33.316  10.466 -34.681  0.00  0.00    -0.044 C 
ATOM     26  H16 G39 d   1      34.241  10.285 -35.249  0.00  0.00     0.036 H 
ATOM     27  H17 G39 d   1      33.569  10.775 -33.656  0.00  0.00     0.036 H 
BRANCH  25  28
ATOM     28  C82 G39 d   1      32.606  11.615 -35.334  0.00  0.00    -0.074 C 
ATOM     29  H18 G39 d   1      33.260  12.500 -35.331  0.00  0.00     0.027 H 
ATOM     30  H19 G39 d   1      31.683  11.839 -34.779  0.00  0.00     0.027 H 
ATOM     31  H20 G39 d   1      32.355  11.349 -36.371  0.00  0.00     0.027 H 
ENDBRANCH  25  28
ENDBRANCH  16  25
ENDBRANCH  15  16
ENDBRANCH   5  15
BRANCH   4  32
ATOM     32  N5  G39 d   1      29.164   8.935 -34.618  0.00  0.00    -0.352 N 
ATOM     33  C10 G39 d   1      28.646  10.211 -35.013  0.00  0.00     0.214 C 
ATOM     34  O10 G39 d   1      28.556  10.492 -36.196  0.00  0.00    -0.274 OA
ATOM     35  H6  G39 d   1      29.236   8.703 -33.648  0.00  0.00     0.163 HD
BRANCH  33  36
ATOM     36  C11 G39 d   1      28.209  11.200 -33.973  0.00  0.00    -0.003 C 
ATOM     37  H7  G39 d   1      27.844  12.113 -34.466  0.00  0.00     0.040 H 
ATOM     38  H8  G39 d   1      29.061  11.450 -33.323  0.00  0.00     0.040 H 
ATOM     39  H9  G39 d   1      27.402  10.762 -33.367  0.00  0.00     0.040 H 
ENDBRANCH  33  36
ENDBRANCH   4  32
BRANCH   3  40
ATOM     40  N4  G39 d   1      27.176   7.155 -35.955  0.00  0.00    -0.073 N 
ATOM     41  H24 G39 d   1      26.659   6.401 -36.379  0.00  0.00     0.274 HD
ATOM     42  H25 G39 d   1      26.891   8.030 -36.365  0.00  0.00     0.274 HD
ATOM     43  H26 G39 d   1      26.992   7.173 -34.964  0.00  0.00     0.274 HD
ENDBRANCH   3  40
BRANCH   1  44
ATOM     44  C1  G39 d   1      30.818   4.246 -37.899  0.00  0.00     0.177 C 
ATOM     45  O1A G39 d   1      29.926   3.496 -38.263  0.00  0.00    -0.648 OA
ATOM     46  O1B G39 d   1      32.141   3.862 -38.030  0.00  0.00    -0.648 OA
ENDBRANCH   1  44
TORSDOF 10
