REMARK  10 active torsions:
REMARK  status: ('A' for Active; 'I' for Inactive)
REMARK    1  A    between atoms: C1_1  and  C2_4 
REMARK    2  A    between atoms: C4_6  and  N4_20 
REMARK    3  A    between atoms: C5_7  and  N5_8 
REMARK       I    between atoms: N5_8  and  C10_9 
REMARK    4  A    between atoms: C10_9  and  C11_11 
REMARK    5  A    between atoms: C6_12  and  O7_14 
REMARK    6  A    between atoms: O7_14  and  C8_15 
REMARK    7  A    between atoms: C8_15  and  C9_16 
REMARK    8  A    between atoms: C8_15  and  C81_17 
REMARK    9  A    between atoms: C9_16  and  C91_19 
REMARK   10  A    between atoms: C81_17  and  C82_18 
ROOT
ATOM      1  C2  G39 d   1       6.587  30.095  37.901  0.00  0.00     0.045 C 
ATOM      2  C3  G39 d   1       6.933  28.604  37.832  0.00  0.00    -0.039 C 
ATOM      3  C4  G39 d   1       7.947  28.217  36.809  0.00  0.00     0.056 C 
ATOM      4  C5  G39 d   1       8.989  29.235  36.372  0.00  0.00     0.095 C 
ATOM      5  C6  G39 d   1       8.649  30.723  36.413  0.00  0.00     0.099 C 
ATOM      6  C7  G39 d   1       7.388  31.159  37.149  0.00  0.00    -0.032 C 
ATOM      7  H1  G39 d   1       6.469  27.875  38.487  0.00  0.00     0.088 H 
ATOM      8  H6  G39 d   1       7.068  32.194  37.140  0.00  0.00     0.089 H 
ENDROOT
BRANCH   5   9
ATOM      9  O7  G39 d   1       9.649  31.666  36.315  0.00  0.00    -0.344 OA
BRANCH   9  10
ATOM     10  C8  G39 d   1       9.993  32.175  35.056  0.00  0.00     0.044 C 
ATOM     11  H7  G39 d   1      10.096  31.309  34.385  0.00  0.00     0.084 H 
BRANCH  10  12
ATOM     12  C9  G39 d   1       8.934  33.042  34.427  0.00  0.00    -0.044 C 
ATOM     13  H8  G39 d   1       8.013  32.445  34.358  0.00  0.00     0.036 H 
ATOM     14  H9  G39 d   1       9.277  33.306  33.416  0.00  0.00     0.036 H 
BRANCH  12  15
ATOM     15  C91 G39 d   1       8.597  34.315  35.138  0.00  0.00    -0.074 C 
ATOM     16  H15 G39 d   1       7.816  34.851  34.579  0.00  0.00     0.027 H 
ATOM     17  H16 G39 d   1       9.496  34.945  35.208  0.00  0.00     0.027 H 
ATOM     18  H17 G39 d   1       8.232  34.084  36.150  0.00  0.00     0.027 H 
ENDBRANCH  12  15
ENDBRANCH  10  12
BRANCH  10  19
ATOM     19  C81 G39 d   1      11.355  32.803  35.150  0.00  0.00    -0.044 C 
ATOM     20  H10 G39 d   1      11.280  33.683  35.806  0.00  0.00     0.036 H 
ATOM     21  H11 G39 d   1      11.653  33.123  34.141  0.00  0.00     0.036 H 
BRANCH  19  22
ATOM     22  C82 G39 d   1      12.436  31.908  35.693  0.00  0.00    -0.074 C 
ATOM     23  H12 G39 d   1      13.388  32.459  35.721  0.00  0.00     0.027 H 
ATOM     24  H13 G39 d   1      12.542  31.026  35.045  0.00  0.00     0.027 H 
ATOM     25  H14 G39 d   1      12.169  31.586  36.710  0.00  0.00     0.027 H 
ENDBRANCH  19  22
ENDBRANCH  10  19
ENDBRANCH   9  10
ENDBRANCH   5   9
BRANCH   4  26
ATOM     26  N5  G39 d   1       9.951  28.864  35.389  0.00  0.00    -0.323 N 
ATOM     27  C10 G39 d   1      11.210  28.280  35.655  0.00  0.00     0.218 C 
ATOM     28  O10 G39 d   1      11.636  28.163  36.787  0.00  0.00    -0.274 OA
ATOM     29  H2  G39 d   1       9.716  29.031  34.431  0.00  0.00     0.169 HD
BRANCH  27  30
ATOM     30  C11 G39 d   1      12.015  27.910  34.451  0.00  0.00    -0.003 C 
ATOM     31  H3  G39 d   1      12.970  27.467  34.770  0.00  0.00     0.040 H 
ATOM     32  H4  G39 d   1      12.211  28.810  33.850  0.00  0.00     0.040 H 
ATOM     33  H5  G39 d   1      11.456  27.180  33.846  0.00  0.00     0.040 H 
ENDBRANCH  27  30
ENDBRANCH   4  26
BRANCH   3  34
ATOM     34  N4  G39 d   1       8.335  26.841  36.840  0.00  0.00    -0.397 N 
ATOM     35  H18 G39 d   1       7.658  26.121  37.130  0.00  0.00     0.156 HD
ATOM     36  H19 G39 d   1       9.292  26.570  36.572  0.00  0.00     0.156 HD
ENDBRANCH   3  34
BRANCH   1  37
ATOM     37  C1  G39 d   1       5.312  30.548  38.473  0.00  0.00     0.209 C 
ATOM     38  O1A G39 d   1       4.525  29.739  38.907  0.00  0.00    -0.644 OA
ATOM     39  O1B G39 d   1       5.083  31.897  38.418  0.00  0.00    -0.644 OA
ENDBRANCH   1  37
TORSDOF 10
