REMARK  10 active torsions:
REMARK  status: ('A' for Active; 'I' for Inactive)
REMARK    1  A    between atoms: C8_7  and  C11_9 
REMARK    2  A    between atoms: C8_7  and  C12_10 
REMARK    3  A    between atoms: N13_19  and  C10_8 
REMARK    4  A    between atoms: C14_20  and  C15_11 
REMARK    5  A    between atoms: C18_12  and  C19_13 
REMARK    6  A    between atoms: C14_20  and  C18_12 
REMARK    7  A    between atoms: C23_15  and  C24_25 
REMARK    8  A    between atoms: N13_19  and  C14_20 
REMARK    9  A    between atoms: C24_25  and  C26_26 
REMARK   10  A    between atoms: C26_26  and  C27_27 
ROOT
ATOM      1  N13 1B7 d   1      10.856 -17.495   7.225  0.00  0.00    -0.360 N 
ATOM      2  H15 1B7 d   1      10.776 -17.546   6.199  0.00  0.00     0.162 HD
ENDROOT
BRANCH   1   3
ATOM      3  C10 1B7 d   1      11.043 -16.297   7.795  0.00  0.00     0.130 C 
ATOM      4  C3  1B7 d   1      10.742 -15.135   6.929  0.00  0.00     0.016 A 
ATOM      5  C4  1B7 d   1       9.843 -15.207   5.871  0.00  0.00    -0.067 A 
ATOM      6  C2  1B7 d   1      11.437 -13.908   7.249  0.00  0.00    -0.040 A 
ATOM      7  C5  1B7 d   1       9.627 -14.070   5.093  0.00  0.00    -0.061 A 
ATOM      8  H2  1B7 d   1       9.319 -16.131   5.655  0.00  0.00     0.085 H 
ATOM      9  C6  1B7 d   1      10.278 -12.885   5.433  0.00  0.00     0.034 A 
ATOM     10  H3  1B7 d   1       8.963 -14.107   4.237  0.00  0.00     0.086 H 
ATOM     11  C1  1B7 d   1      11.182 -12.777   6.488  0.00  0.00    -0.055 A 
ATOM     12 CL1  1B7 d   1       9.988 -11.412   4.486  0.00  0.00    -0.084 Cl
ATOM     13  H1  1B7 d   1      11.672 -11.835   6.708  0.00  0.00     0.086 H 
ATOM     14  C7  1B7 d   1      12.354 -13.893   8.455  0.00  0.00    -0.015 C 
ATOM     15  C8  1B7 d   1      11.705 -14.750   9.566  0.00  0.00     0.052 C 
ATOM     16  H4  1B7 d   1      13.333 -14.315   8.184  0.00  0.00     0.043 H 
ATOM     17  H5  1B7 d   1      12.485 -12.860   8.810  0.00  0.00     0.043 H 
ATOM     18  N9  1B7 d   1      11.452 -16.086   9.001  0.00  0.00    -0.262 NA
BRANCH  15  19
ATOM     19  C11 1B7 d   1      12.700 -14.822  10.723  0.00  0.00    -0.051 C 
ATOM     20  H6  1B7 d   1      12.273 -15.426  11.537  0.00  0.00     0.030 H 
ATOM     21  H7  1B7 d   1      12.909 -13.807  11.091  0.00  0.00     0.030 H 
ATOM     22  H8  1B7 d   1      13.635 -15.285  10.374  0.00  0.00     0.030 H 
ENDBRANCH  15  19
BRANCH  15  23
ATOM     23  C12 1B7 d   1      10.406 -14.070  10.086  0.00  0.00    -0.051 C 
ATOM     24  H9  1B7 d   1       9.673 -14.007   9.268  0.00  0.00     0.030 H 
ATOM     25  H10 1B7 d   1      10.641 -13.058  10.447  0.00  0.00     0.030 H 
ATOM     26  H11 1B7 d   1       9.986 -14.665  10.910  0.00  0.00     0.030 H 
ENDBRANCH  15  23
ENDBRANCH   1   3
BRANCH   1  27
ATOM     27  C14 1B7 d   1      10.761 -18.735   7.998  0.00  0.00     0.099 C 
ATOM     28  H16 1B7 d   1      11.184 -18.572   9.000  0.00  0.00     0.090 H 
BRANCH  27  29
ATOM     29  C15 1B7 d   1      11.559 -19.785   7.268  0.00  0.00     0.197 C 
ATOM     30  O17 1B7 d   1      12.017 -19.547   6.130  0.00  0.00    -0.646 OA
ATOM     31  O16 1B7 d   1      11.684 -20.919   7.768  0.00  0.00    -0.646 OA
ENDBRANCH  27  29
BRANCH  27  32
ATOM     32  C18 1B7 d   1       9.283 -19.226   8.144  0.00  0.00    -0.012 C 
ATOM     33  H12 1B7 d   1       8.840 -19.361   7.146  0.00  0.00     0.044 H 
ATOM     34  H13 1B7 d   1       9.265 -20.183   8.685  0.00  0.00     0.044 H 
BRANCH  32  35
ATOM     35  C19 1B7 d   1       8.491 -18.193   8.915  0.00  0.00    -0.042 A 
ATOM     36  C20 1B7 d   1       7.805 -17.170   8.266  0.00  0.00    -0.038 A 
ATOM     37  S21 1B7 d   1       7.127 -16.288   9.570  0.00  0.00    -0.113 SA
ATOM     38  H14 1B7 d   1       7.720 -16.978   7.197  0.00  0.00     0.095 H 
ATOM     39  C22 1B7 d   1       7.680 -17.093  10.973  0.00  0.00    -0.038 A 
ATOM     40  C23 1B7 d   1       8.435 -18.161  10.412  0.00  0.00    -0.045 A 
ATOM     41  H17 1B7 d   1       7.502 -16.852  12.020  0.00  0.00     0.095 H 
BRANCH  40  42
ATOM     42  C24 1B7 d   1       9.191 -19.253  11.165  0.00  0.00    -0.040 C 
ATOM     43  H18 1B7 d   1       9.918 -19.685  10.461  0.00  0.00     0.040 H 
ATOM     44  H19 1B7 d   1       8.454 -20.019  11.447  0.00  0.00     0.040 H 
BRANCH  42  45
ATOM     45  C26 1B7 d   1       9.956 -18.886  12.425  0.00  0.00    -0.065 C 
ATOM     46  H20 1B7 d   1       9.298 -18.308  13.091  0.00  0.00     0.032 H 
ATOM     47  H21 1B7 d   1      10.829 -18.275  12.152  0.00  0.00     0.032 H 
BRANCH  45  48
ATOM     48  C27 1B7 d   1      10.435 -20.148  13.161  0.00  0.00    -0.076 C 
ATOM     49  H22 1B7 d   1      10.985 -19.857  14.068  0.00  0.00     0.027 H 
ATOM     50  H23 1B7 d   1      11.097 -20.728  12.501  0.00  0.00     0.027 H 
ATOM     51  H24 1B7 d   1       9.566 -20.762  13.440  0.00  0.00     0.027 H 
ENDBRANCH  45  48
ENDBRANCH  42  45
ENDBRANCH  40  42
ENDBRANCH  32  35
ENDBRANCH  27  32
ENDBRANCH   1  27
TORSDOF 10
