REMARK  8 active torsions:
REMARK  status: ('A' for Active; 'I' for Inactive)
REMARK    1  A    between atoms: C10_9  and  C28_10 
REMARK    2  A    between atoms: C10_9  and  C29_11 
REMARK    3  A    between atoms: C8_13  and  N12_14 
REMARK    4  A    between atoms: N12_14  and  C13_15 
REMARK    5  A    between atoms: C13_15  and  C25_16 
REMARK    6  A    between atoms: C13_15  and  C14_19 
REMARK    7  A    between atoms: C14_19  and  C15_20 
REMARK    8  A    between atoms: C19_24  and  C20_25 
ROOT
ATOM      1  N12 1BF d   1      10.808 -17.362   7.448  0.00  0.00    -0.360 N 
ATOM      2  H12 1BF d   1      10.589 -17.427   6.444  0.00  0.00     0.162 HD
ENDROOT
BRANCH   1   3
ATOM      3  C8  1BF d   1      11.057 -16.160   7.969  0.00  0.00     0.130 C 
ATOM      4  C5  1BF d   1      10.731 -14.986   7.090  0.00  0.00     0.016 A 
ATOM      5  C4  1BF d   1       9.760 -15.086   6.090  0.00  0.00    -0.067 A 
ATOM      6  C6  1BF d   1      11.497 -13.774   7.324  0.00  0.00    -0.040 A 
ATOM      7  C3  1BF d   1       9.571 -13.940   5.336  0.00  0.00    -0.061 A 
ATOM      8  H2  1BF d   1       9.195 -15.995   5.917  0.00  0.00     0.085 H 
ATOM      9  C2  1BF d   1      10.302 -12.774   5.561  0.00  0.00     0.034 A 
ATOM     10  H1  1BF d   1       8.830 -13.950   4.545  0.00  0.00     0.086 H 
ATOM     11 CL1  1BF d   1       9.961 -11.338   4.555  0.00  0.00    -0.084 Cl
ATOM     12  C7  1BF d   1      11.274 -12.643   6.528  0.00  0.00    -0.055 A 
ATOM     13  H3  1BF d   1      11.831 -11.723   6.665  0.00  0.00     0.086 H 
ATOM     14  C11 1BF d   1      12.508 -13.789   8.452  0.00  0.00    -0.015 C 
ATOM     15  C10 1BF d   1      11.911 -14.595   9.593  0.00  0.00     0.052 C 
ATOM     16  H4  1BF d   1      12.713 -12.761   8.786  0.00  0.00     0.043 H 
ATOM     17  H5  1BF d   1      13.443 -14.257   8.111  0.00  0.00     0.043 H 
ATOM     18  N9  1BF d   1      11.583 -15.940   9.105  0.00  0.00    -0.262 NA
BRANCH  15  19
ATOM     19  C28 1BF d   1      12.948 -14.640  10.696  0.00  0.00    -0.051 C 
ATOM     20  H6  1BF d   1      12.555 -15.217  11.546  0.00  0.00     0.030 H 
ATOM     21  H7  1BF d   1      13.179 -13.616  11.024  0.00  0.00     0.030 H 
ATOM     22  H8  1BF d   1      13.863 -15.120  10.319  0.00  0.00     0.030 H 
ENDBRANCH  15  19
BRANCH  15  23
ATOM     23  C29 1BF d   1      10.676 -13.881  10.189  0.00  0.00    -0.051 C 
ATOM     24  H9  1BF d   1       9.885 -13.819   9.427  0.00  0.00     0.030 H 
ATOM     25  H10 1BF d   1      10.957 -12.867  10.508  0.00  0.00     0.030 H 
ATOM     26  H11 1BF d   1      10.307 -14.449  11.056  0.00  0.00     0.030 H 
ENDBRANCH  15  23
ENDBRANCH   1   3
BRANCH   1  27
ATOM     27  C13 1BF d   1      10.832 -18.608   8.249  0.00  0.00     0.099 C 
ATOM     28  H13 1BF d   1      11.411 -18.432   9.168  0.00  0.00     0.090 H 
BRANCH  27  29
ATOM     29  C25 1BF d   1      11.530 -19.626   7.403  0.00  0.00     0.197 C 
ATOM     30  O26 1BF d   1      11.792 -20.745   7.891  0.00  0.00    -0.646 OA
ATOM     31  O27 1BF d   1      11.785 -19.438   6.210  0.00  0.00    -0.646 OA
ENDBRANCH  27  29
BRANCH  27  32
ATOM     32  C14 1BF d   1       9.428 -19.107   8.654  0.00  0.00    -0.011 C 
ATOM     33  H14 1BF d   1       9.447 -20.183   8.880  0.00  0.00     0.044 H 
ATOM     34  H15 1BF d   1       8.700 -18.914   7.853  0.00  0.00     0.044 H 
BRANCH  32  35
ATOM     35  C15 1BF d   1       9.084 -18.297   9.905  0.00  0.00    -0.037 A 
ATOM     36  C16 1BF d   1       9.605 -18.594  11.174  0.00  0.00    -0.038 A 
ATOM     37  S17 1BF d   1       9.038 -17.390  12.300  0.00  0.00    -0.112 SA
ATOM     38  H16 1BF d   1      10.254 -19.435  11.415  0.00  0.00     0.095 H 
ATOM     39  C18 1BF d   1       8.044 -16.437  11.251  0.00  0.00    -0.034 A 
ATOM     40  C19 1BF d   1       8.186 -17.077  10.006  0.00  0.00    -0.010 A 
ATOM     41  H17 1BF d   1       7.452 -15.556  11.495  0.00  0.00     0.096 H 
BRANCH  40  42
ATOM     42  C20 1BF d   1       7.553 -16.448   8.797  0.00  0.00     0.011 A 
ATOM     43  C21 1BF d   1       7.414 -15.033   8.672  0.00  0.00     0.008 A 
ATOM     44  N22 1BF d   1       6.887 -14.810   7.439  0.00  0.00    -0.289 N 
ATOM     45  H18 1BF d   1       7.677 -14.282   9.416  0.00  0.00     0.115 H 
ATOM     46  N23 1BF d   1       6.715 -16.087   6.827  0.00  0.00    -0.187 NA
ATOM     47  H19 1BF d   1       6.656 -13.895   7.026  0.00  0.00     0.188 HD
ATOM     48  C24 1BF d   1       7.146 -17.104   7.662  0.00  0.00     0.034 A 
ATOM     49  H20 1BF d   1       7.159 -18.175   7.464  0.00  0.00     0.118 H 
ENDBRANCH  40  42
ENDBRANCH  32  35
ENDBRANCH  27  32
ENDBRANCH   1  27
TORSDOF 8
