REMARK  11 active torsions:
REMARK  status: ('A' for Active; 'I' for Inactive)
REMARK    1  A    between atoms: C4_4  and  C1_1 
REMARK    2  A    between atoms: C8_8  and  C22_22 
REMARK    3  A    between atoms: C12_12  and  O16_16 
REMARK    4  A    between atoms: C13_13  and  O18_18 
REMARK    5  A    between atoms: C14_14  and  O20_20 
REMARK    6  A    between atoms: O16_16  and  C17_17 
REMARK    7  A    between atoms: O18_18  and  C19_19 
REMARK    8  A    between atoms: O20_20  and  C21_21 
REMARK       I    between atoms: C22_22  and  N23_23 
REMARK    9  A    between atoms: N23_23  and  C25_25 
REMARK   10  A    between atoms: C25_25  and  C26_26 
REMARK   11  A    between atoms: C25_25  and  C27_27 
ROOT
ATOM      1  N2  1B4 d   1       3.616  -1.223  16.134  0.00  0.00    -0.239 NA
ATOM      2  C3  1B4 d   1       2.322  -1.246  15.849  0.00  0.00     0.033 A 
ATOM      3  C4  1B4 d   1       1.767  -0.302  14.967  0.00  0.00     0.085 A 
ATOM      4  N5  1B4 d   1       2.564   0.628  14.444  0.00  0.00    -0.242 NA
ATOM      5  C6  1B4 d   1       4.413  -0.295  15.607  0.00  0.00     0.157 A 
ATOM      6  C7  1B4 d   1       3.863   0.660  14.731  0.00  0.00     0.120 A 
ATOM      7  C8  1B4 d   1       4.979   1.534  14.321  0.00  0.00     0.080 A 
ATOM      8  C9  1B4 d   1       6.092   1.071  14.971  0.00  0.00    -0.004 A 
ATOM      9  N10 1B4 d   1       5.758  -0.015  15.720  0.00  0.00    -0.348 N 
ATOM     10  H1  1B4 d   1       1.686  -1.999  16.300  0.00  0.00     0.118 H 
ATOM     11  H2  1B4 d   1       7.089   1.504  14.900  0.00  0.00     0.113 H 
ATOM     12  H3  1B4 d   1       6.421  -0.555  16.294  0.00  0.00     0.167 HD
ENDROOT
BRANCH   3  13
ATOM     13  C1  1B4 d   1       0.309  -0.301  14.646  0.00  0.00    -0.000 A 
ATOM     14  C11 1B4 d   1      -0.548  -1.246  15.228  0.00  0.00    -0.036 A 
ATOM     15  C12 1B4 d   1      -1.911  -1.242  14.951  0.00  0.00     0.105 A 
ATOM     16  H4  1B4 d   1      -0.142  -1.990  15.904  0.00  0.00     0.089 H 
ATOM     17  C13 1B4 d   1      -2.441  -0.276  14.076  0.00  0.00     0.135 A 
ATOM     18  C14 1B4 d   1      -1.599   0.689  13.497  0.00  0.00     0.105 A 
ATOM     19  C15 1B4 d   1      -0.230   0.667  13.783  0.00  0.00    -0.036 A 
ATOM     20  H5  1B4 d   1       0.423   1.406  13.333  0.00  0.00     0.089 H 
BRANCH  15  21
ATOM     21  O16 1B4 d   1      -2.765  -2.150  15.521  0.00  0.00    -0.353 OA
BRANCH  21  22
ATOM     22  C17 1B4 d   1      -2.068  -3.145  16.290  0.00  0.00     0.010 C 
ATOM     23  H6  1B4 d   1      -2.794  -3.847  16.725  0.00  0.00     0.066 H 
ATOM     24  H7  1B4 d   1      -1.503  -2.655  17.097  0.00  0.00     0.066 H 
ATOM     25  H8  1B4 d   1      -1.374  -3.694  15.636  0.00  0.00     0.066 H 
ENDBRANCH  21  22
ENDBRANCH  15  21
BRANCH  17  26
ATOM     26  O18 1B4 d   1      -3.786  -0.232  13.807  0.00  0.00    -0.351 OA
BRANCH  26  27
ATOM     27  C19 1B4 d   1      -4.184  -1.235  12.869  0.00  0.00     0.011 C 
ATOM     28  H9  1B4 d   1      -5.266  -1.158  12.687  0.00  0.00     0.067 H 
ATOM     29  H10 1B4 d   1      -3.950  -2.230  13.275  0.00  0.00     0.067 H 
ATOM     30  H11 1B4 d   1      -3.642  -1.088  11.923  0.00  0.00     0.067 H 
ENDBRANCH  26  27
ENDBRANCH  17  26
BRANCH  18  31
ATOM     31  O20 1B4 d   1      -2.165   1.610  12.647  0.00  0.00    -0.353 OA
BRANCH  31  32
ATOM     32  C21 1B4 d   1      -1.211   2.553  12.135  0.00  0.00     0.010 C 
ATOM     33  H12 1B4 d   1      -1.719   3.261  11.464  0.00  0.00     0.066 H 
ATOM     34  H13 1B4 d   1      -0.429   2.017  11.578  0.00  0.00     0.066 H 
ATOM     35  H14 1B4 d   1      -0.754   3.103  12.971  0.00  0.00     0.066 H 
ENDBRANCH  31  32
ENDBRANCH  18  31
ENDBRANCH   3  13
BRANCH   7  36
ATOM     36  C22 1B4 d   1       4.868   2.714  13.447  0.00  0.00     0.255 C 
ATOM     37  N23 1B4 d   1       3.628   3.226  13.290  0.00  0.00    -0.353 N 
ATOM     38  H15 1B4 d   1       2.872   2.753  13.742  0.00  0.00     0.163 HD
ATOM     39  O24 1B4 d   1       5.847   3.228  12.932  0.00  0.00    -0.268 OA
BRANCH  37  40
ATOM     40  C25 1B4 d   1       3.309   4.421  12.508  0.00  0.00     0.005 C 
ATOM     41  H16 1B4 d   1       4.148   4.696  11.852  0.00  0.00     0.071 H 
BRANCH  40  42
ATOM     42  C26 1B4 d   1       2.045   4.183  11.679  0.00  0.00    -0.058 C 
ATOM     43  H17 1B4 d   1       1.814   5.086  11.095  0.00  0.00     0.030 H 
ATOM     44  H18 1B4 d   1       1.204   3.955  12.350  0.00  0.00     0.030 H 
ATOM     45  H19 1B4 d   1       2.209   3.337  10.996  0.00  0.00     0.030 H 
ENDBRANCH  40  42
BRANCH  40  46
ATOM     46  C27 1B4 d   1       3.024   5.530  13.540  0.00  0.00    -0.058 C 
ATOM     47  H20 1B4 d   1       2.775   6.464  13.015  0.00  0.00     0.030 H 
ATOM     48  H21 1B4 d   1       3.915   5.687  14.165  0.00  0.00     0.030 H 
ATOM     49  H22 1B4 d   1       2.178   5.230  14.176  0.00  0.00     0.030 H 
ENDBRANCH  40  46
ENDBRANCH  37  40
ENDBRANCH   7  36
TORSDOF 11
