REMARK  6 active torsions:
REMARK  status: ('A' for Active; 'I' for Inactive)
REMARK    1  A    between atoms: C2_2  and  C10_10 
REMARK    2  A    between atoms: C7_7  and  C11_11 
REMARK       I    between atoms: C11_11  and  N13_13 
REMARK    3  A    between atoms: N13_13  and  C14_14 
REMARK    4  A    between atoms: C14_14  and  C25_25 
REMARK    5  A    between atoms: C14_14  and  C26_26 
REMARK    6  A    between atoms: N16_16  and  C23_23 
ROOT
ATOM      1  C1  1B5 d   1       2.520  -1.663  15.698  0.00  0.00     0.035 A 
ATOM      2  C2  1B5 d   1       1.872  -0.693  14.927  0.00  0.00     0.106 A 
ATOM      3  N3  1B5 d   1       2.546   0.363  14.472  0.00  0.00    -0.240 NA
ATOM      4  C4  1B5 d   1       3.839   0.480  14.759  0.00  0.00     0.120 A 
ATOM      5  C5  1B5 d   1       4.486  -0.499  15.540  0.00  0.00     0.157 A 
ATOM      6  N6  1B5 d   1       3.799  -1.547  15.981  0.00  0.00    -0.239 NA
ATOM      7  C7  1B5 d   1       4.871   1.478  14.443  0.00  0.00     0.080 A 
ATOM      8  C8  1B5 d   1       6.024   1.049  15.038  0.00  0.00    -0.004 A 
ATOM      9  N9  1B5 d   1       5.795  -0.120  15.676  0.00  0.00    -0.348 N 
ATOM     10  H1  1B5 d   1       1.964  -2.518  16.065  0.00  0.00     0.118 H 
ATOM     11  H2  1B5 d   1       6.980   1.569  15.003  0.00  0.00     0.113 H 
ATOM     12  H3  1B5 d   1       6.508  -0.653  16.194  0.00  0.00     0.167 HD
ENDROOT
BRANCH   2  13
ATOM     13  C10 1B5 d   1       0.431  -0.864  14.644  0.00  0.00     0.119 A 
ATOM     14  N15 1B5 d   1      -0.298  -1.872  15.055  0.00  0.00    -0.169 NA
ATOM     15  N16 1B5 d   1      -1.617  -1.721  14.626  0.00  0.00    -0.273 N 
ATOM     16  C17 1B5 d   1      -1.723  -0.554  13.917  0.00  0.00     0.066 A 
ATOM     17  C18 1B5 d   1      -0.444   0.044  13.895  0.00  0.00     0.025 A 
ATOM     18  C19 1B5 d   1      -2.780   0.082  13.274  0.00  0.00    -0.034 A 
ATOM     19  C22 1B5 d   1      -0.247   1.266  13.230  0.00  0.00    -0.067 A 
ATOM     20  C21 1B5 d   1      -1.306   1.876  12.608  0.00  0.00    -0.061 A 
ATOM     21  H8  1B5 d   1       0.736   1.724  13.209  0.00  0.00     0.085 H 
ATOM     22  C20 1B5 d   1      -2.566   1.281  12.632  0.00  0.00     0.036 A 
ATOM     23  H7  1B5 d   1      -1.163   2.821  12.097  0.00  0.00     0.086 H 
ATOM     24 CL2  1B5 d   1      -3.912   2.041  11.846  0.00  0.00    -0.084 Cl
ATOM     25  H6  1B5 d   1      -3.768  -0.364  13.278  0.00  0.00     0.089 H 
BRANCH  15  26
ATOM     26  C23 1B5 d   1      -2.695  -2.677  14.910  0.00  0.00     0.003 C 
ATOM     27  H9  1B5 d   1      -3.631  -2.319  14.458  0.00  0.00     0.059 H 
ATOM     28  H10 1B5 d   1      -2.825  -2.770  15.998  0.00  0.00     0.059 H 
ATOM     29  H11 1B5 d   1      -2.436  -3.659  14.487  0.00  0.00     0.059 H 
ENDBRANCH  15  26
ENDBRANCH   2  13
BRANCH   7  30
ATOM     30  C11 1B5 d   1       4.684   2.716  13.683  0.00  0.00     0.255 C 
ATOM     31  O12 1B5 d   1       5.652   3.428  13.481  0.00  0.00    -0.268 OA
ATOM     32  N13 1B5 d   1       3.438   3.050  13.263  0.00  0.00    -0.353 N 
ATOM     33  H4  1B5 d   1       2.683   2.426  13.467  0.00  0.00     0.163 HD
BRANCH  32  34
ATOM     34  C14 1B5 d   1       3.146   4.283  12.524  0.00  0.00     0.005 C 
ATOM     35  H5  1B5 d   1       4.070   4.696  12.094  0.00  0.00     0.071 H 
BRANCH  34  36
ATOM     36  C25 1B5 d   1       2.132   3.989  11.415  0.00  0.00    -0.058 C 
ATOM     37  H12 1B5 d   1       1.915   4.915  10.862  0.00  0.00     0.030 H 
ATOM     38  H13 1B5 d   1       1.204   3.601  11.860  0.00  0.00     0.030 H 
ATOM     39  H14 1B5 d   1       2.549   3.240  10.726  0.00  0.00     0.030 H 
ENDBRANCH  34  36
BRANCH  34  40
ATOM     40  C26 1B5 d   1       2.511   5.285  13.496  0.00  0.00    -0.058 C 
ATOM     41  H15 1B5 d   1       2.283   6.219  12.962  0.00  0.00     0.030 H 
ATOM     42  H16 1B5 d   1       3.212   5.494  14.318  0.00  0.00     0.030 H 
ATOM     43  H17 1B5 d   1       1.582   4.861  13.905  0.00  0.00     0.030 H 
ENDBRANCH  34  40
ENDBRANCH  32  34
ENDBRANCH   7  30
TORSDOF 6
