REMARK  6 active torsions:
REMARK  status: ('A' for Active; 'I' for Inactive)
REMARK    1  A    between atoms: C3_3  and  C10_10 
REMARK    2  A    between atoms: C7_7  and  C11_11 
REMARK       I    between atoms: C11_11  and  N12_12 
REMARK    3  A    between atoms: N12_12  and  C14_14 
REMARK    4  A    between atoms: C14_14  and  C15_15 
REMARK    5  A    between atoms: C14_14  and  C16_16 
REMARK    6  A    between atoms: C14_14  and  C21_21 
ROOT
ATOM      1  N1  1B6 d   1       3.017  -1.821  16.055  0.00  0.00    -0.239 NA
ATOM      2  C2  1B6 d   1       1.727  -1.822  15.710  0.00  0.00     0.035 A 
ATOM      3  C3  1B6 d   1       1.211  -0.747  14.950  0.00  0.00     0.105 A 
ATOM      4  N4  1B6 d   1       2.045   0.259  14.579  0.00  0.00    -0.240 NA
ATOM      5  C5  1B6 d   1       3.324   0.243  14.931  0.00  0.00     0.120 A 
ATOM      6  C6  1B6 d   1       3.821  -0.844  15.685  0.00  0.00     0.157 A 
ATOM      7  C7  1B6 d   1       4.482   1.144  14.715  0.00  0.00     0.080 A 
ATOM      8  C8  1B6 d   1       5.550   0.590  15.337  0.00  0.00    -0.004 A 
ATOM      9  N9  1B6 d   1       5.169  -0.587  15.891  0.00  0.00    -0.348 N 
ATOM     10  H1  1B6 d   1       1.081  -2.639  16.010  0.00  0.00     0.118 H 
ATOM     11  H2  1B6 d   1       6.550   1.019  15.384  0.00  0.00     0.113 H 
ATOM     12  H3  1B6 d   1       5.804  -1.215  16.404  0.00  0.00     0.167 HD
ENDROOT
BRANCH   3  13
ATOM     13  C10 1B6 d   1      -0.238  -0.750  14.590  0.00  0.00     0.111 A 
ATOM     14  N17 1B6 d   1      -1.199  -1.602  15.092  0.00  0.00    -0.239 NA
ATOM     15  C18 1B6 d   1      -2.359  -1.346  14.593  0.00  0.00     0.067 A 
ATOM     16  N19 1B6 d   1      -2.215  -0.310  13.714  0.00  0.00    -0.343 N 
ATOM     17  H11 1B6 d   1      -3.288  -1.863  14.829  0.00  0.00     0.143 H 
ATOM     18  C20 1B6 d   1      -0.875   0.058  13.714  0.00  0.00     0.043 A 
ATOM     19  C22 1B6 d   1      -3.257   0.315  12.858  0.00  0.00     0.001 C 
ATOM     20  C25 1B6 d   1      -0.329   1.184  12.887  0.00  0.00    -0.024 C 
ATOM     21  C24 1B6 d   1      -1.240   1.345  11.651  0.00  0.00    -0.059 C 
ATOM     22  H21 1B6 d   1       0.697   0.951  12.568  0.00  0.00     0.042 H 
ATOM     23  H22 1B6 d   1      -0.328   2.114  13.475  0.00  0.00     0.042 H 
ATOM     24  C23 1B6 d   1      -2.712   1.497  12.006  0.00  0.00    -0.049 C 
ATOM     25  H19 1B6 d   1      -0.920   2.239  11.095  0.00  0.00     0.033 H 
ATOM     26  H20 1B6 d   1      -1.124   0.456  11.013  0.00  0.00     0.033 H 
ATOM     27  H17 1B6 d   1      -2.841   2.429  12.576  0.00  0.00     0.035 H 
ATOM     28  H18 1B6 d   1      -3.293   1.554  11.074  0.00  0.00     0.035 H 
ATOM     29  H15 1B6 d   1      -4.063   0.691  13.505  0.00  0.00     0.065 H 
ATOM     30  H16 1B6 d   1      -3.659  -0.451  12.179  0.00  0.00     0.065 H 
ENDBRANCH   3  13
BRANCH   7  31
ATOM     31  C11 1B6 d   1       4.446   2.476  14.050  0.00  0.00     0.256 C 
ATOM     32  N12 1B6 d   1       3.243   2.863  13.569  0.00  0.00    -0.349 N 
ATOM     33  H4  1B6 d   1       2.495   2.203  13.645  0.00  0.00     0.163 HD
ATOM     34  O13 1B6 d   1       5.463   3.166  14.105  0.00  0.00    -0.268 OA
BRANCH  32  35
ATOM     35  C14 1B6 d   1       2.922   4.161  12.943  0.00  0.00     0.022 C 
BRANCH  35  36
ATOM     36  C15 1B6 d   1       3.112   5.286  13.945  0.00  0.00    -0.054 C 
ATOM     37  H5  1B6 d   1       2.870   6.247  13.467  0.00  0.00     0.030 H 
ATOM     38  H6  1B6 d   1       4.157   5.300  14.287  0.00  0.00     0.030 H 
ATOM     39  H7  1B6 d   1       2.446   5.127  14.806  0.00  0.00     0.030 H 
ENDBRANCH  35  36
BRANCH  35  40
ATOM     40  C16 1B6 d   1       3.765   4.520  11.726  0.00  0.00    -0.054 C 
ATOM     41  H8  1B6 d   1       3.449   5.499  11.337  0.00  0.00     0.030 H 
ATOM     42  H9  1B6 d   1       3.630   3.755  10.947  0.00  0.00     0.030 H 
ATOM     43  H10 1B6 d   1       4.825   4.565  12.015  0.00  0.00     0.030 H 
ENDBRANCH  35  40
BRANCH  35  44
ATOM     44  C21 1B6 d   1       1.456   4.124  12.569  0.00  0.00    -0.054 C 
ATOM     45  H12 1B6 d   1       1.174   5.077  12.097  0.00  0.00     0.030 H 
ATOM     46  H13 1B6 d   1       0.850   3.970  13.474  0.00  0.00     0.030 H 
ATOM     47  H14 1B6 d   1       1.278   3.299  11.864  0.00  0.00     0.030 H 
ENDBRANCH  35  44
ENDBRANCH  32  35
ENDBRANCH   7  31
TORSDOF 6
