REMARK  7 active torsions:
REMARK  status: ('A' for Active; 'I' for Inactive)
REMARK    1  A    between atoms: C10_9  and  C27_15 
REMARK    2  A    between atoms: C10_9  and  C28_16 
REMARK    3  A    between atoms: C12_11  and  N13_12 
REMARK    4  A    between atoms: N13_12  and  C14_13 
REMARK    5  A    between atoms: C14_13  and  C15_14 
REMARK    6  A    between atoms: C14_13  and  C7_17 
REMARK    7  A    between atoms: C15_14  and  C26_24 
ROOT
ATOM      1  C7  1BB d   1      11.369 -20.000   7.165  0.00  0.00     0.152 A 
ATOM      2  N8  1BB d   1      11.276 -19.774   5.802  0.00  0.00    -0.246 NA
ATOM      3  C11 1BB d   1      11.574 -20.740   4.900  0.00  0.00     0.010 A 
ATOM      4  C13 1BB d   1      11.878 -22.033   5.325  0.00  0.00     0.141 A 
ATOM      5  C19 1BB d   1      11.951 -22.258   6.781  0.00  0.00     0.267 A 
ATOM      6  N24 1BB d   1      11.683 -21.218   7.635  0.00  0.00    -0.195 NA
ATOM      7  O25 1BB d   1      12.214 -23.386   7.193  0.00  0.00    -0.269 OA
ATOM      8  C8  1BB d   1      12.143 -22.996   4.493  0.00  0.00     0.079 C 
ATOM      9  N9  1BB d   1      12.358 -23.881   3.743  0.00  0.00    -0.196 NA
ATOM     10  H16 1BB d   1      11.576 -20.505   3.837  0.00  0.00     0.110 H 
ATOM     11  H17 1BB d   1      10.813 -22.308   5.310  0.00  0.00     0.086 H 
ENDROOT
BRANCH   1  12
ATOM     12  C14 1BB d   1      10.915 -18.960   8.125  0.00  0.00     0.074 C 
ATOM     13  H7  1BB d   1      11.677 -18.755   8.892  0.00  0.00     0.085 H 
BRANCH  12  14
ATOM     14  N13 1BB d   1      10.634 -17.753   7.322  0.00  0.00    -0.362 N 
ATOM     15  H6  1BB d   1      10.226 -17.857   6.382  0.00  0.00     0.162 HD
BRANCH  14  16
ATOM     16  C12 1BB d   1      10.900 -16.517   7.794  0.00  0.00     0.130 C 
ATOM     17  C4  1BB d   1      10.566 -15.379   6.883  0.00  0.00     0.016 A 
ATOM     18  C3  1BB d   1      11.237 -14.199   7.145  0.00  0.00    -0.040 A 
ATOM     19  C5  1BB d   1       9.596 -15.520   5.852  0.00  0.00    -0.067 A 
ATOM     20  C2  1BB d   1      11.031 -13.118   6.326  0.00  0.00    -0.055 A 
ATOM     21  C9  1BB d   1      12.214 -14.139   8.286  0.00  0.00    -0.015 C 
ATOM     22  C1  1BB d   1      10.076 -13.297   5.283  0.00  0.00     0.034 A 
ATOM     23  H1  1BB d   1      11.563 -12.184   6.464  0.00  0.00     0.086 H 
ATOM     24 CL1  1BB d   1       9.697 -11.894   4.269  0.00  0.00    -0.084 Cl
ATOM     25  C6  1BB d   1       9.359 -14.464   4.989  0.00  0.00    -0.061 A 
ATOM     26  H3  1BB d   1       8.673 -14.534   4.152  0.00  0.00     0.086 H 
ATOM     27  C10 1BB d   1      11.685 -14.934   9.472  0.00  0.00     0.052 C 
ATOM     28  H4  1BB d   1      12.358 -13.091   8.586  0.00  0.00     0.043 H 
ATOM     29  H5  1BB d   1      13.176 -14.564   7.964  0.00  0.00     0.043 H 
ATOM     30  N11 1BB d   1      11.439 -16.299   8.965  0.00  0.00    -0.262 NA
ATOM     31  H2  1BB d   1       9.046 -16.448   5.743  0.00  0.00     0.085 H 
BRANCH  27  32
ATOM     32  C27 1BB d   1      12.824 -14.937  10.527  0.00  0.00    -0.051 C 
ATOM     33  H10 1BB d   1      12.500 -15.500  11.415  0.00  0.00     0.030 H 
ATOM     34  H11 1BB d   1      13.059 -13.902  10.816  0.00  0.00     0.030 H 
ATOM     35  H12 1BB d   1      13.720 -15.411  10.098  0.00  0.00     0.030 H 
ENDBRANCH  27  32
BRANCH  27  36
ATOM     36  C28 1BB d   1      10.387 -14.289  10.035  0.00  0.00    -0.051 C 
ATOM     37  H13 1BB d   1      10.025 -14.880  10.889  0.00  0.00     0.030 H 
ATOM     38  H14 1BB d   1       9.617 -14.269   9.250  0.00  0.00     0.030 H 
ATOM     39  H15 1BB d   1      10.601 -13.262  10.364  0.00  0.00     0.030 H 
ENDBRANCH  27  36
ENDBRANCH  14  16
ENDBRANCH  12  14
BRANCH  12  40
ATOM     40  C15 1BB d   1       9.585 -19.492   8.782  0.00  0.00    -0.015 C 
ATOM     41  H8  1BB d   1       9.768 -20.486   9.215  0.00  0.00     0.043 H 
ATOM     42  H9  1BB d   1       8.804 -19.566   8.011  0.00  0.00     0.043 H 
BRANCH  40  43
ATOM     43  C26 1BB d   1       9.110 -18.528   9.899  0.00  0.00    -0.056 A 
ATOM     44  C29 1BB d   1       9.810 -18.565  11.112  0.00  0.00    -0.077 A 
ATOM     45  C30 1BB d   1       9.535 -17.719  12.223  0.00  0.00    -0.082 A 
ATOM     46  H18 1BB d   1      10.614 -19.285  11.211  0.00  0.00     0.084 H 
ATOM     47  C31 1BB d   1       8.427 -16.815  12.066  0.00  0.00    -0.083 A 
ATOM     48  H19 1BB d   1      10.124 -17.754  13.132  0.00  0.00     0.083 H 
ATOM     49  C32 1BB d   1       7.708 -16.785  10.845  0.00  0.00    -0.082 A 
ATOM     50  H20 1BB d   1       8.143 -16.158  12.880  0.00  0.00     0.083 H 
ATOM     51  C33 1BB d   1       8.022 -17.624   9.725  0.00  0.00    -0.077 A 
ATOM     52  H21 1BB d   1       6.879 -16.093  10.753  0.00  0.00     0.083 H 
ATOM     53  H22 1BB d   1       7.463 -17.573   8.798  0.00  0.00     0.084 H 
ENDBRANCH  40  43
ENDBRANCH  12  40
ENDBRANCH   1  12
TORSDOF 7
