REMARK  7 active torsions:
REMARK  status: ('A' for Active; 'I' for Inactive)
REMARK    1  A    between atoms: C10_9  and  C27_15 
REMARK    2  A    between atoms: C10_9  and  C28_16 
REMARK    3  A    between atoms: C12_11  and  N13_12 
REMARK    4  A    between atoms: N13_12  and  C14_13 
REMARK    5  A    between atoms: C14_13  and  C15_14 
REMARK    6  A    between atoms: C14_13  and  C7_17 
REMARK    7  A    between atoms: C15_14  and  C26_22 
ROOT
ATOM      1  C14 1BS d   1      10.967 -19.065   8.043  0.00  0.00     0.072 C 
ATOM      2  H7  1BS d   1      11.719 -18.931   8.835  0.00  0.00     0.085 H 
ENDROOT
BRANCH   1   3
ATOM      3  N13 1BS d   1      10.772 -17.800   7.299  0.00  0.00    -0.362 N 
ATOM      4  H6  1BS d   1      10.442 -17.873   6.326  0.00  0.00     0.162 HD
BRANCH   3   5
ATOM      5  C12 1BS d   1      10.989 -16.560   7.784  0.00  0.00     0.130 C 
ATOM      6  C4  1BS d   1      10.613 -15.422   6.850  0.00  0.00     0.016 A 
ATOM      7  C3  1BS d   1      11.254 -14.218   7.079  0.00  0.00    -0.040 A 
ATOM      8  C5  1BS d   1       9.669 -15.597   5.812  0.00  0.00    -0.067 A 
ATOM      9  C2  1BS d   1      11.037 -13.169   6.219  0.00  0.00    -0.055 A 
ATOM     10  C9  1BS d   1      12.267 -14.114   8.221  0.00  0.00    -0.015 C 
ATOM     11  C1  1BS d   1      10.103 -13.354   5.154  0.00  0.00     0.034 A 
ATOM     12  H1  1BS d   1      11.560 -12.228   6.345  0.00  0.00     0.086 H 
ATOM     13 CL1  1BS d   1       9.828 -11.920   4.136  0.00  0.00    -0.084 Cl
ATOM     14  C6  1BS d   1       9.422 -14.568   4.896  0.00  0.00    -0.061 A 
ATOM     15  H3  1BS d   1       8.757 -14.692   4.049  0.00  0.00     0.086 H 
ATOM     16  C10 1BS d   1      11.746 -14.949   9.406  0.00  0.00     0.052 C 
ATOM     17  H4  1BS d   1      12.377 -13.063   8.526  0.00  0.00     0.043 H 
ATOM     18  H5  1BS d   1      13.241 -14.504   7.891  0.00  0.00     0.043 H 
ATOM     19  N11 1BS d   1      11.578 -16.321   8.920  0.00  0.00    -0.262 NA
ATOM     20  H2  1BS d   1       9.133 -16.535   5.725  0.00  0.00     0.085 H 
BRANCH  16  21
ATOM     21  C27 1BS d   1      12.695 -14.912  10.624  0.00  0.00    -0.051 C 
ATOM     22  H10 1BS d   1      12.274 -15.523  11.436  0.00  0.00     0.030 H 
ATOM     23  H11 1BS d   1      12.809 -13.874  10.968  0.00  0.00     0.030 H 
ATOM     24  H12 1BS d   1      13.678 -15.313  10.335  0.00  0.00     0.030 H 
ENDBRANCH  16  21
BRANCH  16  25
ATOM     25  C28 1BS d   1      10.365 -14.334   9.827  0.00  0.00    -0.051 C 
ATOM     26  H13 1BS d   1       9.954 -14.902  10.675  0.00  0.00     0.030 H 
ATOM     27  H14 1BS d   1       9.667 -14.385   8.978  0.00  0.00     0.030 H 
ATOM     28  H15 1BS d   1      10.506 -13.284  10.123  0.00  0.00     0.030 H 
ENDBRANCH  16  25
ENDBRANCH   3   5
ENDBRANCH   1   3
BRANCH   1  29
ATOM     29  C15 1BS d   1       9.608 -19.573   8.653  0.00  0.00    -0.015 C 
ATOM     30  H8  1BS d   1       9.760 -20.568   9.097  0.00  0.00     0.043 H 
ATOM     31  H9  1BS d   1       8.855 -19.639   7.854  0.00  0.00     0.043 H 
BRANCH  29  32
ATOM     32  C26 1BS d   1       9.111 -18.607   9.737  0.00  0.00    -0.056 A 
ATOM     33  C29 1BS d   1       9.746 -18.631  11.003  0.00  0.00    -0.077 A 
ATOM     34  C30 1BS d   1       9.396 -17.775  12.066  0.00  0.00    -0.082 A 
ATOM     35  H17 1BS d   1      10.544 -19.347  11.163  0.00  0.00     0.084 H 
ATOM     36  C31 1BS d   1       8.350 -16.860  11.833  0.00  0.00    -0.083 A 
ATOM     37  H18 1BS d   1       9.908 -17.818  13.020  0.00  0.00     0.083 H 
ATOM     38  C32 1BS d   1       7.734 -16.875  10.576  0.00  0.00    -0.082 A 
ATOM     39  H19 1BS d   1       8.032 -16.166  12.603  0.00  0.00     0.083 H 
ATOM     40  C33 1BS d   1       8.061 -17.698   9.483  0.00  0.00    -0.077 A 
ATOM     41  H20 1BS d   1       6.917 -16.177  10.429  0.00  0.00     0.083 H 
ATOM     42  H21 1BS d   1       7.551 -17.639   8.528  0.00  0.00     0.084 H 
ENDBRANCH  29  32
ENDBRANCH   1  29
BRANCH   1  43
ATOM     43  C7  1BS d   1      11.387 -20.071   7.082  0.00  0.00     0.131 A 
ATOM     44  N8  1BS d   1      11.345 -19.762   5.732  0.00  0.00    -0.342 N 
ATOM     45  C16 1BS d   1      11.615 -20.729   4.805  0.00  0.00     0.052 A 
ATOM     46  H16 1BS d   1      11.111 -18.806   5.428  0.00  0.00     0.167 HD
ATOM     47  C8  1BS d   1      11.905 -22.051   5.214  0.00  0.00     0.078 A 
ATOM     48  C17 1BS d   1      11.628 -20.424   3.411  0.00  0.00    -0.039 A 
ATOM     49  C19 1BS d   1      11.963 -22.343   6.676  0.00  0.00     0.282 A 
ATOM     50  C21 1BS d   1      12.242 -23.034   4.249  0.00  0.00     0.019 A 
ATOM     51  N24 1BS d   1      11.714 -21.307   7.534  0.00  0.00    -0.194 NA
ATOM     52  O25 1BS d   1      12.253 -23.486   7.096  0.00  0.00    -0.265 OA
ATOM     53  N20 1BS d   1      12.242 -22.703   2.904  0.00  0.00    -0.272 NA
ATOM     54  H24 1BS d   1      12.498 -24.040   4.562  0.00  0.00     0.116 H 
ATOM     55  C18 1BS d   1      11.932 -21.443   2.473  0.00  0.00     0.004 A 
ATOM     56  H23 1BS d   1      11.919 -21.223   1.412  0.00  0.00     0.114 H 
ATOM     57  H22 1BS d   1      11.407 -19.419   3.071  0.00  0.00     0.089 H 
ENDBRANCH   1  43
TORSDOF 7
