REMARK  7 active torsions:
REMARK  status: ('A' for Active; 'I' for Inactive)
REMARK    1  A    between atoms: C15_2  and  C14_4 
REMARK    2  A    between atoms: C14_4  and  C18_5 
REMARK    3  A    between atoms: C14_4  and  N13_12 
REMARK    4  A    between atoms: C18_5  and  C19_6 
REMARK    5  A    between atoms: N13_12  and  C10_13 
REMARK    6  A    between atoms: C8_15  and  C12_16 
REMARK    7  A    between atoms: C8_15  and  C11_17 
ROOT
ATOM      1  C10 1CH d   1      10.802 -16.709   8.004  0.00  0.00     0.130 C 
ATOM      2  N9  1CH d   1      11.377 -16.430   9.127  0.00  0.00    -0.262 NA
ATOM      3  C8  1CH d   1      11.619 -15.048   9.544  0.00  0.00     0.052 C 
ATOM      4  C7  1CH d   1      12.130 -14.182   8.374  0.00  0.00    -0.015 C 
ATOM      5  C2  1CH d   1      11.125 -14.281   7.237  0.00  0.00    -0.042 A 
ATOM      6  C3  1CH d   1      10.443 -15.584   7.055  0.00  0.00     0.016 A 
ATOM      7  C4  1CH d   1       9.517 -15.725   6.001  0.00  0.00    -0.069 A 
ATOM      8  C5  1CH d   1       9.258 -14.634   5.143  0.00  0.00    -0.082 A 
ATOM      9  C6  1CH d   1       9.907 -13.404   5.320  0.00  0.00    -0.082 A 
ATOM     10  C1  1CH d   1      10.842 -13.220   6.369  0.00  0.00    -0.076 A 
ATOM     11  H16 1CH d   1      13.110 -14.551   8.038  0.00  0.00     0.043 H 
ATOM     12  H17 1CH d   1      12.224 -13.135   8.698  0.00  0.00     0.043 H 
ATOM     13  H18 1CH d   1       9.005 -16.669   5.850  0.00  0.00     0.085 H 
ATOM     14  H19 1CH d   1       8.546 -14.749   4.334  0.00  0.00     0.083 H 
ATOM     15  H20 1CH d   1       9.691 -12.583   4.646  0.00  0.00     0.083 H 
ATOM     16  H21 1CH d   1      11.335 -12.263   6.498  0.00  0.00     0.084 H 
ENDROOT
BRANCH   1  17
ATOM     17  N13 1CH d   1      10.487 -17.964   7.628  0.00  0.00    -0.360 N 
ATOM     18  H9  1CH d   1      10.054 -18.085   6.701  0.00  0.00     0.162 HD
BRANCH  17  19
ATOM     19  C14 1CH d   1      10.709 -19.167   8.425  0.00  0.00     0.099 C 
ATOM     20  H1  1CH d   1      11.341 -18.922   9.292  0.00  0.00     0.090 H 
BRANCH  19  21
ATOM     21  C15 1CH d   1      11.432 -20.159   7.566  0.00  0.00     0.197 C 
ATOM     22  O17 1CH d   1      11.802 -21.275   8.016  0.00  0.00    -0.646 OA
ATOM     23  O16 1CH d   1      11.561 -19.849   6.361  0.00  0.00    -0.646 OA
ENDBRANCH  19  21
BRANCH  19  24
ATOM     24  C18 1CH d   1       9.361 -19.694   8.938  0.00  0.00    -0.013 C 
ATOM     25  H2  1CH d   1       9.478 -20.707   9.350  0.00  0.00     0.043 H 
ATOM     26  H3  1CH d   1       8.622 -19.712   8.123  0.00  0.00     0.043 H 
BRANCH  24  27
ATOM     27  C19 1CH d   1       8.919 -18.720  10.037  0.00  0.00    -0.056 A 
ATOM     28  C24 1CH d   1       7.871 -17.800   9.808  0.00  0.00    -0.077 A 
ATOM     29  C23 1CH d   1       7.497 -16.875  10.816  0.00  0.00    -0.082 A 
ATOM     30  H4  1CH d   1       7.350 -17.801   8.857  0.00  0.00     0.084 H 
ATOM     31  C22 1CH d   1       8.150 -16.896  12.053  0.00  0.00    -0.083 A 
ATOM     32  H5  1CH d   1       6.709 -16.155  10.629  0.00  0.00     0.083 H 
ATOM     33  C21 1CH d   1       9.203 -17.816  12.281  0.00  0.00    -0.082 A 
ATOM     34  H6  1CH d   1       7.851 -16.209  12.836  0.00  0.00     0.083 H 
ATOM     35  C20 1CH d   1       9.575 -18.717  11.272  0.00  0.00    -0.077 A 
ATOM     36  H7  1CH d   1       9.720 -17.824  13.233  0.00  0.00     0.083 H 
ATOM     37  H8  1CH d   1      10.381 -19.419  11.452  0.00  0.00     0.084 H 
ENDBRANCH  24  27
ENDBRANCH  19  24
ENDBRANCH  17  19
ENDBRANCH   1  17
BRANCH   3  38
ATOM     38  C12 1CH d   1      10.300 -14.398  10.043  0.00  0.00    -0.051 C 
ATOM     39  H10 1CH d   1      10.497 -13.361  10.353  0.00  0.00     0.030 H 
ATOM     40  H11 1CH d   1       9.911 -14.969  10.899  0.00  0.00     0.030 H 
ATOM     41  H12 1CH d   1       9.558 -14.404   9.231  0.00  0.00     0.030 H 
ENDBRANCH   3  38
BRANCH   3  42
ATOM     42  C11 1CH d   1      12.638 -14.988  10.663  0.00  0.00    -0.051 C 
ATOM     43  H13 1CH d   1      12.800 -13.940  10.956  0.00  0.00     0.030 H 
ATOM     44  H14 1CH d   1      13.588 -15.423  10.318  0.00  0.00     0.030 H 
ATOM     45  H15 1CH d   1      12.267 -15.557  11.528  0.00  0.00     0.030 H 
ENDBRANCH   3  42
TORSDOF 7
