REMARK  10 active torsions:
REMARK  status: ('A' for Active; 'I' for Inactive)
REMARK    1  A    between atoms: C10_8  and  C28_9 
REMARK    2  A    between atoms: C10_8  and  C27_10 
REMARK    3  A    between atoms: N13_14  and  C14_15 
REMARK    4  A    between atoms: C14_15  and  C15_16 
REMARK    5  A    between atoms: C14_15  and  C30_30 
REMARK    6  A    between atoms: C15_16  and  C11_17 
REMARK    7  A    between atoms: C13_18  and  C23_25 
REMARK    8  A    between atoms: C18_21  and  C19_22 
REMARK    9  A    between atoms: C19_22  and  C20_23 
REMARK   10  A    between atoms: C20_23  and  C21_24 
ROOT
ATOM      1  C14 1BC d   1      10.742 -18.469   8.195  0.00  0.00     0.096 C 
ATOM      2  H13 1BC d   1      11.305 -18.343   9.132  0.00  0.00     0.088 H 
ENDROOT
BRANCH   1   3
ATOM      3  N13 1BC d   1      10.719 -17.265   7.428  0.00  0.00    -0.259 NA
ATOM      4  C12 1BC d   1      11.007 -16.047   7.881  0.00  0.00     0.130 C 
ATOM      5  C4  1BC d   1      10.758 -14.868   6.995  0.00  0.00     0.016 A 
ATOM      6  N11 1BC d   1      11.555 -15.835   8.999  0.00  0.00    -0.366 N 
ATOM      7  C5  1BC d   1       9.888 -15.033   5.921  0.00  0.00    -0.067 A 
ATOM      8  C3  1BC d   1      11.409 -13.644   7.266  0.00  0.00    -0.040 A 
ATOM      9  C6  1BC d   1       9.642 -13.908   5.111  0.00  0.00    -0.061 A 
ATOM     10  H2  1BC d   1       9.419 -15.989   5.717  0.00  0.00     0.085 H 
ATOM     11  C1  1BC d   1      10.298 -12.685   5.387  0.00  0.00     0.034 A 
ATOM     12  H1  1BC d   1       8.952 -13.979   4.278  0.00  0.00     0.086 H 
ATOM     13 CL1  1BC d   1       9.981 -11.215   4.385  0.00  0.00    -0.084 Cl
ATOM     14  C2  1BC d   1      11.166 -12.523   6.485  0.00  0.00    -0.055 A 
ATOM     15  H12 1BC d   1      11.623 -11.566   6.710  0.00  0.00     0.086 H 
ATOM     16  C9  1BC d   1      12.282 -13.505   8.492  0.00  0.00    -0.017 C 
ATOM     17  C10 1BC d   1      11.538 -14.446   9.366  0.00  0.00     0.028 C 
ATOM     18  H10 1BC d   1      13.316 -13.832   8.309  0.00  0.00     0.043 H 
ATOM     19  H11 1BC d   1      12.287 -12.479   8.889  0.00  0.00     0.043 H 
ATOM     20  H3  1BC d   1      11.968 -16.576   9.583  0.00  0.00     0.162 HD
BRANCH  17  21
ATOM     21  C28 1BC d   1      12.660 -14.537  10.469  0.00  0.00    -0.053 C 
ATOM     22  H4  1BC d   1      12.823 -13.542  10.909  0.00  0.00     0.030 H 
ATOM     23  H5  1BC d   1      13.595 -14.894  10.012  0.00  0.00     0.030 H 
ATOM     24  H6  1BC d   1      12.345 -15.238  11.256  0.00  0.00     0.030 H 
ENDBRANCH  17  21
BRANCH  17  25
ATOM     25  C27 1BC d   1      10.511 -13.874  10.347  0.00  0.00    -0.053 C 
ATOM     26  H7  1BC d   1      10.688 -12.796  10.477  0.00  0.00     0.030 H 
ATOM     27  H8  1BC d   1      10.610 -14.381  11.318  0.00  0.00     0.030 H 
ATOM     28  H9  1BC d   1       9.497 -14.034   9.951  0.00  0.00     0.030 H 
ENDBRANCH  17  25
ENDBRANCH   1   3
BRANCH   1  29
ATOM     29  C15 1BC d   1       9.286 -18.899   8.476  0.00  0.00    -0.012 C 
ATOM     30  H14 1BC d   1       9.268 -19.944   8.820  0.00  0.00     0.044 H 
ATOM     31  H15 1BC d   1       8.689 -18.806   7.557  0.00  0.00     0.044 H 
BRANCH  29  32
ATOM     32  C11 1BC d   1       8.708 -17.992   9.558  0.00  0.00    -0.031 A 
ATOM     33  C13 1BC d   1       7.770 -16.801   9.445  0.00  0.00    -0.009 A 
ATOM     34  C16 1BC d   1       7.383 -16.080  10.543  0.00  0.00    -0.033 A 
ATOM     35  S17 1BC d   1       8.141 -16.876  11.843  0.00  0.00    -0.105 SA
ATOM     36  H16 1BC d   1       6.740 -15.202  10.577  0.00  0.00     0.096 H 
ATOM     37  C18 1BC d   1       9.028 -18.132  10.981  0.00  0.00    -0.010 A 
BRANCH  33  38
ATOM     38  C23 1BC d   1       7.289 -16.307   8.149  0.00  0.00     0.011 A 
ATOM     39  C24 1BC d   1       7.033 -14.968   7.893  0.00  0.00     0.008 A 
ATOM     40  N25 1BC d   1       6.664 -14.940   6.568  0.00  0.00    -0.289 N 
ATOM     41  H24 1BC d   1       7.107 -14.130   8.584  0.00  0.00     0.115 H 
ATOM     42  N26 1BC d   1       6.728 -16.280   6.080  0.00  0.00    -0.187 NA
ATOM     43  H25 1BC d   1       6.392 -14.106   6.028  0.00  0.00     0.188 HD
ATOM     44  C29 1BC d   1       7.106 -17.129   7.060  0.00  0.00     0.034 A 
ATOM     45  H26 1BC d   1       7.235 -18.209   7.002  0.00  0.00     0.118 H 
ENDBRANCH  33  38
BRANCH  37  46
ATOM     46  C19 1BC d   1       9.894 -19.172  11.671  0.00  0.00    -0.035 C 
ATOM     47  H17 1BC d   1      10.913 -19.060  11.272  0.00  0.00     0.040 H 
ATOM     48  H18 1BC d   1       9.497 -20.159  11.392  0.00  0.00     0.040 H 
BRANCH  46  49
ATOM     49  C20 1BC d   1      10.004 -19.147  13.191  0.00  0.00    -0.064 C 
ATOM     50  H19 1BC d   1       9.002 -19.070  13.637  0.00  0.00     0.032 H 
ATOM     51  H20 1BC d   1      10.613 -18.288  13.508  0.00  0.00     0.032 H 
BRANCH  49  52
ATOM     52  C21 1BC d   1      10.675 -20.455  13.636  0.00  0.00    -0.076 C 
ATOM     53  H21 1BC d   1      10.768 -20.465  14.732  0.00  0.00     0.027 H 
ATOM     54  H22 1BC d   1      11.675 -20.527  13.183  0.00  0.00     0.027 H 
ATOM     55  H23 1BC d   1      10.063 -21.310  13.312  0.00  0.00     0.027 H 
ENDBRANCH  49  52
ENDBRANCH  46  49
ENDBRANCH  37  46
ENDBRANCH  29  32
ENDBRANCH   1  29
BRANCH   1  56
ATOM     56  C30 1BC d   1      11.381 -19.506   7.293  0.00  0.00     0.133 A 
ATOM     57  N31 1BC d   1      11.320 -20.803   7.605  0.00  0.00    -0.195 NA
ATOM     58  C32 1BC d   1      11.850 -21.774   6.793  0.00  0.00     0.269 A 
ATOM     59  C33 1BC d   1      12.421 -21.413   5.559  0.00  0.00    -0.001 A 
ATOM     60  O36 1BC d   1      11.788 -22.969   7.158  0.00  0.00    -0.266 OA
ATOM     61  C34 1BC d   1      12.460 -20.045   5.241  0.00  0.00    -0.016 A 
ATOM     62  H27 1BC d   1      12.817 -22.164   4.877  0.00  0.00     0.094 H 
ATOM     63  N35 1BC d   1      11.916 -19.142   6.114  0.00  0.00    -0.352 N 
ATOM     64  H28 1BC d   1      12.917 -19.707   4.312  0.00  0.00     0.111 H 
ATOM     65  H29 1BC d   1      11.916 -18.144   5.858  0.00  0.00     0.166 HD
ENDBRANCH   1  56
TORSDOF 10
