REMARK  11 active torsions:
REMARK  status: ('A' for Active; 'I' for Inactive)
REMARK    1  A    between atoms: C12_6  and  N13_14 
REMARK    2  A    between atoms: C10_8  and  C28_9 
REMARK    3  A    between atoms: C10_8  and  C27_10 
REMARK    4  A    between atoms: N13_14  and  C14_15 
REMARK    5  A    between atoms: C14_15  and  C15_16 
REMARK    6  A    between atoms: C14_15  and  C7_17 
REMARK    7  A    between atoms: C15_16  and  C11_20 
REMARK    8  A    between atoms: C13_21  and  C23_28 
REMARK    9  A    between atoms: C18_24  and  C19_25 
REMARK   10  A    between atoms: C19_25  and  C20_26 
REMARK   11  A    between atoms: C20_26  and  C21_27 
ROOT
ATOM      1  C14 1BE d   1      10.522 -18.544   8.160  0.00  0.00     0.099 C 
ATOM      2  H13 1BE d   1      11.025 -18.388   9.126  0.00  0.00     0.090 H 
ENDROOT
BRANCH   1   3
ATOM      3  N13 1BE d   1      10.601 -17.293   7.360  0.00  0.00    -0.360 N 
ATOM      4  H12 1BE d   1      10.411 -17.395   6.353  0.00  0.00     0.162 HD
BRANCH   3   5
ATOM      5  C12 1BE d   1      10.883 -16.065   7.768  0.00  0.00     0.130 C 
ATOM      6  C4  1BE d   1      10.578 -14.905   6.857  0.00  0.00     0.016 A 
ATOM      7  C5  1BE d   1       9.706 -15.028   5.770  0.00  0.00    -0.067 A 
ATOM      8  C3  1BE d   1      11.197 -13.688   7.148  0.00  0.00    -0.040 A 
ATOM      9  C6  1BE d   1       9.443 -13.908   4.948  0.00  0.00    -0.061 A 
ATOM     10  H2  1BE d   1       9.233 -15.980   5.558  0.00  0.00     0.085 H 
ATOM     11  C1  1BE d   1      10.109 -12.712   5.259  0.00  0.00     0.034 A 
ATOM     12  H1  1BE d   1       8.755 -13.970   4.112  0.00  0.00     0.086 H 
ATOM     13 CL1  1BE d   1       9.820 -11.242   4.327  0.00  0.00    -0.084 Cl
ATOM     14  C2  1BE d   1      10.979 -12.576   6.358  0.00  0.00    -0.055 A 
ATOM     15  H11 1BE d   1      11.461 -11.630   6.577  0.00  0.00     0.086 H 
ATOM     16  C9  1BE d   1      12.110 -13.598   8.325  0.00  0.00    -0.015 C 
ATOM     17  C10 1BE d   1      11.620 -14.508   9.445  0.00  0.00     0.052 C 
ATOM     18  H9  1BE d   1      13.122 -13.906   8.024  0.00  0.00     0.043 H 
ATOM     19  H10 1BE d   1      12.135 -12.559   8.686  0.00  0.00     0.043 H 
ATOM     20  N11 1BE d   1      11.366 -15.830   8.930  0.00  0.00    -0.262 NA
BRANCH  17  21
ATOM     21  C28 1BE d   1      12.710 -14.580  10.536  0.00  0.00    -0.051 C 
ATOM     22  H3  1BE d   1      12.903 -13.571  10.928  0.00  0.00     0.030 H 
ATOM     23  H4  1BE d   1      13.635 -14.989  10.104  0.00  0.00     0.030 H 
ATOM     24  H5  1BE d   1      12.368 -15.232  11.353  0.00  0.00     0.030 H 
ENDBRANCH  17  21
BRANCH  17  25
ATOM     25  C27 1BE d   1      10.313 -13.917  10.046  0.00  0.00    -0.051 C 
ATOM     26  H6  1BE d   1      10.513 -12.909  10.437  0.00  0.00     0.030 H 
ATOM     27  H7  1BE d   1       9.960 -14.564  10.863  0.00  0.00     0.030 H 
ATOM     28  H8  1BE d   1       9.542 -13.861   9.263  0.00  0.00     0.030 H 
ENDBRANCH  17  25
ENDBRANCH   3   5
ENDBRANCH   1   3
BRANCH   1  29
ATOM     29  C15 1BE d   1       9.069 -19.005   8.395  0.00  0.00    -0.011 C 
ATOM     30  H14 1BE d   1       9.044 -20.035   8.780  0.00  0.00     0.044 H 
ATOM     31  H15 1BE d   1       8.486 -18.948   7.464  0.00  0.00     0.044 H 
BRANCH  29  32
ATOM     32  C11 1BE d   1       8.533 -18.035   9.423  0.00  0.00    -0.031 A 
ATOM     33  C13 1BE d   1       7.686 -16.805   9.261  0.00  0.00    -0.009 A 
ATOM     34  C16 1BE d   1       7.312 -16.077  10.366  0.00  0.00    -0.033 A 
ATOM     35  S17 1BE d   1       8.038 -16.885  11.698  0.00  0.00    -0.105 SA
ATOM     36  H16 1BE d   1       6.691 -15.183  10.392  0.00  0.00     0.096 H 
ATOM     37  C18 1BE d   1       8.815 -18.208  10.860  0.00  0.00    -0.010 A 
BRANCH  33  38
ATOM     38  C23 1BE d   1       7.197 -16.287   7.956  0.00  0.00     0.011 A 
ATOM     39  C24 1BE d   1       7.003 -17.057   6.856  0.00  0.00     0.034 A 
ATOM     40  N25 1BE d   1       6.636 -16.181   5.909  0.00  0.00    -0.187 NA
ATOM     41  H24 1BE d   1       7.119 -18.136   6.763  0.00  0.00     0.118 H 
ATOM     42  N26 1BE d   1       6.634 -14.887   6.435  0.00  0.00    -0.289 N 
ATOM     43  C29 1BE d   1       7.008 -14.951   7.731  0.00  0.00     0.008 A 
ATOM     44  H25 1BE d   1       6.389 -14.029   5.921  0.00  0.00     0.188 HD
ATOM     45  H26 1BE d   1       7.131 -14.129   8.434  0.00  0.00     0.115 H 
ENDBRANCH  33  38
BRANCH  37  46
ATOM     46  C19 1BE d   1       9.662 -19.292  11.526  0.00  0.00    -0.035 C 
ATOM     47  H17 1BE d   1      10.651 -19.285  11.045  0.00  0.00     0.040 H 
ATOM     48  H18 1BE d   1       9.171 -20.259  11.341  0.00  0.00     0.040 H 
BRANCH  46  49
ATOM     49  C20 1BE d   1       9.876 -19.165  13.014  0.00  0.00    -0.064 C 
ATOM     50  H19 1BE d   1       8.909 -18.969  13.501  0.00  0.00     0.032 H 
ATOM     51  H20 1BE d   1      10.561 -18.327  13.208  0.00  0.00     0.032 H 
BRANCH  49  52
ATOM     52  C21 1BE d   1      10.476 -20.444  13.595  0.00  0.00    -0.076 C 
ATOM     53  H21 1BE d   1      10.620 -20.322  14.679  0.00  0.00     0.027 H 
ATOM     54  H22 1BE d   1      11.446 -20.645  13.116  0.00  0.00     0.027 H 
ATOM     55  H23 1BE d   1       9.794 -21.287  13.409  0.00  0.00     0.027 H 
ENDBRANCH  49  52
ENDBRANCH  46  49
ENDBRANCH  37  46
ENDBRANCH  29  32
ENDBRANCH   1  29
BRANCH   1  56
ATOM     56  C7  1BE d   1      11.185 -19.656   7.392  0.00  0.00     0.197 C 
ATOM     57  O8  1BE d   1      11.264 -20.820   7.845  0.00  0.00    -0.646 OA
ATOM     58  O9  1BE d   1      11.592 -19.329   6.263  0.00  0.00    -0.646 OA
ENDBRANCH   1  56
TORSDOF 11
