REMARK  6 active torsions:
REMARK  status: ('A' for Active; 'I' for Inactive)
REMARK    1  A    between atoms: NAV_22  and  CAA_1 
REMARK    2  A    between atoms: SAX_24  and  CAB_2 
REMARK    3  A    between atoms: CAN_14  and  CAL_12 
REMARK    4  A    between atoms: CAL_12  and  CAP_16 
REMARK    5  A    between atoms: NAW_23  and  CAN_14 
REMARK    6  A    between atoms: CAQ_17  and  SAX_24 
ROOT
ATOM      1  CAC LZU d   1     -27.577 -12.124  17.787  0.00  0.00    -0.081 A 
ATOM      2  CAD LZU d   1     -26.182 -11.945  17.679  0.00  0.00    -0.082 A 
ATOM      3  CAH LZU d   1     -28.053 -13.329  18.329  0.00  0.00    -0.056 A 
ATOM      4  CAI LZU d   1     -25.298 -12.941  18.065  0.00  0.00    -0.064 A 
ATOM      5  CAJ LZU d   1     -25.795 -19.167  20.520  0.00  0.00    -0.065 A 
ATOM      6  CAK LZU d   1     -25.005 -18.085  20.123  0.00  0.00    -0.063 A 
ATOM      7  CAO LZU d   1     -27.830 -17.857  20.130  0.00  0.00    -0.040 A 
ATOM      8  CAQ LZU d   1     -27.212 -19.075  20.506  0.00  0.00     0.002 A 
ATOM      9  CAR LZU d   1     -27.144 -14.348  18.769  0.00  0.00     0.052 A 
ATOM     10  CAS LZU d   1     -27.037 -16.718  19.733  0.00  0.00     0.053 A 
ATOM     11  CAT LZU d   1     -25.792 -14.185  18.665  0.00  0.00     0.032 A 
ATOM     12  CAU LZU d   1     -25.677 -16.821  19.751  0.00  0.00     0.032 A 
ATOM     13  NAW LZU d   1     -27.751 -15.570  19.223  0.00  0.00    -0.345 N 
ATOM     14  SAY LZU d   1     -24.767 -15.373  19.476  0.00  0.00    -0.086 SA
ATOM     15  H7  LZU d   1     -28.264 -11.352  17.460  0.00  0.00     0.083 H 
ATOM     16  H8  LZU d   1     -25.794 -11.012  17.287  0.00  0.00     0.083 H 
ATOM     17  H15 LZU d   1     -29.121 -13.491  18.416  0.00  0.00     0.087 H 
ATOM     18  H16 LZU d   1     -24.233 -12.799  17.922  0.00  0.00     0.085 H 
ATOM     19  H17 LZU d   1     -25.321 -20.087  20.842  0.00  0.00     0.085 H 
ATOM     20  H18 LZU d   1     -23.925 -18.170  20.088  0.00  0.00     0.085 H 
ATOM     21  H25 LZU d   1     -28.911 -17.779  20.140  0.00  0.00     0.089 H 
ENDROOT
BRANCH  13  22
ATOM     22  CAN LZU d   1     -29.208 -15.437  19.617  0.00  0.00     0.002 C 
ATOM     23  H23 LZU d   1     -29.756 -14.871  18.849  0.00  0.00     0.065 H 
ATOM     24  H24 LZU d   1     -29.660 -16.433  19.730  0.00  0.00     0.065 H 
BRANCH  22  25
ATOM     25  CAL LZU d   1     -29.251 -14.660  20.999  0.00  0.00    -0.023 C 
ATOM     26  H19 LZU d   1     -28.830 -13.670  20.770  0.00  0.00     0.038 H 
ATOM     27  H20 LZU d   1     -28.555 -15.214  21.646  0.00  0.00     0.038 H 
BRANCH  25  28
ATOM     28  CAP LZU d   1     -30.400 -14.377  21.857  0.00  0.00     0.105 C 
ATOM     29  CAG LZU d   1     -31.561 -13.819  21.057  0.00  0.00    -0.038 C 
ATOM     30  CAE LZU d   1     -32.639 -13.243  21.885  0.00  0.00    -0.062 C 
ATOM     31  H13 LZU d   1     -31.176 -13.031  20.393  0.00  0.00     0.036 H 
ATOM     32  H14 LZU d   1     -31.987 -14.633  20.452  0.00  0.00     0.036 H 
ATOM     33  CAF LZU d   1     -32.209 -12.347  22.985  0.00  0.00    -0.042 C 
ATOM     34  H9  LZU d   1     -33.301 -12.667  21.222  0.00  0.00     0.033 H 
ATOM     35  H10 LZU d   1     -33.202 -14.076  22.331  0.00  0.00     0.033 H 
ATOM     36  CAM LZU d   1     -31.058 -12.911  23.767  0.00  0.00     0.084 C 
ATOM     37  H11 LZU d   1     -33.058 -12.193  23.668  0.00  0.00     0.035 H 
ATOM     38  H12 LZU d   1     -31.904 -11.381  22.555  0.00  0.00     0.035 H 
ATOM     39  NAV LZU d   1     -29.979 -13.409  22.902  0.00  0.00    -0.071 N 
ATOM     40  H21 LZU d   1     -31.426 -13.743  24.386  0.00  0.00     0.076 H 
ATOM     41  H22 LZU d   1     -30.653 -12.121  24.417  0.00  0.00     0.076 H 
ATOM     42  H27 LZU d   1     -29.779 -12.652  22.267  0.00  0.00     0.279 HD
ATOM     43  H26 LZU d   1     -30.724 -15.311  22.340  0.00  0.00     0.084 H 
BRANCH  39  44
ATOM     44  CAA LZU d   1     -28.917 -13.165  23.913  0.00  0.00     0.067 C 
ATOM     45  H1  LZU d   1     -29.126 -12.225  24.445  0.00  0.00     0.068 H 
ATOM     46  H2  LZU d   1     -27.942 -13.093  23.410  0.00  0.00     0.068 H 
ATOM     47  H3  LZU d   1     -28.898 -13.997  24.633  0.00  0.00     0.068 H 
ENDBRANCH  39  44
ENDBRANCH  25  28
ENDBRANCH  22  25
ENDBRANCH  13  22
BRANCH   8  48
ATOM     48  SAX LZU d   1     -28.272 -20.430  20.992  0.00  0.00    -0.134 SA
BRANCH  48  49
ATOM     49  CAB LZU d   1     -29.909 -19.823  21.318  0.00  0.00    -0.030 C 
ATOM     50  H4  LZU d   1     -30.558 -20.660  21.617  0.00  0.00     0.042 H 
ATOM     51  H5  LZU d   1     -30.313 -19.352  20.410  0.00  0.00     0.042 H 
ATOM     52  H6  LZU d   1     -29.870 -19.081  22.130  0.00  0.00     0.042 H 
ENDBRANCH  48  49
ENDBRANCH   8  48
TORSDOF 6
