REMARK WARNING: 32 MAX_TORS EXCEEDED!!!
REMARK  38 active torsions:
REMARK  status: ('A' for Active; 'I' for Inactive)
REMARK    1  A    between atoms: N_1  and  CA_2 
REMARK    2  A    between atoms: CA_2  and  C_3 
REMARK    3  A    between atoms: CA_2  and  CB_5 
REMARK       I    between atoms: C_3  and  N_6 
REMARK    4  A    between atoms: N_6  and  CA_7 
REMARK    5  A    between atoms: CA_7  and  C_8 
REMARK       I    between atoms: C_8  and  N_10 
REMARK    6  A    between atoms: N_10  and  CA_11 
REMARK    7  A    between atoms: CA_11  and  C_12 
REMARK       I    between atoms: C_12  and  N_14 
REMARK    8  A    between atoms: CA_15  and  C_16 
REMARK       I    between atoms: C_16  and  N_21 
REMARK    9  A    between atoms: N_21  and  CA_22 
REMARK   10  A    between atoms: CA_22  and  C_23 
REMARK   11  A    between atoms: CA_22  and  CB_25 
REMARK       I    between atoms: C_23  and  N_28 
REMARK   12  A    between atoms: CB_25  and  OG1_26 
REMARK   13  A    between atoms: CB_25  and  CG2_27 
REMARK   14  A    between atoms: N_28  and  CA_29 
REMARK   15  A    between atoms: CA_29  and  C_30 
REMARK   16  A    between atoms: CA_29  and  CB_32 
REMARK       I    between atoms: C_30  and  N_36 
REMARK   17  A    between atoms: CB_32  and  CG1_33 
REMARK   18  A    between atoms: CB_32  and  CG2_34 
REMARK   19  A    between atoms: CG1_33  and  CD1_35 
REMARK   20  A    between atoms: N_36  and  CA_37 
REMARK   21  A    between atoms: CA_37  and  C_38 
REMARK   22  A    between atoms: CA_37  and  CB_40 
REMARK       I    between atoms: C_38  and  N_45 
REMARK   23  A    between atoms: CB_40  and  CG_41 
REMARK   24  A    between atoms: CG_41  and  CD_42 
REMARK   25  A    between atoms: N_45  and  CA_46 
REMARK   26  A    between atoms: CA_46  and  C_47 
REMARK   27  A    between atoms: CA_46  and  CB_49 
REMARK       I    between atoms: C_47  and  N_54 
REMARK   28  A    between atoms: CB_49  and  CG_50 
REMARK   29  A    between atoms: CG_50  and  CD_51 
REMARK   30  A    between atoms: N_54  and  CA_55 
REMARK   31  A    between atoms: CA_55  and  C_56 
REMARK   32  A    between atoms: CA_55  and  CB_58 
REMARK       I    between atoms: C_56  and  N_61 
REMARK   33  A    between atoms: CB_58  and  CG1_59 
REMARK   34  A    between atoms: CB_58  and  CG2_60 
REMARK   35  A    between atoms: N_61  and  CA_62 
REMARK   36  A    between atoms: CA_62  and  C_63 
REMARK   37  A    between atoms: CA_62  and  CB_65 
REMARK   38  A    between atoms: CB_65  and  CG_66 
ROOT
ATOM      1  CA  ILE d   1      69.397 -18.228 -26.211  0.00  0.00     0.092 C 
ATOM      2  H29 ILE d   1      68.816 -17.390 -25.799  0.00  0.00     0.088 H 
ENDROOT
BRANCH   1   3
ATOM      3  N   ILE d   1      70.404 -18.573 -25.206  0.00  0.00    -0.346 N 
ATOM      4  C   THR d   1      70.769 -19.820 -24.898  0.00  0.00     0.243 C 
ATOM      5  O   THR d   1      70.309 -20.825 -25.449  0.00  0.00    -0.271 OA
ATOM      6  H28 ILE d   1      70.849 -17.823 -24.716  0.00  0.00     0.163 HD
BRANCH   4   7
ATOM      7  CA  THR d   1      71.829 -19.938 -23.794  0.00  0.00     0.113 C 
ATOM      8  H22 THR d   1      72.814 -19.661 -24.199  0.00  0.00     0.091 H 
BRANCH   7   9
ATOM      9  N   THR d   1      71.468 -19.019 -22.725  0.00  0.00    -0.344 N 
ATOM     10  C   PRO d   1      71.458 -17.697 -22.882  0.00  0.00     0.241 C 
ATOM     11  O   PRO d   1      71.778 -17.130 -23.926  0.00  0.00    -0.271 OA
ATOM     12  H21 THR d   1      71.217 -19.397 -21.834  0.00  0.00     0.163 HD
BRANCH  10  13
ATOM     13  CA  PRO d   1      71.021 -16.894 -21.669  0.00  0.00     0.091 C 
ATOM     14  N   PRO d   1      70.591 -17.743 -20.552  0.00  0.00    -0.337 N 
ATOM     15  C   GLY d   1      69.616 -18.657 -20.750  0.00  0.00     0.238 C 
ATOM     16  CD  PRO d   1      71.256 -17.316 -19.310  0.00  0.00    -0.001 C 
ATOM     17  O   GLY d   1      69.080 -18.794 -21.856  0.00  0.00    -0.272 OA
ATOM     18  CG  PRO d   1      71.686 -15.899 -19.655  0.00  0.00    -0.048 C 
ATOM     19  H19 PRO d   1      72.123 -17.953 -19.081  0.00  0.00     0.064 H 
ATOM     20  H20 PRO d   1      70.559 -17.326 -18.459  0.00  0.00     0.064 H 
ATOM     21  CB  PRO d   1      72.153 -16.073 -21.058  0.00  0.00    -0.036 C 
ATOM     22  H17 PRO d   1      70.842 -15.196 -19.595  0.00  0.00     0.035 H 
ATOM     23  H18 PRO d   1      72.499 -15.553 -18.999  0.00  0.00     0.035 H 
ATOM     24  H15 PRO d   1      72.263 -15.104 -21.566  0.00  0.00     0.036 H 
ATOM     25  H16 PRO d   1      73.108 -16.618 -21.097  0.00  0.00     0.036 H 
ATOM     26  H14 PRO d   1      70.199 -16.231 -21.977  0.00  0.00     0.087 H 
BRANCH  15  27
ATOM     27  CA  GLY d   1      69.157 -19.545 -19.596  0.00  0.00     0.069 C 
ATOM     28  H12 GLY d   1      68.124 -19.265 -19.341  0.00  0.00     0.078 H 
ATOM     29  H13 GLY d   1      69.179 -20.590 -19.940  0.00  0.00     0.078 H 
BRANCH  27  30
ATOM     30  N   GLY d   1      69.957 -19.452 -18.394  0.00  0.00    -0.351 N 
ATOM     31  C   GLY d   1      69.513 -19.895 -17.224  0.00  0.00     0.235 C 
ATOM     32  O   GLY d   1      68.403 -20.407 -17.067  0.00  0.00    -0.272 OA
ATOM     33  H11 GLY d   1      70.868 -19.043 -18.446  0.00  0.00     0.163 HD
BRANCH  31  34
ATOM     34  CA  GLY d   1      70.480 -19.712 -16.070  0.00  0.00     0.069 C 
ATOM     35  H9  GLY d   1      71.302 -19.067 -16.414  0.00  0.00     0.078 H 
ATOM     36  H10 GLY d   1      69.941 -19.215 -15.250  0.00  0.00     0.078 H 
BRANCH  34  37
ATOM     37  N   GLY d   1      71.061 -20.941 -15.547  0.00  0.00    -0.351 N 
ATOM     38  C   ALA d   1      72.230 -21.424 -15.972  0.00  0.00     0.248 C 
ATOM     39  O   ALA d   1      72.909 -20.899 -16.860  0.00  0.00    -0.271 OA
ATOM     40  H8  GLY d   1      70.563 -21.444 -14.840  0.00  0.00     0.163 HD
BRANCH  38  41
ATOM     41  CA  ALA d   1      72.693 -22.710 -15.293  0.00  0.00     0.172 C 
ATOM     42  H4  ALA d   1      72.074 -22.871 -14.398  0.00  0.00     0.098 H 
BRANCH  41  43
ATOM     43  N   ALA d   1      72.526 -23.881 -16.190  0.00  0.00    -0.067 N 
ATOM     44  H1  ALA d   1      72.839 -24.714 -15.717  0.00  0.00     0.275 HD
ATOM     45  H2  ALA d   1      73.072 -23.744 -17.026  0.00  0.00     0.275 HD
ATOM     46  H3  ALA d   1      71.553 -23.980 -16.436  0.00  0.00     0.275 HD
ENDBRANCH  41  43
BRANCH  41  47
ATOM     47  CB  ALA d   1      74.146 -22.577 -14.858  0.00  0.00    -0.042 C 
ATOM     48  H5  ALA d   1      74.252 -21.706 -14.195  0.00  0.00     0.030 H 
ATOM     49  H6  ALA d   1      74.783 -22.443 -15.744  0.00  0.00     0.030 H 
ATOM     50  H7  ALA d   1      74.453 -23.486 -14.320  0.00  0.00     0.030 H 
ENDBRANCH  41  47
ENDBRANCH  38  41
ENDBRANCH  34  37
ENDBRANCH  31  34
ENDBRANCH  27  30
ENDBRANCH  15  27
ENDBRANCH  10  13
ENDBRANCH   7   9
BRANCH   7  51
ATOM     51  CB  THR d   1      71.893 -21.399 -23.262  0.00  0.00     0.060 C 
ATOM     52  H23 THR d   1      72.150 -22.073 -24.093  0.00  0.00     0.086 H 
BRANCH  51  53
ATOM     53  OG1 THR d   1      70.621 -21.776 -22.721  0.00  0.00    -0.393 OA
ATOM     54  H24 THR d   1      69.959 -21.718 -23.400  0.00  0.00     0.210 HD
ENDBRANCH  51  53
BRANCH  51  55
ATOM     55  CG2 THR d   1      72.949 -21.522 -22.172  0.00  0.00    -0.050 C 
ATOM     56  H25 THR d   1      72.981 -22.559 -21.808  0.00  0.00     0.031 H 
ATOM     57  H26 THR d   1      72.697 -20.849 -21.340  0.00  0.00     0.031 H 
ATOM     58  H27 THR d   1      73.932 -21.247 -22.581  0.00  0.00     0.031 H 
ENDBRANCH  51  55
ENDBRANCH   7  51
ENDBRANCH   4   7
ENDBRANCH   1   3
BRANCH   1  59
ATOM     59  C   ILE d   1      68.384 -19.364 -26.437  0.00  0.00     0.241 C 
ATOM     60  O   ILE d   1      68.235 -19.933 -27.519  0.00  0.00    -0.271 OA
ATOM     61  N   GLU d   1      67.716 -19.687 -25.332  0.00  0.00    -0.346 N 
ATOM     62  H39 GLU d   1      67.959 -19.196 -24.496  0.00  0.00     0.163 HD
BRANCH  61  63
ATOM     63  CA  GLU d   1      66.660 -20.693 -25.226  0.00  0.00     0.090 C 
ATOM     64  H40 GLU d   1      66.183 -20.926 -26.189  0.00  0.00     0.087 H 
BRANCH  63  65
ATOM     65  C   GLU d   1      65.755 -19.916 -24.277  0.00  0.00     0.241 C 
ATOM     66  O   GLU d   1      64.948 -20.462 -23.523  0.00  0.00    -0.271 OA
ATOM     67  N   GLU d   1      65.943 -18.603 -24.338  0.00  0.00    -0.346 N 
ATOM     68  H45 GLU d   1      66.624 -18.255 -24.982  0.00  0.00     0.163 HD
BRANCH  67  69
ATOM     69  CA  GLU d   1      65.221 -17.648 -23.529  0.00  0.00     0.090 C 
ATOM     70  H46 GLU d   1      64.269 -18.082 -23.188  0.00  0.00     0.087 H 
BRANCH  69  71
ATOM     71  C   GLU d   1      64.945 -16.423 -24.394  0.00  0.00     0.241 C 
ATOM     72  O   GLU d   1      65.758 -16.056 -25.245  0.00  0.00    -0.271 OA
ATOM     73  N   VAL d   1      63.787 -15.809 -24.176  0.00  0.00    -0.346 N 
ATOM     74  H51 VAL d   1      63.174 -16.180 -23.478  0.00  0.00     0.163 HD
BRANCH  73  75
ATOM     75  CA  VAL d   1      63.369 -14.617 -24.909  0.00  0.00     0.092 C 
ATOM     76  H52 VAL d   1      63.846 -14.612 -25.900  0.00  0.00     0.088 H 
BRANCH  75  77
ATOM     77  C   VAL d   1      63.798 -13.368 -24.126  0.00  0.00     0.241 C 
ATOM     78  O   VAL d   1      64.471 -13.485 -23.103  0.00  0.00    -0.271 OA
ATOM     79  N   ASP d   1      63.422 -12.181 -24.595  0.00  0.00    -0.344 N 
ATOM     80  H60 ASP d   1      62.883 -12.127 -25.436  0.00  0.00     0.163 HD
BRANCH  79  81
ATOM     81  CA  ASP d   1      63.790 -10.958 -23.891  0.00  0.00     0.105 C 
ATOM     82  H61 ASP d   1      63.586 -11.132 -22.824  0.00  0.00     0.090 H 
BRANCH  81  83
ATOM     83  C   ASP d   1      62.985  -9.720 -24.299  0.00  0.00     0.197 C 
ATOM     84  O   ASP d   1      62.001  -9.879 -25.047  0.00  0.00    -0.646 OA
ATOM     85  OXT ASP d   1      63.319  -8.600 -23.840  0.00  0.00    -0.646 OA
ENDBRANCH  81  83
BRANCH  81  86
ATOM     86  CB  ASP d   1      65.298 -10.688 -24.039  0.00  0.00     0.044 C 
ATOM     87  H62 ASP d   1      65.840 -11.334 -23.333  0.00  0.00     0.053 H 
ATOM     88  H63 ASP d   1      65.490  -9.633 -23.793  0.00  0.00     0.053 H 
BRANCH  86  89
ATOM     89  CG  ASP d   1      65.820 -10.960 -25.442  0.00  0.00     0.175 C 
ATOM     90  OD1 ASP d   1      65.760 -12.125 -25.902  0.00  0.00    -0.648 OA
ATOM     91  OD2 ASP d   1      66.300 -10.001 -26.085  0.00  0.00    -0.648 OA
ENDBRANCH  86  89
ENDBRANCH  81  86
ENDBRANCH  79  81
ENDBRANCH  75  77
BRANCH  75  92
ATOM     92  CB  VAL d   1      61.842 -14.608 -25.078  0.00  0.00    -0.033 C 
ATOM     93  H53 VAL d   1      61.544 -13.674 -25.578  0.00  0.00     0.042 H 
BRANCH  92  94
ATOM     94  CG1 VAL d   1      61.411 -15.788 -25.938  0.00  0.00    -0.071 C 
ATOM     95  H54 VAL d   1      60.317 -15.776 -26.055  0.00  0.00     0.028 H 
ATOM     96  H55 VAL d   1      61.718 -16.727 -25.453  0.00  0.00     0.028 H 
ATOM     97  H56 VAL d   1      61.887 -15.714 -26.927  0.00  0.00     0.028 H 
ENDBRANCH  92  94
BRANCH  92  98
ATOM     98  CG2 VAL d   1      61.162 -14.677 -23.719  0.00  0.00    -0.071 C 
ATOM     99  H57 VAL d   1      61.480 -13.821 -23.106  0.00  0.00     0.028 H 
ATOM    100  H58 VAL d   1      61.444 -15.613 -23.215  0.00  0.00     0.028 H 
ATOM    101  H59 VAL d   1      60.071 -14.647 -23.853  0.00  0.00     0.028 H 
ENDBRANCH  92  98
ENDBRANCH  75  92
ENDBRANCH  73  75
ENDBRANCH  69  71
BRANCH  69 102
ATOM    102  CB  GLU d   1      66.081 -17.288 -22.317  0.00  0.00    -0.029 C 
ATOM    103  H47 GLU d   1      67.116 -17.158 -22.665  0.00  0.00     0.037 H 
ATOM    104  H48 GLU d   1      66.035 -18.129 -21.609  0.00  0.00     0.037 H 
BRANCH 102 105
ATOM    105  CG  GLU d   1      65.682 -16.032 -21.571  0.00  0.00     0.018 C 
ATOM    106  H49 GLU d   1      65.150 -16.316 -20.651  0.00  0.00     0.049 H 
ATOM    107  H50 GLU d   1      65.016 -15.433 -22.210  0.00  0.00     0.049 H 
BRANCH 105 108
ATOM    108  CD  GLU d   1      66.896 -15.194 -21.201  0.00  0.00     0.172 C 
ATOM    109  OE1 GLU d   1      66.721 -14.124 -20.580  0.00  0.00    -0.648 OA
ATOM    110  OE2 GLU d   1      68.029 -15.607 -21.538  0.00  0.00    -0.648 OA
ENDBRANCH 105 108
ENDBRANCH 102 105
ENDBRANCH  69 102
ENDBRANCH  67  69
ENDBRANCH  63  65
BRANCH  63 111
ATOM    111  CB  GLU d   1      67.185 -21.975 -24.561  0.00  0.00    -0.029 C 
ATOM    112  H41 GLU d   1      67.636 -21.694 -23.598  0.00  0.00     0.037 H 
ATOM    113  H42 GLU d   1      67.958 -22.402 -25.217  0.00  0.00     0.037 H 
BRANCH 111 114
ATOM    114  CG  GLU d   1      66.141 -23.070 -24.290  0.00  0.00     0.018 C 
ATOM    115  H43 GLU d   1      65.235 -22.590 -23.892  0.00  0.00     0.049 H 
ATOM    116  H44 GLU d   1      66.552 -23.759 -23.538  0.00  0.00     0.049 H 
BRANCH 114 117
ATOM    117  CD  GLU d   1      65.750 -23.883 -25.517  0.00  0.00     0.172 C 
ATOM    118  OE1 GLU d   1      66.628 -24.518 -26.140  0.00  0.00    -0.648 OA
ATOM    119  OE2 GLU d   1      64.549 -23.892 -25.850  0.00  0.00    -0.648 OA
ENDBRANCH 114 117
ENDBRANCH 111 114
ENDBRANCH  63 111
ENDBRANCH  61  63
ENDBRANCH   1  59
BRANCH   1 120
ATOM    120  CB  ILE d   1      70.098 -17.670 -27.528  0.00  0.00    -0.030 C 
ATOM    121  H30 ILE d   1      69.925 -16.584 -27.562  0.00  0.00     0.043 H 
BRANCH 120 122
ATOM    122  CG1 ILE d   1      69.491 -18.261 -28.799  0.00  0.00    -0.063 C 
ATOM    123  H31 ILE d   1      68.430 -17.975 -28.844  0.00  0.00     0.033 H 
ATOM    124  H32 ILE d   1      69.573 -19.357 -28.747  0.00  0.00     0.033 H 
BRANCH 122 125
ATOM    125  CD1 ILE d   1      70.167 -17.790 -30.063  0.00  0.00    -0.076 C 
ATOM    126  H36 ILE d   1      69.680 -18.254 -30.934  0.00  0.00     0.027 H 
ATOM    127  H37 ILE d   1      71.228 -18.078 -30.040  0.00  0.00     0.027 H 
ATOM    128  H38 ILE d   1      70.085 -16.695 -30.137  0.00  0.00     0.027 H 
ENDBRANCH 122 125
ENDBRANCH 120 122
BRANCH 120 129
ATOM    129  CG2 ILE d   1      71.601 -17.892 -27.443  0.00  0.00    -0.071 C 
ATOM    130  H33 ILE d   1      71.985 -17.448 -26.512  0.00  0.00     0.028 H 
ATOM    131  H34 ILE d   1      72.091 -17.417 -28.305  0.00  0.00     0.028 H 
ATOM    132  H35 ILE d   1      71.813 -18.971 -27.450  0.00  0.00     0.028 H 
ENDBRANCH 120 129
ENDBRANCH   1 120
TORSDOF 38
