REMARK WARNING: 32 MAX_TORS EXCEEDED!!!
REMARK  38 active torsions:
REMARK  status: ('A' for Active; 'I' for Inactive)
REMARK    1  A    between atoms: N_1  and  CA_2 
REMARK    2  A    between atoms: CA_2  and  C_3 
REMARK    3  A    between atoms: CA_2  and  CB_5 
REMARK       I    between atoms: C_3  and  N_6 
REMARK    4  A    between atoms: N_6  and  CA_7 
REMARK    5  A    between atoms: CA_7  and  C_8 
REMARK    6  A    between atoms: CA_7  and  CB_10 
REMARK       I    between atoms: C_8  and  N_12 
REMARK    7  A    between atoms: CB_10  and  OG_11 
REMARK    8  A    between atoms: N_12  and  CA_13 
REMARK    9  A    between atoms: CA_13  and  C_14 
REMARK   10  A    between atoms: CA_13  and  CB_16 
REMARK       I    between atoms: C_14  and  N_23 
REMARK   11  A    between atoms: CB_16  and  CG_17 
REMARK   12  A    between atoms: CG_17  and  CD_18 
REMARK   13  A    between atoms: CD_18  and  NE_19 
REMARK       I    between atoms: NE_19  and  CZ_20 
REMARK       I    between atoms: CZ_20  and  NH1_21 
REMARK   14  A    between atoms: N_23  and  CA_24 
REMARK   15  A    between atoms: CA_24  and  C_25 
REMARK   16  A    between atoms: CA_24  and  CB_27 
REMARK       I    between atoms: C_25  and  N_31 
REMARK   17  A    between atoms: CB_27  and  CG_28 
REMARK   18  A    between atoms: CG_28  and  SD_29 
REMARK   19  A    between atoms: SD_29  and  CE_30 
REMARK   20  A    between atoms: N_31  and  CA_32 
REMARK   21  A    between atoms: CA_32  and  C_33 
REMARK   22  A    between atoms: CA_32  and  CB_35 
REMARK       I    between atoms: C_33  and  N_40 
REMARK   23  A    between atoms: CB_35  and  CG_36 
REMARK   24  A    between atoms: CG_36  and  CD_37 
REMARK   25  A    between atoms: N_40  and  CA_41 
REMARK   26  A    between atoms: CA_41  and  C_42 
REMARK   27  A    between atoms: CA_41  and  CB_44 
REMARK       I    between atoms: C_42  and  N_49 
REMARK   28  A    between atoms: CB_44  and  CG_45 
REMARK   29  A    between atoms: CG_45  and  CD_46 
REMARK   30  A    between atoms: N_49  and  CA_50 
REMARK   31  A    between atoms: CA_50  and  C_51 
REMARK   32  A    between atoms: CA_50  and  CB_53 
REMARK       I    between atoms: C_51  and  N_56 
REMARK   33  A    between atoms: CB_53  and  CG1_54 
REMARK   34  A    between atoms: CB_53  and  CG2_55 
REMARK   35  A    between atoms: N_56  and  CA_57 
REMARK   36  A    between atoms: CA_57  and  C_58 
REMARK   37  A    between atoms: CA_57  and  CB_60 
REMARK   38  A    between atoms: CB_60  and  CG_61 
ROOT
ATOM      1  CA  MET d   1      70.304  20.036  27.429  0.00  0.00     0.090 C 
ATOM      2  H27 MET d   1      70.118  18.952  27.450  0.00  0.00     0.087 H 
ENDROOT
BRANCH   1   3
ATOM      3  N   MET d   1      71.596  20.240  26.770  0.00  0.00    -0.346 N 
ATOM      4  C   ARG d   1      71.787  19.906  25.497  0.00  0.00     0.241 C 
ATOM      5  O   ARG d   1      70.899  19.445  24.790  0.00  0.00    -0.271 OA
ATOM      6  H26 MET d   1      72.352  20.640  27.289  0.00  0.00     0.163 HD
BRANCH   4   7
ATOM      7  CA  ARG d   1      73.169  20.122  24.911  0.00  0.00     0.089 C 
ATOM      8  H14 ARG d   1      73.945  20.012  25.683  0.00  0.00     0.087 H 
BRANCH   7   9
ATOM      9  N   ARG d   1      73.309  19.074  23.893  0.00  0.00    -0.346 N 
ATOM     10  C   SER d   1      72.983  17.802  24.164  0.00  0.00     0.243 C 
ATOM     11  O   SER d   1      72.570  17.442  25.271  0.00  0.00    -0.271 OA
ATOM     12  H13 ARG d   1      73.652  19.312  22.985  0.00  0.00     0.163 HD
BRANCH  10  13
ATOM     13  CA  SER d   1      73.152  16.766  23.040  0.00  0.00     0.109 C 
ATOM     14  H9  SER d   1      73.138  17.284  22.070  0.00  0.00     0.090 H 
BRANCH  13  15
ATOM     15  N   SER d   1      74.431  16.076  23.196  0.00  0.00    -0.344 N 
ATOM     16  C   ALA d   1      75.307  15.966  22.201  0.00  0.00     0.248 C 
ATOM     17  O   ALA d   1      75.107  16.431  21.075  0.00  0.00    -0.271 OA
ATOM     18  H8  SER d   1      74.656  15.672  24.083  0.00  0.00     0.163 HD
BRANCH  16  19
ATOM     19  CA  ALA d   1      76.606  15.226  22.521  0.00  0.00     0.172 C 
ATOM     20  H4  ALA d   1      76.868  15.434  23.569  0.00  0.00     0.098 H 
BRANCH  19  21
ATOM     21  N   ALA d   1      76.473  13.749  22.361  0.00  0.00    -0.067 N 
ATOM     22  H1  ALA d   1      77.351  13.307  22.582  0.00  0.00     0.275 HD
ATOM     23  H2  ALA d   1      76.220  13.536  21.409  0.00  0.00     0.275 HD
ATOM     24  H3  ALA d   1      75.758  13.407  22.984  0.00  0.00     0.275 HD
ENDBRANCH  19  21
BRANCH  19  25
ATOM     25  CB  ALA d   1      77.733  15.743  21.625  0.00  0.00    -0.042 C 
ATOM     26  H5  ALA d   1      77.827  16.832  21.746  0.00  0.00     0.030 H 
ATOM     27  H6  ALA d   1      77.503  15.510  20.575  0.00  0.00     0.030 H 
ATOM     28  H7  ALA d   1      78.679  15.259  21.910  0.00  0.00     0.030 H 
ENDBRANCH  19  25
ENDBRANCH  16  19
ENDBRANCH  13  15
BRANCH  13  29
ATOM     29  CB  SER d   1      72.000  15.744  23.080  0.00  0.00     0.044 C 
ATOM     30  H10 SER d   1      71.046  16.284  23.168  0.00  0.00     0.077 H 
ATOM     31  H11 SER d   1      72.133  15.090  23.954  0.00  0.00     0.077 H 
BRANCH  29  32
ATOM     32  OG  SER d   1      71.972  14.946  21.907  0.00  0.00    -0.398 OA
ATOM     33  H12 SER d   1      71.253  14.328  21.963  0.00  0.00     0.209 HD
ENDBRANCH  29  32
ENDBRANCH  13  29
ENDBRANCH  10  13
ENDBRANCH   7   9
BRANCH   7  34
ATOM     34  CB  ARG d   1      73.249  21.534  24.301  0.00  0.00    -0.036 C 
ATOM     35  H15 ARG d   1      73.431  22.244  25.121  0.00  0.00     0.036 H 
ATOM     36  H16 ARG d   1      72.277  21.754  23.835  0.00  0.00     0.036 H 
BRANCH  34  37
ATOM     37  CG  ARG d   1      74.322  21.752  23.255  0.00  0.00    -0.048 C 
ATOM     38  H17 ARG d   1      74.355  22.822  23.003  0.00  0.00     0.035 H 
ATOM     39  H18 ARG d   1      74.061  21.172  22.358  0.00  0.00     0.035 H 
BRANCH  37  40
ATOM     40  CD  ARG d   1      75.700  21.322  23.728  0.00  0.00     0.009 C 
ATOM     41  H19 ARG d   1      75.621  20.340  24.218  0.00  0.00     0.064 H 
ATOM     42  H20 ARG d   1      76.079  22.062  24.448  0.00  0.00     0.064 H 
BRANCH  40  43
ATOM     43  NE  ARG d   1      76.635  21.223  22.609  0.00  0.00    -0.227 N 
ATOM     44  CZ  ARG d   1      77.753  20.502  22.624  0.00  0.00     0.665 C 
ATOM     45  NH1 ARG d   1      78.083  19.812  23.707  0.00  0.00    -0.235 N 
ATOM     46  NH2 ARG d   1      78.532  20.459  21.549  0.00  0.00    -0.235 N 
ATOM     47  H22 ARG d   1      78.949  19.254  23.718  0.00  0.00     0.174 HD
ATOM     48  H23 ARG d   1      77.474  19.834  24.537  0.00  0.00     0.174 HD
ATOM     49  H24 ARG d   1      78.277  20.994  20.707  0.00  0.00     0.174 HD
ATOM     50  H25 ARG d   1      79.391  19.890  21.558  0.00  0.00     0.174 HD
ATOM     51  H21 ARG d   1      76.413  21.747  21.750  0.00  0.00     0.177 HD
ENDBRANCH  40  43
ENDBRANCH  37  40
ENDBRANCH  34  37
ENDBRANCH   7  34
ENDBRANCH   4   7
ENDBRANCH   1   3
BRANCH   1  52
ATOM     52  C   MET d   1      69.108  20.679  26.716  0.00  0.00     0.241 C 
ATOM     53  O   MET d   1      69.140  20.880  25.505  0.00  0.00    -0.271 OA
ATOM     54  N   GLU d   1      68.049  20.986  27.457  0.00  0.00    -0.346 N 
ATOM     55  H35 GLU d   1      68.056  20.785  28.436  0.00  0.00     0.163 HD
BRANCH  54  56
ATOM     56  CA  GLU d   1      66.874  21.614  26.859  0.00  0.00     0.090 C 
ATOM     57  H36 GLU d   1      66.051  21.535  27.585  0.00  0.00     0.087 H 
BRANCH  56  58
ATOM     58  C   GLU d   1      66.409  20.940  25.562  0.00  0.00     0.241 C 
ATOM     59  O   GLU d   1      66.199  21.604  24.549  0.00  0.00    -0.271 OA
ATOM     60  N   GLU d   1      66.268  19.617  25.617  0.00  0.00    -0.346 N 
ATOM     61  H41 GLU d   1      66.500  19.158  26.474  0.00  0.00     0.163 HD
BRANCH  60  62
ATOM     62  CA  GLU d   1      65.795  18.790  24.504  0.00  0.00     0.090 C 
ATOM     63  H42 GLU d   1      64.858  19.208  24.108  0.00  0.00     0.087 H 
BRANCH  62  64
ATOM     64  C   GLU d   1      65.534  17.395  25.078  0.00  0.00     0.241 C 
ATOM     65  O   GLU d   1      66.437  16.751  25.607  0.00  0.00    -0.271 OA
ATOM     66  N   VAL d   1      64.293  16.930  24.982  0.00  0.00    -0.346 N 
ATOM     67  H47 VAL d   1      63.596  17.472  24.512  0.00  0.00     0.163 HD
BRANCH  66  68
ATOM     68  CA  VAL d   1      63.937  15.636  25.556  0.00  0.00     0.092 C 
ATOM     69  H48 VAL d   1      64.658  15.459  26.368  0.00  0.00     0.088 H 
BRANCH  68  70
ATOM     70  C   VAL d   1      64.010  14.415  24.649  0.00  0.00     0.241 C 
ATOM     71  O   VAL d   1      63.815  14.512  23.441  0.00  0.00    -0.271 OA
ATOM     72  N   ASP d   1      64.266  13.265  25.275  0.00  0.00    -0.344 N 
ATOM     73  H56 ASP d   1      64.364  13.290  26.270  0.00  0.00     0.163 HD
BRANCH  72  74
ATOM     74  CA  ASP d   1      64.414  11.968  24.609  0.00  0.00     0.105 C 
ATOM     75  H57 ASP d   1      64.357  12.142  23.524  0.00  0.00     0.090 H 
BRANCH  74  76
ATOM     76  C   ASP d   1      63.342  10.933  24.969  0.00  0.00     0.197 C 
ATOM     77  O   ASP d   1      62.320  11.318  25.566  0.00  0.00    -0.646 OA
ATOM     78  OXT ASP d   1      63.531   9.739  24.647  0.00  0.00    -0.646 OA
ENDBRANCH  74  76
BRANCH  74  79
ATOM     79  CB  ASP d   1      65.794  11.394  24.944  0.00  0.00     0.044 C 
ATOM     80  H58 ASP d   1      66.502  11.696  24.158  0.00  0.00     0.053 H 
ATOM     81  H59 ASP d   1      65.723  10.297  24.972  0.00  0.00     0.053 H 
BRANCH  79  82
ATOM     82  CG  ASP d   1      66.317  11.885  26.289  0.00  0.00     0.175 C 
ATOM     83  OD1 ASP d   1      66.589  13.099  26.411  0.00  0.00    -0.648 OA
ATOM     84  OD2 ASP d   1      66.455  11.065  27.223  0.00  0.00    -0.648 OA
ENDBRANCH  79  82
ENDBRANCH  74  79
ENDBRANCH  72  74
ENDBRANCH  68  70
BRANCH  68  85
ATOM     85  CB  VAL d   1      62.535  15.693  26.181  0.00  0.00    -0.033 C 
ATOM     86  H49 VAL d   1      62.237  14.678  26.483  0.00  0.00     0.042 H 
BRANCH  85  87
ATOM     87  CG1 VAL d   1      62.560  16.584  27.415  0.00  0.00    -0.071 C 
ATOM     88  H50 VAL d   1      61.555  16.622  27.860  0.00  0.00     0.028 H 
ATOM     89  H51 VAL d   1      62.873  17.599  27.128  0.00  0.00     0.028 H 
ATOM     90  H52 VAL d   1      63.270  16.175  28.149  0.00  0.00     0.028 H 
ENDBRANCH  85  87
BRANCH  85  91
ATOM     91  CG2 VAL d   1      61.534  16.211  25.160  0.00  0.00    -0.071 C 
ATOM     92  H53 VAL d   1      61.534  15.552  24.279  0.00  0.00     0.028 H 
ATOM     93  H54 VAL d   1      61.815  17.230  24.855  0.00  0.00     0.028 H 
ATOM     94  H55 VAL d   1      60.529  16.226  25.607  0.00  0.00     0.028 H 
ENDBRANCH  85  91
ENDBRANCH  68  85
ENDBRANCH  66  68
ENDBRANCH  62  64
BRANCH  62  95
ATOM     95  CB  GLU d   1      66.825  18.731  23.366  0.00  0.00    -0.029 C 
ATOM     96  H43 GLU d   1      67.008  19.761  23.026  0.00  0.00     0.037 H 
ATOM     97  H44 GLU d   1      66.384  18.147  22.545  0.00  0.00     0.037 H 
BRANCH  95  98
ATOM     98  CG  GLU d   1      68.177  18.107  23.707  0.00  0.00     0.018 C 
ATOM     99  H45 GLU d   1      68.015  17.068  24.031  0.00  0.00     0.049 H 
ATOM    100  H46 GLU d   1      68.634  18.680  24.527  0.00  0.00     0.049 H 
BRANCH  98 101
ATOM    101  CD  GLU d   1      69.138  18.106  22.511  0.00  0.00     0.172 C 
ATOM    102  OE1 GLU d   1      69.393  19.193  21.939  0.00  0.00    -0.648 OA
ATOM    103  OE2 GLU d   1      69.638  17.020  22.145  0.00  0.00    -0.648 OA
ENDBRANCH  98 101
ENDBRANCH  95  98
ENDBRANCH  62  95
ENDBRANCH  60  62
ENDBRANCH  56  58
BRANCH  56 104
ATOM    104  CB  GLU d   1      67.152  23.103  26.611  0.00  0.00    -0.029 C 
ATOM    105  H37 GLU d   1      66.288  23.537  26.087  0.00  0.00     0.037 H 
ATOM    106  H38 GLU d   1      68.047  23.191  25.978  0.00  0.00     0.037 H 
BRANCH 104 107
ATOM    107  CG  GLU d   1      67.387  23.891  27.892  0.00  0.00     0.018 C 
ATOM    108  H39 GLU d   1      67.782  24.883  27.627  0.00  0.00     0.049 H 
ATOM    109  H40 GLU d   1      68.126  23.354  28.505  0.00  0.00     0.049 H 
BRANCH 107 110
ATOM    110  CD  GLU d   1      66.118  24.077  28.713  0.00  0.00     0.172 C 
ATOM    111  OE1 GLU d   1      65.246  24.860  28.275  0.00  0.00    -0.648 OA
ATOM    112  OE2 GLU d   1      65.990  23.442  29.787  0.00  0.00    -0.648 OA
ENDBRANCH 107 110
ENDBRANCH 104 107
ENDBRANCH  56 104
ENDBRANCH  54  56
ENDBRANCH   1  52
BRANCH   1 113
ATOM    113  CB  MET d   1      70.397  20.527  28.875  0.00  0.00    -0.030 C 
ATOM    114  H28 MET d   1      69.444  20.310  29.380  0.00  0.00     0.037 H 
ATOM    115  H29 MET d   1      70.567  21.614  28.865  0.00  0.00     0.037 H 
BRANCH 113 116
ATOM    116  CG  MET d   1      71.529  19.864  29.666  0.00  0.00    -0.021 C 
ATOM    117  H30 MET d   1      71.523  20.260  30.692  0.00  0.00     0.049 H 
ATOM    118  H31 MET d   1      72.487  20.107  29.184  0.00  0.00     0.049 H 
BRANCH 116 119
ATOM    119  SD  MET d   1      71.352  18.071  29.735  0.00  0.00    -0.173 SA
BRANCH 119 120
ATOM    120  CE  MET d   1      71.908  17.687  31.386  0.00  0.00    -0.035 C 
ATOM    121  H32 MET d   1      71.845  16.601  31.551  0.00  0.00     0.041 H 
ATOM    122  H33 MET d   1      71.271  18.206  32.117  0.00  0.00     0.041 H 
ATOM    123  H34 MET d   1      72.950  18.017  31.508  0.00  0.00     0.041 H 
ENDBRANCH 119 120
ENDBRANCH 116 119
ENDBRANCH 113 116
ENDBRANCH   1 113
TORSDOF 38
