REMARK WARNING: 32 MAX_TORS EXCEEDED!!!
REMARK  59 active torsions:
REMARK  status: ('A' for Active; 'I' for Inactive)
REMARK    1  A    between atoms: N_1  and  CA_2 
REMARK    2  A    between atoms: CA_2  and  C_3 
REMARK       I    between atoms: C_3  and  N_5 
REMARK    3  A    between atoms: N_5  and  CA_6 
REMARK    4  A    between atoms: CA_6  and  C_7 
REMARK       I    between atoms: C_7  and  N_9 
REMARK    5  A    between atoms: N_9  and  CA_10 
REMARK    6  A    between atoms: CA_10  and  C_11 
REMARK    7  A    between atoms: CA_10  and  CB_13 
REMARK       I    between atoms: C_11  and  N_15 
REMARK    8  A    between atoms: CB_13  and  OG_14 
REMARK    9  A    between atoms: N_15  and  CA_16 
REMARK   10  A    between atoms: CA_16  and  C_17 
REMARK   11  A    between atoms: CA_16  and  CB_19 
REMARK       I    between atoms: C_17  and  N_22 
REMARK   12  A    between atoms: CB_19  and  CG1_20 
REMARK   13  A    between atoms: CB_19  and  CG2_21 
REMARK   14  A    between atoms: N_22  and  CA_23 
REMARK   15  A    between atoms: CA_23  and  C_24 
REMARK   16  A    between atoms: CA_23  and  CB_26 
REMARK       I    between atoms: C_24  and  N_29 
REMARK   17  A    between atoms: CB_26  and  CG1_27 
REMARK   18  A    between atoms: CB_26  and  CG2_28 
REMARK   19  A    between atoms: N_29  and  CA_30 
REMARK   20  A    between atoms: CA_30  and  C_31 
REMARK   21  A    between atoms: CA_30  and  CB_33 
REMARK       I    between atoms: C_31  and  N_37 
REMARK   22  A    between atoms: CB_33  and  CG1_34 
REMARK   23  A    between atoms: CB_33  and  CG2_35 
REMARK   24  A    between atoms: CG1_34  and  CD1_36 
REMARK   25  A    between atoms: N_37  and  CA_38 
REMARK   26  A    between atoms: CA_38  and  C_39 
REMARK   27  A    between atoms: CA_38  and  CB_41 
REMARK       I    between atoms: C_39  and  N_44 
REMARK   28  A    between atoms: CB_41  and  CG1_42 
REMARK   29  A    between atoms: CB_41  and  CG2_43 
REMARK   30  A    between atoms: N_44  and  CA_45 
REMARK   31  A    between atoms: CA_45  and  C_46 
REMARK       I    between atoms: C_46  and  N_48 
REMARK   32  A    between atoms: N_48  and  CA_49 
REMARK   33  A    between atoms: CA_49  and  C_50 
REMARK   34  A    between atoms: CA_49  and  CB_52 
REMARK       I    between atoms: C_50  and  N_59 
REMARK   35  A    between atoms: CB_52  and  CG_53 
REMARK   36  A    between atoms: CG_53  and  CD_54 
REMARK   37  A    between atoms: CD_54  and  NE_55 
REMARK       I    between atoms: NE_55  and  CZ_56 
REMARK       I    between atoms: CZ_56  and  NH1_57 
REMARK   38  A    between atoms: N_59  and  CA_60 
REMARK   39  A    between atoms: CA_60  and  C_61 
REMARK   40  A    between atoms: CA_60  and  CB_63 
REMARK       I    between atoms: C_61  and  N_67 
REMARK   41  A    between atoms: CB_63  and  CG1_64 
REMARK   42  A    between atoms: CB_63  and  CG2_65 
REMARK   43  A    between atoms: CG1_64  and  CD1_66 
REMARK   44  A    between atoms: N_67  and  CA_68 
REMARK   45  A    between atoms: CA_68  and  C_69 
REMARK   46  A    between atoms: CA_68  and  CB_71 
REMARK       I    between atoms: C_69  and  N_75 
REMARK   47  A    between atoms: CB_71  and  CG1_72 
REMARK   48  A    between atoms: CB_71  and  CG2_73 
REMARK   49  A    between atoms: CG1_72  and  CD1_74 
REMARK   50  A    between atoms: N_75  and  CA_76 
REMARK   51  A    between atoms: CA_76  and  C_77 
REMARK   52  A    between atoms: CA_76  and  CB_79 
REMARK       I    between atoms: C_77  and  N_83 
REMARK   53  A    between atoms: CB_79  and  CG_80 
REMARK   54  A    between atoms: CG_80  and  CD1_81 
REMARK   55  A    between atoms: CG_80  and  CD2_82 
REMARK   56  A    between atoms: N_83  and  CA_84 
REMARK   57  A    between atoms: CA_84  and  C_85 
REMARK   58  A    between atoms: CA_84  and  CB_87 
REMARK   59  A    between atoms: CB_87  and  OG_88 
ROOT
ATOM      1  CA  GLY d   1      78.144  16.381  12.614  0.00  0.00     0.069 C 
ATOM      2  H53 GLY d   1      77.836  16.466  11.562  0.00  0.00     0.078 H 
ATOM      3  H54 GLY d   1      79.094  16.915  12.762  0.00  0.00     0.078 H 
ENDROOT
BRANCH   1   4
ATOM      4  N   GLY d   1      78.319  14.980  12.954  0.00  0.00    -0.351 N 
ATOM      5  C   VAL d   1      79.207  14.215  12.333  0.00  0.00     0.241 C 
ATOM      6  O   VAL d   1      79.961  14.648  11.469  0.00  0.00    -0.271 OA
ATOM      7  H52 GLY d   1      77.754  14.581  13.676  0.00  0.00     0.163 HD
BRANCH   5   8
ATOM      8  CA  VAL d   1      79.223  12.717  12.717  0.00  0.00     0.092 C 
ATOM      9  H44 VAL d   1      80.225  12.528  13.130  0.00  0.00     0.088 H 
BRANCH   8  10
ATOM     10  N   VAL d   1      78.286  12.309  13.760  0.00  0.00    -0.346 N 
ATOM     11  C   ILE d   1      78.674  12.061  15.008  0.00  0.00     0.241 C 
ATOM     12  O   ILE d   1      79.869  12.070  15.366  0.00  0.00    -0.271 OA
ATOM     13  H43 VAL d   1      77.318  12.213  13.528  0.00  0.00     0.163 HD
BRANCH  11  14
ATOM     14  CA  ILE d   1      77.567  11.685  15.983  0.00  0.00     0.092 C 
ATOM     15  H33 ILE d   1      76.583  11.765  15.498  0.00  0.00     0.088 H 
BRANCH  14  16
ATOM     16  N   ILE d   1      77.792  10.319  16.427  0.00  0.00    -0.346 N 
ATOM     17  C   VAL d   1      77.482   9.307  15.630  0.00  0.00     0.241 C 
ATOM     18  O   VAL d   1      76.926   9.470  14.552  0.00  0.00    -0.271 OA
ATOM     19  H32 ILE d   1      78.180  10.144  17.332  0.00  0.00     0.163 HD
BRANCH  17  20
ATOM     20  CA  VAL d   1      77.887   7.901  16.085  0.00  0.00     0.092 C 
ATOM     21  H24 VAL d   1      78.190   7.935  17.142  0.00  0.00     0.088 H 
BRANCH  20  22
ATOM     22  N   VAL d   1      76.785   6.949  15.950  0.00  0.00    -0.346 N 
ATOM     23  C   VAL d   1      76.399   6.203  16.978  0.00  0.00     0.241 C 
ATOM     24  O   VAL d   1      76.846   6.346  18.124  0.00  0.00    -0.271 OA
ATOM     25  H23 VAL d   1      76.316   6.859  15.072  0.00  0.00     0.163 HD
BRANCH  23  26
ATOM     26  CA  VAL d   1      75.341   5.140  16.688  0.00  0.00     0.092 C 
ATOM     27  H15 VAL d   1      75.375   4.845  15.629  0.00  0.00     0.088 H 
BRANCH  26  28
ATOM     28  N   VAL d   1      75.662   3.997  17.532  0.00  0.00    -0.346 N 
ATOM     29  C   SER d   1      76.692   3.211  17.244  0.00  0.00     0.243 C 
ATOM     30  O   SER d   1      77.279   3.240  16.163  0.00  0.00    -0.271 OA
ATOM     31  H14 VAL d   1      75.101   3.803  18.337  0.00  0.00     0.163 HD
BRANCH  29  32
ATOM     32  CA  SER d   1      77.116   2.247  18.336  0.00  0.00     0.109 C 
ATOM     33  H10 SER d   1      76.224   1.871  18.859  0.00  0.00     0.090 H 
BRANCH  32  34
ATOM     34  N   SER d   1      77.830   1.120  17.758  0.00  0.00    -0.344 N 
ATOM     35  C   GLY d   1      77.211   0.160  17.075  0.00  0.00     0.236 C 
ATOM     36  O   GLY d   1      75.984   0.090  16.959  0.00  0.00    -0.272 OA
ATOM     37  H9  SER d   1      78.821   1.064  17.878  0.00  0.00     0.163 HD
BRANCH  35  38
ATOM     38  CA  GLY d   1      78.102  -0.890  16.438  0.00  0.00     0.069 C 
ATOM     39  H7  GLY d   1      78.650  -0.434  15.601  0.00  0.00     0.078 H 
ATOM     40  H8  GLY d   1      78.818  -1.255  17.189  0.00  0.00     0.078 H 
BRANCH  38  41
ATOM     41  N   GLY d   1      77.327  -2.011  15.940  0.00  0.00    -0.351 N 
ATOM     42  C   LYS d   1      76.916  -2.976  16.753  0.00  0.00     0.243 C 
ATOM     43  O   LYS d   1      77.201  -3.006  17.954  0.00  0.00    -0.272 OA
ATOM     44  H6  GLY d   1      77.099  -2.057  14.967  0.00  0.00     0.163 HD
BRANCH  42  45
ATOM     45  CA  LYS d   1      76.076  -4.066  16.118  0.00  0.00     0.152 C 
ATOM     46  H4  LYS d   1      76.636  -5.012  16.152  0.00  0.00     0.090 H 
ATOM     47  H5  LYS d   1      75.141  -4.173  16.688  0.00  0.00     0.090 H 
BRANCH  45  48
ATOM     48  N   LYS d   1      75.752  -3.760  14.735  0.00  0.00    -0.071 N 
ATOM     49  H1  LYS d   1      75.195  -4.505  14.348  0.00  0.00     0.274 HD
ATOM     50  H2  LYS d   1      76.603  -3.666  14.203  0.00  0.00     0.274 HD
ATOM     51  H3  LYS d   1      75.233  -2.897  14.694  0.00  0.00     0.274 HD
ENDBRANCH  45  48
ENDBRANCH  42  45
ENDBRANCH  38  41
ENDBRANCH  35  38
ENDBRANCH  32  34
BRANCH  32  52
ATOM     52  CB  SER d   1      77.999   3.011  19.330  0.00  0.00     0.044 C 
ATOM     53  H11 SER d   1      77.476   3.929  19.636  0.00  0.00     0.077 H 
ATOM     54  H12 SER d   1      78.944   3.276  18.834  0.00  0.00     0.077 H 
BRANCH  52  55
ATOM     55  OG  SER d   1      78.289   2.246  20.484  0.00  0.00    -0.398 OA
ATOM     56  H13 SER d   1      78.747   1.453  20.230  0.00  0.00     0.209 HD
ENDBRANCH  52  55
ENDBRANCH  32  52
ENDBRANCH  29  32
ENDBRANCH  26  28
BRANCH  26  57
ATOM     57  CB  VAL d   1      73.954   5.705  17.014  0.00  0.00    -0.033 C 
ATOM     58  H16 VAL d   1      73.936   5.997  18.074  0.00  0.00     0.042 H 
BRANCH  57  59
ATOM     59  CG1 VAL d   1      73.669   6.966  16.164  0.00  0.00    -0.071 C 
ATOM     60  H17 VAL d   1      72.671   7.357  16.411  0.00  0.00     0.028 H 
ATOM     61  H18 VAL d   1      73.706   6.705  15.096  0.00  0.00     0.028 H 
ATOM     62  H19 VAL d   1      74.427   7.733  16.380  0.00  0.00     0.028 H 
ENDBRANCH  57  59
BRANCH  57  63
ATOM     63  CG2 VAL d   1      72.896   4.625  16.798  0.00  0.00    -0.071 C 
ATOM     64  H20 VAL d   1      73.135   3.748  17.418  0.00  0.00     0.028 H 
ATOM     65  H21 VAL d   1      72.883   4.331  15.738  0.00  0.00     0.028 H 
ATOM     66  H22 VAL d   1      71.908   5.017  17.082  0.00  0.00     0.028 H 
ENDBRANCH  57  63
ENDBRANCH  26  57
ENDBRANCH  23  26
ENDBRANCH  20  22
BRANCH  20  67
ATOM     67  CB  VAL d   1      79.092   7.476  15.220  0.00  0.00    -0.033 C 
ATOM     68  H25 VAL d   1      78.807   7.572  14.162  0.00  0.00     0.042 H 
BRANCH  67  69
ATOM     69  CG1 VAL d   1      80.273   8.404  15.485  0.00  0.00    -0.071 C 
ATOM     70  H26 VAL d   1      81.128   8.095  14.866  0.00  0.00     0.028 H 
ATOM     71  H27 VAL d   1      80.552   8.349  16.548  0.00  0.00     0.028 H 
ATOM     72  H28 VAL d   1      79.991   9.437  15.233  0.00  0.00     0.028 H 
ENDBRANCH  67  69
BRANCH  67  73
ATOM     73  CG2 VAL d   1      79.480   6.010  15.478  0.00  0.00    -0.071 C 
ATOM     74  H29 VAL d   1      78.614   5.361  15.281  0.00  0.00     0.028 H 
ATOM     75  H30 VAL d   1      79.795   5.893  16.526  0.00  0.00     0.028 H 
ATOM     76  H31 VAL d   1      80.309   5.728  14.812  0.00  0.00     0.028 H 
ENDBRANCH  67  73
ENDBRANCH  20  67
ENDBRANCH  17  20
ENDBRANCH  14  16
BRANCH  14  77
ATOM     77  CB  ILE d   1      77.648  12.644  17.164  0.00  0.00    -0.030 C 
ATOM     78  H34 ILE d   1      78.609  12.482  17.673  0.00  0.00     0.043 H 
BRANCH  77  79
ATOM     79  CG1 ILE d   1      76.532  12.342  18.166  0.00  0.00    -0.063 C 
ATOM     80  H35 ILE d   1      76.585  11.277  18.436  0.00  0.00     0.033 H 
ATOM     81  H36 ILE d   1      75.566  12.550  17.684  0.00  0.00     0.033 H 
BRANCH  79  82
ATOM     82  CD1 ILE d   1      76.621  13.163  19.436  0.00  0.00    -0.076 C 
ATOM     83  H40 ILE d   1      75.791  12.894  20.106  0.00  0.00     0.027 H 
ATOM     84  H41 ILE d   1      76.558  14.232  19.186  0.00  0.00     0.027 H 
ATOM     85  H42 ILE d   1      77.578  12.959  19.938  0.00  0.00     0.027 H 
ENDBRANCH  79  82
ENDBRANCH  77  79
BRANCH  77  86
ATOM     86  CG2 ILE d   1      77.618  14.102  16.669  0.00  0.00    -0.071 C 
ATOM     87  H37 ILE d   1      78.438  14.263  15.954  0.00  0.00     0.028 H 
ATOM     88  H38 ILE d   1      77.738  14.782  17.525  0.00  0.00     0.028 H 
ATOM     89  H39 ILE d   1      76.656  14.302  16.174  0.00  0.00     0.028 H 
ENDBRANCH  77  86
ENDBRANCH  14  77
ENDBRANCH  11  14
ENDBRANCH   8  10
BRANCH   8  90
ATOM     90  CB  VAL d   1      79.087  11.835  11.480  0.00  0.00    -0.033 C 
ATOM     91  H45 VAL d   1      79.909  12.080  10.791  0.00  0.00     0.042 H 
BRANCH  90  92
ATOM     92  CG1 VAL d   1      79.232  10.365  11.897  0.00  0.00    -0.071 C 
ATOM     93  H46 VAL d   1      79.135   9.721  11.010  0.00  0.00     0.028 H 
ATOM     94  H47 VAL d   1      78.445  10.110  12.623  0.00  0.00     0.028 H 
ATOM     95  H48 VAL d   1      80.219  10.210  12.357  0.00  0.00     0.028 H 
ENDBRANCH  90  92
BRANCH  90  96
ATOM     96  CG2 VAL d   1      77.778  12.087  10.745  0.00  0.00    -0.071 C 
ATOM     97  H49 VAL d   1      77.713  13.149  10.465  0.00  0.00     0.028 H 
ATOM     98  H50 VAL d   1      76.934  11.829  11.401  0.00  0.00     0.028 H 
ATOM     99  H51 VAL d   1      77.741  11.465   9.838  0.00  0.00     0.028 H 
ENDBRANCH  90  96
ENDBRANCH   8  90
ENDBRANCH   5   8
ENDBRANCH   1   4
BRANCH   1 100
ATOM    100  C   GLY d   1      77.081  16.992  13.500  0.00  0.00     0.236 C 
ATOM    101  O   GLY d   1      76.478  16.309  14.326  0.00  0.00    -0.272 OA
ATOM    102  N   ARG d   1      76.867  18.294  13.358  0.00  0.00    -0.346 N 
ATOM    103  H55 ARG d   1      77.442  18.828  12.738  0.00  0.00     0.163 HD
BRANCH 102 104
ATOM    104  CA  ARG d   1      75.810  18.943  14.092  0.00  0.00     0.089 C 
ATOM    105  H56 ARG d   1      75.006  18.206  14.237  0.00  0.00     0.087 H 
BRANCH 104 106
ATOM    106  C   ARG d   1      75.246  20.104  13.307  0.00  0.00     0.241 C 
ATOM    107  O   ARG d   1      75.857  20.598  12.363  0.00  0.00    -0.271 OA
ATOM    108  N   ILE d   1      74.065  20.530  13.712  0.00  0.00    -0.346 N 
ATOM    109  H68 ILE d   1      73.621  20.069  14.480  0.00  0.00     0.163 HD
BRANCH 108 110
ATOM    110  CA  ILE d   1      73.390  21.648  13.076  0.00  0.00     0.092 C 
ATOM    111  H69 ILE d   1      74.050  22.090  12.316  0.00  0.00     0.088 H 
BRANCH 110 112
ATOM    112  C   ILE d   1      73.126  22.675  14.164  0.00  0.00     0.241 C 
ATOM    113  O   ILE d   1      72.634  22.332  15.242  0.00  0.00    -0.271 OA
ATOM    114  N   ILE d   1      73.523  23.915  13.899  0.00  0.00    -0.346 N 
ATOM    115  H79 ILE d   1      73.924  24.108  13.004  0.00  0.00     0.163 HD
BRANCH 114 116
ATOM    116  CA  ILE d   1      73.399  25.007  14.857  0.00  0.00     0.092 C 
ATOM    117  H80 ILE d   1      73.198  24.603  15.860  0.00  0.00     0.088 H 
BRANCH 116 118
ATOM    118  C   ILE d   1      72.269  25.923  14.404  0.00  0.00     0.241 C 
ATOM    119  O   ILE d   1      72.287  26.406  13.267  0.00  0.00    -0.271 OA
ATOM    120  N   LEU d   1      71.310  26.166  15.292  0.00  0.00    -0.346 N 
ATOM    121  H90 LEU d   1      71.401  25.789  16.214  0.00  0.00     0.163 HD
BRANCH 120 122
ATOM    122  CA  LEU d   1      70.124  26.966  14.972  0.00  0.00     0.089 C 
ATOM    123  H91 LEU d   1      69.998  26.978  13.879  0.00  0.00     0.087 H 
BRANCH 122 124
ATOM    124  C   LEU d   1      70.261  28.403  15.464  0.00  0.00     0.241 C 
ATOM    125  O   LEU d   1      70.803  28.638  16.545  0.00  0.00    -0.271 OA
ATOM    126  N   SER d   1      69.780  29.359  14.668  0.00  0.00    -0.343 N 
ATOM    127 1H10 SER d   1      69.401  29.108  13.777  0.00  0.00     0.163 HD
BRANCH 126 128
ATOM    128  CA  SER d   1      69.793  30.767  15.067  0.00  0.00     0.116 C 
ATOM    129 2H10 SER d   1      70.155  30.830  16.104  0.00  0.00     0.093 H 
BRANCH 128 130
ATOM    130  C   SER d   1      68.387  31.351  15.008  0.00  0.00     0.198 C 
ATOM    131  O   SER d   1      67.942  32.065  15.946  0.00  0.00    -0.646 OA
ATOM    132  O   SER d   1      67.659  31.117  14.007  0.00  0.00    -0.646 OA
ENDBRANCH 128 130
BRANCH 128 133
ATOM    133  CB  SER d   1      70.732  31.579  14.176  0.00  0.00     0.045 C 
ATOM    134 3H10 SER d   1      70.331  31.597  13.152  0.00  0.00     0.077 H 
ATOM    135 4H10 SER d   1      71.725  31.106  14.173  0.00  0.00     0.077 H 
BRANCH 133 136
ATOM    136  OG  SER d   1      70.853  32.907  14.650  0.00  0.00    -0.398 OA
ATOM    137 5H10 SER d   1      71.440  33.392  14.082  0.00  0.00     0.209 HD
ENDBRANCH 133 136
ENDBRANCH 128 133
ENDBRANCH 126 128
ENDBRANCH 122 124
BRANCH 122 138
ATOM    138  CB  LEU d   1      68.883  26.350  15.608  0.00  0.00    -0.035 C 
ATOM    139  H92 LEU d   1      68.023  26.981  15.340  0.00  0.00     0.037 H 
ATOM    140  H93 LEU d   1      69.024  26.366  16.699  0.00  0.00     0.037 H 
BRANCH 138 141
ATOM    141  CG  LEU d   1      68.549  24.922  15.208  0.00  0.00    -0.059 C 
ATOM    142  H94 LEU d   1      69.338  24.258  15.591  0.00  0.00     0.038 H 
BRANCH 141 143
ATOM    143  CD1 LEU d   1      67.224  24.498  15.824  0.00  0.00    -0.073 C 
ATOM    144  H95 LEU d   1      66.996  23.464  15.526  0.00  0.00     0.028 H 
ATOM    145  H96 LEU d   1      66.425  25.166  15.471  0.00  0.00     0.028 H 
ATOM    146  H97 LEU d   1      67.294  24.557  16.920  0.00  0.00     0.028 H 
ENDBRANCH 141 143
BRANCH 141 147
ATOM    147  CD2 LEU d   1      68.510  24.797  13.703  0.00  0.00    -0.073 C 
ATOM    148  H98 LEU d   1      69.478  25.109  13.284  0.00  0.00     0.028 H 
ATOM    149  H99 LEU d   1      67.713  25.440  13.302  0.00  0.00     0.028 H 
ATOM    150 0H10 LEU d   1      68.311  23.751  13.427  0.00  0.00     0.028 H 
ENDBRANCH 141 147
ENDBRANCH 138 141
ENDBRANCH 122 138
ENDBRANCH 120 122
ENDBRANCH 116 118
BRANCH 116 151
ATOM    151  CB  ILE d   1      74.666  25.871  14.875  0.00  0.00    -0.030 C 
ATOM    152  H81 ILE d   1      74.781  26.318  13.877  0.00  0.00     0.043 H 
BRANCH 151 153
ATOM    153  CG1 ILE d   1      75.917  25.026  15.150  0.00  0.00    -0.063 C 
ATOM    154  H82 ILE d   1      76.804  25.649  14.964  0.00  0.00     0.033 H 
ATOM    155  H83 ILE d   1      75.918  24.171  14.458  0.00  0.00     0.033 H 
BRANCH 153 156
ATOM    156  CD1 ILE d   1      75.993  24.503  16.544  0.00  0.00    -0.076 C 
ATOM    157  H87 ILE d   1      76.912  23.910  16.664  0.00  0.00     0.027 H 
ATOM    158  H88 ILE d   1      75.118  23.867  16.745  0.00  0.00     0.027 H 
ATOM    159  H89 ILE d   1      76.005  25.345  17.252  0.00  0.00     0.027 H 
ENDBRANCH 153 156
ENDBRANCH 151 153
BRANCH 151 160
ATOM    160  CG2 ILE d   1      74.522  27.020  15.888  0.00  0.00    -0.071 C 
ATOM    161  H84 ILE d   1      73.616  27.600  15.658  0.00  0.00     0.028 H 
ATOM    162  H85 ILE d   1      75.403  27.676  15.826  0.00  0.00     0.028 H 
ATOM    163  H86 ILE d   1      74.444  26.605  16.904  0.00  0.00     0.028 H 
ENDBRANCH 151 160
ENDBRANCH 116 151
ENDBRANCH 114 116
ENDBRANCH 110 112
BRANCH 110 164
ATOM    164  CB  ILE d   1      72.092  21.182  12.380  0.00  0.00    -0.030 C 
ATOM    165  H70 ILE d   1      71.564  20.500  13.062  0.00  0.00     0.043 H 
BRANCH 164 166
ATOM    166  CG1 ILE d   1      72.436  20.407  11.103  0.00  0.00    -0.063 C 
ATOM    167  H71 ILE d   1      73.257  19.710  11.327  0.00  0.00     0.033 H 
ATOM    168  H72 ILE d   1      72.763  21.124  10.335  0.00  0.00     0.033 H 
BRANCH 166 169
ATOM    169  CD1 ILE d   1      71.269  19.616  10.557  0.00  0.00    -0.076 C 
ATOM    170  H76 ILE d   1      71.580  19.085   9.645  0.00  0.00     0.027 H 
ATOM    171  H77 ILE d   1      70.442  20.300  10.319  0.00  0.00     0.027 H 
ATOM    172  H78 ILE d   1      70.936  18.887  11.310  0.00  0.00     0.027 H 
ENDBRANCH 166 169
ENDBRANCH 164 166
BRANCH 164 173
ATOM    173  CG2 ILE d   1      71.157  22.370  12.085  0.00  0.00    -0.071 C 
ATOM    174  H73 ILE d   1      70.932  22.901  13.022  0.00  0.00     0.028 H 
ATOM    175  H74 ILE d   1      70.222  21.999  11.641  0.00  0.00     0.028 H 
ATOM    176  H75 ILE d   1      71.649  23.058  11.382  0.00  0.00     0.028 H 
ENDBRANCH 164 173
ENDBRANCH 110 164
ENDBRANCH 108 110
ENDBRANCH 104 106
BRANCH 104 177
ATOM    177  CB  ARG d   1      76.263  19.421  15.480  0.00  0.00    -0.036 C 
ATOM    178  H57 ARG d   1      76.741  18.573  15.993  0.00  0.00     0.036 H 
ATOM    179  H58 ARG d   1      75.370  19.732  16.041  0.00  0.00     0.036 H 
BRANCH 177 180
ATOM    180  CG  ARG d   1      77.236  20.572  15.477  0.00  0.00    -0.048 C 
ATOM    181  H59 ARG d   1      77.188  21.094  16.444  0.00  0.00     0.035 H 
ATOM    182  H60 ARG d   1      76.973  21.271  14.670  0.00  0.00     0.035 H 
BRANCH 180 183
ATOM    183  CD  ARG d   1      78.622  20.059  15.257  0.00  0.00     0.009 C 
ATOM    184  H61 ARG d   1      78.736  19.778  14.200  0.00  0.00     0.064 H 
ATOM    185  H62 ARG d   1      78.781  19.174  15.891  0.00  0.00     0.064 H 
BRANCH 183 186
ATOM    186  NE  ARG d   1      79.618  21.062  15.589  0.00  0.00    -0.227 N 
ATOM    187  CZ  ARG d   1      80.465  20.985  16.612  0.00  0.00     0.665 C 
ATOM    188  NH1 ARG d   1      80.456  19.942  17.437  0.00  0.00    -0.235 N 
ATOM    189  NH2 ARG d   1      81.324  21.965  16.805  0.00  0.00    -0.235 N 
ATOM    190  H64 ARG d   1      81.120  19.901  18.223  0.00  0.00     0.174 HD
ATOM    191  H65 ARG d   1      79.785  19.175  17.290  0.00  0.00     0.174 HD
ATOM    192  H66 ARG d   1      81.334  22.774  16.168  0.00  0.00     0.174 HD
ATOM    193  H67 ARG d   1      81.986  21.922  17.593  0.00  0.00     0.174 HD
ATOM    194  H63 ARG d   1      79.673  21.896  14.987  0.00  0.00     0.177 HD
ENDBRANCH 183 186
ENDBRANCH 180 183
ENDBRANCH 177 180
ENDBRANCH 104 177
ENDBRANCH 102 104
ENDBRANCH   1 100
TORSDOF 59
