REMARK WARNING: 32 MAX_TORS EXCEEDED!!!
REMARK  59 active torsions:
REMARK  status: ('A' for Active; 'I' for Inactive)
REMARK    1  A    between atoms: N_1  and  CA_2 
REMARK    2  A    between atoms: CA_2  and  C_3 
REMARK       I    between atoms: C_3  and  N_5 
REMARK    3  A    between atoms: N_5  and  CA_6 
REMARK    4  A    between atoms: CA_6  and  C_7 
REMARK       I    between atoms: C_7  and  N_9 
REMARK    5  A    between atoms: N_9  and  CA_10 
REMARK    6  A    between atoms: CA_10  and  C_11 
REMARK    7  A    between atoms: CA_10  and  CB_13 
REMARK       I    between atoms: C_11  and  N_15 
REMARK    8  A    between atoms: CB_13  and  OG_14 
REMARK    9  A    between atoms: N_15  and  CA_16 
REMARK   10  A    between atoms: CA_16  and  C_17 
REMARK   11  A    between atoms: CA_16  and  CB_19 
REMARK       I    between atoms: C_17  and  N_22 
REMARK   12  A    between atoms: CB_19  and  CG1_20 
REMARK   13  A    between atoms: CB_19  and  CG2_21 
REMARK   14  A    between atoms: N_22  and  CA_23 
REMARK   15  A    between atoms: CA_23  and  C_24 
REMARK   16  A    between atoms: CA_23  and  CB_26 
REMARK       I    between atoms: C_24  and  N_29 
REMARK   17  A    between atoms: CB_26  and  CG1_27 
REMARK   18  A    between atoms: CB_26  and  CG2_28 
REMARK   19  A    between atoms: N_29  and  CA_30 
REMARK   20  A    between atoms: CA_30  and  C_31 
REMARK   21  A    between atoms: CA_30  and  CB_33 
REMARK       I    between atoms: C_31  and  N_37 
REMARK   22  A    between atoms: CB_33  and  CG1_34 
REMARK   23  A    between atoms: CB_33  and  CG2_35 
REMARK   24  A    between atoms: CG1_34  and  CD1_36 
REMARK   25  A    between atoms: N_37  and  CA_38 
REMARK   26  A    between atoms: CA_38  and  C_39 
REMARK   27  A    between atoms: CA_38  and  CB_41 
REMARK       I    between atoms: C_39  and  N_44 
REMARK   28  A    between atoms: CB_41  and  CG1_42 
REMARK   29  A    between atoms: CB_41  and  CG2_43 
REMARK   30  A    between atoms: N_44  and  CA_45 
REMARK   31  A    between atoms: CA_45  and  C_46 
REMARK       I    between atoms: C_46  and  N_48 
REMARK   32  A    between atoms: N_48  and  CA_49 
REMARK   33  A    between atoms: CA_49  and  C_50 
REMARK   34  A    between atoms: CA_49  and  CB_52 
REMARK       I    between atoms: C_50  and  N_59 
REMARK   35  A    between atoms: CB_52  and  CG_53 
REMARK   36  A    between atoms: CG_53  and  CD_54 
REMARK   37  A    between atoms: CD_54  and  NE_55 
REMARK       I    between atoms: NE_55  and  CZ_56 
REMARK       I    between atoms: CZ_56  and  NH1_57 
REMARK   38  A    between atoms: N_59  and  CA_60 
REMARK   39  A    between atoms: CA_60  and  C_61 
REMARK   40  A    between atoms: CA_60  and  CB_63 
REMARK       I    between atoms: C_61  and  N_67 
REMARK   41  A    between atoms: CB_63  and  CG1_64 
REMARK   42  A    between atoms: CB_63  and  CG2_65 
REMARK   43  A    between atoms: CG1_64  and  CD1_66 
REMARK   44  A    between atoms: N_67  and  CA_68 
REMARK   45  A    between atoms: CA_68  and  C_69 
REMARK   46  A    between atoms: CA_68  and  CB_71 
REMARK       I    between atoms: C_69  and  N_75 
REMARK   47  A    between atoms: CB_71  and  CG1_72 
REMARK   48  A    between atoms: CB_71  and  CG2_73 
REMARK   49  A    between atoms: CG1_72  and  CD1_74 
REMARK   50  A    between atoms: N_75  and  CA_76 
REMARK   51  A    between atoms: CA_76  and  C_77 
REMARK   52  A    between atoms: CA_76  and  CB_79 
REMARK       I    between atoms: C_77  and  N_83 
REMARK   53  A    between atoms: CB_79  and  CG_80 
REMARK   54  A    between atoms: CG_80  and  CD1_81 
REMARK   55  A    between atoms: CG_80  and  CD2_82 
REMARK   56  A    between atoms: N_83  and  CA_84 
REMARK   57  A    between atoms: CA_84  and  C_85 
REMARK   58  A    between atoms: CA_84  and  CB_87 
REMARK   59  A    between atoms: CB_87  and  OG_88 
ROOT
ATOM      1  CA  GLY d   1      77.619  16.264  12.925  0.00  0.00     0.069 C 
ATOM      2  H53 GLY d   1      77.334  16.346  11.866  0.00  0.00     0.078 H 
ATOM      3  H54 GLY d   1      78.558  16.810  13.096  0.00  0.00     0.078 H 
ENDROOT
BRANCH   1   4
ATOM      4  N   GLY d   1      77.793  14.866  13.279  0.00  0.00    -0.351 N 
ATOM      5  C   VAL d   1      78.696  14.099  12.673  0.00  0.00     0.241 C 
ATOM      6  O   VAL d   1      79.462  14.530  11.802  0.00  0.00    -0.271 OA
ATOM      7  H52 GLY d   1      77.220  14.470  13.996  0.00  0.00     0.163 HD
BRANCH   5   8
ATOM      8  CA  VAL d   1      78.728  12.619  13.082  0.00  0.00     0.092 C 
ATOM      9  H44 VAL d   1      79.728  12.436  13.502  0.00  0.00     0.088 H 
BRANCH   8  10
ATOM     10  N   VAL d   1      77.779  12.244  14.119  0.00  0.00    -0.346 N 
ATOM     11  C   ILE d   1      78.124  12.028  15.388  0.00  0.00     0.241 C 
ATOM     12  O   ILE d   1      79.284  12.099  15.805  0.00  0.00    -0.271 OA
ATOM     13  H43 VAL d   1      76.817  12.143  13.866  0.00  0.00     0.163 HD
BRANCH  11  14
ATOM     14  CA  ILE d   1      76.988  11.632  16.321  0.00  0.00     0.092 C 
ATOM     15  H33 ILE d   1      76.029  11.688  15.785  0.00  0.00     0.088 H 
BRANCH  14  16
ATOM     16  N   ILE d   1      77.216  10.262  16.765  0.00  0.00    -0.346 N 
ATOM     17  C   VAL d   1      76.893   9.227  15.990  0.00  0.00     0.241 C 
ATOM     18  O   VAL d   1      76.256   9.346  14.933  0.00  0.00    -0.271 OA
ATOM     19  H32 ILE d   1      77.621  10.097  17.664  0.00  0.00     0.163 HD
BRANCH  17  20
ATOM     20  CA  VAL d   1      77.336   7.846  16.463  0.00  0.00     0.092 C 
ATOM     21  H24 VAL d   1      77.622   7.893  17.524  0.00  0.00     0.088 H 
BRANCH  20  22
ATOM     22  N   VAL d   1      76.244   6.893  16.306  0.00  0.00    -0.346 N 
ATOM     23  C   VAL d   1      75.787   6.155  17.315  0.00  0.00     0.241 C 
ATOM     24  O   VAL d   1      76.191   6.273  18.478  0.00  0.00    -0.271 OA
ATOM     25  H23 VAL d   1      75.822   6.790  15.405  0.00  0.00     0.163 HD
BRANCH  23  26
ATOM     26  CA  VAL d   1      74.714   5.118  16.963  0.00  0.00     0.092 C 
ATOM     27  H15 VAL d   1      74.754   4.894  15.887  0.00  0.00     0.088 H 
BRANCH  26  28
ATOM     28  N   VAL d   1      74.974   3.894  17.711  0.00  0.00    -0.346 N 
ATOM     29  C   SER d   1      76.112   3.231  17.542  0.00  0.00     0.243 C 
ATOM     30  O   SER d   1      76.819   3.361  16.543  0.00  0.00    -0.271 OA
ATOM     31  H14 VAL d   1      74.291   3.551  18.356  0.00  0.00     0.163 HD
BRANCH  29  32
ATOM     32  CA  SER d   1      76.506   2.274  18.655  0.00  0.00     0.109 C 
ATOM     33  H10 SER d   1      75.602   1.940  19.185  0.00  0.00     0.090 H 
BRANCH  32  34
ATOM     34  N   SER d   1      77.188   1.108  18.114  0.00  0.00    -0.344 N 
ATOM     35  C   GLY d   1      76.537   0.024  17.694  0.00  0.00     0.236 C 
ATOM     36  O   GLY d   1      75.317  -0.104  17.794  0.00  0.00    -0.272 OA
ATOM     37  H9  SER d   1      78.186   1.121  18.055  0.00  0.00     0.163 HD
BRANCH  35  38
ATOM     38  CA  GLY d   1      77.402  -1.093  17.110  0.00  0.00     0.069 C 
ATOM     39  H7  GLY d   1      78.311  -0.635  16.694  0.00  0.00     0.078 H 
ATOM     40  H8  GLY d   1      77.676  -1.773  17.930  0.00  0.00     0.078 H 
BRANCH  38  41
ATOM     41  N   GLY d   1      76.777  -1.885  16.060  0.00  0.00    -0.351 N 
ATOM     42  C   LYS d   1      76.168  -3.038  16.321  0.00  0.00     0.243 C 
ATOM     43  O   LYS d   1      76.119  -3.524  17.454  0.00  0.00    -0.272 OA
ATOM     44  H6  GLY d   1      76.806  -1.553  15.117  0.00  0.00     0.163 HD
BRANCH  42  45
ATOM     45  CA  LYS d   1      75.514  -3.746  15.144  0.00  0.00     0.152 C 
ATOM     46  H4  LYS d   1      75.295  -4.782  15.441  0.00  0.00     0.090 H 
ATOM     47  H5  LYS d   1      74.574  -3.227  14.906  0.00  0.00     0.090 H 
BRANCH  45  48
ATOM     48  N   LYS d   1      76.336  -3.777  13.946  0.00  0.00    -0.071 N 
ATOM     49  H1  LYS d   1      75.841  -4.259  13.212  0.00  0.00     0.274 HD
ATOM     50  H2  LYS d   1      77.199  -4.260  14.143  0.00  0.00     0.274 HD
ATOM     51  H3  LYS d   1      76.538  -2.834  13.652  0.00  0.00     0.274 HD
ENDBRANCH  45  48
ENDBRANCH  42  45
ENDBRANCH  38  41
ENDBRANCH  35  38
ENDBRANCH  32  34
BRANCH  32  52
ATOM     52  CB  SER d   1      77.410   3.036  19.629  0.00  0.00     0.044 C 
ATOM     53  H11 SER d   1      76.928   3.992  19.879  0.00  0.00     0.077 H 
ATOM     54  H12 SER d   1      78.373   3.229  19.134  0.00  0.00     0.077 H 
BRANCH  52  55
ATOM     55  OG  SER d   1      77.654   2.330  20.826  0.00  0.00    -0.398 OA
ATOM     56  H13 SER d   1      76.830   2.164  21.268  0.00  0.00     0.209 HD
ENDBRANCH  52  55
ENDBRANCH  32  52
ENDBRANCH  29  32
ENDBRANCH  26  28
BRANCH  26  57
ATOM     57  CB  VAL d   1      73.351   5.710  17.299  0.00  0.00    -0.033 C 
ATOM     58  H16 VAL d   1      73.339   5.981  18.365  0.00  0.00     0.042 H 
BRANCH  57  59
ATOM     59  CG1 VAL d   1      73.111   6.985  16.473  0.00  0.00    -0.071 C 
ATOM     60  H17 VAL d   1      72.125   7.404  16.723  0.00  0.00     0.028 H 
ATOM     61  H18 VAL d   1      73.144   6.739  15.401  0.00  0.00     0.028 H 
ATOM     62  H19 VAL d   1      73.892   7.724  16.704  0.00  0.00     0.028 H 
ENDBRANCH  57  59
BRANCH  57  63
ATOM     63  CG2 VAL d   1      72.261   4.679  17.056  0.00  0.00    -0.071 C 
ATOM     64  H20 VAL d   1      72.463   3.782  17.660  0.00  0.00     0.028 H 
ATOM     65  H21 VAL d   1      72.245   4.407  15.990  0.00  0.00     0.028 H 
ATOM     66  H22 VAL d   1      71.286   5.102  17.341  0.00  0.00     0.028 H 
ENDBRANCH  57  63
ENDBRANCH  26  57
ENDBRANCH  23  26
ENDBRANCH  20  22
BRANCH  20  67
ATOM     67  CB  VAL d   1      78.556   7.427  15.620  0.00  0.00    -0.033 C 
ATOM     68  H25 VAL d   1      78.237   7.339  14.571  0.00  0.00     0.042 H 
BRANCH  67  69
ATOM     69  CG1 VAL d   1      79.640   8.482  15.702  0.00  0.00    -0.071 C 
ATOM     70  H26 VAL d   1      80.503   8.169  15.096  0.00  0.00     0.028 H 
ATOM     71  H27 VAL d   1      79.953   8.606  16.749  0.00  0.00     0.028 H 
ATOM     72  H28 VAL d   1      79.251   9.438  15.320  0.00  0.00     0.028 H 
ENDBRANCH  67  69
BRANCH  67  73
ATOM     73  CG2 VAL d   1      79.092   6.069  16.073  0.00  0.00    -0.071 C 
ATOM     74  H29 VAL d   1      78.291   5.318  16.006  0.00  0.00     0.028 H 
ATOM     75  H30 VAL d   1      79.441   6.141  17.114  0.00  0.00     0.028 H 
ATOM     76  H31 VAL d   1      79.929   5.771  15.425  0.00  0.00     0.028 H 
ENDBRANCH  67  73
ENDBRANCH  20  67
ENDBRANCH  17  20
ENDBRANCH  14  16
BRANCH  14  77
ATOM     77  CB  ILE d   1      76.957  12.598  17.515  0.00  0.00    -0.030 C 
ATOM     78  H34 ILE d   1      77.871  12.452  18.110  0.00  0.00     0.043 H 
BRANCH  77  79
ATOM     79  CG1 ILE d   1      75.739  12.304  18.398  0.00  0.00    -0.063 C 
ATOM     80  H35 ILE d   1      75.642  11.213  18.503  0.00  0.00     0.033 H 
ATOM     81  H36 ILE d   1      74.844  12.705  17.899  0.00  0.00     0.033 H 
BRANCH  79  82
ATOM     82  CD1 ILE d   1      75.825  12.902  19.763  0.00  0.00    -0.076 C 
ATOM     83  H40 ILE d   1      74.919  12.648  20.332  0.00  0.00     0.027 H 
ATOM     84  H41 ILE d   1      75.911  13.995  19.680  0.00  0.00     0.027 H 
ATOM     85  H42 ILE d   1      76.709  12.503  20.283  0.00  0.00     0.027 H 
ENDBRANCH  79  82
ENDBRANCH  77  79
BRANCH  77  86
ATOM     86  CG2 ILE d   1      76.911  14.036  17.040  0.00  0.00    -0.071 C 
ATOM     87  H37 ILE d   1      77.787  14.241  16.407  0.00  0.00     0.028 H 
ATOM     88  H38 ILE d   1      76.921  14.710  17.909  0.00  0.00     0.028 H 
ATOM     89  H39 ILE d   1      75.992  14.201  16.459  0.00  0.00     0.028 H 
ENDBRANCH  77  86
ENDBRANCH  14  77
ENDBRANCH  11  14
ENDBRANCH   8  10
BRANCH   8  90
ATOM     90  CB  VAL d   1      78.586  11.721  11.848  0.00  0.00    -0.033 C 
ATOM     91  H45 VAL d   1      79.425  11.929  11.168  0.00  0.00     0.042 H 
BRANCH  90  92
ATOM     92  CG1 VAL d   1      78.654  10.286  12.260  0.00  0.00    -0.071 C 
ATOM     93  H46 VAL d   1      78.552   9.645  11.372  0.00  0.00     0.028 H 
ATOM     94  H47 VAL d   1      77.839  10.068  12.966  0.00  0.00     0.028 H 
ATOM     95  H48 VAL d   1      79.621  10.089  12.745  0.00  0.00     0.028 H 
ENDBRANCH  90  92
BRANCH  90  96
ATOM     96  CG2 VAL d   1      77.306  12.007  11.114  0.00  0.00    -0.071 C 
ATOM     97  H49 VAL d   1      77.280  13.067  10.822  0.00  0.00     0.028 H 
ATOM     98  H50 VAL d   1      76.450  11.786  11.769  0.00  0.00     0.028 H 
ATOM     99  H51 VAL d   1      77.251  11.377  10.214  0.00  0.00     0.028 H 
ENDBRANCH  90  96
ENDBRANCH   8  90
ENDBRANCH   5   8
ENDBRANCH   1   4
BRANCH   1 100
ATOM    100  C   GLY d   1      76.525  16.844  13.795  0.00  0.00     0.236 C 
ATOM    101  O   GLY d   1      75.911  16.127  14.587  0.00  0.00    -0.272 OA
ATOM    102  N   ARG d   1      76.292  18.143  13.678  0.00  0.00    -0.346 N 
ATOM    103  H55 ARG d   1      76.909  18.710  13.132  0.00  0.00     0.163 HD
BRANCH 102 104
ATOM    104  CA  ARG d   1      75.144  18.753  14.339  0.00  0.00     0.089 C 
ATOM    105  H56 ARG d   1      74.364  17.983  14.435  0.00  0.00     0.087 H 
BRANCH 104 106
ATOM    106  C   ARG d   1      74.577  19.901  13.526  0.00  0.00     0.241 C 
ATOM    107  O   ARG d   1      75.128  20.294  12.497  0.00  0.00    -0.271 OA
ATOM    108  N   ILE d   1      73.481  20.459  14.017  0.00  0.00    -0.346 N 
ATOM    109  H68 ILE d   1      73.097  20.113  14.873  0.00  0.00     0.163 HD
BRANCH 108 110
ATOM    110  CA  ILE d   1      72.824  21.564  13.338  0.00  0.00     0.092 C 
ATOM    111  H69 ILE d   1      73.534  22.009  12.625  0.00  0.00     0.088 H 
BRANCH 110 112
ATOM    112  C   ILE d   1      72.435  22.622  14.357  0.00  0.00     0.241 C 
ATOM    113  O   ILE d   1      71.822  22.323  15.386  0.00  0.00    -0.271 OA
ATOM    114  N   ILE d   1      72.817  23.856  14.065  0.00  0.00    -0.346 N 
ATOM    115  H79 ILE d   1      73.232  24.031  13.172  0.00  0.00     0.163 HD
BRANCH 114 116
ATOM    116  CA  ILE d   1      72.658  24.966  14.989  0.00  0.00     0.092 C 
ATOM    117  H80 ILE d   1      72.418  24.567  15.986  0.00  0.00     0.088 H 
BRANCH 116 118
ATOM    118  C   ILE d   1      71.524  25.876  14.526  0.00  0.00     0.241 C 
ATOM    119  O   ILE d   1      71.521  26.394  13.391  0.00  0.00    -0.271 OA
ATOM    120  N   LEU d   1      70.557  26.072  15.414  0.00  0.00    -0.346 N 
ATOM    121  H90 LEU d   1      70.640  25.667  16.325  0.00  0.00     0.163 HD
BRANCH 120 122
ATOM    122  CA  LEU d   1      69.375  26.866  15.091  0.00  0.00     0.089 C 
ATOM    123  H91 LEU d   1      69.238  26.845  14.000  0.00  0.00     0.087 H 
BRANCH 122 124
ATOM    124  C   LEU d   1      69.530  28.309  15.521  0.00  0.00     0.241 C 
ATOM    125  O   LEU d   1      70.131  28.592  16.548  0.00  0.00    -0.271 OA
ATOM    126  N   SER d   1      68.971  29.213  14.725  0.00  0.00    -0.343 N 
ATOM    127 1H10 SER d   1      68.519  28.905  13.888  0.00  0.00     0.163 HD
BRANCH 126 128
ATOM    128  CA  SER d   1      68.993  30.633  15.027  0.00  0.00     0.116 C 
ATOM    129 2H10 SER d   1      69.134  30.768  16.109  0.00  0.00     0.093 H 
BRANCH 128 130
ATOM    130  C   SER d   1      67.658  31.268  14.622  0.00  0.00     0.198 C 
ATOM    131  O   SER d   1      67.097  32.138  15.340  0.00  0.00    -0.646 OA
ATOM    132  O   SER d   1      67.109  30.911  13.546  0.00  0.00    -0.646 OA
ENDBRANCH 128 130
BRANCH 128 133
ATOM    133  CB  SER d   1      70.163  31.288  14.292  0.00  0.00     0.045 C 
ATOM    134 3H10 SER d   1      70.151  30.961  13.242  0.00  0.00     0.077 H 
ATOM    135 4H10 SER d   1      71.103  30.969  14.765  0.00  0.00     0.077 H 
BRANCH 133 136
ATOM    136  OG  SER d   1      70.088  32.694  14.332  0.00  0.00    -0.398 OA
ATOM    137 5H10 SER d   1      70.829  33.063  13.867  0.00  0.00     0.209 HD
ENDBRANCH 133 136
ENDBRANCH 128 133
ENDBRANCH 126 128
ENDBRANCH 122 124
BRANCH 122 138
ATOM    138  CB  LEU d   1      68.133  26.271  15.746  0.00  0.00    -0.035 C 
ATOM    139  H92 LEU d   1      67.276  26.924  15.525  0.00  0.00     0.037 H 
ATOM    140  H93 LEU d   1      68.296  26.235  16.833  0.00  0.00     0.037 H 
BRANCH 138 141
ATOM    141  CG  LEU d   1      67.807  24.866  15.260  0.00  0.00    -0.059 C 
ATOM    142  H94 LEU d   1      68.641  24.194  15.510  0.00  0.00     0.038 H 
BRANCH 141 143
ATOM    143  CD1 LEU d   1      66.552  24.355  15.950  0.00  0.00    -0.073 C 
ATOM    144  H95 LEU d   1      66.325  23.340  15.593  0.00  0.00     0.028 H 
ATOM    145  H96 LEU d   1      65.709  25.023  15.719  0.00  0.00     0.028 H 
ATOM    146  H97 LEU d   1      66.715  24.333  17.038  0.00  0.00     0.028 H 
ENDBRANCH 141 143
BRANCH 141 147
ATOM    147  CD2 LEU d   1      67.646  24.904  13.757  0.00  0.00    -0.073 C 
ATOM    148  H98 LEU d   1      68.573  25.278  13.298  0.00  0.00     0.028 H 
ATOM    149  H99 LEU d   1      66.812  25.571  13.494  0.00  0.00     0.028 H 
ATOM    150 0H10 LEU d   1      67.436  23.890  13.385  0.00  0.00     0.028 H 
ENDBRANCH 141 147
ENDBRANCH 138 141
ENDBRANCH 122 138
ENDBRANCH 120 122
ENDBRANCH 116 118
BRANCH 116 151
ATOM    151  CB  ILE d   1      73.963  25.797  15.076  0.00  0.00    -0.030 C 
ATOM    152  H81 ILE d   1      74.088  26.317  14.115  0.00  0.00     0.043 H 
BRANCH 151 153
ATOM    153  CG1 ILE d   1      75.185  24.887  15.261  0.00  0.00    -0.063 C 
ATOM    154  H82 ILE d   1      76.077  25.431  14.916  0.00  0.00     0.033 H 
ATOM    155  H83 ILE d   1      75.043  23.987  14.645  0.00  0.00     0.033 H 
BRANCH 153 156
ATOM    156  CD1 ILE d   1      75.415  24.456  16.679  0.00  0.00    -0.076 C 
ATOM    157  H87 ILE d   1      76.304  23.810  16.726  0.00  0.00     0.027 H 
ATOM    158  H88 ILE d   1      74.538  23.899  17.040  0.00  0.00     0.027 H 
ATOM    159  H89 ILE d   1      75.572  25.343  17.311  0.00  0.00     0.027 H 
ENDBRANCH 153 156
ENDBRANCH 151 153
BRANCH 151 160
ATOM    160  CG2 ILE d   1      73.861  26.870  16.158  0.00  0.00    -0.071 C 
ATOM    161  H84 ILE d   1      72.971  27.490  15.976  0.00  0.00     0.028 H 
ATOM    162  H85 ILE d   1      74.760  27.503  16.133  0.00  0.00     0.028 H 
ATOM    163  H86 ILE d   1      73.778  26.390  17.144  0.00  0.00     0.028 H 
ENDBRANCH 151 160
ENDBRANCH 116 151
ENDBRANCH 114 116
ENDBRANCH 110 112
BRANCH 110 164
ATOM    164  CB  ILE d   1      71.596  21.080  12.553  0.00  0.00    -0.030 C 
ATOM    165  H70 ILE d   1      71.019  20.401  13.198  0.00  0.00     0.043 H 
BRANCH 164 166
ATOM    166  CG1 ILE d   1      72.041  20.301  11.316  0.00  0.00    -0.063 C 
ATOM    167  H71 ILE d   1      72.752  19.522  11.629  0.00  0.00     0.033 H 
ATOM    168  H72 ILE d   1      72.540  20.996  10.624  0.00  0.00     0.033 H 
BRANCH 166 169
ATOM    169  CD1 ILE d   1      70.895  19.643  10.593  0.00  0.00    -0.076 C 
ATOM    170  H76 ILE d   1      71.278  19.101   9.716  0.00  0.00     0.027 H 
ATOM    171  H77 ILE d   1      70.179  20.411  10.265  0.00  0.00     0.027 H 
ATOM    172  H78 ILE d   1      70.391  18.937  11.270  0.00  0.00     0.027 H 
ENDBRANCH 166 169
ENDBRANCH 164 166
BRANCH 164 173
ATOM    173  CG2 ILE d   1      70.693  22.258  12.178  0.00  0.00    -0.071 C 
ATOM    174  H73 ILE d   1      70.393  22.795  13.090  0.00  0.00     0.028 H 
ATOM    175  H74 ILE d   1      69.797  21.883  11.661  0.00  0.00     0.028 H 
ATOM    176  H75 ILE d   1      71.240  22.943  11.513  0.00  0.00     0.028 H 
ENDBRANCH 164 173
ENDBRANCH 110 164
ENDBRANCH 108 110
ENDBRANCH 104 106
BRANCH 104 177
ATOM    177  CB  ARG d   1      75.501  19.251  15.748  0.00  0.00    -0.036 C 
ATOM    178  H57 ARG d   1      75.980  18.425  16.294  0.00  0.00     0.036 H 
ATOM    179  H58 ARG d   1      74.570  19.537  16.259  0.00  0.00     0.036 H 
BRANCH 177 180
ATOM    180  CG  ARG d   1      76.438  20.441  15.770  0.00  0.00    -0.048 C 
ATOM    181  H59 ARG d   1      76.344  20.956  16.738  0.00  0.00     0.035 H 
ATOM    182  H60 ARG d   1      76.162  21.131  14.959  0.00  0.00     0.035 H 
BRANCH 180 183
ATOM    183  CD  ARG d   1      77.879  20.001  15.580  0.00  0.00     0.009 C 
ATOM    184  H61 ARG d   1      78.034  19.735  14.524  0.00  0.00     0.064 H 
ATOM    185  H62 ARG d   1      78.070  19.121  16.212  0.00  0.00     0.064 H 
BRANCH 183 186
ATOM    186  NE  ARG d   1      78.816  21.056  15.944  0.00  0.00    -0.227 N 
ATOM    187  CZ  ARG d   1      79.630  21.028  16.994  0.00  0.00     0.665 C 
ATOM    188  NH1 ARG d   1      79.649  19.993  17.820  0.00  0.00    -0.235 N 
ATOM    189  NH2 ARG d   1      80.436  22.052  17.209  0.00  0.00    -0.235 N 
ATOM    190  H64 ARG d   1      80.287  19.991  18.628  0.00  0.00     0.174 HD
ATOM    191  H65 ARG d   1      79.025  19.190  17.654  0.00  0.00     0.174 HD
ATOM    192  H66 ARG d   1      80.425  22.859  16.569  0.00  0.00     0.174 HD
ATOM    193  H67 ARG d   1      81.076  22.043  18.016  0.00  0.00     0.174 HD
ATOM    194  H63 ARG d   1      78.850  21.889  15.340  0.00  0.00     0.177 HD
ENDBRANCH 183 186
ENDBRANCH 180 183
ENDBRANCH 177 180
ENDBRANCH 104 177
ENDBRANCH 102 104
ENDBRANCH   1 100
TORSDOF 59
