REMARK WARNING: 32 MAX_TORS EXCEEDED!!!
REMARK  59 active torsions:
REMARK  status: ('A' for Active; 'I' for Inactive)
REMARK    1  A    between atoms: N_1  and  CA_2 
REMARK    2  A    between atoms: CA_2  and  C_3 
REMARK       I    between atoms: C_3  and  N_5 
REMARK    3  A    between atoms: N_5  and  CA_6 
REMARK    4  A    between atoms: CA_6  and  C_7 
REMARK       I    between atoms: C_7  and  N_9 
REMARK    5  A    between atoms: N_9  and  CA_10 
REMARK    6  A    between atoms: CA_10  and  C_11 
REMARK    7  A    between atoms: CA_10  and  CB_13 
REMARK       I    between atoms: C_11  and  N_15 
REMARK    8  A    between atoms: CB_13  and  OG_14 
REMARK    9  A    between atoms: N_15  and  CA_16 
REMARK   10  A    between atoms: CA_16  and  C_17 
REMARK   11  A    between atoms: CA_16  and  CB_19 
REMARK       I    between atoms: C_17  and  N_22 
REMARK   12  A    between atoms: CB_19  and  CG1_20 
REMARK   13  A    between atoms: CB_19  and  CG2_21 
REMARK   14  A    between atoms: N_22  and  CA_23 
REMARK   15  A    between atoms: CA_23  and  C_24 
REMARK   16  A    between atoms: CA_23  and  CB_26 
REMARK       I    between atoms: C_24  and  N_29 
REMARK   17  A    between atoms: CB_26  and  CG1_27 
REMARK   18  A    between atoms: CB_26  and  CG2_28 
REMARK   19  A    between atoms: N_29  and  CA_30 
REMARK   20  A    between atoms: CA_30  and  C_31 
REMARK   21  A    between atoms: CA_30  and  CB_33 
REMARK       I    between atoms: C_31  and  N_37 
REMARK   22  A    between atoms: CB_33  and  CG1_34 
REMARK   23  A    between atoms: CB_33  and  CG2_35 
REMARK   24  A    between atoms: CG1_34  and  CD1_36 
REMARK   25  A    between atoms: N_37  and  CA_38 
REMARK   26  A    between atoms: CA_38  and  C_39 
REMARK   27  A    between atoms: CA_38  and  CB_41 
REMARK       I    between atoms: C_39  and  N_44 
REMARK   28  A    between atoms: CB_41  and  CG1_42 
REMARK   29  A    between atoms: CB_41  and  CG2_43 
REMARK   30  A    between atoms: N_44  and  CA_45 
REMARK   31  A    between atoms: CA_45  and  C_46 
REMARK       I    between atoms: C_46  and  N_48 
REMARK   32  A    between atoms: N_48  and  CA_49 
REMARK   33  A    between atoms: CA_49  and  C_50 
REMARK   34  A    between atoms: CA_49  and  CB_52 
REMARK       I    between atoms: C_50  and  N_59 
REMARK   35  A    between atoms: CB_52  and  CG_53 
REMARK   36  A    between atoms: CG_53  and  CD_54 
REMARK   37  A    between atoms: CD_54  and  NE_55 
REMARK       I    between atoms: NE_55  and  CZ_56 
REMARK       I    between atoms: CZ_56  and  NH1_57 
REMARK   38  A    between atoms: N_59  and  CA_60 
REMARK   39  A    between atoms: CA_60  and  C_61 
REMARK   40  A    between atoms: CA_60  and  CB_63 
REMARK       I    between atoms: C_61  and  N_67 
REMARK   41  A    between atoms: CB_63  and  CG1_64 
REMARK   42  A    between atoms: CB_63  and  CG2_65 
REMARK   43  A    between atoms: CG1_64  and  CD1_66 
REMARK   44  A    between atoms: N_67  and  CA_68 
REMARK   45  A    between atoms: CA_68  and  C_69 
REMARK   46  A    between atoms: CA_68  and  CB_71 
REMARK       I    between atoms: C_69  and  N_75 
REMARK   47  A    between atoms: CB_71  and  CG1_72 
REMARK   48  A    between atoms: CB_71  and  CG2_73 
REMARK   49  A    between atoms: CG1_72  and  CD1_74 
REMARK   50  A    between atoms: N_75  and  CA_76 
REMARK   51  A    between atoms: CA_76  and  C_77 
REMARK   52  A    between atoms: CA_76  and  CB_79 
REMARK       I    between atoms: C_77  and  N_83 
REMARK   53  A    between atoms: CB_79  and  CG_80 
REMARK   54  A    between atoms: CG_80  and  CD1_81 
REMARK   55  A    between atoms: CG_80  and  CD2_82 
REMARK   56  A    between atoms: N_83  and  CA_84 
REMARK   57  A    between atoms: CA_84  and  C_85 
REMARK   58  A    between atoms: CA_84  and  CB_87 
REMARK   59  A    between atoms: CB_87  and  OG_88 
ROOT
ATOM      1  CA  GLY d   1      77.329  16.262  13.331  0.00  0.00     0.069 C 
ATOM      2  H53 GLY d   1      77.093  16.373  12.262  0.00  0.00     0.078 H 
ATOM      3  H54 GLY d   1      78.273  16.780  13.554  0.00  0.00     0.078 H 
ENDROOT
BRANCH   1   4
ATOM      4  N   GLY d   1      77.479  14.850  13.639  0.00  0.00    -0.351 N 
ATOM      5  C   VAL d   1      78.403  14.103  13.039  0.00  0.00     0.241 C 
ATOM      6  O   VAL d   1      79.160  14.553  12.193  0.00  0.00    -0.271 OA
ATOM      7  H52 GLY d   1      76.875  14.430  14.316  0.00  0.00     0.163 HD
BRANCH   5   8
ATOM      8  CA  VAL d   1      78.480  12.617  13.437  0.00  0.00     0.092 C 
ATOM      9  H44 VAL d   1      79.492  12.460  13.837  0.00  0.00     0.088 H 
BRANCH   8  10
ATOM     10  N   VAL d   1      77.553  12.219  14.495  0.00  0.00    -0.346 N 
ATOM     11  C   ILE d   1      77.940  11.978  15.742  0.00  0.00     0.241 C 
ATOM     12  O   ILE d   1      79.127  11.950  16.097  0.00  0.00    -0.271 OA
ATOM     13  H43 VAL d   1      76.583  12.124  14.269  0.00  0.00     0.163 HD
BRANCH  11  14
ATOM     14  CA  ILE d   1      76.830  11.625  16.718  0.00  0.00     0.092 C 
ATOM     15  H33 ILE d   1      75.850  11.689  16.223  0.00  0.00     0.088 H 
BRANCH  14  16
ATOM     16  N   ILE d   1      77.082  10.257  17.141  0.00  0.00    -0.346 N 
ATOM     17  C   VAL d   1      76.727   9.233  16.369  0.00  0.00     0.241 C 
ATOM     18  O   VAL d   1      76.071   9.377  15.341  0.00  0.00    -0.271 OA
ATOM     19  H32 ILE d   1      77.526  10.084  18.020  0.00  0.00     0.163 HD
BRANCH  17  20
ATOM     20  CA  VAL d   1      77.167   7.832  16.814  0.00  0.00     0.092 C 
ATOM     21  H24 VAL d   1      77.446   7.870  17.877  0.00  0.00     0.088 H 
BRANCH  20  22
ATOM     22  N   VAL d   1      76.096   6.849  16.656  0.00  0.00    -0.346 N 
ATOM     23  C   VAL d   1      75.656   6.111  17.669  0.00  0.00     0.241 C 
ATOM     24  O   VAL d   1      76.054   6.241  18.829  0.00  0.00    -0.271 OA
ATOM     25  H23 VAL d   1      75.681   6.728  15.754  0.00  0.00     0.163 HD
BRANCH  23  26
ATOM     26  CA  VAL d   1      74.614   5.061  17.331  0.00  0.00     0.092 C 
ATOM     27  H15 VAL d   1      74.688   4.783  16.269  0.00  0.00     0.088 H 
BRANCH  26  28
ATOM     28  N   VAL d   1      74.886   3.900  18.160  0.00  0.00    -0.346 N 
ATOM     29  C   SER d   1      75.955   3.142  17.954  0.00  0.00     0.243 C 
ATOM     30  O   SER d   1      76.628   3.190  16.923  0.00  0.00    -0.271 OA
ATOM     31  H14 VAL d   1      74.255   3.667  18.900  0.00  0.00     0.163 HD
BRANCH  29  32
ATOM     32  CA  SER d   1      76.312   2.195  19.086  0.00  0.00     0.109 C 
ATOM     33  H10 SER d   1      75.384   1.833  19.552  0.00  0.00     0.090 H 
BRANCH  32  34
ATOM     34  N   SER d   1      77.051   1.063  18.584  0.00  0.00    -0.344 N 
ATOM     35  C   GLY d   1      76.449   0.022  18.029  0.00  0.00     0.236 C 
ATOM     36  O   GLY d   1      75.223  -0.111  18.004  0.00  0.00    -0.272 OA
ATOM     37  H9  SER d   1      78.048   1.064  18.657  0.00  0.00     0.163 HD
BRANCH  35  38
ATOM     38  CA  GLY d   1      77.371  -1.039  17.456  0.00  0.00     0.069 C 
ATOM     39  H7  GLY d   1      78.089  -0.557  16.777  0.00  0.00     0.078 H 
ATOM     40  H8  GLY d   1      77.915  -1.521  18.282  0.00  0.00     0.078 H 
BRANCH  38  41
ATOM     41  N   GLY d   1      76.641  -2.049  16.724  0.00  0.00    -0.351 N 
ATOM     42  C   LYS d   1      76.147  -3.110  17.347  0.00  0.00     0.243 C 
ATOM     43  O   LYS d   1      76.301  -3.300  18.555  0.00  0.00    -0.272 OA
ATOM     44  H6  GLY d   1      76.507  -1.947  15.738  0.00  0.00     0.163 HD
BRANCH  42  45
ATOM     45  CA  LYS d   1      75.386  -4.100  16.480  0.00  0.00     0.152 C 
ATOM     46  H4  LYS d   1      75.715  -5.119  16.731  0.00  0.00     0.090 H 
ATOM     47  H5  LYS d   1      74.310  -4.001  16.688  0.00  0.00     0.090 H 
BRANCH  45  48
ATOM     48  N   LYS d   1      75.614  -3.869  15.064  0.00  0.00    -0.071 N 
ATOM     49  H1  LYS d   1      75.094  -4.544  14.525  0.00  0.00     0.274 HD
ATOM     50  H2  LYS d   1      76.597  -3.964  14.862  0.00  0.00     0.274 HD
ATOM     51  H3  LYS d   1      75.309  -2.939  14.822  0.00  0.00     0.274 HD
ENDBRANCH  45  48
ENDBRANCH  42  45
ENDBRANCH  38  41
ENDBRANCH  35  38
ENDBRANCH  32  34
BRANCH  32  52
ATOM     52  CB  SER d   1      77.139   2.935  20.138  0.00  0.00     0.044 C 
ATOM     53  H11 SER d   1      76.544   3.762  20.552  0.00  0.00     0.077 H 
ATOM     54  H12 SER d   1      78.048   3.337  19.668  0.00  0.00     0.077 H 
BRANCH  52  55
ATOM     55  OG  SER d   1      77.505   2.054  21.185  0.00  0.00    -0.398 OA
ATOM     56  H13 SER d   1      76.721   1.707  21.594  0.00  0.00     0.209 HD
ENDBRANCH  52  55
ENDBRANCH  32  52
ENDBRANCH  29  32
ENDBRANCH  26  28
BRANCH  26  57
ATOM     57  CB  VAL d   1      73.224   5.628  17.607  0.00  0.00    -0.033 C 
ATOM     58  H16 VAL d   1      73.144   5.856  18.680  0.00  0.00     0.042 H 
BRANCH  57  59
ATOM     59  CG1 VAL d   1      73.011   6.926  16.823  0.00  0.00    -0.071 C 
ATOM     60  H17 VAL d   1      72.006   7.321  17.033  0.00  0.00     0.028 H 
ATOM     61  H18 VAL d   1      73.108   6.724  15.746  0.00  0.00     0.028 H 
ATOM     62  H19 VAL d   1      73.766   7.666  17.127  0.00  0.00     0.028 H 
ENDBRANCH  57  59
BRANCH  57  63
ATOM     63  CG2 VAL d   1      72.160   4.576  17.252  0.00  0.00    -0.071 C 
ATOM     64  H20 VAL d   1      72.343   3.659  17.832  0.00  0.00     0.028 H 
ATOM     65  H21 VAL d   1      72.215   4.347  16.177  0.00  0.00     0.028 H 
ATOM     66  H22 VAL d   1      71.161   4.969  17.493  0.00  0.00     0.028 H 
ENDBRANCH  57  63
ENDBRANCH  26  57
ENDBRANCH  23  26
ENDBRANCH  20  22
BRANCH  20  67
ATOM     67  CB  VAL d   1      78.407   7.424  15.982  0.00  0.00    -0.033 C 
ATOM     68  H25 VAL d   1      78.114   7.382  14.923  0.00  0.00     0.042 H 
BRANCH  67  69
ATOM     69  CG1 VAL d   1      79.520   8.483  16.131  0.00  0.00    -0.071 C 
ATOM     70  H26 VAL d   1      80.395   8.182  15.536  0.00  0.00     0.028 H 
ATOM     71  H27 VAL d   1      79.808   8.566  17.189  0.00  0.00     0.028 H 
ATOM     72  H28 VAL d   1      79.151   9.456  15.774  0.00  0.00     0.028 H 
ENDBRANCH  67  69
BRANCH  67  73
ATOM     73  CG2 VAL d   1      78.901   6.025  16.396  0.00  0.00    -0.071 C 
ATOM     74  H29 VAL d   1      78.084   5.298  16.277  0.00  0.00     0.028 H 
ATOM     75  H30 VAL d   1      79.223   6.046  17.448  0.00  0.00     0.028 H 
ATOM     76  H31 VAL d   1      79.748   5.732  15.759  0.00  0.00     0.028 H 
ENDBRANCH  67  73
ENDBRANCH  20  67
ENDBRANCH  17  20
ENDBRANCH  14  16
BRANCH  14  77
ATOM     77  CB  ILE d   1      76.863  12.602  17.906  0.00  0.00    -0.030 C 
ATOM     78  H34 ILE d   1      77.788  12.421  18.473  0.00  0.00     0.043 H 
BRANCH  77  79
ATOM     79  CG1 ILE d   1      75.673  12.343  18.842  0.00  0.00    -0.063 C 
ATOM     80  H35 ILE d   1      75.577  11.257  18.986  0.00  0.00     0.033 H 
ATOM     81  H36 ILE d   1      74.763  12.731  18.360  0.00  0.00     0.033 H 
BRANCH  79  82
ATOM     82  CD1 ILE d   1      75.806  12.999  20.213  0.00  0.00    -0.076 C 
ATOM     83  H40 ILE d   1      74.918  12.766  20.819  0.00  0.00     0.027 H 
ATOM     84  H41 ILE d   1      75.891  14.089  20.091  0.00  0.00     0.027 H 
ATOM     85  H42 ILE d   1      76.705  12.615  20.718  0.00  0.00     0.027 H 
ENDBRANCH  79  82
ENDBRANCH  77  79
BRANCH  77  86
ATOM     86  CG2 ILE d   1      76.884  14.058  17.419  0.00  0.00    -0.071 C 
ATOM     87  H37 ILE d   1      77.746  14.209  16.753  0.00  0.00     0.028 H 
ATOM     88  H38 ILE d   1      76.966  14.733  18.284  0.00  0.00     0.028 H 
ATOM     89  H39 ILE d   1      75.955  14.275  16.872  0.00  0.00     0.028 H 
ENDBRANCH  77  86
ENDBRANCH  14  77
ENDBRANCH  11  14
ENDBRANCH   8  10
BRANCH   8  90
ATOM     90  CB  VAL d   1      78.333  11.694  12.212  0.00  0.00    -0.033 C 
ATOM     91  H45 VAL d   1      79.034  12.027  11.433  0.00  0.00     0.042 H 
BRANCH  90  92
ATOM     92  CG1 VAL d   1      78.683  10.237  12.611  0.00  0.00    -0.071 C 
ATOM     93  H46 VAL d   1      78.577   9.581  11.734  0.00  0.00     0.028 H 
ATOM     94  H47 VAL d   1      78.001   9.900  13.405  0.00  0.00     0.028 H 
ATOM     95  H48 VAL d   1      79.720  10.196  12.976  0.00  0.00     0.028 H 
ENDBRANCH  90  92
BRANCH  90  96
ATOM     96  CG2 VAL d   1      76.911  11.761  11.651  0.00  0.00    -0.071 C 
ATOM     97  H49 VAL d   1      76.675  12.799  11.372  0.00  0.00     0.028 H 
ATOM     98  H50 VAL d   1      76.199  11.416  12.415  0.00  0.00     0.028 H 
ATOM     99  H51 VAL d   1      76.837  11.117  10.763  0.00  0.00     0.028 H 
ENDBRANCH  90  96
ENDBRANCH   8  90
ENDBRANCH   5   8
ENDBRANCH   1   4
BRANCH   1 100
ATOM    100  C   GLY d   1      76.220  16.886  14.148  0.00  0.00     0.236 C 
ATOM    101  O   GLY d   1      75.592  16.224  14.974  0.00  0.00    -0.272 OA
ATOM    102  N   ARG d   1      75.972  18.172  13.943  0.00  0.00    -0.346 N 
ATOM    103  H55 ARG d   1      76.530  18.696  13.299  0.00  0.00     0.163 HD
BRANCH 102 104
ATOM    104  CA  ARG d   1      74.888  18.814  14.658  0.00  0.00     0.089 C 
ATOM    105  H56 ARG d   1      74.089  18.070  14.793  0.00  0.00     0.087 H 
BRANCH 104 106
ATOM    106  C   ARG d   1      74.333  19.961  13.850  0.00  0.00     0.241 C 
ATOM    107  O   ARG d   1      74.945  20.417  12.876  0.00  0.00    -0.271 OA
ATOM    108  N   ILE d   1      73.153  20.395  14.250  0.00  0.00    -0.346 N 
ATOM    109  H68 ILE d   1      72.701  19.932  15.012  0.00  0.00     0.163 HD
BRANCH 108 110
ATOM    110  CA  ILE d   1      72.490  21.521  13.622  0.00  0.00     0.092 C 
ATOM    111  H69 ILE d   1      73.174  21.991  12.900  0.00  0.00     0.088 H 
BRANCH 110 112
ATOM    112  C   ILE d   1      72.171  22.517  14.728  0.00  0.00     0.241 C 
ATOM    113  O   ILE d   1      71.645  22.152  15.790  0.00  0.00    -0.271 OA
ATOM    114  N   ILE d   1      72.527  23.772  14.479  0.00  0.00    -0.346 N 
ATOM    115  H79 ILE d   1      72.903  23.992  13.579  0.00  0.00     0.163 HD
BRANCH 114 116
ATOM    116  CA  ILE d   1      72.395  24.833  15.451  0.00  0.00     0.092 C 
ATOM    117  H80 ILE d   1      72.183  24.422  16.449  0.00  0.00     0.088 H 
BRANCH 116 118
ATOM    118  C   ILE d   1      71.267  25.715  14.967  0.00  0.00     0.241 C 
ATOM    119  O   ILE d   1      71.282  26.166  13.828  0.00  0.00    -0.271 OA
ATOM    120  N   LEU d   1      70.295  25.952  15.832  0.00  0.00    -0.346 N 
ATOM    121  H90 LEU d   1      70.375  25.590  16.761  0.00  0.00     0.163 HD
BRANCH 120 122
ATOM    122  CA  LEU d   1      69.107  26.726  15.473  0.00  0.00     0.089 C 
ATOM    123  H91 LEU d   1      68.981  26.689  14.381  0.00  0.00     0.087 H 
BRANCH 122 124
ATOM    124  C   LEU d   1      69.252  28.189  15.892  0.00  0.00     0.241 C 
ATOM    125  O   LEU d   1      69.888  28.488  16.900  0.00  0.00    -0.271 OA
ATOM    126  N   SER d   1      68.695  29.095  15.092  0.00  0.00    -0.343 N 
ATOM    127 1H10 SER d   1      68.275  28.794  14.236  0.00  0.00     0.163 HD
BRANCH 126 128
ATOM    128  CA  SER d   1      68.680  30.513  15.429  0.00  0.00     0.116 C 
ATOM    129 2H10 SER d   1      69.049  30.635  16.458  0.00  0.00     0.093 H 
BRANCH 128 130
ATOM    130  C   SER d   1      67.259  31.062  15.344  0.00  0.00     0.198 C 
ATOM    131  O   SER d   1      66.789  31.772  16.273  0.00  0.00    -0.646 OA
ATOM    132  O   SER d   1      66.549  30.803  14.336  0.00  0.00    -0.646 OA
ENDBRANCH 128 130
BRANCH 128 133
ATOM    133  CB  SER d   1      69.584  31.298  14.486  0.00  0.00     0.045 C 
ATOM    134 3H10 SER d   1      69.159  31.267  13.472  0.00  0.00     0.077 H 
ATOM    135 4H10 SER d   1      70.583  30.838  14.480  0.00  0.00     0.077 H 
BRANCH 133 136
ATOM    136  OG  SER d   1      69.699  32.650  14.899  0.00  0.00    -0.398 OA
ATOM    137 5H10 SER d   1      70.266  33.117  14.296  0.00  0.00     0.209 HD
ENDBRANCH 133 136
ENDBRANCH 128 133
ENDBRANCH 126 128
ENDBRANCH 122 124
BRANCH 122 138
ATOM    138  CB  LEU d   1      67.879  26.103  16.131  0.00  0.00    -0.035 C 
ATOM    139  H92 LEU d   1      66.997  26.709  15.878  0.00  0.00     0.037 H 
ATOM    140  H93 LEU d   1      68.024  26.104  17.221  0.00  0.00     0.037 H 
BRANCH 138 141
ATOM    141  CG  LEU d   1      67.638  24.670  15.670  0.00  0.00    -0.059 C 
ATOM    142  H94 LEU d   1      68.513  24.056  15.928  0.00  0.00     0.038 H 
BRANCH 141 143
ATOM    143  CD1 LEU d   1      66.410  24.075  16.353  0.00  0.00    -0.073 C 
ATOM    144  H95 LEU d   1      66.260  23.043  16.003  0.00  0.00     0.028 H 
ATOM    145  H96 LEU d   1      65.524  24.679  16.106  0.00  0.00     0.028 H 
ATOM    146  H97 LEU d   1      66.561  24.074  17.443  0.00  0.00     0.028 H 
ENDBRANCH 141 143
BRANCH 141 147
ATOM    147  CD2 LEU d   1      67.469  24.688  14.159  0.00  0.00    -0.073 C 
ATOM    148  H98 LEU d   1      68.367  25.121  13.695  0.00  0.00     0.028 H 
ATOM    149  H99 LEU d   1      66.591  25.296  13.895  0.00  0.00     0.028 H 
ATOM    150 0H10 LEU d   1      67.327  23.660  13.794  0.00  0.00     0.028 H 
ENDBRANCH 141 147
ENDBRANCH 138 141
ENDBRANCH 122 138
ENDBRANCH 120 122
ENDBRANCH 116 118
BRANCH 116 151
ATOM    151  CB  ILE d   1      73.667  25.697  15.481  0.00  0.00    -0.030 C 
ATOM    152  H81 ILE d   1      73.776  26.170  14.494  0.00  0.00     0.043 H 
BRANCH 151 153
ATOM    153  CG1 ILE d   1      74.898  24.822  15.712  0.00  0.00    -0.063 C 
ATOM    154  H82 ILE d   1      75.796  25.447  15.600  0.00  0.00     0.033 H 
ATOM    155  H83 ILE d   1      74.908  24.026  14.953  0.00  0.00     0.033 H 
BRANCH 153 156
ATOM    156  CD1 ILE d   1      74.929  24.192  17.052  0.00  0.00    -0.076 C 
ATOM    157  H87 ILE d   1      75.838  23.580  17.148  0.00  0.00     0.027 H 
ATOM    158  H88 ILE d   1      74.042  23.554  17.178  0.00  0.00     0.027 H 
ATOM    159  H89 ILE d   1      74.930  24.974  17.825  0.00  0.00     0.027 H 
ENDBRANCH 153 156
ENDBRANCH 151 153
BRANCH 151 160
ATOM    160  CG2 ILE d   1      73.545  26.821  16.519  0.00  0.00    -0.071 C 
ATOM    161  H84 ILE d   1      72.646  27.419  16.308  0.00  0.00     0.028 H 
ATOM    162  H85 ILE d   1      74.435  27.466  16.467  0.00  0.00     0.028 H 
ATOM    163  H86 ILE d   1      73.467  26.384  17.525  0.00  0.00     0.028 H 
ENDBRANCH 151 160
ENDBRANCH 116 151
ENDBRANCH 114 116
ENDBRANCH 110 112
BRANCH 110 164
ATOM    164  CB  ILE d   1      71.228  21.068  12.869  0.00  0.00    -0.030 C 
ATOM    165  H70 ILE d   1      70.639  20.419  13.534  0.00  0.00     0.043 H 
BRANCH 164 166
ATOM    166  CG1 ILE d   1      71.628  20.250  11.633  0.00  0.00    -0.063 C 
ATOM    167  H71 ILE d   1      72.483  19.613  11.903  0.00  0.00     0.033 H 
ATOM    168  H72 ILE d   1      71.928  20.950  10.839  0.00  0.00     0.033 H 
BRANCH 166 169
ATOM    169  CD1 ILE d   1      70.531  19.365  11.094  0.00  0.00    -0.076 C 
ATOM    170  H76 ILE d   1      70.900  18.818  10.214  0.00  0.00     0.027 H 
ATOM    171  H77 ILE d   1      69.669  19.984  10.805  0.00  0.00     0.027 H 
ATOM    172  H78 ILE d   1      70.224  18.648  11.870  0.00  0.00     0.027 H 
ENDBRANCH 166 169
ENDBRANCH 164 166
BRANCH 164 173
ATOM    173  CG2 ILE d   1      70.367  22.274  12.503  0.00  0.00    -0.071 C 
ATOM    174  H73 ILE d   1      70.105  22.828  13.416  0.00  0.00     0.028 H 
ATOM    175  H74 ILE d   1      69.448  21.931  12.006  0.00  0.00     0.028 H 
ATOM    176  H75 ILE d   1      70.928  22.932  11.823  0.00  0.00     0.028 H 
ENDBRANCH 164 173
ENDBRANCH 110 164
ENDBRANCH 108 110
ENDBRANCH 104 106
BRANCH 104 177
ATOM    177  CB  ARG d   1      75.312  19.303  16.047  0.00  0.00    -0.036 C 
ATOM    178  H57 ARG d   1      75.791  18.463  16.571  0.00  0.00     0.036 H 
ATOM    179  H58 ARG d   1      74.405  19.605  16.592  0.00  0.00     0.036 H 
BRANCH 177 180
ATOM    180  CG  ARG d   1      76.287  20.486  16.059  0.00  0.00    -0.048 C 
ATOM    181  H59 ARG d   1      76.184  21.029  17.010  0.00  0.00     0.035 H 
ATOM    182  H60 ARG d   1      76.047  21.160  15.224  0.00  0.00     0.035 H 
BRANCH 180 183
ATOM    183  CD  ARG d   1      77.702  20.008  15.915  0.00  0.00     0.009 C 
ATOM    184  H61 ARG d   1      77.871  19.707  14.871  0.00  0.00     0.064 H 
ATOM    185  H62 ARG d   1      77.853  19.141  16.575  0.00  0.00     0.064 H 
BRANCH 183 186
ATOM    186  NE  ARG d   1      78.664  21.042  16.268  0.00  0.00    -0.227 N 
ATOM    187  CZ  ARG d   1      79.469  21.005  17.329  0.00  0.00     0.665 C 
ATOM    188  NH1 ARG d   1      79.449  19.977  18.165  0.00  0.00    -0.235 N 
ATOM    189  NH2 ARG d   1      80.299  22.007  17.545  0.00  0.00    -0.235 N 
ATOM    190  H64 ARG d   1      80.078  19.964  18.981  0.00  0.00     0.174 HD
ATOM    191  H65 ARG d   1      78.805  19.191  17.999  0.00  0.00     0.174 HD
ATOM    192  H66 ARG d   1      80.318  22.808  16.898  0.00  0.00     0.174 HD
ATOM    193  H67 ARG d   1      80.928  21.988  18.361  0.00  0.00     0.174 HD
ATOM    194  H63 ARG d   1      78.727  21.864  15.651  0.00  0.00     0.177 HD
ENDBRANCH 183 186
ENDBRANCH 180 183
ENDBRANCH 177 180
ENDBRANCH 104 177
ENDBRANCH 102 104
ENDBRANCH   1 100
TORSDOF 59
