REMARK  2 active torsions:
REMARK  status: ('A' for Active; 'I' for Inactive)
REMARK    1  A    between atoms: N4_4  and  C1_1 
REMARK    2  A    between atoms: C9_9  and  N10_10 
ROOT
ATOM      1  N2  MY6 d   1      23.083   4.528   7.847  0.00  0.00    -0.221 NA
ATOM      2  C3  MY6 d   1      22.773   5.866   7.772  0.00  0.00     0.068 A 
ATOM      3  N4  MY6 d   1      22.396   6.341   8.995  0.00  0.00    -0.339 N 
ATOM      4  C5  MY6 d   1      22.457   5.281   9.875  0.00  0.00     0.139 A 
ATOM      5  C6  MY6 d   1      22.185   5.140  11.282  0.00  0.00     0.224 A 
ATOM      6  O7  MY6 d   1      21.784   6.170  12.118  0.00  0.00    -0.169 OA
ATOM      7  N8  MY6 d   1      22.371   3.889  11.839  0.00  0.00    -0.164 N 
ATOM      8  C9  MY6 d   1      22.803   2.789  11.093  0.00  0.00     0.702 A 
ATOM      9  N11 MY6 d   1      23.063   2.917   9.738  0.00  0.00    -0.043 NA
ATOM     10  C12 MY6 d   1      22.892   4.160   9.151  0.00  0.00     0.201 A 
ATOM     11  H4  MY6 d   1      22.822   6.464   6.863  0.00  0.00     0.143 H 
ATOM     12  H5  MY6 d   1      22.189   3.766  12.815  0.00  0.00     0.186 HD
ENDROOT
BRANCH   3  13
ATOM     13  C1  MY6 d   1      22.022   7.774   9.243  0.00  0.00    -0.013 C 
ATOM     14  H1  MY6 d   1      22.086   8.338   8.301  0.00  0.00     0.057 H 
ATOM     15  H2  MY6 d   1      22.713   8.211   9.979  0.00  0.00     0.057 H 
ATOM     16  H3  MY6 d   1      20.994   7.823   9.631  0.00  0.00     0.057 H 
ENDBRANCH   3  13
BRANCH   8  17
ATOM     17  N10 MY6 d   1      22.993   1.568  11.683  0.00  0.00    -0.233 N 
ATOM     18  H6  MY6 d   1      23.312   0.767  11.119  0.00  0.00     0.174 HD
ATOM     19  H7  MY6 d   1      22.817   1.450  12.691  0.00  0.00     0.174 HD
ENDBRANCH   8  17
TORSDOF 2
