REMARK  6 active torsions:
REMARK  status: ('A' for Active; 'I' for Inactive)
REMARK    1  A    between atoms: C1_1  and  N2_2 
REMARK    2  A    between atoms: C6_6  and  C18_17 
REMARK    3  A    between atoms: C21_20  and  C24_23 
REMARK       I    between atoms: C24_23  and  N26_25 
REMARK    4  A    between atoms: C29_28  and  C30_29 
REMARK    5  A    between atoms: C30_29  and  C31_30 
REMARK    6  A    between atoms: C31_30  and  O32_31 
ROOT
ATOM      1  C18 1BQ d   1       5.720  -0.478  28.245  0.00  0.00    -0.026 A 
ATOM      2  C19 1BQ d   1       4.331  -0.689  28.361  0.00  0.00    -0.071 A 
ATOM      3  C20 1BQ d   1       3.839  -1.664  29.217  0.00  0.00    -0.067 A 
ATOM      4  C21 1BQ d   1       4.742  -2.436  29.970  0.00  0.00     0.032 A 
ATOM      5  C22 1BQ d   1       6.117  -2.200  29.875  0.00  0.00    -0.067 A 
ATOM      6  C23 1BQ d   1       6.603  -1.237  29.013  0.00  0.00    -0.071 A 
ATOM      7  H9  1BQ d   1       3.644  -0.086  27.778  0.00  0.00     0.084 H 
ATOM      8  H10 1BQ d   1       2.771  -1.829  29.304  0.00  0.00     0.085 H 
ATOM      9  H11 1BQ d   1       6.806  -2.777  30.482  0.00  0.00     0.085 H 
ATOM     10  H12 1BQ d   1       7.671  -1.071  28.933  0.00  0.00     0.084 H 
ENDROOT
BRANCH   4  11
ATOM     11  C24 1BQ d   1       4.297  -3.465  30.937  0.00  0.00     0.253 C 
ATOM     12  O25 1BQ d   1       3.714  -3.074  31.932  0.00  0.00    -0.267 OA
ATOM     13  N26 1BQ d   1       4.533  -4.785  30.792  0.00  0.00    -0.348 N 
ATOM     14  C27 1BQ d   1       4.067  -5.729  31.826  0.00  0.00    -0.002 C 
ATOM     15  C34 1BQ d   1       5.229  -5.344  29.621  0.00  0.00    -0.002 C 
ATOM     16  C28 1BQ d   1       3.284  -6.906  31.224  0.00  0.00    -0.047 C 
ATOM     17  H13 1BQ d   1       3.414  -5.191  32.529  0.00  0.00     0.064 H 
ATOM     18  H14 1BQ d   1       4.941  -6.123  32.366  0.00  0.00     0.064 H 
ATOM     19  C29 1BQ d   1       3.928  -7.424  29.934  0.00  0.00    -0.049 C 
ATOM     20  H15 1BQ d   1       2.259  -6.574  31.001  0.00  0.00     0.035 H 
ATOM     21  H16 1BQ d   1       3.252  -7.724  31.959  0.00  0.00     0.035 H 
ATOM     22  C33 1BQ d   1       4.223  -6.278  28.958  0.00  0.00    -0.047 C 
ATOM     23  H17 1BQ d   1       4.877  -7.919  30.189  0.00  0.00     0.040 H 
ATOM     24  H23 1BQ d   1       3.296  -5.730  28.734  0.00  0.00     0.035 H 
ATOM     25  H24 1BQ d   1       4.645  -6.681  28.026  0.00  0.00     0.035 H 
ATOM     26  H25 1BQ d   1       6.123  -5.902  29.935  0.00  0.00     0.064 H 
ATOM     27  H26 1BQ d   1       5.523  -4.541  28.929  0.00  0.00     0.064 H 
BRANCH  19  28
ATOM     28  C30 1BQ d   1       2.999  -8.442  29.278  0.00  0.00    -0.042 C 
ATOM     29  H18 1BQ d   1       2.780  -8.148  28.241  0.00  0.00     0.036 H 
ATOM     30  H19 1BQ d   1       2.058  -8.521  29.843  0.00  0.00     0.036 H 
BRANCH  28  31
ATOM     31  C31 1BQ d   1       3.749  -9.772  29.306  0.00  0.00     0.017 C 
ATOM     32  H20 1BQ d   1       3.049 -10.591  29.528  0.00  0.00     0.073 H 
ATOM     33  H21 1BQ d   1       4.534  -9.742  30.076  0.00  0.00     0.073 H 
BRANCH  31  34
ATOM     34  O32 1BQ d   1       4.337  -9.971  28.020  0.00  0.00    -0.401 OA
ATOM     35  H22 1BQ d   1       4.937  -9.258  27.834  0.00  0.00     0.209 HD
ENDBRANCH  31  34
ENDBRANCH  28  31
ENDBRANCH  19  28
ENDBRANCH   4  11
BRANCH   1  36
ATOM     36  C6  1BQ d   1       6.281   0.568  27.344  0.00  0.00    -0.025 A 
ATOM     37  C5  1BQ d   1       7.673   0.790  27.272  0.00  0.00    -0.070 A 
ATOM     38  C4  1BQ d   1       8.201   1.777  26.459  0.00  0.00    -0.055 A 
ATOM     39  H5  1BQ d   1       8.341   0.176  27.865  0.00  0.00     0.084 H 
ATOM     40  C3  1BQ d   1       7.354   2.591  25.688  0.00  0.00     0.057 A 
ATOM     41  H4  1BQ d   1       9.274   1.923  26.416  0.00  0.00     0.087 H 
ATOM     42  N2  1BQ d   1       7.918   3.594  24.873  0.00  0.00    -0.275 N 
ATOM     43  C8  1BQ d   1       5.964   2.377  25.780  0.00  0.00     0.022 A 
ATOM     44  S15 1BQ d   1       7.042   4.981  24.514  0.00  0.00     0.268 S 
ATOM     45  C14 1BQ d   1       5.386   4.387  24.398  0.00  0.00     0.128 A 
ATOM     46  O16 1BQ d   1       7.116   5.830  25.657  0.00  0.00    -0.200 OA
ATOM     47  O17 1BQ d   1       7.380   5.451  23.218  0.00  0.00    -0.200 OA
ATOM     48  C9  1BQ d   1       5.034   3.194  25.007  0.00  0.00     0.087 A 
ATOM     49  C13 1BQ d   1       4.289   4.898  23.752  0.00  0.00     0.046 A 
ATOM     50  N10 1BQ d   1       3.736   2.996  24.762  0.00  0.00    -0.276 N 
ATOM     51  N12 1BQ d   1       3.289   4.061  23.963  0.00  0.00    -0.185 NA
ATOM     52  H7  1BQ d   1       3.167   2.206  25.098  0.00  0.00     0.189 HD
ATOM     53  H8  1BQ d   1       4.250   5.820  23.174  0.00  0.00     0.119 H 
ATOM     54  C7  1BQ d   1       5.426   1.374  26.594  0.00  0.00    -0.058 A 
ATOM     55  H6  1BQ d   1       4.353   1.225  26.641  0.00  0.00     0.086 H 
BRANCH  42  56
ATOM     56  C1  1BQ d   1       9.290   3.458  24.361  0.00  0.00    -0.003 C 
ATOM     57  H1  1BQ d   1       9.710   2.496  24.690  0.00  0.00     0.058 H 
ATOM     58  H2  1BQ d   1       9.909   4.280  24.749  0.00  0.00     0.058 H 
ATOM     59  H3  1BQ d   1       9.277   3.496  23.262  0.00  0.00     0.058 H 
ENDBRANCH  42  56
ENDBRANCH   1  36
TORSDOF 6
