REMARK  9 active torsions:
REMARK  status: ('A' for Active; 'I' for Inactive)
REMARK    1  A    between atoms: C1_1  and  N2_2 
REMARK    2  A    between atoms: C6_6  and  N7_7 
REMARK    3  A    between atoms: N7_7  and  C8_8 
REMARK    4  A    between atoms: C8_8  and  C9_9 
REMARK    5  A    between atoms: C12_12  and  C15_15 
REMARK    6  A    between atoms: C15_15  and  C16_16 
REMARK    7  A    between atoms: C15_15  and  C17_17 
REMARK    8  A    between atoms: C15_15  and  C18_18 
REMARK    9  A    between atoms: N25_25  and  C26_26 
ROOT
ATOM      1  N7  1BR d   1     -10.875   4.904 -17.895  0.00  0.00    -0.386 N 
ATOM      2  H6  1BR d   1     -11.358   4.939 -18.804  0.00  0.00     0.160 HD
ENDROOT
BRANCH   1   3
ATOM      3  C6  1BR d   1     -10.910   3.687 -17.176  0.00  0.00     0.029 A 
ATOM      4  C5  1BR d   1     -10.978   2.466 -17.881  0.00  0.00    -0.055 A 
ATOM      5  C4  1BR d   1     -11.068   1.250 -17.173  0.00  0.00    -0.053 A 
ATOM      6  H5  1BR d   1     -10.961   2.463 -18.965  0.00  0.00     0.087 H 
ATOM      7  C3  1BR d   1     -11.079   1.269 -15.769  0.00  0.00     0.057 A 
ATOM      8  H4  1BR d   1     -11.128   0.309 -17.708  0.00  0.00     0.087 H 
ATOM      9  N2  1BR d   1     -11.102   0.019 -15.094  0.00  0.00    -0.275 N 
ATOM     10  C20 1BR d   1     -10.996   2.491 -15.058  0.00  0.00     0.024 A 
ATOM     11  S27 1BR d   1     -11.939  -0.072 -13.679  0.00  0.00     0.268 S 
ATOM     12  C22 1BR d   1     -11.401   1.365 -12.859  0.00  0.00     0.128 A 
ATOM     13  O28 1BR d   1     -13.314   0.142 -14.033  0.00  0.00    -0.200 OA
ATOM     14  O29 1BR d   1     -11.600  -1.266 -12.994  0.00  0.00    -0.200 OA
ATOM     15  C21 1BR d   1     -11.006   2.493 -13.571  0.00  0.00     0.089 A 
ATOM     16  C23 1BR d   1     -11.289   1.615 -11.496  0.00  0.00     0.047 A 
ATOM     17  N25 1BR d   1     -10.637   3.396 -12.620  0.00  0.00    -0.272 N 
ATOM     18  N24 1BR d   1     -10.812   2.826 -11.352  0.00  0.00    -0.183 NA
ATOM     19  H23 1BR d   1     -11.551   0.928 -10.693  0.00  0.00     0.119 H 
ATOM     20  C19 1BR d   1     -10.947   3.696 -15.787  0.00  0.00    -0.043 A 
ATOM     21  H22 1BR d   1     -10.938   4.642 -15.258  0.00  0.00     0.088 H 
BRANCH   9  22
ATOM     22  C1  1BR d   1     -10.318  -1.107 -15.577  0.00  0.00    -0.003 C 
ATOM     23  H1  1BR d   1      -9.842  -0.840 -16.532  0.00  0.00     0.058 H 
ATOM     24  H2  1BR d   1     -10.977  -1.975 -15.726  0.00  0.00     0.058 H 
ATOM     25  H3  1BR d   1      -9.543  -1.358 -14.838  0.00  0.00     0.058 H 
ENDBRANCH   9  22
BRANCH  17  26
ATOM     26  C26 1BR d   1     -10.124   4.749 -12.800  0.00  0.00     0.003 C 
ATOM     27  H24 1BR d   1      -9.927   5.200 -11.816  0.00  0.00     0.059 H 
ATOM     28  H25 1BR d   1     -10.868   5.354 -13.339  0.00  0.00     0.059 H 
ATOM     29  H26 1BR d   1      -9.190   4.713 -13.380  0.00  0.00     0.059 H 
ENDBRANCH  17  26
ENDBRANCH   1   3
BRANCH   1  30
ATOM     30  C8  1BR d   1     -10.184   6.143 -17.424  0.00  0.00     0.016 C 
ATOM     31  H7  1BR d   1      -9.299   5.886 -16.823  0.00  0.00     0.071 H 
ATOM     32  H8  1BR d   1     -10.868   6.762 -16.825  0.00  0.00     0.071 H 
BRANCH  30  33
ATOM     33  C9  1BR d   1      -9.771   6.880 -18.698  0.00  0.00    -0.041 A 
ATOM     34  C10 1BR d   1      -8.701   6.381 -19.441  0.00  0.00    -0.075 A 
ATOM     35  C11 1BR d   1      -8.303   7.025 -20.604  0.00  0.00    -0.076 A 
ATOM     36  H9  1BR d   1      -8.180   5.490 -19.110  0.00  0.00     0.084 H 
ATOM     37  C12 1BR d   1      -9.002   8.152 -21.059  0.00  0.00    -0.051 A 
ATOM     38  H10 1BR d   1      -7.450   6.656 -21.162  0.00  0.00     0.084 H 
ATOM     39  C13 1BR d   1     -10.064   8.655 -20.303  0.00  0.00    -0.076 A 
ATOM     40  C14 1BR d   1     -10.477   8.001 -19.116  0.00  0.00    -0.075 A 
ATOM     41  H11 1BR d   1     -10.576   9.553 -20.628  0.00  0.00     0.084 H 
ATOM     42  H12 1BR d   1     -11.324   8.367 -18.547  0.00  0.00     0.084 H 
BRANCH  37  43
ATOM     43  C15 1BR d   1      -8.559   8.814 -22.359  0.00  0.00    -0.024 C 
BRANCH  43  44
ATOM     44  C16 1BR d   1      -8.732   7.823 -23.531  0.00  0.00    -0.066 C 
ATOM     45  H13 1BR d   1      -8.412   8.303 -24.467  0.00  0.00     0.028 H 
ATOM     46  H14 1BR d   1      -9.790   7.531 -23.612  0.00  0.00     0.028 H 
ATOM     47  H15 1BR d   1      -8.118   6.929 -23.349  0.00  0.00     0.028 H 
ENDBRANCH  43  44
BRANCH  43  48
ATOM     48  C17 1BR d   1      -9.396  10.056 -22.679  0.00  0.00    -0.066 C 
ATOM     49  H16 1BR d   1      -9.296  10.786 -21.862  0.00  0.00     0.028 H 
ATOM     50  H17 1BR d   1     -10.452   9.769 -22.787  0.00  0.00     0.028 H 
ATOM     51  H18 1BR d   1      -9.041  10.506 -23.618  0.00  0.00     0.028 H 
ENDBRANCH  43  48
BRANCH  43  52
ATOM     52  C18 1BR d   1      -7.089   9.254 -22.277  0.00  0.00    -0.066 C 
ATOM     53  H19 1BR d   1      -6.458   8.383 -22.048  0.00  0.00     0.028 H 
ATOM     54  H20 1BR d   1      -6.976  10.008 -21.484  0.00  0.00     0.028 H 
ATOM     55  H21 1BR d   1      -6.781   9.686 -23.241  0.00  0.00     0.028 H 
ENDBRANCH  43  52
ENDBRANCH  37  43
ENDBRANCH  30  33
ENDBRANCH   1  30
TORSDOF 9
