REMARK  7 active torsions:
REMARK  status: ('A' for Active; 'I' for Inactive)
REMARK    1  A    between atoms: CBE_2  and  CAW_5 
REMARK    2  A    between atoms: CAU_10  and  CAT_11 
REMARK       I    between atoms: CAT_11  and  NAS_13 
REMARK    3  A    between atoms: NAS_13  and  CAP_14 
REMARK    4  A    between atoms: CAM_18  and  CAR_19 
REMARK    5  A    between atoms: CAL_20  and  CAI_21 
REMARK    6  A    between atoms: C2_30  and  NAG_31 
REMARK    7  A    between atoms: NAG_31  and  CBD_32 
ROOT
ATOM      1  CAP G17 d   1     -18.912  71.979 132.733  0.00  0.00     0.035 A 
ATOM      2  CAQ G17 d   1     -19.506  72.471 133.898  0.00  0.00    -0.046 A 
ATOM      3  CAO G17 d   1     -19.399  70.773 132.235  0.00  0.00    -0.057 A 
ATOM      4  CAN G17 d   1     -20.431  70.119 132.862  0.00  0.00    -0.074 A 
ATOM      5  CAM G17 d   1     -21.005  70.634 134.019  0.00  0.00    -0.051 A 
ATOM      6  CAL G17 d   1     -20.542  71.834 134.566  0.00  0.00    -0.018 A 
ATOM      7  H6  G17 d   1     -19.136  73.405 134.304  0.00  0.00     0.088 H 
ATOM      8  H7  G17 d   1     -18.958  70.345 131.342  0.00  0.00     0.086 H 
ATOM      9  H8  G17 d   1     -20.803  69.188 132.449  0.00  0.00     0.084 H 
ENDROOT
BRANCH   6  10
ATOM     10  CAI G17 d   1     -21.153  72.370 135.714  0.00  0.00    -0.024 A 
ATOM     11  CAH G17 d   1     -20.963  71.856 137.006  0.00  0.00    -0.059 A 
ATOM     12  C5  G17 d   1     -21.629  72.422 138.096  0.00  0.00     0.012 A 
ATOM     13  H12 G17 d   1     -20.296  71.015 137.159  0.00  0.00     0.086 H 
ATOM     14  C4  G17 d   1     -22.491  73.514 137.941  0.00  0.00     0.087 A 
ATOM     15  C6  G17 d   1     -21.462  71.901 139.383  0.00  0.00     0.033 A 
ATOM     16  CAK G17 d   1     -22.680  74.025 136.656  0.00  0.00    -0.053 A 
ATOM     17  N3  G17 d   1     -23.123  74.052 139.017  0.00  0.00    -0.062 NA
ATOM     18  CAJ G17 d   1     -22.015  73.471 135.565  0.00  0.00    -0.070 A 
ATOM     19  H14 G17 d   1     -23.352  74.862 136.506  0.00  0.00     0.087 H 
ATOM     20  H13 G17 d   1     -22.165  73.898 134.580  0.00  0.00     0.084 H 
ATOM     21  C2  G17 d   1     -22.929  73.532 140.258  0.00  0.00     0.723 A 
ATOM     22  N1  G17 d   1     -22.127  72.478 140.466  0.00  0.00    -0.074 NA
ATOM     23  H15 G17 d   1     -20.814  71.046 139.540  0.00  0.00     0.117 H 
BRANCH  21  24
ATOM     24  NAG G17 d   1     -23.519  74.020 141.313  0.00  0.00    -0.218 N 
ATOM     25  H16 G17 d   1     -23.308  73.633 142.244  0.00  0.00     0.178 HD
BRANCH  24  26
ATOM     26  CBD G17 d   1     -24.473  75.107 141.181  0.00  0.00     0.026 A 
ATOM     27  CBC G17 d   1     -23.900  76.500 141.319  0.00  0.00    -0.044 A 
ATOM     28  CBB G17 d   1     -24.725  75.890 142.445  0.00  0.00    -0.044 A 
ATOM     29  H18 G17 d   1     -24.310  77.327 140.720  0.00  0.00     0.036 H 
ATOM     30  H19 G17 d   1     -22.816  76.640 141.444  0.00  0.00     0.036 H 
ATOM     31  H20 G17 d   1     -24.238  75.590 143.384  0.00  0.00     0.036 H 
ATOM     32  H21 G17 d   1     -25.732  76.277 142.661  0.00  0.00     0.036 H 
ATOM     33  H17 G17 d   1     -25.275  74.874 140.465  0.00  0.00     0.073 H 
ENDBRANCH  24  26
ENDBRANCH  21  24
ENDBRANCH   6  10
BRANCH   5  34
ATOM     34  CAR G17 d   1     -22.065  69.930 134.595  0.00  0.00    -0.050 C 
ATOM     35  H9  G17 d   1     -22.264  69.021 134.008  0.00  0.00     0.033 H 
ATOM     36  H10 G17 d   1     -22.964  70.564 134.605  0.00  0.00     0.033 H 
ATOM     37  H11 G17 d   1     -21.802  69.650 135.626  0.00  0.00     0.033 H 
ENDBRANCH   5  34
BRANCH   1  38
ATOM     38  NAS G17 d   1     -17.856  72.510 132.050  0.00  0.00    -0.323 N 
ATOM     39  CAT G17 d   1     -16.882  73.330 132.626  0.00  0.00     0.256 C 
ATOM     40  OBA G17 d   1     -16.980  73.741 133.772  0.00  0.00    -0.267 OA
ATOM     41  H5  G17 d   1     -17.774  72.299 131.076  0.00  0.00     0.169 HD
BRANCH  39  42
ATOM     42  CAU G17 d   1     -15.764  73.758 131.858  0.00  0.00     0.033 A 
ATOM     43  CAV G17 d   1     -14.543  74.143 132.471  0.00  0.00    -0.053 A 
ATOM     44  CAW G17 d   1     -13.394  74.577 131.780  0.00  0.00     0.048 A 
ATOM     45  H1  G17 d   1     -14.490  74.100 133.553  0.00  0.00     0.086 H 
ATOM     46  CAX G17 d   1     -13.451  74.660 130.399  0.00  0.00    -0.068 A 
ATOM     47  CAY G17 d   1     -14.639  74.298 129.739  0.00  0.00    -0.081 A 
ATOM     48  H2  G17 d   1     -12.591  75.000 129.834  0.00  0.00     0.084 H 
ATOM     49  CAZ G17 d   1     -15.771  73.857 130.448  0.00  0.00    -0.068 A 
ATOM     50  H3  G17 d   1     -14.683  74.360 128.658  0.00  0.00     0.083 H 
ATOM     51  H4  G17 d   1     -16.668  73.587 129.902  0.00  0.00     0.085 H 
BRANCH  44  52
ATOM     52  CBE G17 d   1     -12.184  74.972 132.496  0.00  0.00     0.417 C 
ATOM     53  FBF G17 d   1     -12.552  75.748 133.510  0.00  0.00    -0.166 F 
ATOM     54  FBG G17 d   1     -11.299  75.662 131.744  0.00  0.00    -0.166 F 
ATOM     55  FBH G17 d   1     -11.534  74.051 132.946  0.00  0.00    -0.166 F 
ENDBRANCH  44  52
ENDBRANCH  39  42
ENDBRANCH   1  38
TORSDOF 7
