REMARK  11 active torsions:
REMARK  status: ('A' for Active; 'I' for Inactive)
REMARK    1  A    between atoms: N3_2  and  C8_7 
REMARK    2  A    between atoms: C5_4  and  C9_34 
REMARK    3  A    between atoms: N5_28  and  C7_6 
REMARK    4  A    between atoms: C9_34  and  C10_8 
REMARK       I    between atoms: C21_13  and  N6_18 
REMARK    5  A    between atoms: C18_23  and  C21_13 
REMARK    6  A    between atoms: N6_18  and  C22_14 
REMARK    7  A    between atoms: N7_20  and  C30_21 
REMARK    8  A    between atoms: C16_24  and  O3_25 
REMARK    9  A    between atoms: O3_25  and  C31_26 
REMARK   10  A    between atoms: C1_29  and  N5_28 
REMARK   11  A    between atoms: N4_36  and  C11_37 
ROOT
ATOM      1  N5  R78 d   1       6.507   6.691  10.557  0.00  0.00    -0.185 N 
ATOM      2  H31 R78 d   1       5.692   6.087  10.377  0.00  0.00     0.184 HD
ENDROOT
BRANCH   1   3
ATOM      3  C7  R78 d   1       6.218   7.983  10.881  0.00  0.00     0.082 A 
ATOM      4  C20 R78 d   1       7.132   8.875  11.458  0.00  0.00    -0.053 A 
ATOM      5  C19 R78 d   1       6.743  10.183  11.768  0.00  0.00    -0.065 A 
ATOM      6  H12 R78 d   1       8.145   8.550  11.665  0.00  0.00     0.087 H 
ATOM      7  C18 R78 d   1       5.442  10.635  11.513  0.00  0.00     0.034 A 
ATOM      8  H30 R78 d   1       7.463  10.860  12.214  0.00  0.00     0.085 H 
ATOM      9  C17 R78 d   1       4.500   9.779  10.946  0.00  0.00    -0.033 A 
ATOM     10  C16 R78 d   1       4.833   8.466  10.618  0.00  0.00     0.096 A 
ATOM     11  H11 R78 d   1       3.495  10.139  10.758  0.00  0.00     0.089 H 
BRANCH   7  12
ATOM     12  C21 R78 d   1       5.020  12.038  11.853  0.00  0.00     0.252 C 
ATOM     13  O2  R78 d   1       4.082  12.181  12.622  0.00  0.00    -0.268 OA
ATOM     14  N6  R78 d   1       5.659  13.083  11.321  0.00  0.00    -0.352 N 
ATOM     15  H18 R78 d   1       6.514  12.928  10.827  0.00  0.00     0.163 HD
BRANCH  14  16
ATOM     16  C22 R78 d   1       5.149  14.440  11.438  0.00  0.00     0.015 C 
ATOM     17  C29 R78 d   1       6.150  15.346  12.151  0.00  0.00    -0.023 C 
ATOM     18  C28 R78 d   1       5.560  16.745  12.344  0.00  0.00     0.085 C 
ATOM     19  H19 R78 d   1       7.067  15.419  11.547  0.00  0.00     0.038 H 
ATOM     20  H20 R78 d   1       6.392  14.916  13.134  0.00  0.00     0.038 H 
ATOM     21  N7  R78 d   1       5.123  17.218  11.029  0.00  0.00    -0.075 N 
ATOM     22  H16 R78 d   1       6.324  17.423  12.753  0.00  0.00     0.076 H 
ATOM     23  H17 R78 d   1       4.703  16.701  13.032  0.00  0.00     0.076 H 
ATOM     24  C24 R78 d   1       4.215  16.425  10.200  0.00  0.00     0.085 C 
ATOM     25  H21 R78 d   1       5.914  16.763  10.601  0.00  0.00     0.279 HD
ATOM     26  C23 R78 d   1       4.840  15.035  10.065  0.00  0.00    -0.023 C 
ATOM     27  H14 R78 d   1       4.105  16.889   9.209  0.00  0.00     0.076 H 
ATOM     28  H15 R78 d   1       3.229  16.352  10.682  0.00  0.00     0.076 H 
ATOM     29  H25 R78 d   1       4.138  14.374   9.536  0.00  0.00     0.038 H 
ATOM     30  H26 R78 d   1       5.774  15.114   9.489  0.00  0.00     0.038 H 
ATOM     31  H13 R78 d   1       4.220  14.409  12.026  0.00  0.00     0.072 H 
BRANCH  21  32
ATOM     32  C30 R78 d   1       5.587  18.510  10.540  0.00  0.00     0.066 C 
ATOM     33  H22 R78 d   1       5.161  18.699   9.544  0.00  0.00     0.068 H 
ATOM     34  H23 R78 d   1       6.685  18.504  10.474  0.00  0.00     0.068 H 
ATOM     35  H24 R78 d   1       5.265  19.301  11.233  0.00  0.00     0.068 H 
ENDBRANCH  21  32
ENDBRANCH  14  16
ENDBRANCH   7  12
BRANCH  10  36
ATOM     36  O3  R78 d   1       3.906   7.624  10.053  0.00  0.00    -0.354 OA
BRANCH  36  37
ATOM     37  C31 R78 d   1       2.508   7.919  10.093  0.00  0.00     0.010 C 
ATOM     38  H27 R78 d   1       1.950   7.119   9.585  0.00  0.00     0.066 H 
ATOM     39  H28 R78 d   1       2.321   8.876   9.584  0.00  0.00     0.066 H 
ATOM     40  H29 R78 d   1       2.178   7.989  11.140  0.00  0.00     0.066 H 
ENDBRANCH  36  37
ENDBRANCH  10  36
ENDBRANCH   1   3
BRANCH   1  41
ATOM     41  C1  R78 d   1       7.718   6.089  10.438  0.00  0.00     0.728 A 
ATOM     42  N1  R78 d   1       7.726   4.764  10.132  0.00  0.00    -0.073 NA
ATOM     43  C4  R78 d   1       8.863   4.064   9.988  0.00  0.00     0.051 A 
ATOM     44  C3  R78 d   1      10.093   4.702  10.154  0.00  0.00     0.102 A 
ATOM     45  H1  R78 d   1       8.825   3.009   9.744  0.00  0.00     0.119 H 
ATOM     46  C2  R78 d   1      10.084   6.146  10.490  0.00  0.00     0.174 A 
ATOM     47  N4  R78 d   1      11.327   4.030  10.015  0.00  0.00    -0.316 N 
ATOM     48  N3  R78 d   1      11.298   6.859  10.666  0.00  0.00    -0.345 N 
ATOM     49  N2  R78 d   1       8.883   6.763  10.613  0.00  0.00    -0.043 NA
ATOM     50  C5  R78 d   1      12.615   6.183  10.512  0.00  0.00     0.091 A 
ATOM     51  C6  R78 d   1      12.552   4.725  10.210  0.00  0.00     0.247 A 
ATOM     52  H2  R78 d   1      13.177   6.328  11.446  0.00  0.00     0.087 H 
ATOM     53  O1  R78 d   1      13.641   4.111  10.074  0.00  0.00    -0.271 OA
BRANCH  48  54
ATOM     54  C8  R78 d   1      11.161   8.295  11.031  0.00  0.00     0.014 C 
ATOM     55  C15 R78 d   1      11.103   9.287   9.875  0.00  0.00    -0.046 C 
ATOM     56  C14 R78 d   1      11.641  10.602  10.441  0.00  0.00    -0.063 C 
ATOM     57  H9  R78 d   1      10.067   9.413   9.527  0.00  0.00     0.036 H 
ATOM     58  H10 R78 d   1      11.730   8.942   9.040  0.00  0.00     0.036 H 
ATOM     59  C13 R78 d   1      12.575  10.234  11.621  0.00  0.00    -0.063 C 
ATOM     60  H32 R78 d   1      12.204  11.145   9.668  0.00  0.00     0.033 H 
ATOM     61  H33 R78 d   1      10.810  11.229  10.797  0.00  0.00     0.033 H 
ATOM     62  C12 R78 d   1      12.240   8.783  12.005  0.00  0.00    -0.046 C 
ATOM     63  H7  R78 d   1      12.393  10.905  12.474  0.00  0.00     0.033 H 
ATOM     64  H8  R78 d   1      13.628  10.312  11.311  0.00  0.00     0.033 H 
ATOM     65  H34 R78 d   1      13.138   8.153  11.919  0.00  0.00     0.036 H 
ATOM     66  H35 R78 d   1      11.862   8.744  13.037  0.00  0.00     0.036 H 
ATOM     67  H3  R78 d   1      10.197   8.371  11.555  0.00  0.00     0.072 H 
ENDBRANCH  48  54
BRANCH  50  68
ATOM     68  C9  R78 d   1      13.396   6.790   9.331  0.00  0.00    -0.041 C 
ATOM     69  H36 R78 d   1      14.412   6.368   9.330  0.00  0.00     0.036 H 
ATOM     70  H37 R78 d   1      13.452   7.880   9.472  0.00  0.00     0.036 H 
BRANCH  68  71
ATOM     71  C10 R78 d   1      12.755   6.510   7.981  0.00  0.00    -0.074 C 
ATOM     72  H4  R78 d   1      13.360   6.969   7.186  0.00  0.00     0.027 H 
ATOM     73  H5  R78 d   1      11.741   6.935   7.962  0.00  0.00     0.027 H 
ATOM     74  H6  R78 d   1      12.700   5.423   7.819  0.00  0.00     0.027 H 
ENDBRANCH  68  71
ENDBRANCH  50  68
BRANCH  47  75
ATOM     75  C11 R78 d   1      11.347   2.597   9.683  0.00  0.00    -0.011 C 
ATOM     76  H38 R78 d   1      12.389   2.251   9.617  0.00  0.00     0.057 H 
ATOM     77  H39 R78 d   1      10.845   2.437   8.717  0.00  0.00     0.057 H 
ATOM     78  H40 R78 d   1      10.822   2.032  10.467  0.00  0.00     0.057 H 
ENDBRANCH  47  75
ENDBRANCH   1  41
TORSDOF 11
