REMARK  5 active torsions:
REMARK  status: ('A' for Active; 'I' for Inactive)
REMARK    1  A    between atoms: N12_3  and  C24_4 
REMARK    2  A    between atoms: C14_8  and  C21_9 
REMARK    3  A    between atoms: C21_9  and  C22_10 
REMARK    4  A    between atoms: N15_11  and  C16_12 
REMARK    5  A    between atoms: C6_19  and  C2_20 
ROOT
ATOM      1  O23 1D1 d   1      13.609   4.241  10.452  0.00  0.00    -0.271 OA
ATOM      2  C13 1D1 d   1      12.508   4.828  10.447  0.00  0.00     0.247 A 
ATOM      3  N12 1D1 d   1      11.326   4.100  10.172  0.00  0.00    -0.316 N 
ATOM      4  C9  1D1 d   1      10.081   4.759  10.150  0.00  0.00     0.101 A 
ATOM      5  C8  1D1 d   1       8.887   4.097   9.892  0.00  0.00     0.034 A 
ATOM      6  N7  1D1 d   1       7.740   4.784   9.890  0.00  0.00    -0.237 NA
ATOM      7  C14 1D1 d   1      12.517   6.295  10.672  0.00  0.00     0.091 A 
ATOM      8  N15 1D1 d   1      11.199   6.953  10.691  0.00  0.00    -0.346 N 
ATOM      9  C10 1D1 d   1      10.023   6.218  10.426  0.00  0.00     0.158 A 
ATOM     10  N11 1D1 d   1       8.821   6.827  10.405  0.00  0.00    -0.207 NA
ATOM     11  C6  1D1 d   1       7.698   6.118  10.145  0.00  0.00     0.178 A 
ATOM     12  H4  1D1 d   1       8.885   3.031   9.694  0.00  0.00     0.118 H 
ATOM     13  H5  1D1 d   1      13.051   6.527  11.605  0.00  0.00     0.087 H 
ENDROOT
BRANCH   8  14
ATOM     14  C16 1D1 d   1      11.045   8.401  10.986  0.00  0.00     0.014 C 
ATOM     15  C20 1D1 d   1      10.919   9.361   9.813  0.00  0.00    -0.046 C 
ATOM     16  C19 1D1 d   1      11.260  10.726  10.415  0.00  0.00    -0.063 C 
ATOM     17  H12 1D1 d   1       9.895   9.355   9.411  0.00  0.00     0.036 H 
ATOM     18  H13 1D1 d   1      11.628   9.098   9.014  0.00  0.00     0.036 H 
ATOM     19  C18 1D1 d   1      12.094  10.477  11.673  0.00  0.00    -0.063 C 
ATOM     20  H14 1D1 d   1      10.336  11.263  10.677  0.00  0.00     0.033 H 
ATOM     21  H15 1D1 d   1      11.838  11.321   9.693  0.00  0.00     0.033 H 
ATOM     22  C17 1D1 d   1      12.147   8.970  11.886  0.00  0.00    -0.046 C 
ATOM     23  H16 1D1 d   1      11.623  10.964  12.540  0.00  0.00     0.033 H 
ATOM     24  H17 1D1 d   1      13.111  10.874  11.536  0.00  0.00     0.033 H 
ATOM     25  H18 1D1 d   1      13.130   8.573  11.592  0.00  0.00     0.036 H 
ATOM     26  H19 1D1 d   1      11.952   8.722  12.940  0.00  0.00     0.036 H 
ATOM     27  H11 1D1 d   1      10.101   8.474  11.546  0.00  0.00     0.072 H 
ENDBRANCH   8  14
BRANCH   7  28
ATOM     28  C21 1D1 d   1      13.264   6.831   9.436  0.00  0.00    -0.041 C 
ATOM     29  H6  1D1 d   1      14.242   6.331   9.380  0.00  0.00     0.036 H 
ATOM     30  H7  1D1 d   1      13.413   7.913   9.565  0.00  0.00     0.036 H 
BRANCH  28  31
ATOM     31  C22 1D1 d   1      12.534   6.603   8.115  0.00  0.00    -0.074 C 
ATOM     32  H8  1D1 d   1      13.133   7.014   7.289  0.00  0.00     0.027 H 
ATOM     33  H9  1D1 d   1      11.557   7.107   8.144  0.00  0.00     0.027 H 
ATOM     34  H10 1D1 d   1      12.386   5.524   7.959  0.00  0.00     0.027 H 
ENDBRANCH  28  31
ENDBRANCH   7  28
BRANCH   3  35
ATOM     35  C24 1D1 d   1      11.412   2.658   9.906  0.00  0.00    -0.011 C 
ATOM     36  H1  1D1 d   1      12.462   2.336   9.969  0.00  0.00     0.057 H 
ATOM     37  H2  1D1 d   1      11.024   2.447   8.899  0.00  0.00     0.057 H 
ATOM     38  H3  1D1 d   1      10.815   2.111  10.651  0.00  0.00     0.057 H 
ENDBRANCH   3  35
BRANCH  11  39
ATOM     39  C2  1D1 d   1       6.392   6.828  10.117  0.00  0.00     0.080 A 
ATOM     40  C3  1D1 d   1       5.140   6.460   9.669  0.00  0.00    -0.052 A 
ATOM     41  C4  1D1 d   1       4.344   7.563   9.892  0.00  0.00    -0.066 A 
ATOM     42  H20 1D1 d   1       4.845   5.506   9.234  0.00  0.00     0.087 H 
ATOM     43  C5  1D1 d   1       5.136   8.555  10.441  0.00  0.00    -0.022 A 
ATOM     44  H21 1D1 d   1       3.280   7.640   9.674  0.00  0.00     0.085 H 
ATOM     45  N1  1D1 d   1       6.401   8.088  10.573  0.00  0.00    -0.363 N 
ATOM     46  H22 1D1 d   1       4.797   9.551  10.722  0.00  0.00     0.111 H 
ATOM     47  H23 1D1 d   1       7.211   8.601  10.950  0.00  0.00     0.165 HD
ENDBRANCH  11  39
TORSDOF 5
