REMARK  7 active torsions:
REMARK  status: ('A' for Active; 'I' for Inactive)
REMARK    1  A    between atoms: C7_10  and  C2_3 
REMARK    2  A    between atoms: C8_11  and  C7_10 
REMARK    3  A    between atoms: C9_12  and  C8_11 
REMARK    4  A    between atoms: C10_13  and  C9_12 
REMARK    5  A    between atoms: C11_14  and  C10_13 
REMARK    6  A    between atoms: C17_19  and  C11_14 
REMARK    7  A    between atoms: C23_25  and  C22_24 
ROOT
ATOM      1  C10 B1R d   1      46.347  27.355   4.728  0.00  0.00    -0.006 C 
ATOM      2  H14 B1R d   1      47.086  27.459   5.536  0.00  0.00     0.044 H 
ATOM      3  H15 B1R d   1      46.719  27.859   3.824  0.00  0.00     0.044 H 
ENDROOT
BRANCH   1   4
ATOM      4  C9  B1R d   1      45.016  28.020   5.169  0.00  0.00    -0.059 C 
ATOM      5  H12 B1R d   1      45.035  29.080   4.877  0.00  0.00     0.033 H 
ATOM      6  H13 B1R d   1      44.181  27.515   4.662  0.00  0.00     0.033 H 
BRANCH   4   7
ATOM      7  C8  B1R d   1      44.803  27.927   6.689  0.00  0.00    -0.064 C 
ATOM      8  H10 B1R d   1      44.218  27.022   6.909  0.00  0.00     0.033 H 
ATOM      9  H11 B1R d   1      45.785  27.857   7.180  0.00  0.00     0.033 H 
BRANCH   7  10
ATOM     10  C7  B1R d   1      44.054  29.149   7.252  0.00  0.00    -0.051 C 
ATOM     11  H8  B1R d   1      44.248  29.218   8.332  0.00  0.00     0.034 H 
ATOM     12  H9  B1R d   1      44.428  30.055   6.754  0.00  0.00     0.034 H 
BRANCH  10  13
ATOM     13  C2  B1R d   1      42.528  29.049   7.025  0.00  0.00     0.012 C 
ATOM     14  S1  B1R d   1      41.957  30.529   6.287  0.00  0.00    -0.160 SA
ATOM     15  C6  B1R d   1      40.359  30.481   7.016  0.00  0.00    -0.002 C 
ATOM     16  C5  B1R d   1      40.427  29.666   8.274  0.00  0.00     0.042 A 
ATOM     17  H6  B1R d   1      39.647  30.021   6.315  0.00  0.00     0.052 H 
ATOM     18  H7  B1R d   1      40.031  31.503   7.255  0.00  0.00     0.052 H 
ATOM     19  N1  B1R d   1      40.550  30.553   9.411  0.00  0.00    -0.336 N 
ATOM     20  C4  B1R d   1      41.762  28.868   8.323  0.00  0.00     0.046 A 
ATOM     21  H5  B1R d   1      39.550  29.006   8.356  0.00  0.00     0.077 H 
ATOM     22  C3  B1R d   1      41.731  30.459   9.985  0.00  0.00     0.316 A 
ATOM     23  H1  B1R d   1      39.824  31.165   9.724  0.00  0.00     0.164 HD
ATOM     24  N2  B1R d   1      42.453  29.505   9.440  0.00  0.00    -0.335 N 
ATOM     25  O3  B1R d   1      42.129  31.211  10.862  0.00  0.00    -0.247 OA
ATOM     26  H3  B1R d   1      43.367  29.247   9.753  0.00  0.00     0.164 HD
ATOM     27  H4  B1R d   1      41.591  27.798   8.511  0.00  0.00     0.077 H 
ATOM     28  H2  B1R d   1      42.322  28.197   6.361  0.00  0.00     0.059 H 
ENDBRANCH  10  13
ENDBRANCH   7  10
ENDBRANCH   4   7
ENDBRANCH   1   4
BRANCH   1  29
ATOM     29  C11 B1R d   1      46.142  25.860   4.422  0.00  0.00     0.152 C 
ATOM     30  O12 B1R d   1      45.676  25.146   5.271  0.00  0.00    -0.293 OA
BRANCH  29  31
ATOM     31  C17 B1R d   1      46.779  25.240   3.114  0.00  0.00    -0.029 C 
ATOM     32  C16 B1R d   1      46.477  25.652   1.714  0.00  0.00    -0.036 A 
ATOM     33  C15 B1R d   1      46.877  24.672   1.004  0.00  0.00    -0.042 A 
ATOM     34 RU1  B1R d   1      45.253  24.010   2.165  0.00  0.00     0.000 Rh
ATOM     35  H18 B1R d   1      45.397  25.815   1.580  0.00  0.00     0.040 H 
ATOM     36  H19 B1R d   1      47.022  26.571   1.452  0.00  0.00     0.040 H 
ATOM     37  C14 B1R d   1      47.249  23.589   1.709  0.00  0.00    -0.038 A 
ATOM     38  H17 B1R d   1      46.914  24.709  -0.084  0.00  0.00     0.041 H 
ATOM     39  C18 B1R d   1      47.236  23.958   2.981  0.00  0.00    -0.017 A 
ATOM     40  H16 B1R d   1      47.508  22.608   1.314  0.00  0.00     0.042 H 
ATOM     41  H20 B1R d   1      47.548  23.325   3.810  0.00  0.00     0.048 H 
ATOM     42  C19 B1R d   1      43.588  23.563   3.293  0.00  0.00    -0.046 A 
ATOM     43  C20 B1R d   1      43.882  22.494   2.562  0.00  0.00    -0.042 A 
ATOM     44  C21 B1R d   1      43.874  22.740   1.292  0.00  0.00    -0.042 A 
ATOM     45  C22 B1R d   1      43.419  24.057   1.197  0.00  0.00    -0.046 A 
ATOM     46  C23 B1R d   1      43.226  24.448   2.403  0.00  0.00    -0.057 A 
ATOM     47  H21 B1R d   1      43.637  23.675   4.375  0.00  0.00     0.041 H 
ATOM     48  H22 B1R d   1      44.106  21.516   2.986  0.00  0.00     0.041 H 
ATOM     49  H23 B1R d   1      44.158  22.071   0.481  0.00  0.00     0.041 H 
ATOM     50  H24 B1R d   1      43.261  24.633   0.286  0.00  0.00     0.041 H 
ATOM     51  H25 B1R d   1      43.805  25.369   2.569  0.00  0.00     0.034 H 
ATOM     52  H26 B1R d   1      42.155  24.659   2.535  0.00  0.00     0.034 H 
ENDBRANCH  29  31
ENDBRANCH   1  29
TORSDOF 7
