REMARK  32 active torsions:
REMARK  status: ('A' for Active; 'I' for Inactive)
REMARK    1  A    between atoms: P_2  and  O5'_5 
REMARK    2  A    between atoms: O5'_5  and  C5'_6 
REMARK    3  A    between atoms: C5'_6  and  C4'_7 
REMARK    4  A    between atoms: C3'_9  and  O3'_10 
REMARK    5  A    between atoms: O3'_10  and  P_25 
REMARK    6  A    between atoms: C2'_11  and  O2'_12 
REMARK    7  A    between atoms: C1'_13  and  N9_14 
REMARK    8  A    between atoms: C2_21  and  N2_22 
REMARK    9  A    between atoms: P_25  and  O5'_28 
REMARK   10  A    between atoms: O5'_28  and  C5'_29 
REMARK   11  A    between atoms: C5'_29  and  C4'_30 
REMARK   12  A    between atoms: C3'_32  and  O3'_33 
REMARK   13  A    between atoms: O3'_33  and  P_48 
REMARK   14  A    between atoms: C2'_34  and  O2'_35 
REMARK   15  A    between atoms: C1'_36  and  N9_37 
REMARK   16  A    between atoms: C2_44  and  N2_45 
REMARK   17  A    between atoms: P_48  and  O5'_51 
REMARK   18  A    between atoms: O5'_51  and  C5'_52 
REMARK   19  A    between atoms: C5'_52  and  C4'_53 
REMARK   20  A    between atoms: C3'_55  and  O3'_56 
REMARK   21  A    between atoms: O3'_56  and  P_71 
REMARK   22  A    between atoms: C2'_57  and  O2'_58 
REMARK   23  A    between atoms: C1'_59  and  N9_60 
REMARK   24  A    between atoms: C2_67  and  N2_68 
REMARK   25  A    between atoms: P_71  and  O5'_73 
REMARK   26  A    between atoms: O5'_73  and  C5'_74 
REMARK   27  A    between atoms: C5'_74  and  C4'_75 
REMARK   28  A    between atoms: C3'_76  and  O3'_77 
REMARK   29  A    between atoms: O3'_77  and  P2_91 
REMARK   30  A    between atoms: C2'_78  and  O2'_79 
REMARK   31  A    between atoms: C1'_80  and  N1_82 
REMARK   32  A    between atoms: C4_85  and  N4_86 
ROOT
ATOM      1  O3'   G d   1      45.108 -15.046 -17.981  0.00  0.00    -0.279 OA
ENDROOT
BRANCH   1   2
ATOM      2  C3'   G d   1      44.279 -15.432 -16.887  0.00  0.00     0.106 C 
ATOM      3  C4'   G d   1      43.136 -16.300 -17.397  0.00  0.00     0.090 C 
ATOM      4  O4'   G d   1      42.036 -15.390 -17.678  0.00  0.00    -0.353 OA
ATOM      5  H15   G d   1      43.455 -16.797 -18.325  0.00  0.00     0.090 H 
ATOM      6  C1'   G d   1      42.409 -14.069 -17.337  0.00  0.00     0.139 C 
ATOM      7  C2'   G d   1      43.552 -14.210 -16.341  0.00  0.00     0.106 C 
ATOM      8  H19   G d   1      42.767 -13.525 -18.223  0.00  0.00     0.122 H 
ATOM      9  H17   G d   1      43.165 -14.415 -15.332  0.00  0.00     0.093 H 
ATOM     10  H16   G d   1      44.871 -15.941 -16.112  0.00  0.00     0.092 H 
BRANCH   3  11
ATOM     11  C5'   G d   1      42.676 -17.364 -16.430  0.00  0.00     0.058 C 
ATOM     12  H13   G d   1      43.519 -18.040 -16.222  0.00  0.00     0.079 H 
ATOM     13  H14   G d   1      42.356 -16.878 -15.496  0.00  0.00     0.079 H 
BRANCH  11  14
ATOM     14  O5'   G d   1      41.591 -18.131 -16.941  0.00  0.00    -0.287 OA
BRANCH  14  15
ATOM     15  P     G d   1      40.857 -19.201 -16.014  0.00  0.00     0.408 P 
ATOM     16  OP1   G d   1      40.443 -20.349 -16.864  0.00  0.00    -0.624 OA
ATOM     17  OP2   G d   1      41.703 -19.416 -14.812  0.00  0.00    -0.624 OA
BRANCH  15  18
ATOM     18  O3'   G d   1      39.532 -18.447 -15.517  0.00  0.00    -0.279 OA
BRANCH  18  19
ATOM     19  C3'   G d   1      38.579 -17.966 -16.462  0.00  0.00     0.106 C 
ATOM     20  C4'   G d   1      38.858 -16.492 -16.749  0.00  0.00     0.090 C 
ATOM     21  O4'   G d   1      38.094 -15.737 -15.769  0.00  0.00    -0.353 OA
ATOM     22  H3    G d   1      39.931 -16.313 -16.588  0.00  0.00     0.090 H 
ATOM     23  C1'   G d   1      37.306 -16.618 -14.995  0.00  0.00     0.139 C 
ATOM     24  C2'   G d   1      37.216 -17.920 -15.791  0.00  0.00     0.106 C 
ATOM     25  H7    G d   1      37.768 -16.805 -14.014  0.00  0.00     0.122 H 
ATOM     26  H5    G d   1      36.423 -17.857 -16.551  0.00  0.00     0.093 H 
ATOM     27  H4    G d   1      38.579 -18.579 -17.375  0.00  0.00     0.092 H 
BRANCH  20  28
ATOM     28  C5'   G d   1      38.527 -16.008 -18.147  0.00  0.00     0.059 C 
ATOM     29  H1    G d   1      38.954 -15.003 -18.279  0.00  0.00     0.079 H 
ATOM     30  H2    G d   1      38.983 -16.698 -18.872  0.00  0.00     0.079 H 
BRANCH  28  31
ATOM     31  O5'   G d   1      37.123 -15.941 -18.406  0.00  0.00    -0.280 OA
BRANCH  31  32
ATOM     32  P     G d   1      36.575 -15.513 -19.847  0.00  0.00     0.422 P 
ATOM     33  OP3   G d   1      35.011 -15.228 -19.606  0.00  0.00    -0.617 OA
ATOM     34  OP1   G d   1      36.673 -16.698 -20.742  0.00  0.00    -0.617 OA
ATOM     35  OP2   G d   1      37.221 -14.233 -20.252  0.00  0.00    -0.617 OA
ENDBRANCH  31  32
ENDBRANCH  28  31
ENDBRANCH  20  28
BRANCH  23  36
ATOM     36  N9    G d   1      36.004 -15.992 -14.818  0.00  0.00    -0.295 N 
ATOM     37  C8    G d   1      35.380 -15.125 -15.683  0.00  0.00     0.071 A 
ATOM     38  N7    G d   1      34.202 -14.747 -15.268  0.00  0.00    -0.234 NA
ATOM     39  H8    G d   1      35.823 -14.788 -16.619  0.00  0.00     0.144 H 
ATOM     40  C5    G d   1      34.044 -15.419 -14.065  0.00  0.00     0.171 A 
ATOM     41  C6    G d   1      32.964 -15.404 -13.156  0.00  0.00     0.292 A 
ATOM     42  C4    G d   1      35.150 -16.196 -13.776  0.00  0.00     0.161 A 
ATOM     43  O6    G d   1      31.904 -14.770 -13.243  0.00  0.00    -0.265 OA
ATOM     44  N1    G d   1      33.224 -16.233 -12.065  0.00  0.00    -0.154 N 
ATOM     45  C2    G d   1      34.369 -16.977 -11.875  0.00  0.00     0.680 A 
ATOM     46  H9    G d   1      32.518 -16.293 -11.359  0.00  0.00     0.187 HD
ATOM     47  N3    G d   1      35.387 -17.001 -12.719  0.00  0.00    -0.174 N 
ATOM     48  H12   G d   1      36.243 -17.558 -12.588  0.00  0.00     0.186 HD
BRANCH  45  49
ATOM     49  N2    G d   1      34.422 -17.713 -10.755  0.00  0.00    -0.234 N 
ATOM     50  H10   G d   1      35.252 -18.290 -10.557  0.00  0.00     0.174 HD
ATOM     51  H11   G d   1      33.633 -17.701 -10.093  0.00  0.00     0.174 HD
ENDBRANCH  45  49
ENDBRANCH  23  36
BRANCH  24  52
ATOM     52  O2'   G d   1      36.935 -19.022 -14.951  0.00  0.00    -0.388 OA
ATOM     53  H6    G d   1      37.583 -19.063 -14.257  0.00  0.00     0.210 HD
ENDBRANCH  24  52
ENDBRANCH  18  19
ENDBRANCH  15  18
ENDBRANCH  14  15
ENDBRANCH  11  14
ENDBRANCH   3  11
BRANCH   6  54
ATOM     54  N9    G d   1      41.215 -13.393 -16.818  0.00  0.00    -0.295 N 
ATOM     55  C8    G d   1      40.508 -12.431 -17.498  0.00  0.00     0.071 A 
ATOM     56  N7    G d   1      39.468 -11.993 -16.847  0.00  0.00    -0.234 NA
ATOM     57  H20   G d   1      40.790 -12.069 -18.486  0.00  0.00     0.144 H 
ATOM     58  C5    G d   1      39.472 -12.712 -15.652  0.00  0.00     0.171 A 
ATOM     59  C6    G d   1      38.568 -12.662 -14.548  0.00  0.00     0.292 A 
ATOM     60  C4    G d   1      40.545 -13.583 -15.616  0.00  0.00     0.161 A 
ATOM     61  O6    G d   1      37.564 -11.950 -14.378  0.00  0.00    -0.265 OA
ATOM     62  N1    G d   1      38.938 -13.550 -13.551  0.00  0.00    -0.154 N 
ATOM     63  C2    G d   1      40.024 -14.384 -13.611  0.00  0.00     0.680 A 
ATOM     64  H21   G d   1      38.371 -13.585 -12.728  0.00  0.00     0.187 HD
ATOM     65  N3    G d   1      40.869 -14.443 -14.629  0.00  0.00    -0.174 N 
ATOM     66  H24   G d   1      41.682 -15.075 -14.663  0.00  0.00     0.186 HD
BRANCH  63  67
ATOM     67  N2    G d   1      40.204 -15.165 -12.538  0.00  0.00    -0.234 N 
ATOM     68  H22   G d   1      40.998 -15.820 -12.505  0.00  0.00     0.174 HD
ATOM     69  H23   G d   1      39.548 -15.110 -11.745  0.00  0.00     0.174 HD
ENDBRANCH  63  67
ENDBRANCH   6  54
BRANCH   7  70
ATOM     70  O2'   G d   1      44.345 -13.053 -16.281  0.00  0.00    -0.388 OA
ATOM     71  H18   G d   1      44.648 -12.833 -17.154  0.00  0.00     0.210 HD
ENDBRANCH   7  70
ENDBRANCH   1   2
BRANCH   1  72
ATOM     72  P     G d   1      46.557 -15.718 -18.161  0.00  0.00     0.408 P 
ATOM     73  OP1   G d   1      47.311 -14.915 -19.154  0.00  0.00    -0.624 OA
ATOM     74  OP2   G d   1      46.377 -17.190 -18.291  0.00  0.00    -0.624 OA
BRANCH  72  75
ATOM     75  O5'   G d   1      47.263 -15.460 -16.765  0.00  0.00    -0.287 OA
BRANCH  75  76
ATOM     76  C5'   G d   1      47.664 -14.152 -16.387  0.00  0.00     0.058 C 
ATOM     77  H25   G d   1      46.875 -13.696 -15.771  0.00  0.00     0.079 H 
ATOM     78  H26   G d   1      47.819 -13.546 -17.292  0.00  0.00     0.079 H 
BRANCH  76  79
ATOM     79  C4'   G d   1      48.944 -14.197 -15.597  0.00  0.00     0.090 C 
ATOM     80  O4'   G d   1      48.796 -15.143 -14.505  0.00  0.00    -0.353 OA
ATOM     81  C1'   G d   1      49.801 -16.137 -14.592  0.00  0.00     0.139 C 
ATOM     82  C2'   G d   1      50.274 -16.126 -16.037  0.00  0.00     0.106 C 
ATOM     83  H31   G d   1      50.645 -15.890 -13.931  0.00  0.00     0.122 H 
ATOM     84  C3'   G d   1      50.163 -14.647 -16.383  0.00  0.00     0.106 C 
ATOM     85  H29   G d   1      49.607 -16.722 -16.677  0.00  0.00     0.093 H 
ATOM     86  H28   G d   1      50.053 -14.476 -17.464  0.00  0.00     0.092 H 
ATOM     87  H27   G d   1      49.135 -13.190 -15.196  0.00  0.00     0.090 H 
BRANCH  81  88
ATOM     88  N9    G d   1      49.221 -17.414 -14.162  0.00  0.00    -0.295 N 
ATOM     89  C8    G d   1      48.153 -18.074 -14.733  0.00  0.00     0.071 A 
ATOM     90  N7    G d   1      47.845 -19.191 -14.127  0.00  0.00    -0.234 NA
ATOM     91  H32   G d   1      47.618 -17.701 -15.605  0.00  0.00     0.144 H 
ATOM     92  C5    G d   1      48.764 -19.278 -13.087  0.00  0.00     0.171 A 
ATOM     93  C6    G d   1      48.922 -20.284 -12.093  0.00  0.00     0.292 A 
ATOM     94  C4    G d   1      49.620 -18.185 -13.092  0.00  0.00     0.161 A 
ATOM     95  O6    G d   1      48.261 -21.319 -11.935  0.00  0.00    -0.265 OA
ATOM     96  N1    G d   1      49.976 -19.986 -11.235  0.00  0.00    -0.154 N 
ATOM     97  C2    G d   1      50.769 -18.868 -11.325  0.00  0.00     0.680 A 
ATOM     98  H33   G d   1      50.171 -20.634 -10.498  0.00  0.00     0.187 HD
ATOM     99  N3    G d   1      50.643 -17.917 -12.250  0.00  0.00    -0.174 N 
ATOM    100  H36   G d   1      51.247 -17.085 -12.315  0.00  0.00     0.186 HD
BRANCH  97 101
ATOM    101  N2    G d   1      51.723 -18.778 -10.393  0.00  0.00    -0.234 N 
ATOM    102  H34   G d   1      52.363 -17.971 -10.387  0.00  0.00     0.174 HD
ATOM    103  H35   G d   1      51.818 -19.516  -9.681  0.00  0.00     0.174 HD
ENDBRANCH  97 101
ENDBRANCH  81  88
BRANCH  82 104
ATOM    104  O2'   G d   1      51.581 -16.641 -16.144  0.00  0.00    -0.388 OA
ATOM    105  H30   G d   1      52.155 -16.169 -15.552  0.00  0.00     0.210 HD
ENDBRANCH  82 104
BRANCH  84 106
ATOM    106  O3'   G d   1      51.296 -13.979 -15.869  0.00  0.00    -0.279 OA
BRANCH 106 107
ATOM    107  P   RPC d   1      52.471 -13.584 -16.866  0.00  0.00     0.408 P 
ATOM    108  OP1 RPC d   1      53.391 -14.748 -16.992  0.00  0.00    -0.624 OA
ATOM    109  OP2 RPC d   1      51.822 -12.970 -18.053  0.00  0.00    -0.624 OA
BRANCH 107 110
ATOM    110  O5' RPC d   1      53.239 -12.426 -16.111  0.00  0.00    -0.287 OA
BRANCH 110 111
ATOM    111  C5' RPC d   1      53.576 -11.243 -16.807  0.00  0.00     0.058 C 
ATOM    112  H37 RPC d   1      53.048 -11.230 -17.772  0.00  0.00     0.079 H 
ATOM    113  H38 RPC d   1      54.662 -11.225 -16.983  0.00  0.00     0.079 H 
BRANCH 111 114
ATOM    114  C4' RPC d   1      53.186 -10.031 -16.017  0.00  0.00     0.090 C 
ATOM    115  C3' RPC d   1      54.234  -8.929 -16.029  0.00  0.00     0.107 C 
ATOM    116  C2' RPC d   1      55.033  -9.228 -14.766  0.00  0.00     0.106 C 
ATOM    117  H40 RPC d   1      54.861  -8.954 -16.933  0.00  0.00     0.092 H 
ATOM    118  C1' RPC d   1      53.926  -9.685 -13.820  0.00  0.00     0.141 C 
ATOM    119  H41 RPC d   1      55.743 -10.047 -14.955  0.00  0.00     0.093 H 
ATOM    120  O4' RPC d   1      53.013 -10.411 -14.622  0.00  0.00    -0.353 OA
ATOM    121  H43 RPC d   1      53.434  -8.800 -13.389  0.00  0.00     0.123 H 
ATOM    122  H39 RPC d   1      52.242  -9.636 -16.422  0.00  0.00     0.090 H 
BRANCH 115 123
ATOM    123  O3' RPC d   1      53.575  -7.675 -15.902  0.00  0.00    -0.272 OA
BRANCH 123 124
ATOM    124  P2  RPC d   1      54.260  -6.358 -16.494  0.00  0.00     0.422 P 
ATOM    125  OP4 RPC d   1      54.332  -5.388 -15.371  0.00  0.00    -0.617 OA
ATOM    126  OP5 RPC d   1      53.213  -5.841 -17.587  0.00  0.00    -0.617 OA
ATOM    127  OP6 RPC d   1      55.485  -6.801 -17.208  0.00  0.00    -0.617 OA
ENDBRANCH 123 124
ENDBRANCH 115 123
BRANCH 116 128
ATOM    128  O2' RPC d   1      55.761  -8.133 -14.247  0.00  0.00    -0.388 OA
ATOM    129  H42 RPC d   1      56.227  -8.406 -13.465  0.00  0.00     0.210 HD
ENDBRANCH 116 128
BRANCH 118 130
ATOM    130  N1  RPC d   1      54.380 -10.546 -12.720  0.00  0.00    -0.280 N 
ATOM    131  C6  RPC d   1      54.294 -11.907 -12.774  0.00  0.00    -0.010 A 
ATOM    132  C5  RPC d   1      54.712 -12.669 -11.749  0.00  0.00    -0.026 A 
ATOM    133  H44 RPC d   1      53.880 -12.383 -13.662  0.00  0.00     0.112 H 
ATOM    134  C4  RPC d   1      55.239 -12.012 -10.599  0.00  0.00     0.103 A 
ATOM    135  H45 RPC d   1      54.650 -13.755 -11.796  0.00  0.00     0.091 H 
ATOM    136  N3  RPC d   1      55.330 -10.683 -10.537  0.00  0.00    -0.295 N 
ATOM    137  C2  RPC d   1      54.901  -9.926 -11.583  0.00  0.00     0.330 A 
ATOM    138  H48 RPC d   1      55.712 -10.244  -9.724  0.00  0.00     0.172 HD
ATOM    139  O2  RPC d   1      54.958  -8.685 -11.580  0.00  0.00    -0.246 OA
BRANCH 134 140
ATOM    140  N4  RPC d   1      55.661 -12.727  -9.549  0.00  0.00    -0.385 N 
ATOM    141  H46 RPC d   1      56.041 -12.249  -8.720  0.00  0.00     0.157 HD
ATOM    142  H47 RPC d   1      55.605 -13.755  -9.570  0.00  0.00     0.157 HD
ENDBRANCH 134 140
ENDBRANCH 118 130
ENDBRANCH 111 114
ENDBRANCH 110 111
ENDBRANCH 107 110
ENDBRANCH 106 107
ENDBRANCH  84 106
ENDBRANCH  76  79
ENDBRANCH  75  76
ENDBRANCH  72  75
ENDBRANCH   1  72
TORSDOF 32
