REMARK  4 active torsions:
REMARK  status: ('A' for Active; 'I' for Inactive)
REMARK    1  A    between atoms: N7_3  and  C19_4 
REMARK    2  A    between atoms: C9_6  and  C16_7 
REMARK    3  A    between atoms: C16_7  and  C17_8 
REMARK    4  A    between atoms: N10_9  and  C11_10 
ROOT
ATOM      1  O18 11G d   1      13.745   4.330  10.278  0.00  0.00    -0.271 OA
ATOM      2  C8  11G d   1      12.600   4.834  10.316  0.00  0.00     0.247 A 
ATOM      3  N7  11G d   1      11.455   4.035  10.073  0.00  0.00    -0.316 N 
ATOM      4  C2  11G d   1      10.171   4.634  10.086  0.00  0.00     0.100 A 
ATOM      5  C9  11G d   1      12.529   6.292  10.539  0.00  0.00     0.091 A 
ATOM      6  N10 11G d   1      11.184   6.878  10.628  0.00  0.00    -0.346 N 
ATOM      7  C3  11G d   1      10.041   6.085  10.389  0.00  0.00     0.156 A 
ATOM      8  N4  11G d   1       8.799   6.624  10.406  0.00  0.00    -0.222 NA
ATOM      9  C5  11G d   1       7.725   5.857  10.160  0.00  0.00     0.088 A 
ATOM     10  N6  11G d   1       7.819   4.542   9.890  0.00  0.00    -0.252 NA
ATOM     11  C1  11G d   1       9.000   3.910   9.854  0.00  0.00     0.033 A 
ATOM     12  H4  11G d   1      13.111   6.570  11.430  0.00  0.00     0.087 H 
ATOM     13  H19 11G d   1       6.743   6.315  10.180  0.00  0.00     0.146 H 
ATOM     14  H20 11G d   1       9.046   2.847   9.647  0.00  0.00     0.118 H 
ENDROOT
BRANCH   6  15
ATOM     15  C11 11G d   1      11.003   8.319  10.963  0.00  0.00     0.014 C 
ATOM     16  C15 11G d   1      10.830   9.324   9.841  0.00  0.00    -0.046 C 
ATOM     17  C14 11G d   1      11.117  10.669  10.514  0.00  0.00    -0.063 C 
ATOM     18  H11 11G d   1       9.805   9.295   9.443  0.00  0.00     0.036 H 
ATOM     19  H12 11G d   1      11.545   9.132   9.028  0.00  0.00     0.036 H 
ATOM     20  C13 11G d   1      12.038  10.394  11.711  0.00  0.00    -0.063 C 
ATOM     21  H13 11G d   1      10.178  11.125  10.859  0.00  0.00     0.033 H 
ATOM     22  H14 11G d   1      11.614  11.346   9.804  0.00  0.00     0.033 H 
ATOM     23  C12 11G d   1      12.113   8.876  11.859  0.00  0.00    -0.046 C 
ATOM     24  H15 11G d   1      11.621  10.845  12.623  0.00  0.00     0.033 H 
ATOM     25  H16 11G d   1      13.040  10.808  11.523  0.00  0.00     0.033 H 
ATOM     26  H17 11G d   1      13.095   8.506  11.529  0.00  0.00     0.036 H 
ATOM     27  H18 11G d   1      11.944   8.584  12.906  0.00  0.00     0.036 H 
ATOM     28  H10 11G d   1      10.070   8.352  11.544  0.00  0.00     0.072 H 
ENDBRANCH   6  15
BRANCH   5  29
ATOM     29  C16 11G d   1      13.147   6.847   9.229  0.00  0.00    -0.041 C 
ATOM     30  H5  11G d   1      14.152   6.413   9.118  0.00  0.00     0.036 H 
ATOM     31  H6  11G d   1      13.228   7.939   9.329  0.00  0.00     0.036 H 
BRANCH  29  32
ATOM     32  C17 11G d   1      12.356   6.546   7.942  0.00  0.00    -0.074 C 
ATOM     33  H7  11G d   1      12.880   6.982   7.079  0.00  0.00     0.027 H 
ATOM     34  H8  11G d   1      11.350   6.983   8.019  0.00  0.00     0.027 H 
ATOM     35  H9  11G d   1      12.273   5.457   7.809  0.00  0.00     0.027 H 
ENDBRANCH  29  32
ENDBRANCH   5  29
BRANCH   3  36
ATOM     36  C19 11G d   1      11.620   2.601   9.782  0.00  0.00    -0.011 C 
ATOM     37  H1  11G d   1      12.688   2.339   9.822  0.00  0.00     0.057 H 
ATOM     38  H2  11G d   1      11.226   2.383   8.778  0.00  0.00     0.057 H 
ATOM     39  H3  11G d   1      11.070   2.010  10.529  0.00  0.00     0.057 H 
ENDBRANCH   3  36
TORSDOF 4
