REMARK  6 active torsions:
REMARK  status: ('A' for Active; 'I' for Inactive)
REMARK    1  A    between atoms: N7_3  and  C19_4 
REMARK    2  A    between atoms: C9_6  and  C16_7 
REMARK    3  A    between atoms: C16_7  and  C17_8 
REMARK    4  A    between atoms: N10_9  and  C11_10 
REMARK    5  A    between atoms: C5_17  and  N20_20 
REMARK    6  A    between atoms: C21_24  and  C25_25 
ROOT
ATOM      1  O18 1C7 d   1      13.442   4.086  10.070  0.00  0.00    -0.271 OA
ATOM      2  C8  1C7 d   1      12.403   4.696  10.167  0.00  0.00     0.247 A 
ATOM      3  N7  1C7 d   1      11.211   4.042   9.960  0.00  0.00    -0.316 N 
ATOM      4  C2  1C7 d   1      10.019   4.721  10.030  0.00  0.00     0.102 A 
ATOM      5  C9  1C7 d   1      12.509   6.103  10.460  0.00  0.00     0.091 A 
ATOM      6  N10 1C7 d   1      11.247   6.793  10.556  0.00  0.00    -0.345 N 
ATOM      7  C3  1C7 d   1      10.036   6.121  10.355  0.00  0.00     0.174 A 
ATOM      8  N4  1C7 d   1       8.868   6.716  10.428  0.00  0.00    -0.042 NA
ATOM      9  C5  1C7 d   1       7.774   6.044  10.196  0.00  0.00     0.736 A 
ATOM     10  N6  1C7 d   1       7.753   4.781   9.905  0.00  0.00    -0.072 NA
ATOM     11  C1  1C7 d   1       8.850   4.109   9.815  0.00  0.00     0.051 A 
ATOM     12  H4  1C7 d   1      13.091   6.272  11.378  0.00  0.00     0.087 H 
ATOM     13  H17 1C7 d   1       8.824   3.054   9.566  0.00  0.00     0.119 H 
ENDROOT
BRANCH   9  14
ATOM     14  N20 1C7 d   1       6.673   6.705  10.287  0.00  0.00    -0.135 N 
ATOM     15  C24 1C7 d   1       5.637   6.439   9.603  0.00  0.00     0.021 A 
ATOM     16  C23 1C7 d   1       4.732   7.350   9.978  0.00  0.00     0.020 A 
ATOM     17  H18 1C7 d   1       5.512   5.643   8.871  0.00  0.00     0.115 H 
ATOM     18  N22 1C7 d   1       5.319   8.071  10.889  0.00  0.00    -0.240 NA
ATOM     19  H19 1C7 d   1       3.717   7.464   9.600  0.00  0.00     0.117 H 
ATOM     20  C21 1C7 d   1       6.571   7.705  11.060  0.00  0.00     0.160 A 
BRANCH  20  21
ATOM     21  C25 1C7 d   1       7.509   8.266  12.049  0.00  0.00     0.011 A 
ATOM     22  C30 1C7 d   1       7.601   9.586  12.294  0.00  0.00    -0.069 A 
ATOM     23  C29 1C7 d   1       8.440  10.004  13.266  0.00  0.00    -0.082 A 
ATOM     24  H20 1C7 d   1       7.015  10.298  11.724  0.00  0.00     0.085 H 
ATOM     25  C28 1C7 d   1       9.180   9.150  14.009  0.00  0.00    -0.083 A 
ATOM     26  H21 1C7 d   1       8.524  11.068  13.459  0.00  0.00     0.083 H 
ATOM     27  C27 1C7 d   1       9.071   7.835  13.795  0.00  0.00    -0.082 A 
ATOM     28  H22 1C7 d   1       9.854   9.528  14.770  0.00  0.00     0.083 H 
ATOM     29  C26 1C7 d   1       8.214   7.411  12.824  0.00  0.00    -0.069 A 
ATOM     30  H23 1C7 d   1       9.648   7.126  14.377  0.00  0.00     0.083 H 
ATOM     31  H24 1C7 d   1       8.092   6.345  12.666  0.00  0.00     0.085 H 
ENDBRANCH  20  21
ENDBRANCH   9  14
BRANCH   6  32
ATOM     32  C11 1C7 d   1      11.277   8.188  10.918  0.00  0.00     0.020 C 
ATOM     33  C15 1C7 d   1      12.466   8.467  11.758  0.00  0.00    -0.031 C 
ATOM     34  C14 1C7 d   1      12.528   9.954  11.878  0.00  0.00    -0.105 C 
ATOM     35  H11 1C7 d   1      13.377   8.082  11.276  0.00  0.00     0.041 H 
ATOM     36  H12 1C7 d   1      12.353   8.005  12.750  0.00  0.00     0.041 H 
ATOM     37  C13 1C7 d   1      11.730  10.484  10.741  0.00  0.00    -0.105 C 
ATOM     38  H13 1C7 d   1      13.050  10.531  12.640  0.00  0.00     0.076 H 
ATOM     39  C12 1C7 d   1      11.260   9.305   9.930  0.00  0.00    -0.031 C 
ATOM     40  H14 1C7 d   1      11.523  11.533  10.533  0.00  0.00     0.076 H 
ATOM     41  H15 1C7 d   1      10.245   9.473   9.541  0.00  0.00     0.041 H 
ATOM     42  H16 1C7 d   1      11.945   9.103   9.093  0.00  0.00     0.041 H 
ATOM     43  H10 1C7 d   1      10.377   8.329  11.535  0.00  0.00     0.073 H 
ENDBRANCH   6  32
BRANCH   3  44
ATOM     44  C19 1C7 d   1      11.215   2.650   9.648  0.00  0.00    -0.011 C 
ATOM     45  H1  1C7 d   1      12.251   2.280   9.636  0.00  0.00     0.057 H 
ATOM     46  H2  1C7 d   1      10.759   2.494   8.659  0.00  0.00     0.057 H 
ATOM     47  H3  1C7 d   1      10.638   2.102  10.408  0.00  0.00     0.057 H 
ENDBRANCH   3  44
BRANCH   5  48
ATOM     48  C16 1C7 d   1      13.224   6.594   9.231  0.00  0.00    -0.041 C 
ATOM     49  H5  1C7 d   1      14.155   6.021   9.110  0.00  0.00     0.036 H 
ATOM     50  H6  1C7 d   1      13.464   7.659   9.362  0.00  0.00     0.036 H 
BRANCH  48  51
ATOM     51  C17 1C7 d   1      12.395   6.435   7.995  0.00  0.00    -0.074 C 
ATOM     52  H7  1C7 d   1      12.958   6.806   7.126  0.00  0.00     0.027 H 
ATOM     53  H8  1C7 d   1      11.463   7.010   8.102  0.00  0.00     0.027 H 
ATOM     54  H9  1C7 d   1      12.155   5.372   7.849  0.00  0.00     0.027 H 
ENDBRANCH  48  51
ENDBRANCH   5  48
TORSDOF 6
