REMARK  6 active torsions:
REMARK  status: ('A' for Active; 'I' for Inactive)
REMARK    1  A    between atoms: N10_3  and  C11_4 
REMARK    2  A    between atoms: C8_6  and  C13_7 
REMARK    3  A    between atoms: C13_7  and  C14_8 
REMARK    4  A    between atoms: N7_9  and  C15_10 
REMARK    5  A    between atoms: C5_17  and  N20_20 
REMARK    6  A    between atoms: C21_24  and  C25_25 
ROOT
ATOM      1  O12 1C8 d   1      13.719   4.117  10.156  0.00  0.00    -0.271 OA
ATOM      2  C9  1C8 d   1      12.647   4.728  10.221  0.00  0.00     0.247 A 
ATOM      3  N10 1C8 d   1      11.429   4.022  10.057  0.00  0.00    -0.316 N 
ATOM      4  C2  1C8 d   1      10.220   4.708  10.090  0.00  0.00     0.102 A 
ATOM      5  C8  1C8 d   1      12.681   6.178  10.459  0.00  0.00     0.091 A 
ATOM      6  N7  1C8 d   1      11.400   6.847  10.522  0.00  0.00    -0.345 N 
ATOM      7  C3  1C8 d   1      10.222   6.148  10.336  0.00  0.00     0.174 A 
ATOM      8  N4  1C8 d   1       9.065   6.785  10.383  0.00  0.00    -0.042 NA
ATOM      9  C5  1C8 d   1       7.915   6.118  10.240  0.00  0.00     0.736 A 
ATOM     10  N6  1C8 d   1       7.889   4.806   9.992  0.00  0.00    -0.072 NA
ATOM     11  C1  1C8 d   1       9.001   4.090   9.904  0.00  0.00     0.051 A 
ATOM     12  H4  1C8 d   1      13.194   6.336  11.419  0.00  0.00     0.087 H 
ATOM     13  H19 1C8 d   1       8.953   3.029   9.688  0.00  0.00     0.119 H 
ENDROOT
BRANCH   6  14
ATOM     14  C15 1C8 d   1      11.359   8.261  10.826  0.00  0.00     0.014 C 
ATOM     15  C19 1C8 d   1      11.343   9.351   9.766  0.00  0.00    -0.046 C 
ATOM     16  C18 1C8 d   1      11.991  10.547  10.444  0.00  0.00    -0.063 C 
ATOM     17  H11 1C8 d   1      10.312   9.586   9.465  0.00  0.00     0.036 H 
ATOM     18  H12 1C8 d   1      11.922   9.043   8.883  0.00  0.00     0.036 H 
ATOM     19  C17 1C8 d   1      12.649  10.087  11.740  0.00  0.00    -0.063 C 
ATOM     20  H13 1C8 d   1      11.225  11.304  10.668  0.00  0.00     0.033 H 
ATOM     21  H14 1C8 d   1      12.752  10.981   9.778  0.00  0.00     0.033 H 
ATOM     22  C16 1C8 d   1      12.345   8.621  11.915  0.00  0.00    -0.046 C 
ATOM     23  H15 1C8 d   1      12.243  10.657  12.589  0.00  0.00     0.033 H 
ATOM     24  H16 1C8 d   1      13.737  10.239  11.682  0.00  0.00     0.033 H 
ATOM     25  H17 1C8 d   1      13.264   8.026  11.809  0.00  0.00     0.036 H 
ATOM     26  H18 1C8 d   1      11.902   8.439  12.905  0.00  0.00     0.036 H 
ATOM     27  H10 1C8 d   1      10.369   8.369  11.293  0.00  0.00     0.072 H 
ENDBRANCH   6  14
BRANCH   5  28
ATOM     28  C13 1C8 d   1      13.464   6.879   9.350  0.00  0.00    -0.041 C 
ATOM     29  H5  1C8 d   1      14.442   6.384   9.259  0.00  0.00     0.036 H 
ATOM     30  H6  1C8 d   1      13.610   7.928   9.648  0.00  0.00     0.036 H 
BRANCH  28  31
ATOM     31  C14 1C8 d   1      12.811   6.868   7.996  0.00  0.00    -0.074 C 
ATOM     32  H7  1C8 d   1      13.453   7.395   7.275  0.00  0.00     0.027 H 
ATOM     33  H8  1C8 d   1      11.835   7.372   8.055  0.00  0.00     0.027 H 
ATOM     34  H9  1C8 d   1      12.667   5.828   7.667  0.00  0.00     0.027 H 
ENDBRANCH  28  31
ENDBRANCH   5  28
BRANCH   3  35
ATOM     35  C11 1C8 d   1      11.448   2.590   9.782  0.00  0.00    -0.011 C 
ATOM     36  H1  1C8 d   1      12.486   2.227   9.797  0.00  0.00     0.057 H 
ATOM     37  H2  1C8 d   1      11.008   2.401   8.792  0.00  0.00     0.057 H 
ATOM     38  H3  1C8 d   1      10.864   2.061  10.550  0.00  0.00     0.057 H 
ENDBRANCH   3  35
BRANCH   9  39
ATOM     39  N20 1C8 d   1       6.789   6.785  10.265  0.00  0.00    -0.134 N 
ATOM     40  C24 1C8 d   1       5.823   6.494   9.443  0.00  0.00     0.021 A 
ATOM     41  C23 1C8 d   1       4.828   7.410   9.707  0.00  0.00     0.021 A 
ATOM     42  H20 1C8 d   1       5.805   5.695   8.703  0.00  0.00     0.115 H 
ATOM     43  N22 1C8 d   1       5.238   8.235  10.663  0.00  0.00    -0.239 NA
ATOM     44  H21 1C8 d   1       3.860   7.451   9.211  0.00  0.00     0.117 H 
ATOM     45  C21 1C8 d   1       6.471   7.839  10.953  0.00  0.00     0.179 A 
BRANCH  45  46
ATOM     46  C25 1C8 d   1       7.261   8.514  12.013  0.00  0.00     0.110 A 
ATOM     47  C29 1C8 d   1       7.853   7.713  12.962  0.00  0.00    -0.012 A 
ATOM     48  S28 1C8 d   1       8.583   8.901  13.933  0.00  0.00    -0.092 SA
ATOM     49  H22 1C8 d   1       7.854   6.629  13.062  0.00  0.00     0.098 H 
ATOM     50  C27 1C8 d   1       8.065  10.281  13.056  0.00  0.00     0.040 A 
ATOM     51  N26 1C8 d   1       7.337   9.864  12.033  0.00  0.00    -0.250 NA
ATOM     52  H23 1C8 d   1       8.295  11.318  13.298  0.00  0.00     0.126 H 
ENDBRANCH  45  46
ENDBRANCH   9  39
TORSDOF 6
