REMARK  6 active torsions:
REMARK  status: ('A' for Active; 'I' for Inactive)
REMARK    1  A    between atoms: C1_1  and  C10_10 
REMARK    2  A    between atoms: C8_8  and  O18_18 
REMARK       I    between atoms: C10_10  and  N11_11 
REMARK    3  A    between atoms: N11_11  and  C13_13 
REMARK    4  A    between atoms: C13_13  and  C14_14 
REMARK    5  A    between atoms: C13_13  and  C15_15 
REMARK    6  A    between atoms: O18_18  and  C19_19 
ROOT
ATOM      1  C1  1DT d   1       0.509 -13.208  -4.171  0.00  0.00     0.080 A 
ATOM      2  C2  1DT d   1       0.016 -11.927  -3.861  0.00  0.00    -0.004 A 
ATOM      3  N3  1DT d   1      -1.263 -12.082  -3.443  0.00  0.00    -0.348 N 
ATOM      4  C4  1DT d   1      -0.538 -14.174  -3.889  0.00  0.00     0.122 A 
ATOM      5  C5  1DT d   1      -1.641 -13.394  -3.454  0.00  0.00     0.157 A 
ATOM      6  N6  1DT d   1      -2.802 -13.970  -3.110  0.00  0.00    -0.237 NA
ATOM      7  C7  1DT d   1      -2.915 -15.287  -3.193  0.00  0.00     0.056 A 
ATOM      8  C8  1DT d   1      -1.849 -16.074  -3.672  0.00  0.00     0.188 A 
ATOM      9  N9  1DT d   1      -0.673 -15.544  -3.971  0.00  0.00    -0.218 NA
ATOM     10  H1  1DT d   1       0.561 -10.987  -3.942  0.00  0.00     0.113 H 
ATOM     11  H2  1DT d   1      -1.875 -11.306  -3.153  0.00  0.00     0.167 HD
ATOM     12  H3  1DT d   1      -3.839 -15.765  -2.889  0.00  0.00     0.121 H 
ENDROOT
BRANCH   1  13
ATOM     13  C10 1DT d   1       1.804 -13.565  -4.685  0.00  0.00     0.255 C 
ATOM     14  N11 1DT d   1       2.028 -14.886  -4.889  0.00  0.00    -0.352 N 
ATOM     15  H4  1DT d   1       1.278 -15.507  -4.660  0.00  0.00     0.163 HD
ATOM     16  O12 1DT d   1       2.672 -12.752  -4.900  0.00  0.00    -0.268 OA
BRANCH  14  17
ATOM     17  C13 1DT d   1       3.262 -15.506  -5.414  0.00  0.00     0.012 C 
ATOM     18  H5  1DT d   1       4.106 -14.851  -5.152  0.00  0.00     0.072 H 
BRANCH  17  19
ATOM     19  C14 1DT d   1       3.285 -15.675  -6.944  0.00  0.00    -0.035 A 
ATOM     20  C16 1DT d   1       2.007 -16.140  -7.625  0.00  0.00    -0.059 A 
ATOM     21  C17 1DT d   1       2.527 -14.734  -7.890  0.00  0.00    -0.059 A 
ATOM     22  H10 1DT d   1       1.091 -16.283  -7.033  0.00  0.00     0.033 H 
ATOM     23  H11 1DT d   1       2.054 -16.901  -8.418  0.00  0.00     0.033 H 
ATOM     24  H12 1DT d   1       2.953 -14.480  -8.872  0.00  0.00     0.033 H 
ATOM     25  H13 1DT d   1       1.990 -13.863  -7.487  0.00  0.00     0.033 H 
ATOM     26  H6  1DT d   1       4.263 -16.073  -7.253  0.00  0.00     0.043 H 
ENDBRANCH  17  19
BRANCH  17  27
ATOM     27  C15 1DT d   1       3.449 -16.874  -4.664  0.00  0.00    -0.057 C 
ATOM     28  H7  1DT d   1       4.361 -17.370  -5.028  0.00  0.00     0.030 H 
ATOM     29  H8  1DT d   1       2.579 -17.520  -4.856  0.00  0.00     0.030 H 
ATOM     30  H9  1DT d   1       3.538 -16.691  -3.583  0.00  0.00     0.030 H 
ENDBRANCH  17  27
ENDBRANCH  14  17
ENDBRANCH   1  13
BRANCH   8  31
ATOM     31  O18 1DT d   1      -2.073 -17.423  -3.655  0.00  0.00    -0.291 OA
BRANCH  31  32
ATOM     32  C19 1DT d   1      -1.091 -18.251  -4.205  0.00  0.00     0.077 A 
ATOM     33  C20 1DT d   1      -0.484 -18.013  -5.434  0.00  0.00    -0.050 A 
ATOM     34  C21 1DT d   1       0.434 -18.951  -5.986  0.00  0.00    -0.080 A 
ATOM     35  H14 1DT d   1      -0.713 -17.103  -5.977  0.00  0.00     0.087 H 
ATOM     36  C22 1DT d   1       0.716 -20.148  -5.332  0.00  0.00    -0.083 A 
ATOM     37  H15 1DT d   1       0.921 -18.730  -6.929  0.00  0.00     0.083 H 
ATOM     38  C23 1DT d   1       0.072 -20.419  -4.121  0.00  0.00    -0.080 A 
ATOM     39  H16 1DT d   1       1.421 -20.855  -5.754  0.00  0.00     0.083 H 
ATOM     40  C24 1DT d   1      -0.845 -19.510  -3.567  0.00  0.00    -0.050 A 
ATOM     41  H17 1DT d   1       0.284 -21.346  -3.601  0.00  0.00     0.083 H 
ATOM     42  H18 1DT d   1      -1.369 -19.762  -2.652  0.00  0.00     0.087 H 
ENDBRANCH  31  32
ENDBRANCH   8  31
TORSDOF 6
