REMARK  6 active torsions:
REMARK  status: ('A' for Active; 'I' for Inactive)
REMARK    1  A    between atoms: C9_8  and  C7_11 
REMARK    2  A    between atoms: C7_11  and  N4'_12 
REMARK    3  A    between atoms: C4'_13  and  C5'_14 
REMARK    4  A    between atoms: C5'_14  and  O5'_15 
REMARK    5  A    between atoms: C3'_16  and  O3'_17 
REMARK    6  A    between atoms: C2'_18  and  O2'_19 
ROOT
ATOM      1  N4' MBY d   1       6.261  -2.596  19.901  0.00  0.00    -0.056 N 
ATOM      2  C4' MBY d   1       6.264  -1.119  19.615  0.00  0.00     0.151 C 
ATOM      3  C3' MBY d   1       6.296  -1.074  18.089  0.00  0.00     0.091 C 
ATOM      4  C2' MBY d   1       5.821  -2.467  17.625  0.00  0.00     0.085 C 
ATOM      5  C1' MBY d   1       5.454  -3.236  18.842  0.00  0.00     0.110 C 
ATOM      6  H6  MBY d   1       7.209  -2.892  19.728  0.00  0.00     0.281 HD
ATOM      7  H7  MBY d   1       7.164  -0.652  20.041  0.00  0.00     0.092 H 
ATOM      8  H11 MBY d   1       5.634  -0.283  17.707  0.00  0.00     0.090 H 
ATOM      9  H13 MBY d   1       4.960  -2.373  16.948  0.00  0.00     0.089 H 
ATOM     10  H15 MBY d   1       4.379  -3.146  19.056  0.00  0.00     0.080 H 
ATOM     11  H16 MBY d   1       5.718  -4.298  18.732  0.00  0.00     0.080 H 
ENDROOT
BRANCH   1  12
ATOM     12  C7  MBY d   1       6.013  -3.065  21.297  0.00  0.00     0.110 C 
ATOM     13  H4  MBY d   1       6.606  -3.977  21.464  0.00  0.00     0.083 H 
ATOM     14  H5  MBY d   1       6.348  -2.278  21.989  0.00  0.00     0.083 H 
BRANCH  12  15
ATOM     15  C9  MBY d   1       4.554  -3.382  21.606  0.00  0.00     0.004 A 
ATOM     16  C4  MBY d   1       3.845  -4.642  21.210  0.00  0.00     0.089 A 
ATOM     17  N3  MBY d   1       4.294  -5.703  20.530  0.00  0.00    -0.242 NA
ATOM     18  C5  MBY d   1       2.480  -4.579  21.655  0.00  0.00     0.102 A 
ATOM     19  C2  MBY d   1       3.519  -6.743  20.254  0.00  0.00     0.067 A 
ATOM     20  N1  MBY d   1       2.213  -6.760  20.616  0.00  0.00    -0.317 N 
ATOM     21  H2  MBY d   1       3.939  -7.598  19.727  0.00  0.00     0.143 H 
ATOM     22  C6  MBY d   1       1.651  -5.752  21.333  0.00  0.00     0.265 A 
ATOM     23  H1  MBY d   1       1.646  -7.538  20.347  0.00  0.00     0.170 HD
ATOM     24  O6  MBY d   1       0.478  -5.787  21.687  0.00  0.00    -0.267 OA
ATOM     25  S7  MBY d   1       2.124  -3.165  22.494  0.00  0.00    -0.093 SA
ATOM     26  C8  MBY d   1       3.722  -2.532  22.324  0.00  0.00    -0.034 A 
ATOM     27  H3  MBY d   1       4.041  -1.575  22.733  0.00  0.00     0.096 H 
ENDBRANCH  12  15
ENDBRANCH   1  12
BRANCH   2  28
ATOM     28  C5' MBY d   1       5.028  -0.377  20.144  0.00  0.00     0.046 C 
ATOM     29  H8  MBY d   1       4.154  -1.042  20.084  0.00  0.00     0.077 H 
ATOM     30  H9  MBY d   1       4.852   0.517  19.527  0.00  0.00     0.077 H 
BRANCH  28  31
ATOM     31  O5' MBY d   1       5.225   0.025  21.517  0.00  0.00    -0.399 OA
ATOM     32  H10 MBY d   1       5.978   0.602  21.572  0.00  0.00     0.209 HD
ENDBRANCH  28  31
ENDBRANCH   2  28
BRANCH   3  33
ATOM     33  O3' MBY d   1       7.649  -0.858  17.623  0.00  0.00    -0.391 OA
ATOM     34  H12 MBY d   1       7.655  -0.832  16.673  0.00  0.00     0.210 HD
ENDBRANCH   3  33
BRANCH   4  35
ATOM     35  O2' MBY d   1       6.890  -3.153  16.974  0.00  0.00    -0.391 OA
ATOM     36  H14 MBY d   1       7.174  -2.651  16.219  0.00  0.00     0.210 HD
ENDBRANCH   4  35
TORSDOF 6
