REMARK WARNING: 32 MAX_TORS EXCEEDED!!!
REMARK  50 active torsions:
REMARK  status: ('A' for Active; 'I' for Inactive)
REMARK    1  A    between atoms: N_1  and  CA_2 
REMARK    2  A    between atoms: CA_2  and  C_3 
REMARK    3  A    between atoms: CA_2  and  CB_5 
REMARK       I    between atoms: C_3  and  N_9 
REMARK    4  A    between atoms: CB_5  and  CG_6 
REMARK    5  A    between atoms: CG_6  and  CD1_7 
REMARK    6  A    between atoms: CG_6  and  CD2_8 
REMARK    7  A    between atoms: N_9  and  CA_10 
REMARK    8  A    between atoms: CA_10  and  C_11 
REMARK    9  A    between atoms: CA_10  and  CB_13 
REMARK       I    between atoms: C_11  and  N_20 
REMARK   10  A    between atoms: CB_13  and  CG_14 
REMARK   11  A    between atoms: CG_14  and  CD_15 
REMARK   12  A    between atoms: CD_15  and  NE_16 
REMARK       I    between atoms: NE_16  and  CZ_17 
REMARK       I    between atoms: CZ_17  and  NH1_18 
REMARK       I    between atoms: CZ_17  and  NH2_19 
REMARK   13  A    between atoms: CA_21  and  C_22 
REMARK       I    between atoms: C_22  and  N_27 
REMARK   14  A    between atoms: N_27  and  CA_28 
REMARK   15  A    between atoms: CA_28  and  C_29 
REMARK   16  A    between atoms: CA_28  and  CB_31 
REMARK       I    between atoms: C_29  and  N_34 
REMARK   17  A    between atoms: CB_31  and  CG1_32 
REMARK   18  A    between atoms: CB_31  and  CG2_33 
REMARK   19  A    between atoms: N_34  and  CA_35 
REMARK   20  A    between atoms: CA_35  and  C_36 
REMARK   21  A    between atoms: CA_35  and  CB_38 
REMARK       I    between atoms: C_36  and  N_40 
REMARK   22  A    between atoms: CB_38  and  CG_39 
REMARK   23  A    between atoms: N_40  and  CA_41 
REMARK   24  A    between atoms: CA_41  and  C_42 
REMARK   25  A    between atoms: CA_41  and  CB_44 
REMARK       I    between atoms: C_42  and  N_48 
REMARK   26  A    between atoms: CB_44  and  CG_45 
REMARK   27  A    between atoms: CG_45  and  SD_46 
REMARK   28  A    between atoms: SD_46  and  CE_47 
REMARK   29  A    between atoms: N_48  and  CA_49 
REMARK   30  A    between atoms: CA_49  and  C_50 
REMARK   31  A    between atoms: CA_49  and  CB_52 
REMARK       I    between atoms: C_50  and  N_55 
REMARK   32  A    between atoms: CB_52  and  CG1_53 
REMARK   33  A    between atoms: CB_52  and  CG2_54 
REMARK   34  A    between atoms: N_55  and  CA_56 
REMARK   35  A    between atoms: CA_56  and  C_57 
REMARK   36  A    between atoms: CA_56  and  CB_59 
REMARK       I    between atoms: C_57  and  N_66 
REMARK   37  A    between atoms: CB_59  and  CG_60 
REMARK   38  A    between atoms: CG_60  and  CD_61 
REMARK   39  A    between atoms: CD_61  and  NE_62 
REMARK       I    between atoms: NE_62  and  CZ_63 
REMARK       I    between atoms: CZ_63  and  NH1_64 
REMARK   40  A    between atoms: CA_67  and  C_68 
REMARK       I    between atoms: C_68  and  N_73 
REMARK   41  A    between atoms: N_73  and  CA_74 
REMARK   42  A    between atoms: CA_74  and  C_75 
REMARK   43  A    between atoms: CA_74  and  CB_77 
REMARK       I    between atoms: C_75  and  N_80 
REMARK   44  A    between atoms: CB_77  and  OG1_78 
REMARK   45  A    between atoms: CB_77  and  CG2_79 
REMARK   46  A    between atoms: N_80  and  CA_81 
REMARK   47  A    between atoms: CA_81  and  C_82 
REMARK   48  A    between atoms: CA_81  and  CB_84 
REMARK   49  A    between atoms: CB_84  and  CG1_85 
REMARK   50  A    between atoms: CB_84  and  CG2_86 
ROOT
ATOM      1  CA  MET d   1       4.085  -4.455   5.410  0.00  0.00     0.090 C 
ATOM      2  H51 MET d   1       4.609  -5.333   5.816  0.00  0.00     0.087 H 
ENDROOT
BRANCH   1   3
ATOM      3  N   MET d   1       3.807  -3.516   6.496  0.00  0.00    -0.346 N 
ATOM      4  C   ABA d   1       4.579  -3.431   7.578  0.00  0.00     0.241 C 
ATOM      5  O   ABA d   1       5.534  -4.179   7.782  0.00  0.00    -0.271 OA
ATOM      6  H50 MET d   1       3.010  -2.917   6.424  0.00  0.00     0.163 HD
BRANCH   4   7
ATOM      7  CA  ABA d   1       4.212  -2.352   8.595  0.00  0.00     0.089 C 
ATOM      8  H44 ABA d   1       3.256  -1.891   8.305  0.00  0.00     0.087 H 
BRANCH   7   9
ATOM      9  N   ABA d   1       4.060  -2.968   9.908  0.00  0.00    -0.346 N 
ATOM     10  C   VAL d   1       2.866  -3.222  10.439  0.00  0.00     0.241 C 
ATOM     11  O   VAL d   1       1.808  -2.881   9.907  0.00  0.00    -0.271 OA
ATOM     12  H43 ABA d   1       4.880  -3.208  10.427  0.00  0.00     0.163 HD
BRANCH  10  13
ATOM     13  CA  VAL d   1       2.856  -3.986  11.763  0.00  0.00     0.092 C 
ATOM     14  H35 VAL d   1       3.895  -4.165  12.076  0.00  0.00     0.088 H 
BRANCH  13  15
ATOM     15  N   VAL d   1       2.178  -3.247  12.830  0.00  0.00    -0.346 N 
ATOM     16  C   PRO d   1       2.815  -2.781  13.902  0.00  0.00     0.241 C 
ATOM     17  O   PRO d   1       4.037  -2.818  14.036  0.00  0.00    -0.271 OA
ATOM     18  H34 VAL d   1       1.194  -3.086  12.750  0.00  0.00     0.163 HD
BRANCH  16  19
ATOM     19  CA  PRO d   1       1.940  -2.166  14.997  0.00  0.00     0.091 C 
ATOM     20  N   PRO d   1       2.518  -2.334  16.335  0.00  0.00    -0.337 N 
ATOM     21  C   ARG d   1       2.554  -3.562  16.892  0.00  0.00     0.243 C 
ATOM     22  CD  PRO d   1       2.894  -1.041  16.938  0.00  0.00    -0.001 C 
ATOM     23  O   ARG d   1       2.026  -4.545  16.363  0.00  0.00    -0.271 OA
ATOM     24  CG  PRO d   1       2.848  -0.087  15.782  0.00  0.00    -0.048 C 
ATOM     25  H32 PRO d   1       3.905  -1.088  17.369  0.00  0.00     0.064 H 
ATOM     26  H33 PRO d   1       2.176  -0.748  17.718  0.00  0.00     0.064 H 
ATOM     27  CB  PRO d   1       1.846  -0.644  14.834  0.00  0.00    -0.036 C 
ATOM     28  H30 PRO d   1       2.539   0.912  16.122  0.00  0.00     0.035 H 
ATOM     29  H31 PRO d   1       3.835  -0.021  15.301  0.00  0.00     0.035 H 
ATOM     30  H28 PRO d   1       0.836  -0.290  15.089  0.00  0.00     0.036 H 
ATOM     31  H29 PRO d   1       2.087  -0.351  13.802  0.00  0.00     0.036 H 
ATOM     32  H27 PRO d   1       0.940  -2.623  14.952  0.00  0.00     0.087 H 
BRANCH  21  33
ATOM     33  CA  ARG d   1       3.268  -3.715  18.238  0.00  0.00     0.089 C 
ATOM     34  H15 ARG d   1       3.914  -2.842  18.412  0.00  0.00     0.087 H 
BRANCH  33  35
ATOM     35  N   ARG d   1       2.284  -3.808  19.314  0.00  0.00    -0.346 N 
ATOM     36  C   LEU d   1       2.514  -3.407  20.567  0.00  0.00     0.249 C 
ATOM     37  O   LEU d   1       3.558  -2.849  20.920  0.00  0.00    -0.271 OA
ATOM     38  H14 ARG d   1       1.387  -4.194  19.100  0.00  0.00     0.163 HD
BRANCH  36  39
ATOM     39  CA  LEU d   1       1.388  -3.671  21.578  0.00  0.00     0.176 C 
ATOM     40  H4  LEU d   1       1.481  -4.707  21.937  0.00  0.00     0.099 H 
BRANCH  39  41
ATOM     41  N   LEU d   1       1.499  -2.755  22.751  0.00  0.00    -0.066 N 
ATOM     42  H1  LEU d   1       0.751  -2.947  23.399  0.00  0.00     0.275 HD
ATOM     43  H2  LEU d   1       1.435  -1.799  22.438  0.00  0.00     0.275 HD
ATOM     44  H3  LEU d   1       2.385  -2.901  23.208  0.00  0.00     0.275 HD
ENDBRANCH  39  41
BRANCH  39  45
ATOM     45  CB  LEU d   1       0.018  -3.511  20.902  0.00  0.00    -0.028 C 
ATOM     46  H5  LEU d   1      -0.063  -4.301  20.141  0.00  0.00     0.037 H 
ATOM     47  H6  LEU d   1       0.011  -2.527  20.411  0.00  0.00     0.037 H 
BRANCH  45  48
ATOM     48  CG  LEU d   1      -1.235  -3.590  21.768  0.00  0.00    -0.059 C 
ATOM     49  H7  LEU d   1      -1.176  -2.813  22.545  0.00  0.00     0.038 H 
BRANCH  48  50
ATOM     50  CD1 LEU d   1      -2.462  -3.329  20.910  0.00  0.00    -0.073 C 
ATOM     51  H8  LEU d   1      -3.365  -3.386  21.535  0.00  0.00     0.028 H 
ATOM     52  H9  LEU d   1      -2.519  -4.085  20.113  0.00  0.00     0.028 H 
ATOM     53  H10 LEU d   1      -2.389  -2.327  20.461  0.00  0.00     0.028 H 
ENDBRANCH  48  50
BRANCH  48  54
ATOM     54  CD2 LEU d   1      -1.333  -4.945  22.449  0.00  0.00    -0.073 C 
ATOM     55  H11 LEU d   1      -0.436  -5.112  23.063  0.00  0.00     0.028 H 
ATOM     56  H12 LEU d   1      -1.407  -5.734  21.686  0.00  0.00     0.028 H 
ATOM     57  H13 LEU d   1      -2.226  -4.969  23.090  0.00  0.00     0.028 H 
ENDBRANCH  48  54
ENDBRANCH  45  48
ENDBRANCH  39  45
ENDBRANCH  36  39
ENDBRANCH  33  35
BRANCH  33  58
ATOM     58  CB  ARG d   1       4.124  -4.985  18.200  0.00  0.00    -0.036 C 
ATOM     59  H16 ARG d   1       4.380  -5.190  17.150  0.00  0.00     0.036 H 
ATOM     60  H17 ARG d   1       3.520  -5.813  18.599  0.00  0.00     0.036 H 
BRANCH  58  61
ATOM     61  CG  ARG d   1       5.416  -4.924  18.993  0.00  0.00    -0.048 C 
ATOM     62  H18 ARG d   1       5.183  -4.740  20.052  0.00  0.00     0.035 H 
ATOM     63  H19 ARG d   1       6.040  -4.104  18.607  0.00  0.00     0.035 H 
BRANCH  61  64
ATOM     64  CD  ARG d   1       6.177  -6.235  18.867  0.00  0.00     0.009 C 
ATOM     65  H20 ARG d   1       6.545  -6.332  17.835  0.00  0.00     0.064 H 
ATOM     66  H21 ARG d   1       5.490  -7.065  19.091  0.00  0.00     0.064 H 
BRANCH  64  67
ATOM     67  NE  ARG d   1       7.318  -6.310  19.781  0.00  0.00    -0.227 N 
ATOM     68  CZ  ARG d   1       8.513  -5.758  19.569  0.00  0.00     0.665 C 
ATOM     69  NH1 ARG d   1       8.763  -5.058  18.465  0.00  0.00    -0.235 N 
ATOM     70  NH2 ARG d   1       9.472  -5.895  20.479  0.00  0.00    -0.235 N 
ATOM     71  H23 ARG d   1       9.693  -4.639  18.320  0.00  0.00     0.174 HD
ATOM     72  H24 ARG d   1       8.027  -4.935  17.756  0.00  0.00     0.174 HD
ATOM     73  H25 ARG d   1       9.293  -6.434  21.338  0.00  0.00     0.174 HD
ATOM     74  H26 ARG d   1      10.394  -5.462  20.325  0.00  0.00     0.174 HD
ATOM     75  H22 ARG d   1       7.187  -6.832  20.659  0.00  0.00     0.177 HD
ENDBRANCH  64  67
ENDBRANCH  61  64
ENDBRANCH  58  61
ENDBRANCH  33  58
ENDBRANCH  21  33
ENDBRANCH  16  19
ENDBRANCH  13  15
BRANCH  13  76
ATOM     76  CB  VAL d   1       2.163  -5.340  11.518  0.00  0.00    -0.033 C 
ATOM     77  H36 VAL d   1       1.133  -5.145  11.185  0.00  0.00     0.042 H 
BRANCH  76  78
ATOM     78  CG1 VAL d   1       2.877  -6.117  10.418  0.00  0.00    -0.071 C 
ATOM     79  H37 VAL d   1       2.368  -7.079  10.259  0.00  0.00     0.028 H 
ATOM     80  H38 VAL d   1       3.920  -6.299  10.716  0.00  0.00     0.028 H 
ATOM     81  H39 VAL d   1       2.858  -5.534   9.486  0.00  0.00     0.028 H 
ENDBRANCH  76  78
BRANCH  76  82
ATOM     82  CG2 VAL d   1       2.100  -6.146  12.807  0.00  0.00    -0.071 C 
ATOM     83  H40 VAL d   1       1.581  -5.561  13.580  0.00  0.00     0.028 H 
ATOM     84  H41 VAL d   1       3.121  -6.377  13.146  0.00  0.00     0.028 H 
ATOM     85  H42 VAL d   1       1.553  -7.083  12.627  0.00  0.00     0.028 H 
ENDBRANCH  76  82
ENDBRANCH  13  76
ENDBRANCH  10  13
ENDBRANCH   7   9
BRANCH   7  86
ATOM     86  CB  ABA d   1       5.304  -1.265   8.610  0.00  0.00    -0.041 C 
ATOM     87  H45 ABA d   1       6.292  -1.747   8.643  0.00  0.00     0.036 H 
ATOM     88  H46 ABA d   1       5.174  -0.635   9.502  0.00  0.00     0.036 H 
BRANCH  86  89
ATOM     89  CG  ABA d   1       5.215  -0.389   7.361  0.00  0.00    -0.074 C 
ATOM     90  H47 ABA d   1       6.003   0.378   7.394  0.00  0.00     0.027 H 
ATOM     91  H48 ABA d   1       4.230   0.099   7.325  0.00  0.00     0.027 H 
ATOM     92  H49 ABA d   1       5.348  -1.013   6.465  0.00  0.00     0.027 H 
ENDBRANCH  86  89
ENDBRANCH   7  86
ENDBRANCH   4   7
ENDBRANCH   1   3
BRANCH   1  93
ATOM     93  C   MET d   1       4.966  -3.772   4.374  0.00  0.00     0.241 C 
ATOM     94  O   MET d   1       4.463  -3.107   3.470  0.00  0.00    -0.271 OA
ATOM     95  N   VAL d   1       6.277  -3.932   4.504  0.00  0.00    -0.346 N 
ATOM     96  H59 VAL d   1       6.629  -4.497   5.250  0.00  0.00     0.163 HD
BRANCH  95  97
ATOM     97  CA  VAL d   1       7.216  -3.300   3.581  0.00  0.00     0.092 C 
ATOM     98  H60 VAL d   1       6.755  -2.375   3.205  0.00  0.00     0.088 H 
BRANCH  97  99
ATOM     99  C   VAL d   1       7.515  -4.207   2.390  0.00  0.00     0.241 C 
ATOM    100  O   VAL d   1       7.773  -5.402   2.556  0.00  0.00    -0.271 OA
ATOM    101  N   ARG d   1       7.476  -3.624   1.193  0.00  0.00    -0.346 N 
ATOM    102  H68 ARG d   1       7.261  -2.649   1.139  0.00  0.00     0.163 HD
BRANCH 101 103
ATOM    103  CA  ARG d   1       7.735  -4.357  -0.041  0.00  0.00     0.089 C 
ATOM    104  H69 ARG d   1       7.567  -5.428   0.147  0.00  0.00     0.087 H 
BRANCH 103 105
ATOM    105  C   ARG d   1       9.170  -4.160  -0.498  0.00  0.00     0.243 C 
ATOM    106  O   ARG d   1       9.792  -3.142  -0.183  0.00  0.00    -0.271 OA
ATOM    107  N   PRO d   1       9.699  -5.134  -1.254  0.00  0.00    -0.337 N 
ATOM    108  CA  PRO d   1      11.082  -5.046  -1.715  0.00  0.00     0.091 C 
ATOM    109  CD  PRO d   1       9.060  -6.411  -1.625  0.00  0.00    -0.001 C 
ATOM    110  CB  PRO d   1      11.377  -6.460  -2.234  0.00  0.00    -0.036 C 
ATOM    111  H81 PRO d   1      11.744  -4.795  -0.873  0.00  0.00     0.087 H 
ATOM    112  CG  PRO d   1      10.051  -7.055  -2.544  0.00  0.00    -0.048 C 
ATOM    113  H82 PRO d   1      11.893  -7.052  -1.464  0.00  0.00     0.036 H 
ATOM    114  H83 PRO d   1      11.999  -6.415  -3.140  0.00  0.00     0.036 H 
ATOM    115  H84 PRO d   1      10.075  -8.141  -2.373  0.00  0.00     0.035 H 
ATOM    116  H85 PRO d   1       9.782  -6.854  -3.591  0.00  0.00     0.035 H 
ATOM    117  H86 PRO d   1       8.104  -6.235  -2.141  0.00  0.00     0.064 H 
ATOM    118  H87 PRO d   1       8.887  -7.035  -0.736  0.00  0.00     0.064 H 
BRANCH 108 119
ATOM    119  C   PRO d   1      11.294  -4.019  -2.827  0.00  0.00     0.241 C 
ATOM    120  O   PRO d   1      10.421  -3.830  -3.673  0.00  0.00    -0.271 OA
ATOM    121  N   THR d   1      12.448  -3.356  -2.794  0.00  0.00    -0.344 N 
ATOM    122  H88 THR d   1      13.008  -3.416  -1.968  0.00  0.00     0.163 HD
BRANCH 121 123
ATOM    123  CA  THR d   1      12.934  -2.545  -3.909  0.00  0.00     0.113 C 
ATOM    124  H89 THR d   1      12.133  -2.425  -4.654  0.00  0.00     0.091 H 
BRANCH 123 125
ATOM    125  C   THR d   1      14.120  -3.285  -4.524  0.00  0.00     0.243 C 
ATOM    126  O   THR d   1      15.068  -3.629  -3.819  0.00  0.00    -0.271 OA
ATOM    127  N   VAL d   1      14.069  -3.535  -5.829  0.00  0.00    -0.344 N 
ATOM    128  H95 VAL d   1      13.290  -3.199  -6.359  0.00  0.00     0.163 HD
BRANCH 127 129
ATOM    129  CA  VAL d   1      15.124  -4.290  -6.511  0.00  0.00     0.099 C 
ATOM    130  H96 VAL d   1      15.876  -4.581  -5.763  0.00  0.00     0.090 H 
BRANCH 129 131
ATOM    131  C   VAL d   1      15.806  -3.432  -7.572  0.00  0.00     0.197 C 
ATOM    132  O   VAL d   1      17.053  -3.491  -7.740  0.00  0.00    -0.646 OA
ATOM    133  O   VAL d   1      15.116  -2.657  -8.287  0.00  0.00    -0.646 OA
ENDBRANCH 129 131
BRANCH 129 134
ATOM    134  CB  VAL d   1      14.562  -5.573  -7.160  0.00  0.00    -0.032 C 
ATOM    135  H97 VAL d   1      13.714  -5.292  -7.802  0.00  0.00     0.042 H 
BRANCH 134 136
ATOM    136  CG1 VAL d   1      15.615  -6.249  -8.031  0.00  0.00    -0.071 C 
ATOM    137  H98 VAL d   1      15.190  -7.159  -8.481  0.00  0.00     0.028 H 
ATOM    138  H99 VAL d   1      16.485  -6.517  -7.413  0.00  0.00     0.028 H 
ATOM    139 0H10 VAL d   1      15.930  -5.559  -8.828  0.00  0.00     0.028 H 
ENDBRANCH 134 136
BRANCH 134 140
ATOM    140  CG2 VAL d   1      14.055  -6.530  -6.090  0.00  0.00    -0.071 C 
ATOM    141 1H10 VAL d   1      13.298  -6.023  -5.474  0.00  0.00     0.028 H 
ATOM    142 2H10 VAL d   1      14.894  -6.846  -5.453  0.00  0.00     0.028 H 
ATOM    143 3H10 VAL d   1      13.607  -7.412  -6.570  0.00  0.00     0.028 H 
ENDBRANCH 134 140
ENDBRANCH 129 134
ENDBRANCH 127 129
ENDBRANCH 123 125
BRANCH 123 144
ATOM    144  CB  THR d   1      13.408  -1.152  -3.442  0.00  0.00     0.060 C 
ATOM    145  H90 THR d   1      14.449  -1.231  -3.095  0.00  0.00     0.086 H 
BRANCH 144 146
ATOM    146  OG1 THR d   1      12.591  -0.693  -2.358  0.00  0.00    -0.393 OA
ATOM    147  H91 THR d   1      12.890   0.164  -2.078  0.00  0.00     0.210 HD
ENDBRANCH 144 146
BRANCH 144 148
ATOM    148  CG2 THR d   1      13.347  -0.155  -4.588  0.00  0.00    -0.050 C 
ATOM    149  H92 THR d   1      13.688   0.830  -4.236  0.00  0.00     0.031 H 
ATOM    150  H93 THR d   1      12.312  -0.076  -4.951  0.00  0.00     0.031 H 
ATOM    151  H94 THR d   1      13.997  -0.497  -5.407  0.00  0.00     0.031 H 
ENDBRANCH 144 148
ENDBRANCH 123 144
ENDBRANCH 121 123
ENDBRANCH 108 119
ENDBRANCH 103 105
BRANCH 103 152
ATOM    152  CB  ARG d   1       6.793  -3.898  -1.143  0.00  0.00    -0.036 C 
ATOM    153  H70 ARG d   1       7.137  -4.327  -2.096  0.00  0.00     0.036 H 
ATOM    154  H71 ARG d   1       6.833  -2.800  -1.200  0.00  0.00     0.036 H 
BRANCH 152 155
ATOM    155  CG  ARG d   1       5.355  -4.314  -0.923  0.00  0.00    -0.048 C 
ATOM    156  H72 ARG d   1       4.984  -3.857   0.006  0.00  0.00     0.035 H 
ATOM    157  H73 ARG d   1       5.304  -5.410  -0.838  0.00  0.00     0.035 H 
BRANCH 155 158
ATOM    158  CD  ARG d   1       4.486  -3.863  -2.082  0.00  0.00     0.009 C 
ATOM    159  H74 ARG d   1       4.851  -4.336  -3.005  0.00  0.00     0.064 H 
ATOM    160  H75 ARG d   1       4.559  -2.769  -2.177  0.00  0.00     0.064 H 
BRANCH 158 161
ATOM    161  NE  ARG d   1       3.087  -4.227  -1.887  0.00  0.00    -0.227 N 
ATOM    162  CZ  ARG d   1       2.100  -3.917  -2.724  0.00  0.00     0.665 C 
ATOM    163  NH1 ARG d   1       2.343  -3.228  -3.836  0.00  0.00    -0.235 N 
ATOM    164  NH2 ARG d   1       0.858  -4.300  -2.447  0.00  0.00    -0.235 N 
ATOM    165  H77 ARG d   1       1.571  -2.994  -4.476  0.00  0.00     0.174 HD
ATOM    166  H78 ARG d   1       3.304  -2.929  -4.057  0.00  0.00     0.174 HD
ATOM    167  H79 ARG d   1       0.663  -4.834  -1.588  0.00  0.00     0.174 HD
ATOM    168  H80 ARG d   1       0.090  -4.063  -3.091  0.00  0.00     0.174 HD
ATOM    169  H76 ARG d   1       2.846  -4.762  -1.041  0.00  0.00     0.177 HD
ENDBRANCH 158 161
ENDBRANCH 155 158
ENDBRANCH 152 155
ENDBRANCH 103 152
ENDBRANCH 101 103
ENDBRANCH  97  99
BRANCH  97 170
ATOM    170  CB  VAL d   1       8.526  -2.935   4.288  0.00  0.00    -0.033 C 
ATOM    171  H61 VAL d   1       8.942  -3.844   4.748  0.00  0.00     0.042 H 
BRANCH 170 172
ATOM    172  CG1 VAL d   1       9.540  -2.394   3.292  0.00  0.00    -0.071 C 
ATOM    173  H62 VAL d   1      10.471  -2.139   3.819  0.00  0.00     0.028 H 
ATOM    174  H63 VAL d   1       9.134  -1.494   2.808  0.00  0.00     0.028 H 
ATOM    175  H64 VAL d   1       9.748  -3.158   2.529  0.00  0.00     0.028 H 
ENDBRANCH 170 172
BRANCH 170 176
ATOM    176  CG2 VAL d   1       8.248  -1.921   5.386  0.00  0.00    -0.071 C 
ATOM    177  H65 VAL d   1       7.513  -2.337   6.091  0.00  0.00     0.028 H 
ATOM    178  H66 VAL d   1       7.848  -0.999   4.940  0.00  0.00     0.028 H 
ATOM    179  H67 VAL d   1       9.182  -1.694   5.921  0.00  0.00     0.028 H 
ENDBRANCH 170 176
ENDBRANCH  97 170
ENDBRANCH  95  97
ENDBRANCH   1  93
BRANCH   1 180
ATOM    180  CB  MET d   1       2.783  -4.909   4.745  0.00  0.00    -0.030 C 
ATOM    181  H52 MET d   1       3.039  -5.598   3.927  0.00  0.00     0.037 H 
ATOM    182  H53 MET d   1       2.282  -4.021   4.333  0.00  0.00     0.037 H 
BRANCH 180 183
ATOM    183  CG  MET d   1       1.804  -5.617   5.670  0.00  0.00    -0.021 C 
ATOM    184  H54 MET d   1       1.796  -5.096   6.639  0.00  0.00     0.049 H 
ATOM    185  H55 MET d   1       2.142  -6.654   5.813  0.00  0.00     0.049 H 
BRANCH 183 186
ATOM    186  SD  MET d   1       0.120  -5.644   5.015  0.00  0.00    -0.173 SA
BRANCH 186 187
ATOM    187  CE  MET d   1      -0.351  -3.921   5.169  0.00  0.00    -0.035 C 
ATOM    188  H56 MET d   1      -1.378  -3.787   4.799  0.00  0.00     0.041 H 
ATOM    189  H57 MET d   1       0.336  -3.299   4.577  0.00  0.00     0.041 H 
ATOM    190  H58 MET d   1      -0.300  -3.620   6.226  0.00  0.00     0.041 H 
ENDBRANCH 186 187
ENDBRANCH 183 186
ENDBRANCH 180 183
ENDBRANCH   1 180
TORSDOF 50
