REMARK WARNING: 32 MAX_TORS EXCEEDED!!!
REMARK  64 active torsions:
REMARK  status: ('A' for Active; 'I' for Inactive)
REMARK    1  A    between atoms: N_1  and  CA_2 
REMARK    2  A    between atoms: CA_2  and  C_3 
REMARK    3  A    between atoms: CA_2  and  CB_5 
REMARK       I    between atoms: C_3  and  N_10 
REMARK    4  A    between atoms: CB_5  and  CG_6 
REMARK    5  A    between atoms: CG_6  and  CD_7 
REMARK    6  A    between atoms: CD_7  and  CE_8 
REMARK    7  A    between atoms: CE_8  and  NZ_9 
REMARK    8  A    between atoms: N_10  and  CA_11 
REMARK    9  A    between atoms: CA_11  and  C_12 
REMARK   10  A    between atoms: CA_11  and  CB_14 
REMARK       I    between atoms: C_12  and  N_18 
REMARK   11  A    between atoms: CB_14  and  CG_15 
REMARK   12  A    between atoms: CG_15  and  CD1_16 
REMARK   13  A    between atoms: CG_15  and  CD2_17 
REMARK   14  A    between atoms: N_18  and  CA_19 
REMARK   15  A    between atoms: CA_19  and  C_20 
REMARK   16  A    between atoms: CA_19  and  CB_22 
REMARK       I    between atoms: C_20  and  N_29 
REMARK   17  A    between atoms: CB_22  and  CG_23 
REMARK   18  A    between atoms: CG_23  and  CD_24 
REMARK   19  A    between atoms: CD_24  and  NE_25 
REMARK       I    between atoms: NE_25  and  CZ_26 
REMARK       I    between atoms: CZ_26  and  NH1_27 
REMARK       I    between atoms: CZ_26  and  NH2_28 
REMARK   20  A    between atoms: CA_30  and  C_31 
REMARK       I    between atoms: C_31  and  N_36 
REMARK   21  A    between atoms: N_36  and  CA_37 
REMARK   22  A    between atoms: CA_37  and  C_38 
REMARK   23  A    between atoms: CA_37  and  CB_40 
REMARK       I    between atoms: C_38  and  N_43 
REMARK   24  A    between atoms: CB_40  and  CG1_41 
REMARK   25  A    between atoms: CB_40  and  CG2_42 
REMARK   26  A    between atoms: N_43  and  CA_44 
REMARK   27  A    between atoms: CA_44  and  CB_45 
REMARK   28  A    between atoms: CA_44  and  C_50 
REMARK   29  A    between atoms: CB_45  and  NG_46 
REMARK       I    between atoms: NG_46  and  CD_47 
REMARK   30  A    between atoms: CD_47  and  CE_48 
REMARK   31  A    between atoms: CE_48  and  CZ_49 
REMARK       I    between atoms: C_50  and  N_53 
REMARK   32  A    between atoms: N_53  and  CA_54 
REMARK   33  A    between atoms: CA_54  and  C_55 
REMARK   34  A    between atoms: CA_54  and  CB_57 
REMARK       I    between atoms: C_55  and  N_61 
REMARK   35  A    between atoms: CB_57  and  CG_58 
REMARK   36  A    between atoms: CG_58  and  SD_59 
REMARK   37  A    between atoms: SD_59  and  CE_60 
REMARK   38  A    between atoms: N_61  and  CA_62 
REMARK   39  A    between atoms: CA_62  and  C_63 
REMARK   40  A    between atoms: CA_62  and  CB_65 
REMARK       I    between atoms: C_63  and  N_68 
REMARK   41  A    between atoms: CB_65  and  CG1_66 
REMARK   42  A    between atoms: CB_65  and  CG2_67 
REMARK   43  A    between atoms: N_68  and  CA_69 
REMARK   44  A    between atoms: CA_69  and  C_70 
REMARK   45  A    between atoms: CA_69  and  CB_72 
REMARK       I    between atoms: C_70  and  N_79 
REMARK   46  A    between atoms: CB_72  and  CG_73 
REMARK   47  A    between atoms: CG_73  and  CD_74 
REMARK   48  A    between atoms: CD_74  and  NE_75 
REMARK       I    between atoms: NE_75  and  CZ_76 
REMARK       I    between atoms: CZ_76  and  NH1_77 
REMARK       I    between atoms: CZ_76  and  NH2_78 
REMARK   49  A    between atoms: CA_80  and  C_81 
REMARK       I    between atoms: C_81  and  N_86 
REMARK   50  A    between atoms: N_86  and  CA_87 
REMARK   51  A    between atoms: CA_87  and  C_88 
REMARK   52  A    between atoms: CA_87  and  CB_90 
REMARK       I    between atoms: C_88  and  N_100 
REMARK   53  A    between atoms: CB_90  and  CG_91 
REMARK   54  A    between atoms: N_100  and  CA_101 
REMARK   55  A    between atoms: CA_101  and  C_102 
REMARK   56  A    between atoms: CA_101  and  CB_104 
REMARK       I    between atoms: C_102  and  N_107 
REMARK   57  A    between atoms: CB_104  and  CG1_105 
REMARK   58  A    between atoms: CB_104  and  CG2_106 
REMARK   59  A    between atoms: N_107  and  CA_108 
REMARK   60  A    between atoms: CA_108  and  C_109 
REMARK   61  A    between atoms: CA_108  and  CB_111 
REMARK   62  A    between atoms: CB_111  and  CG_112 
REMARK   63  A    between atoms: CG_112  and  CD_113 
REMARK   64  A    between atoms: CD_113  and  NE_114 
REMARK       I    between atoms: NE_114  and  CZ_115 
REMARK       I    between atoms: CZ_115  and  NH1_116 
ROOT
ATOM      1  CA  MET d   1     -66.684  69.507 -18.168  0.00  0.00     0.090 C 
ATOM      2  H67 MET d   1     -66.515  68.483 -18.532  0.00  0.00     0.087 H 
ENDROOT
BRANCH   1   3
ATOM      3  N   MET d   1     -67.126  69.501 -16.788  0.00  0.00    -0.346 N 
ATOM      4  C   23P d   1     -66.769  68.564 -15.919  0.00  0.00     0.242 C 
ATOM      5  O   23P d   1     -65.983  67.662 -16.187  0.00  0.00    -0.271 OA
ATOM      6  H66 MET d   1     -67.728  70.237 -16.476  0.00  0.00     0.163 HD
BRANCH   4   7
ATOM      7  CA  23P d   1     -67.393  68.666 -14.559  0.00  0.00     0.104 C 
ATOM      8  H57 23P d   1     -68.224  69.384 -14.620  0.00  0.00     0.090 H 
BRANCH   7   9
ATOM      9  N   23P d   1     -67.933  67.384 -14.117  0.00  0.00    -0.344 N 
ATOM     10  C   VAL d   1     -69.180  67.269 -13.670  0.00  0.00     0.241 C 
ATOM     11  O   VAL d   1     -69.936  68.223 -13.537  0.00  0.00    -0.271 OA
ATOM     12  H56 23P d   1     -67.351  66.572 -14.151  0.00  0.00     0.163 HD
BRANCH  10  13
ATOM     13  CA  VAL d   1     -69.663  65.882 -13.327  0.00  0.00     0.092 C 
ATOM     14  H48 VAL d   1     -68.818  65.181 -13.259  0.00  0.00     0.088 H 
BRANCH  13  15
ATOM     15  N   VAL d   1     -70.345  65.958 -12.044  0.00  0.00    -0.346 N 
ATOM     16  C   PRO d   1     -69.776  65.582 -10.907  0.00  0.00     0.241 C 
ATOM     17  O   PRO d   1     -68.637  65.126 -10.831  0.00  0.00    -0.271 OA
ATOM     18  H47 VAL d   1     -71.281  66.308 -12.019  0.00  0.00     0.163 HD
BRANCH  16  19
ATOM     19  CA  PRO d   1     -70.626  65.729  -9.656  0.00  0.00     0.091 C 
ATOM     20  N   PRO d   1     -70.568  64.530  -8.814  0.00  0.00    -0.337 N 
ATOM     21  C   ARG d   1     -71.156  63.395  -9.241  0.00  0.00     0.243 C 
ATOM     22  CD  PRO d   1     -70.021  64.835  -7.481  0.00  0.00    -0.001 C 
ATOM     23  O   ARG d   1     -71.892  63.361 -10.225  0.00  0.00    -0.271 OA
ATOM     24  CG  PRO d   1     -69.280  66.120  -7.706  0.00  0.00    -0.048 C 
ATOM     25  H45 PRO d   1     -69.340  64.040  -7.142  0.00  0.00     0.064 H 
ATOM     26  H46 PRO d   1     -70.827  64.967  -6.744  0.00  0.00     0.064 H 
ATOM     27  CB  PRO d   1     -70.059  66.833  -8.752  0.00  0.00    -0.036 C 
ATOM     28  H43 PRO d   1     -69.243  66.713  -6.780  0.00  0.00     0.035 H 
ATOM     29  H44 PRO d   1     -68.256  65.920  -8.055  0.00  0.00     0.035 H 
ATOM     30  H41 PRO d   1     -70.874  67.415  -8.296  0.00  0.00     0.036 H 
ATOM     31  H42 PRO d   1     -69.406  67.505  -9.328  0.00  0.00     0.036 H 
ATOM     32  H40 PRO d   1     -71.664  65.951  -9.945  0.00  0.00     0.087 H 
BRANCH  21  33
ATOM     33  CA  ARG d   1     -70.873  62.111  -8.469  0.00  0.00     0.089 C 
ATOM     34  H28 ARG d   1     -70.058  62.297  -7.755  0.00  0.00     0.087 H 
BRANCH  33  35
ATOM     35  N   ARG d   1     -72.048  61.656  -7.723  0.00  0.00    -0.346 N 
ATOM     36  C   LEU d   1     -72.034  61.450  -6.405  0.00  0.00     0.241 C 
ATOM     37  O   LEU d   1     -71.114  61.820  -5.679  0.00  0.00    -0.271 OA
ATOM     38  H27 ARG d   1     -72.898  61.492  -8.223  0.00  0.00     0.163 HD
BRANCH  36  39
ATOM     39  CA  LEU d   1     -73.230  60.686  -5.818  0.00  0.00     0.089 C 
ATOM     40  H17 LEU d   1     -73.984  60.546  -6.607  0.00  0.00     0.087 H 
BRANCH  39  41
ATOM     41  N   LEU d   1     -72.776  59.376  -5.345  0.00  0.00    -0.346 N 
ATOM     42  C   LYS d   1     -72.289  58.439  -6.160  0.00  0.00     0.248 C 
ATOM     43  O   LYS d   1     -72.269  58.543  -7.389  0.00  0.00    -0.271 OA
ATOM     44  H16 LEU d   1     -72.834  59.175  -4.367  0.00  0.00     0.163 HD
BRANCH  42  45
ATOM     45  CA  LYS d   1     -71.746  57.192  -5.476  0.00  0.00     0.176 C 
ATOM     46  H4  LYS d   1     -72.504  56.820  -4.771  0.00  0.00     0.099 H 
BRANCH  45  47
ATOM     47  N   LYS d   1     -71.450  56.112  -6.460  0.00  0.00    -0.067 N 
ATOM     48  H1  LYS d   1     -71.093  55.304  -5.975  0.00  0.00     0.275 HD
ATOM     49  H2  LYS d   1     -70.762  56.438  -7.120  0.00  0.00     0.275 HD
ATOM     50  H3  LYS d   1     -72.295  55.864  -6.951  0.00  0.00     0.275 HD
ENDBRANCH  45  47
BRANCH  45  51
ATOM     51  CB  LYS d   1     -70.485  57.563  -4.695  0.00  0.00    -0.030 C 
ATOM     52  H5  LYS d   1     -70.682  58.494  -4.143  0.00  0.00     0.036 H 
ATOM     53  H6  LYS d   1     -69.670  57.729  -5.415  0.00  0.00     0.036 H 
BRANCH  51  54
ATOM     54  CG  LYS d   1     -70.035  56.508  -3.702  0.00  0.00    -0.061 C 
ATOM     55  H7  LYS d   1     -69.637  55.643  -4.253  0.00  0.00     0.033 H 
ATOM     56  H8  LYS d   1     -70.898  56.192  -3.098  0.00  0.00     0.033 H 
BRANCH  54  57
ATOM     57  CD  LYS d   1     -68.957  57.049  -2.782  0.00  0.00    -0.043 C 
ATOM     58  H9  LYS d   1     -69.394  57.821  -2.132  0.00  0.00     0.035 H 
ATOM     59  H10 LYS d   1     -68.155  57.492  -3.390  0.00  0.00     0.035 H 
BRANCH  57  60
ATOM     60  CE  LYS d   1     -68.372  55.946  -1.918  0.00  0.00     0.080 C 
ATOM     61  H11 LYS d   1     -68.010  55.139  -2.572  0.00  0.00     0.075 H 
ATOM     62  H12 LYS d   1     -69.162  55.557  -1.258  0.00  0.00     0.075 H 
BRANCH  60  63
ATOM     63  NZ  LYS d   1     -67.239  56.425  -1.078  0.00  0.00    -0.079 N 
ATOM     64  H13 LYS d   1     -66.885  55.661  -0.524  0.00  0.00     0.274 HD
ATOM     65  H14 LYS d   1     -67.560  57.161  -0.469  0.00  0.00     0.274 HD
ATOM     66  H15 LYS d   1     -66.505  56.777  -1.673  0.00  0.00     0.274 HD
ENDBRANCH  60  63
ENDBRANCH  57  60
ENDBRANCH  54  57
ENDBRANCH  51  54
ENDBRANCH  45  51
ENDBRANCH  42  45
ENDBRANCH  39  41
BRANCH  39  67
ATOM     67  CB  LEU d   1     -73.869  61.450  -4.657  0.00  0.00    -0.035 C 
ATOM     68  H18 LEU d   1     -73.088  61.583  -3.894  0.00  0.00     0.037 H 
ATOM     69  H19 LEU d   1     -74.669  60.810  -4.256  0.00  0.00     0.037 H 
BRANCH  67  70
ATOM     70  CG  LEU d   1     -74.485  62.827  -4.905  0.00  0.00    -0.059 C 
ATOM     71  H20 LEU d   1     -73.668  63.547  -5.059  0.00  0.00     0.038 H 
BRANCH  70  72
ATOM     72  CD1 LEU d   1     -75.368  62.846  -6.139  0.00  0.00    -0.073 C 
ATOM     73  H21 LEU d   1     -75.787  63.854  -6.275  0.00  0.00     0.028 H 
ATOM     74  H22 LEU d   1     -76.187  62.123  -6.015  0.00  0.00     0.028 H 
ATOM     75  H23 LEU d   1     -74.770  62.575  -7.022  0.00  0.00     0.028 H 
ENDBRANCH  70  72
BRANCH  70  76
ATOM     76  CD2 LEU d   1     -75.285  63.252  -3.679  0.00  0.00    -0.073 C 
ATOM     77  H24 LEU d   1     -74.634  63.234  -2.792  0.00  0.00     0.028 H 
ATOM     78  H25 LEU d   1     -76.126  62.558  -3.531  0.00  0.00     0.028 H 
ATOM     79  H26 LEU d   1     -75.672  64.270  -3.829  0.00  0.00     0.028 H 
ENDBRANCH  70  76
ENDBRANCH  67  70
ENDBRANCH  39  67
ENDBRANCH  36  39
ENDBRANCH  33  35
BRANCH  33  80
ATOM     80  CB  ARG d   1     -70.425  61.030  -9.480  0.00  0.00    -0.036 C 
ATOM     81  H29 ARG d   1     -69.864  61.533 -10.282  0.00  0.00     0.036 H 
ATOM     82  H30 ARG d   1     -71.331  60.568  -9.900  0.00  0.00     0.036 H 
BRANCH  80  83
ATOM     83  CG  ARG d   1     -69.546  59.912  -8.928  0.00  0.00    -0.048 C 
ATOM     84  H31 ARG d   1     -70.146  59.290  -8.247  0.00  0.00     0.035 H 
ATOM     85  H32 ARG d   1     -68.707  60.358  -8.374  0.00  0.00     0.035 H 
BRANCH  83  86
ATOM     86  CD  ARG d   1     -68.989  59.029 -10.043  0.00  0.00     0.009 C 
ATOM     87  H33 ARG d   1     -68.389  59.654 -10.721  0.00  0.00     0.064 H 
ATOM     88  H34 ARG d   1     -69.831  58.590 -10.598  0.00  0.00     0.064 H 
BRANCH  86  89
ATOM     89  NE  ARG d   1     -68.142  57.940  -9.536  0.00  0.00    -0.227 N 
ATOM     90  CZ  ARG d   1     -66.819  58.002  -9.318  0.00  0.00     0.665 C 
ATOM     91  NH1 ARG d   1     -66.113  59.105  -9.552  0.00  0.00    -0.235 N 
ATOM     92  NH2 ARG d   1     -66.184  56.933  -8.853  0.00  0.00    -0.235 N 
ATOM     93  H36 ARG d   1     -65.099  59.115  -9.373  0.00  0.00     0.174 HD
ATOM     94  H37 ARG d   1     -66.581  59.949  -9.913  0.00  0.00     0.174 HD
ATOM     95  H38 ARG d   1     -66.706  56.066  -8.663  0.00  0.00     0.174 HD
ATOM     96  H39 ARG d   1     -65.169  56.971  -8.682  0.00  0.00     0.174 HD
ATOM     97  H35 ARG d   1     -68.608  57.045  -9.328  0.00  0.00     0.177 HD
ENDBRANCH  86  89
ENDBRANCH  83  86
ENDBRANCH  80  83
ENDBRANCH  33  80
ENDBRANCH  21  33
ENDBRANCH  16  19
ENDBRANCH  13  15
BRANCH  13  98
ATOM     98  CB  VAL d   1     -70.618  65.446 -14.457  0.00  0.00    -0.033 C 
ATOM     99  H49 VAL d   1     -71.391  66.220 -14.571  0.00  0.00     0.042 H 
BRANCH  98 100
ATOM    100  CG1 VAL d   1     -69.865  65.332 -15.770  0.00  0.00    -0.071 C 
ATOM    101  H50 VAL d   1     -70.559  65.021 -16.565  0.00  0.00     0.028 H 
ATOM    102  H51 VAL d   1     -69.064  64.585 -15.669  0.00  0.00     0.028 H 
ATOM    103  H52 VAL d   1     -69.427  66.308 -16.027  0.00  0.00     0.028 H 
ENDBRANCH  98 100
BRANCH  98 104
ATOM    104  CG2 VAL d   1     -71.310  64.134 -14.107  0.00  0.00    -0.071 C 
ATOM    105  H53 VAL d   1     -71.847  64.246 -13.153  0.00  0.00     0.028 H 
ATOM    106  H54 VAL d   1     -70.558  63.336 -14.014  0.00  0.00     0.028 H 
ATOM    107  H55 VAL d   1     -72.025  63.873 -14.901  0.00  0.00     0.028 H 
ENDBRANCH  98 104
ENDBRANCH  13  98
ENDBRANCH  10  13
ENDBRANCH   7   9
BRANCH   7 108
ATOM    108  CB  23P d   1     -66.392  69.183 -13.547  0.00  0.00     0.022 C 
ATOM    109  H58 23P d   1     -65.678  68.384 -13.299  0.00  0.00     0.067 H 
ATOM    110  H59 23P d   1     -66.922  69.497 -12.636  0.00  0.00     0.067 H 
BRANCH 108 111
ATOM    111  NG  23P d   1     -65.677  70.312 -14.099  0.00  0.00    -0.359 N 
ATOM    112  CD  23P d   1     -65.973  71.565 -13.766  0.00  0.00     0.217 C 
ATOM    113  OE  23P d   1     -66.844  71.892 -12.969  0.00  0.00    -0.274 OA
ATOM    114  H60 23P d   1     -64.937  70.146 -14.751  0.00  0.00     0.162 HD
BRANCH 112 115
ATOM    115  CE  23P d   1     -65.109  72.602 -14.425  0.00  0.00     0.006 C 
ATOM    116  H61 23P d   1     -65.682  73.524 -14.600  0.00  0.00     0.046 H 
ATOM    117  H62 23P d   1     -64.719  72.225 -15.382  0.00  0.00     0.046 H 
BRANCH 115 118
ATOM    118  CZ  23P d   1     -63.979  72.860 -13.462  0.00  0.00    -0.068 C 
ATOM    119  H63 23P d   1     -63.302  73.617 -13.885  0.00  0.00     0.028 H 
ATOM    120  H64 23P d   1     -63.423  71.926 -13.290  0.00  0.00     0.028 H 
ATOM    121  H65 23P d   1     -64.386  73.225 -12.508  0.00  0.00     0.028 H 
ENDBRANCH 115 118
ENDBRANCH 112 115
ENDBRANCH 108 111
ENDBRANCH   7 108
ENDBRANCH   4   7
ENDBRANCH   1   3
BRANCH   1 122
ATOM    122  C   MET d   1     -65.394  70.299 -18.177  0.00  0.00     0.241 C 
ATOM    123  O   MET d   1     -65.345  71.398 -17.628  0.00  0.00    -0.271 OA
ATOM    124  N   VAL d   1     -64.347  69.736 -18.774  0.00  0.00    -0.346 N 
ATOM    125  H75 VAL d   1     -64.448  68.827 -19.178  0.00  0.00     0.163 HD
BRANCH 124 126
ATOM    126  CA  VAL d   1     -63.049  70.413 -18.855  0.00  0.00     0.092 C 
ATOM    127  H76 VAL d   1     -63.141  71.385 -18.348  0.00  0.00     0.088 H 
BRANCH 126 128
ATOM    128  C   VAL d   1     -62.653  70.660 -20.306  0.00  0.00     0.241 C 
ATOM    129  O   VAL d   1     -62.604  69.735 -21.138  0.00  0.00    -0.271 OA
ATOM    130  N   ARG d   1     -62.368  71.925 -20.587  0.00  0.00    -0.346 N 
ATOM    131  H84 ARG d   1     -62.349  72.591 -19.841  0.00  0.00     0.163 HD
BRANCH 130 132
ATOM    132  CA  ARG d   1     -62.084  72.379 -21.931  0.00  0.00     0.089 C 
ATOM    133  H85 ARG d   1     -62.649  71.772 -22.654  0.00  0.00     0.087 H 
BRANCH 132 134
ATOM    134  C   ARG d   1     -60.601  72.215 -22.177  0.00  0.00     0.243 C 
ATOM    135  O   ARG d   1     -59.796  72.491 -21.296  0.00  0.00    -0.271 OA
ATOM    136  N   PRO d   1     -60.228  71.759 -23.375  0.00  0.00    -0.337 N 
ATOM    137  CA  PRO d   1     -58.824  71.529 -23.674  0.00  0.00     0.091 C 
ATOM    138  CD  PRO d   1     -61.089  71.400 -24.512  0.00  0.00    -0.001 C 
ATOM    139  CB  PRO d   1     -58.878  70.685 -24.948  0.00  0.00    -0.036 C 
ATOM    140  H97 PRO d   1     -58.343  70.980 -22.851  0.00  0.00     0.087 H 
ATOM    141  CG  PRO d   1     -60.108  71.150 -25.621  0.00  0.00    -0.048 C 
ATOM    142  H98 PRO d   1     -58.943  69.614 -24.707  0.00  0.00     0.036 H 
ATOM    143  H99 PRO d   1     -57.994  70.866 -25.577  0.00  0.00     0.036 H 
ATOM    144 0H10 PRO d   1     -60.489  70.379 -26.307  0.00  0.00     0.035 H 
ATOM    145 1H10 PRO d   1     -59.915  72.076 -26.182  0.00  0.00     0.035 H 
ATOM    146 2H10 PRO d   1     -61.770  72.225 -24.767  0.00  0.00     0.064 H 
ATOM    147 3H10 PRO d   1     -61.675  70.495 -24.293  0.00  0.00     0.064 H 
BRANCH 137 148
ATOM    148  C   PRO d   1     -58.035  72.801 -23.954  0.00  0.00     0.241 C 
ATOM    149  O   PRO d   1     -58.598  73.801 -24.369  0.00  0.00    -0.271 OA
ATOM    150  N   TRP d   1     -56.729  72.723 -23.723  0.00  0.00    -0.346 N 
ATOM    151 4H10 TRP d   1     -56.380  71.905 -23.265  0.00  0.00     0.163 HD
BRANCH 150 152
ATOM    152  CA  TRP d   1     -55.777  73.755 -24.096  0.00  0.00     0.093 C 
ATOM    153 5H10 TRP d   1     -56.295  74.563 -24.633  0.00  0.00     0.088 H 
BRANCH 152 154
ATOM    154  C   TRP d   1     -54.742  73.131 -24.980  0.00  0.00     0.241 C 
ATOM    155  O   TRP d   1     -54.144  72.112 -24.624  0.00  0.00    -0.271 OA
ATOM    156  N   VAL d   1     -54.515  73.732 -26.140  0.00  0.00    -0.346 N 
ATOM    157 4H11 VAL d   1     -55.057  74.535 -26.386  0.00  0.00     0.163 HD
BRANCH 156 158
ATOM    158  CA  VAL d   1     -53.496  73.253 -27.067  0.00  0.00     0.092 C 
ATOM    159 5H11 VAL d   1     -53.367  72.170 -26.921  0.00  0.00     0.088 H 
BRANCH 158 160
ATOM    160  C   VAL d   1     -52.176  73.953 -26.770  0.00  0.00     0.241 C 
ATOM    161  O   VAL d   1     -52.153  75.164 -26.552  0.00  0.00    -0.271 OA
ATOM    162  N   ARG d   1     -51.089  73.185 -26.745  0.00  0.00    -0.345 N 
ATOM    163 3H12 ARG d   1     -51.197  72.193 -26.806  0.00  0.00     0.163 HD
BRANCH 162 164
ATOM    164  CA  ARG d   1     -49.747  73.742 -26.632  0.00  0.00     0.096 C 
ATOM    165 4H12 ARG d   1     -49.776  74.614 -25.962  0.00  0.00     0.089 H 
BRANCH 164 166
ATOM    166  C   ARG d   1     -49.272  74.180 -28.010  0.00  0.00     0.196 C 
ATOM    167  O   ARG d   1     -48.512  75.177 -28.139  0.00  0.00    -0.646 OA
ATOM    168  O   ARG d   1     -49.642  73.541 -29.031  0.00  0.00    -0.646 OA
ENDBRANCH 164 166
BRANCH 164 169
ATOM    169  CB  ARG d   1     -48.772  72.713 -26.064  0.00  0.00    -0.035 C 
ATOM    170 5H12 ARG d   1     -47.771  73.168 -26.040  0.00  0.00     0.036 H 
ATOM    171 6H12 ARG d   1     -48.764  71.842 -26.736  0.00  0.00     0.036 H 
BRANCH 169 172
ATOM    172  CG  ARG d   1     -49.102  72.226 -24.666  0.00  0.00    -0.047 C 
ATOM    173 7H12 ARG d   1     -49.985  71.571 -24.713  0.00  0.00     0.035 H 
ATOM    174 8H12 ARG d   1     -49.322  73.093 -24.026  0.00  0.00     0.035 H 
BRANCH 172 175
ATOM    175  CD  ARG d   1     -47.938  71.449 -24.066  0.00  0.00     0.009 C 
ATOM    176 9H12 ARG d   1     -47.161  72.160 -23.749  0.00  0.00     0.064 H 
ATOM    177 0H13 ARG d   1     -47.528  70.774 -24.832  0.00  0.00     0.064 H 
BRANCH 175 178
ATOM    178  NE  ARG d   1     -48.351  70.660 -22.916  0.00  0.00    -0.227 N 
ATOM    179  CZ  ARG d   1     -47.538  69.925 -22.166  0.00  0.00     0.665 C 
ATOM    180  NH1 ARG d   1     -46.232  69.861 -22.419  0.00  0.00    -0.235 N 
ATOM    181  NH2 ARG d   1     -48.041  69.249 -21.143  0.00  0.00    -0.235 N 
ATOM    182 2H13 ARG d   1     -45.620  69.284 -21.824  0.00  0.00     0.174 HD
ATOM    183 3H13 ARG d   1     -45.834  70.388 -23.209  0.00  0.00     0.174 HD
ATOM    184 4H13 ARG d   1     -49.050  69.294 -20.942  0.00  0.00     0.174 HD
ATOM    185 5H13 ARG d   1     -47.423  68.678 -20.549  0.00  0.00     0.174 HD
ATOM    186 1H13 ARG d   1     -49.350  70.672 -22.664  0.00  0.00     0.177 HD
ENDBRANCH 175 178
ENDBRANCH 172 175
ENDBRANCH 169 172
ENDBRANCH 164 169
ENDBRANCH 162 164
ENDBRANCH 158 160
BRANCH 158 187
ATOM    187  CB  VAL d   1     -53.908  73.506 -28.533  0.00  0.00    -0.033 C 
ATOM    188 6H11 VAL d   1     -54.217  74.557 -28.630  0.00  0.00     0.042 H 
BRANCH 187 189
ATOM    189  CG1 VAL d   1     -52.738  73.262 -29.477  0.00  0.00    -0.071 C 
ATOM    190 7H11 VAL d   1     -53.057  73.449 -30.513  0.00  0.00     0.028 H 
ATOM    191 8H11 VAL d   1     -52.400  72.220 -29.380  0.00  0.00     0.028 H 
ATOM    192 9H11 VAL d   1     -51.912  73.941 -29.220  0.00  0.00     0.028 H 
ENDBRANCH 187 189
BRANCH 187 193
ATOM    193  CG2 VAL d   1     -55.087  72.621 -28.904  0.00  0.00    -0.071 C 
ATOM    194 0H12 VAL d   1     -55.920  72.811 -28.212  0.00  0.00     0.028 H 
ATOM    195 1H12 VAL d   1     -54.788  71.565 -28.836  0.00  0.00     0.028 H 
ATOM    196 2H12 VAL d   1     -55.406  72.847 -29.932  0.00  0.00     0.028 H 
ENDBRANCH 187 193
ENDBRANCH 158 187
ENDBRANCH 156 158
ENDBRANCH 152 154
BRANCH 152 197
ATOM    197  CB  TRP d   1     -55.093  74.322 -22.857  0.00  0.00    -0.012 C 
ATOM    198 6H10 TRP d   1     -54.288  74.997 -23.184  0.00  0.00     0.044 H 
ATOM    199 7H10 TRP d   1     -54.661  73.486 -22.287  0.00  0.00     0.044 H 
BRANCH 197 200
ATOM    200  CG  TRP d   1     -56.016  75.090 -21.948  0.00  0.00    -0.028 A 
ATOM    201  CD1 TRP d   1     -56.658  74.628 -20.804  0.00  0.00    -0.015 A 
ATOM    202  NE1 TRP d   1     -57.420  75.617 -20.232  0.00  0.00    -0.365 N 
ATOM    203 8H10 TRP d   1     -56.568  73.615 -20.413  0.00  0.00     0.112 H 
ATOM    204  CE2 TRP d   1     -57.334  76.756 -20.949  0.00  0.00     0.042 A 
ATOM    205 9H10 TRP d   1     -57.980  75.504 -19.375  0.00  0.00     0.165 HD
ATOM    206  CD2 TRP d   1     -56.437  76.488 -22.082  0.00  0.00    -0.002 A 
ATOM    207  CZ2 TRP d   1     -57.924  77.995 -20.758  0.00  0.00    -0.056 A 
ATOM    208  CE3 TRP d   1     -56.171  77.508 -22.989  0.00  0.00    -0.070 A 
ATOM    209  CZ3 TRP d   1     -56.774  78.755 -22.784  0.00  0.00    -0.082 A 
ATOM    210 0H11 TRP d   1     -55.513  77.342 -23.834  0.00  0.00     0.084 H 
ATOM    211  CH2 TRP d   1     -57.630  78.989 -21.696  0.00  0.00    -0.081 A 
ATOM    212 2H11 TRP d   1     -56.575  79.560 -23.483  0.00  0.00     0.083 H 
ATOM    213 3H11 TRP d   1     -58.076  79.970 -21.580  0.00  0.00     0.083 H 
ATOM    214 1H11 TRP d   1     -58.584  78.185 -19.919  0.00  0.00     0.086 H 
ENDBRANCH 197 200
ENDBRANCH 152 197
ENDBRANCH 150 152
ENDBRANCH 137 148
ENDBRANCH 132 134
BRANCH 132 215
ATOM    215  CB  ARG d   1     -62.479  73.849 -22.087  0.00  0.00    -0.036 C 
ATOM    216  H86 ARG d   1     -62.306  74.141 -23.133  0.00  0.00     0.036 H 
ATOM    217  H87 ARG d   1     -61.835  74.449 -21.427  0.00  0.00     0.036 H 
BRANCH 215 218
ATOM    218  CG  ARG d   1     -63.938  74.158 -21.740  0.00  0.00    -0.048 C 
ATOM    219  H88 ARG d   1     -64.083  75.248 -21.771  0.00  0.00     0.035 H 
ATOM    220  H89 ARG d   1     -64.142  73.790 -20.724  0.00  0.00     0.035 H 
BRANCH 218 221
ATOM    221  CD  ARG d   1     -64.928  73.509 -22.701  0.00  0.00     0.009 C 
ATOM    222  H90 ARG d   1     -65.950  73.776 -22.394  0.00  0.00     0.064 H 
ATOM    223  H91 ARG d   1     -64.805  72.417 -22.655  0.00  0.00     0.064 H 
BRANCH 221 224
ATOM    224  NE  ARG d   1     -64.717  73.951 -24.079  0.00  0.00    -0.227 N 
ATOM    225  CZ  ARG d   1     -65.367  73.476 -25.140  0.00  0.00     0.665 C 
ATOM    226  NH1 ARG d   1     -66.294  72.533 -25.002  0.00  0.00    -0.235 N 
ATOM    227  NH2 ARG d   1     -65.088  73.949 -26.351  0.00  0.00    -0.235 N 
ATOM    228  H93 ARG d   1     -66.790  72.173 -25.830  0.00  0.00     0.174 HD
ATOM    229  H94 ARG d   1     -66.516  72.162 -24.067  0.00  0.00     0.174 HD
ATOM    230  H95 ARG d   1     -64.371  74.680 -26.466  0.00  0.00     0.174 HD
ATOM    231  H96 ARG d   1     -65.589  73.585 -27.174  0.00  0.00     0.174 HD
ATOM    232  H92 ARG d   1     -64.013  74.685 -24.241  0.00  0.00     0.177 HD
ENDBRANCH 221 224
ENDBRANCH 218 221
ENDBRANCH 215 218
ENDBRANCH 132 215
ENDBRANCH 130 132
ENDBRANCH 126 128
BRANCH 126 233
ATOM    233  CB  VAL d   1     -61.940  69.610 -18.161  0.00  0.00    -0.033 C 
ATOM    234  H77 VAL d   1     -61.831  68.645 -18.677  0.00  0.00     0.042 H 
BRANCH 233 235
ATOM    235  CG1 VAL d   1     -60.615  70.353 -18.236  0.00  0.00    -0.071 C 
ATOM    236  H78 VAL d   1     -59.834  69.762 -17.734  0.00  0.00     0.028 H 
ATOM    237  H79 VAL d   1     -60.713  71.329 -17.738  0.00  0.00     0.028 H 
ATOM    238  H80 VAL d   1     -60.339  70.505 -19.290  0.00  0.00     0.028 H 
ENDBRANCH 233 235
BRANCH 233 239
ATOM    239  CG2 VAL d   1     -62.312  69.348 -16.712  0.00  0.00    -0.071 C 
ATOM    240  H81 VAL d   1     -63.271  68.811 -16.671  0.00  0.00     0.028 H 
ATOM    241  H82 VAL d   1     -62.405  70.305 -16.178  0.00  0.00     0.028 H 
ATOM    242  H83 VAL d   1     -61.529  68.738 -16.237  0.00  0.00     0.028 H 
ENDBRANCH 233 239
ENDBRANCH 126 233
ENDBRANCH 124 126
ENDBRANCH   1 122
BRANCH   1 243
ATOM    243  CB  MET d   1     -67.744  70.204 -19.032  0.00  0.00    -0.030 C 
ATOM    244  H68 MET d   1     -67.324  71.160 -19.379  0.00  0.00     0.037 H 
ATOM    245  H69 MET d   1     -68.623  70.398 -18.400  0.00  0.00     0.037 H 
BRANCH 243 246
ATOM    246  CG  MET d   1     -68.207  69.426 -20.252  0.00  0.00    -0.021 C 
ATOM    247  H70 MET d   1     -68.312  68.367 -19.974  0.00  0.00     0.049 H 
ATOM    248  H71 MET d   1     -67.446  69.524 -21.041  0.00  0.00     0.049 H 
BRANCH 246 249
ATOM    249  SD  MET d   1     -69.793  70.014 -20.902  0.00  0.00    -0.173 SA
BRANCH 249 250
ATOM    250  CE  MET d   1     -70.962  69.257 -19.766  0.00  0.00    -0.035 C 
ATOM    251  H72 MET d   1     -71.986  69.538 -20.052  0.00  0.00     0.041 H 
ATOM    252  H73 MET d   1     -70.758  69.607 -18.743  0.00  0.00     0.041 H 
ATOM    253  H74 MET d   1     -70.857  68.163 -19.807  0.00  0.00     0.041 H 
ENDBRANCH 249 250
ENDBRANCH 246 249
ENDBRANCH 243 246
ENDBRANCH   1 243
TORSDOF 64
