REMARK WARNING: 32 MAX_TORS EXCEEDED!!!
REMARK  67 active torsions:
REMARK  status: ('A' for Active; 'I' for Inactive)
REMARK    1  A    between atoms: C_1  and  CH3_3 
REMARK       I    between atoms: N_4  and  C_1 
REMARK    2  A    between atoms: CA_5  and  N_4 
REMARK    3  A    between atoms: C_6  and  CA_5 
REMARK    4  A    between atoms: CA_5  and  CB_8 
REMARK       I    between atoms: N_13  and  C_6 
REMARK    5  A    between atoms: CB_8  and  CG_9 
REMARK    6  A    between atoms: CG_9  and  CD_10 
REMARK    7  A    between atoms: CD_10  and  CE_11 
REMARK    8  A    between atoms: CE_11  and  NZ_12 
REMARK    9  A    between atoms: CA_14  and  N_13 
REMARK   10  A    between atoms: C_15  and  CA_14 
REMARK   11  A    between atoms: CA_14  and  CB_17 
REMARK       I    between atoms: N_21  and  C_15 
REMARK   12  A    between atoms: CB_17  and  CG_18 
REMARK   13  A    between atoms: CG_18  and  CD1_19 
REMARK   14  A    between atoms: CG_18  and  CD2_20 
REMARK   15  A    between atoms: CA_22  and  N_21 
REMARK   16  A    between atoms: C_23  and  CA_22 
REMARK   17  A    between atoms: CA_22  and  CB_25 
REMARK       I    between atoms: N_32  and  C_23 
REMARK   18  A    between atoms: CB_25  and  CG_26 
REMARK   19  A    between atoms: CG_26  and  CD_27 
REMARK   20  A    between atoms: CD_27  and  NE_28 
REMARK       I    between atoms: NE_28  and  CZ_29 
REMARK       I    between atoms: CZ_29  and  NH1_30 
REMARK       I    between atoms: CZ_29  and  NH2_31 
REMARK   21  A    between atoms: C_34  and  CA_33 
REMARK       I    between atoms: N_39  and  C_34 
REMARK   22  A    between atoms: CA_40  and  N_39 
REMARK   23  A    between atoms: C_41  and  CA_40 
REMARK   24  A    between atoms: CA_40  and  CB_43 
REMARK       I    between atoms: N_46  and  C_41 
REMARK   25  A    between atoms: CB_43  and  CG1_44 
REMARK   26  A    between atoms: CB_43  and  CG2_45 
REMARK   27  A    between atoms: CA_47  and  N_46 
REMARK   28  A    between atoms: C_48  and  CA_47 
REMARK   29  A    between atoms: CA_47  and  CB_50 
REMARK       I    between atoms: N_51  and  C_48 
REMARK   30  A    between atoms: CA_52  and  N_51 
REMARK   31  A    between atoms: C_53  and  CA_52 
REMARK   32  A    between atoms: CA_52  and  CB_55 
REMARK       I    between atoms: N_59  and  C_53 
REMARK   33  A    between atoms: CB_55  and  CG_56 
REMARK   34  A    between atoms: CG_56  and  SD_57 
REMARK   35  A    between atoms: SD_57  and  CE_58 
REMARK   36  A    between atoms: CA_60  and  N_59 
REMARK   37  A    between atoms: C_61  and  CA_60 
REMARK   38  A    between atoms: CA_60  and  CB_63 
REMARK       I    between atoms: N_66  and  C_61 
REMARK   39  A    between atoms: CB_63  and  CG1_64 
REMARK   40  A    between atoms: CB_63  and  CG2_65 
REMARK   41  A    between atoms: CA_67  and  N_66 
REMARK   42  A    between atoms: C_68  and  CA_67 
REMARK   43  A    between atoms: CA_67  and  CB_70 
REMARK       I    between atoms: N_77  and  C_68 
REMARK   44  A    between atoms: CB_70  and  CG_71 
REMARK   45  A    between atoms: CG_71  and  CD_72 
REMARK   46  A    between atoms: CD_72  and  NE_73 
REMARK       I    between atoms: NE_73  and  CZ_74 
REMARK       I    between atoms: CZ_74  and  NH1_75 
REMARK       I    between atoms: CZ_74  and  NH2_76 
REMARK   47  A    between atoms: C_79  and  CA_78 
REMARK       I    between atoms: N_85  and  C_79 
REMARK   48  A    between atoms: CA_87  and  C_84 
REMARK       I    between atoms: C_84  and  N_97 
REMARK   49  A    between atoms: CA_87  and  N_85 
REMARK   50  A    between atoms: CB_88  and  CA_87 
REMARK   51  A    between atoms: CG_91  and  CB_88 
REMARK   52  A    between atoms: CE_90  and  CD_89 
REMARK   53  A    between atoms: CD_89  and  CG_91 
REMARK   54  A    between atoms: NZ_92  and  CE_90 
REMARK       I    between atoms: CAL_96  and  NZ_92 
REMARK   55  A    between atoms: CAF_95  and  CAA_93 
REMARK   56  A    between atoms: CAF_95  and  CAL_96 
REMARK   57  A    between atoms: N_97  and  CA_98 
REMARK   58  A    between atoms: CA_98  and  C_99 
REMARK   59  A    between atoms: CA_98  and  CB_101 
REMARK       I    between atoms: C_99  and  N_104 
REMARK   60  A    between atoms: CB_101  and  CG1_102 
REMARK   61  A    between atoms: CB_101  and  CG2_103 
REMARK   62  A    between atoms: N_104  and  CA_105 
REMARK   63  A    between atoms: CA_105  and  C_106 
REMARK   64  A    between atoms: CA_105  and  CB_108 
REMARK   65  A    between atoms: CB_108  and  CG_109 
REMARK   66  A    between atoms: CG_109  and  CD_110 
REMARK   67  A    between atoms: CD_110  and  NE_111 
REMARK       I    between atoms: NE_111  and  CZ_112 
REMARK       I    between atoms: CZ_112  and  NH1_113 
ROOT
ATOM      1  CA  MET d   1      -8.603  14.202  62.757  0.00  0.00     0.090 C 
ATOM      2  H63 MET d   1      -8.918  15.153  62.302  0.00  0.00     0.087 H 
ENDROOT
BRANCH   1   3
ATOM      3  N   MET d   1      -8.388  14.386  64.183  0.00  0.00    -0.346 N 
ATOM      4  C   ALA d   1      -9.124  15.217  64.909  0.00  0.00     0.240 C 
ATOM      5  O   ALA d   1      -9.974  15.971  64.423  0.00  0.00    -0.271 OA
ATOM      6  H62 MET d   1      -7.660  13.868  64.632  0.00  0.00     0.163 HD
BRANCH   4   7
ATOM      7  CA  ALA d   1      -8.851  15.204  66.408  0.00  0.00     0.086 C 
ATOM      8  H58 ALA d   1      -8.023  14.509  66.612  0.00  0.00     0.086 H 
BRANCH   7   9
ATOM      9  N   ALA d   1      -8.459  16.543  66.847  0.00  0.00    -0.346 N 
ATOM     10  C   VAL d   1      -7.213  16.837  67.208  0.00  0.00     0.241 C 
ATOM     11  O   VAL d   1      -6.314  16.005  67.265  0.00  0.00    -0.271 OA
ATOM     12  H57 ALA d   1      -9.152  17.263  66.877  0.00  0.00     0.163 HD
BRANCH  10  13
ATOM     13  CA  VAL d   1      -6.935  18.293  67.564  0.00  0.00     0.092 C 
ATOM     14  H49 VAL d   1      -7.878  18.858  67.562  0.00  0.00     0.088 H 
BRANCH  13  15
ATOM     15  N   VAL d   1      -6.343  18.361  68.892  0.00  0.00    -0.346 N 
ATOM     16  C   PRO d   1      -6.999  18.836  69.942  0.00  0.00     0.241 C 
ATOM     17  O   PRO d   1      -8.157  19.249  69.890  0.00  0.00    -0.271 OA
ATOM     18  H48 VAL d   1      -5.405  18.037  69.017  0.00  0.00     0.163 HD
BRANCH  16  19
ATOM     19  CA  PRO d   1      -6.227  18.881  71.256  0.00  0.00     0.091 C 
ATOM     20  N   PRO d   1      -6.579  20.078  72.020  0.00  0.00    -0.337 N 
ATOM     21  C   ARG d   1      -6.283  21.282  71.499  0.00  0.00     0.243 C 
ATOM     22  CD  PRO d   1      -7.093  19.739  73.357  0.00  0.00    -0.001 C 
ATOM     23  O   ARG d   1      -5.509  21.426  70.549  0.00  0.00    -0.271 OA
ATOM     24  CG  PRO d   1      -7.547  18.322  73.197  0.00  0.00    -0.048 C 
ATOM     25  H46 PRO d   1      -7.932  20.393  73.635  0.00  0.00     0.064 H 
ATOM     26  H47 PRO d   1      -6.301  19.816  74.116  0.00  0.00     0.064 H 
ATOM     27  CB  PRO d   1      -6.642  17.720  72.179  0.00  0.00    -0.036 C 
ATOM     28  H44 PRO d   1      -7.463  17.782  74.152  0.00  0.00     0.035 H 
ATOM     29  H45 PRO d   1      -8.590  18.291  72.849  0.00  0.00     0.035 H 
ATOM     30  H42 PRO d   1      -5.758  17.280  72.663  0.00  0.00     0.036 H 
ATOM     31  H43 PRO d   1      -7.171  16.944  71.606  0.00  0.00     0.036 H 
ATOM     32  H41 PRO d   1      -5.147  18.850  71.049  0.00  0.00     0.087 H 
BRANCH  21  33
ATOM     33  CA  ARG d   1      -6.955  22.500  72.127  0.00  0.00     0.089 C 
ATOM     34  H29 ARG d   1      -7.779  22.145  72.763  0.00  0.00     0.087 H 
BRANCH  33  35
ATOM     35  N   ARG d   1      -6.043  23.278  72.972  0.00  0.00    -0.346 N 
ATOM     36  C   LEU d   1      -6.352  23.633  74.219  0.00  0.00     0.241 C 
ATOM     37  O   LEU d   1      -7.379  23.263  74.788  0.00  0.00    -0.271 OA
ATOM     38  H28 ARG d   1      -5.157  23.552  72.599  0.00  0.00     0.163 HD
BRANCH  36  39
ATOM     39  CA  LEU d   1      -5.368  24.558  74.935  0.00  0.00     0.089 C 
ATOM     40  H18 LEU d   1      -4.502  24.733  74.280  0.00  0.00     0.087 H 
BRANCH  39  41
ATOM     41  N   LEU d   1      -6.012  25.842  75.230  0.00  0.00    -0.346 N 
ATOM     42  C   LYS d   1      -6.444  26.680  74.285  0.00  0.00     0.241 C 
ATOM     43  O   LYS d   1      -6.258  26.503  73.075  0.00  0.00    -0.271 OA
ATOM     44  H17 LEU d   1      -6.134  26.103  76.188  0.00  0.00     0.163 HD
BRANCH  42  45
ATOM     45  CA  LYS d   1      -7.210  27.907  74.787  0.00  0.00     0.089 C 
ATOM     46  H5  LYS d   1      -7.022  28.008  75.866  0.00  0.00     0.087 H 
BRANCH  45  47
ATOM     47  N   LYS d   1      -6.784  29.141  74.139  0.00  0.00    -0.348 N 
ATOM     48  C   ACE d   1      -6.606  30.303  74.781  0.00  0.00     0.214 C 
ATOM     49  O   ACE d   1      -6.293  31.317  74.177  0.00  0.00    -0.274 OA
ATOM     50  H4  LYS d   1      -6.614  29.119  73.154  0.00  0.00     0.163 HD
BRANCH  48  51
ATOM     51  CH3 ACE d   1      -6.808  30.323  76.279  0.00  0.00    -0.003 C 
ATOM     52  H1  ACE d   1      -7.084  29.316  76.625  0.00  0.00     0.040 H 
ATOM     53  H2  ACE d   1      -7.612  31.030  76.531  0.00  0.00     0.040 H 
ATOM     54  H3  ACE d   1      -5.875  30.637  76.771  0.00  0.00     0.040 H 
ENDBRANCH  48  51
ENDBRANCH  45  47
BRANCH  45  55
ATOM     55  CB  LYS d   1      -8.710  27.697  74.570  0.00  0.00    -0.038 C 
ATOM     56  H6  LYS d   1      -8.995  26.733  75.018  0.00  0.00     0.036 H 
ATOM     57  H7  LYS d   1      -8.905  27.670  73.488  0.00  0.00     0.036 H 
BRANCH  55  58
ATOM     58  CG  LYS d   1      -9.573  28.788  75.187  0.00  0.00    -0.061 C 
ATOM     59  H8  LYS d   1      -9.338  29.746  74.700  0.00  0.00     0.033 H 
ATOM     60  H9  LYS d   1      -9.345  28.857  76.261  0.00  0.00     0.033 H 
BRANCH  58  61
ATOM     61  CD  LYS d   1     -11.054  28.500  75.016  0.00  0.00    -0.043 C 
ATOM     62  H10 LYS d   1     -11.259  27.473  75.353  0.00  0.00     0.035 H 
ATOM     63  H11 LYS d   1     -11.316  28.596  73.952  0.00  0.00     0.035 H 
BRANCH  61  64
ATOM     64  CE  LYS d   1     -11.910  29.465  75.824  0.00  0.00     0.080 C 
ATOM     65  H12 LYS d   1     -11.988  30.416  75.276  0.00  0.00     0.075 H 
ATOM     66  H13 LYS d   1     -11.426  29.641  76.796  0.00  0.00     0.075 H 
BRANCH  64  67
ATOM     67  NZ  LYS d   1     -13.280  28.931  76.058  0.00  0.00    -0.079 N 
ATOM     68  H14 LYS d   1     -13.813  29.597  76.594  0.00  0.00     0.274 HD
ATOM     69  H15 LYS d   1     -13.220  28.062  76.566  0.00  0.00     0.274 HD
ATOM     70  H16 LYS d   1     -13.735  28.772  75.172  0.00  0.00     0.274 HD
ENDBRANCH  64  67
ENDBRANCH  61  64
ENDBRANCH  58  61
ENDBRANCH  55  58
ENDBRANCH  45  55
ENDBRANCH  42  45
ENDBRANCH  39  41
BRANCH  39  71
ATOM     71  CB  LEU d   1      -4.886  23.912  76.238  0.00  0.00    -0.035 C 
ATOM     72  H19 LEU d   1      -5.782  23.683  76.834  0.00  0.00     0.037 H 
ATOM     73  H20 LEU d   1      -4.278  24.663  76.763  0.00  0.00     0.037 H 
BRANCH  71  74
ATOM     74  CG  LEU d   1      -4.055  22.631  76.171  0.00  0.00    -0.059 C 
ATOM     75  H21 LEU d   1      -4.681  21.827  75.757  0.00  0.00     0.038 H 
BRANCH  74  76
ATOM     76  CD1 LEU d   1      -2.843  22.809  75.273  0.00  0.00    -0.073 C 
ATOM     77  H22 LEU d   1      -2.267  21.872  75.245  0.00  0.00     0.028 H 
ATOM     78  H23 LEU d   1      -2.210  23.618  75.667  0.00  0.00     0.028 H 
ATOM     79  H24 LEU d   1      -3.175  23.066  74.256  0.00  0.00     0.028 H 
ENDBRANCH  74  76
BRANCH  74  80
ATOM     80  CD2 LEU d   1      -3.616  22.238  77.574  0.00  0.00    -0.073 C 
ATOM     81  H25 LEU d   1      -4.502  22.112  78.214  0.00  0.00     0.028 H 
ATOM     82  H26 LEU d   1      -2.972  23.026  77.991  0.00  0.00     0.028 H 
ATOM     83  H27 LEU d   1      -3.057  21.291  77.532  0.00  0.00     0.028 H 
ENDBRANCH  74  80
ENDBRANCH  71  74
ENDBRANCH  39  71
ENDBRANCH  36  39
ENDBRANCH  33  35
BRANCH  33  84
ATOM     84  CB  ARG d   1      -7.546  23.374  71.009  0.00  0.00    -0.036 C 
ATOM     85  H30 ARG d   1      -7.993  22.712  70.253  0.00  0.00     0.036 H 
ATOM     86  H31 ARG d   1      -6.728  23.951  70.553  0.00  0.00     0.036 H 
BRANCH  84  87
ATOM     87  CG  ARG d   1      -8.611  24.348  71.479  0.00  0.00    -0.048 C 
ATOM     88  H32 ARG d   1      -8.154  25.058  72.183  0.00  0.00     0.035 H 
ATOM     89  H33 ARG d   1      -9.405  23.784  71.991  0.00  0.00     0.035 H 
BRANCH  87  90
ATOM     90  CD  ARG d   1      -9.231  25.130  70.330  0.00  0.00     0.009 C 
ATOM     91  H34 ARG d   1      -9.831  24.447  69.711  0.00  0.00     0.064 H 
ATOM     92  H35 ARG d   1      -8.429  25.570  69.719  0.00  0.00     0.064 H 
BRANCH  90  93
ATOM     93  NE  ARG d   1     -10.093  26.202  70.835  0.00  0.00    -0.227 N 
ATOM     94  CZ  ARG d   1     -11.372  26.064  71.183  0.00  0.00     0.665 C 
ATOM     95  NH1 ARG d   1     -11.994  24.896  71.074  0.00  0.00    -0.235 N 
ATOM     96  NH2 ARG d   1     -12.039  27.114  71.648  0.00  0.00    -0.235 N 
ATOM     97  H37 ARG d   1     -12.983  24.812  71.349  0.00  0.00     0.174 HD
ATOM     98  H38 ARG d   1     -11.487  24.074  70.715  0.00  0.00     0.174 HD
ATOM     99  H39 ARG d   1     -11.568  28.025  71.737  0.00  0.00     0.174 HD
ATOM    100  H40 ARG d   1     -13.028  27.017  71.919  0.00  0.00     0.174 HD
ATOM    101  H36 ARG d   1      -9.676  27.139  70.929  0.00  0.00     0.177 HD
ENDBRANCH  90  93
ENDBRANCH  87  90
ENDBRANCH  84  87
ENDBRANCH  33  84
ENDBRANCH  21  33
ENDBRANCH  16  19
ENDBRANCH  13  15
BRANCH  13 102
ATOM    102  CB  VAL d   1      -5.988  18.886  66.506  0.00  0.00    -0.033 C 
ATOM    103  H50 VAL d   1      -5.088  18.256  66.453  0.00  0.00     0.042 H 
BRANCH 102 104
ATOM    104  CG1 VAL d   1      -6.651  18.886  65.134  0.00  0.00    -0.071 C 
ATOM    105  H51 VAL d   1      -5.960  19.313  64.393  0.00  0.00     0.028 H 
ATOM    106  H52 VAL d   1      -7.569  19.491  65.170  0.00  0.00     0.028 H 
ATOM    107  H53 VAL d   1      -6.903  17.854  64.849  0.00  0.00     0.028 H 
ENDBRANCH 102 104
BRANCH 102 108
ATOM    108  CG2 VAL d   1      -5.566  20.292  66.909  0.00  0.00    -0.071 C 
ATOM    109  H54 VAL d   1      -5.091  20.262  67.901  0.00  0.00     0.028 H 
ATOM    110  H55 VAL d   1      -6.451  20.944  66.945  0.00  0.00     0.028 H 
ATOM    111  H56 VAL d   1      -4.851  20.686  66.172  0.00  0.00     0.028 H 
ENDBRANCH 102 108
ENDBRANCH  13 102
ENDBRANCH  10  13
ENDBRANCH   7   9
BRANCH   7 112
ATOM    112  CB  ALA d   1     -10.081  14.729  67.166  0.00  0.00    -0.049 C 
ATOM    113  H59 ALA d   1     -10.358  13.722  66.821  0.00  0.00     0.030 H 
ATOM    114  H60 ALA d   1     -10.915  15.422  66.982  0.00  0.00     0.030 H 
ATOM    115  H61 ALA d   1      -9.859  14.700  68.243  0.00  0.00     0.030 H 
ENDBRANCH   7 112
ENDBRANCH   4   7
ENDBRANCH   1   3
BRANCH   1 116
ATOM    116  C   MET d   1      -9.707  13.162  62.585  0.00  0.00     0.241 C 
ATOM    117  O   MET d   1      -9.534  11.997  62.941  0.00  0.00    -0.271 OA
ATOM    118  N   VAL d   1     -10.851  13.601  62.069  0.00  0.00    -0.346 N 
ATOM    119  H71 VAL d   1     -10.921  14.559  61.790  0.00  0.00     0.163 HD
BRANCH 118 120
ATOM    120  CA  VAL d   1     -12.004  12.732  61.898  0.00  0.00     0.092 C 
ATOM    121  H72 VAL d   1     -11.818  11.795  62.443  0.00  0.00     0.088 H 
BRANCH 120 122
ATOM    122  C   VAL d   1     -12.215  12.416  60.425  0.00  0.00     0.241 C 
ATOM    123  O   VAL d   1     -12.294  13.321  59.589  0.00  0.00    -0.271 OA
ATOM    124  N   ARG d   1     -12.307  11.126  60.122  0.00  0.00    -0.346 N 
ATOM    125  H80 ARG d   1     -12.217  10.453  60.856  0.00  0.00     0.163 HD
BRANCH 124 126
ATOM    126  CA  ARG d   1     -12.533  10.653  58.765  0.00  0.00     0.089 C 
ATOM    127  H81 ARG d   1     -12.052  11.346  58.059  0.00  0.00     0.087 H 
BRANCH 126 128
ATOM    128  C   ARG d   1     -14.026  10.605  58.480  0.00  0.00     0.243 C 
ATOM    129  O   ARG d   1     -14.812  10.287  59.364  0.00  0.00    -0.271 OA
ATOM    130  N   PRO d   1     -14.424  10.916  57.239  0.00  0.00    -0.337 N 
ATOM    131  CA  PRO d   1     -15.844  10.928  56.897  0.00  0.00     0.091 C 
ATOM    132  CD  PRO d   1     -13.574  11.302  56.097  0.00  0.00    -0.001 C 
ATOM    133  CB  PRO d   1     -15.868  11.570  55.504  0.00  0.00    -0.036 C 
ATOM    134  H93 PRO d   1     -16.400  11.543  57.620  0.00  0.00     0.087 H 
ATOM    135  CG  PRO d   1     -14.523  11.299  54.936  0.00  0.00    -0.048 C 
ATOM    136  H94 PRO d   1     -16.045  12.653  55.580  0.00  0.00     0.036 H 
ATOM    137  H95 PRO d   1     -16.651  11.113  54.881  0.00  0.00     0.036 H 
ATOM    138  H96 PRO d   1     -14.248  12.083  54.216  0.00  0.00     0.035 H 
ATOM    139  H97 PRO d   1     -14.510  10.320  54.435  0.00  0.00     0.035 H 
ATOM    140  H98 PRO d   1     -12.765  10.572  55.945  0.00  0.00     0.064 H 
ATOM    141  H99 PRO d   1     -13.142  12.302  56.249  0.00  0.00     0.064 H 
BRANCH 131 142
ATOM    142  C   PRO d   1     -16.476   9.537  56.848  0.00  0.00     0.241 C 
ATOM    143  O   PRO d   1     -15.776   8.543  56.705  0.00  0.00    -0.271 OA
ATOM    144  N   PRK d   1     -17.801   9.509  56.958  0.00  0.00    -0.346 N 
ATOM    145 0H10 PRK d   1     -18.277  10.379  57.087  0.00  0.00     0.163 HD
BRANCH 144 146
ATOM    146  CA  PRK d   1     -18.606   8.294  56.903  0.00  0.00     0.089 C 
ATOM    147 1H10 PRK d   1     -17.990   7.421  56.643  0.00  0.00     0.087 H 
BRANCH 146 148
ATOM    148  C   PRK d   1     -19.679   8.527  55.874  0.00  0.00     0.241 C 
ATOM    149  O   PRK d   1     -20.367   9.547  55.917  0.00  0.00    -0.271 OA
ATOM    150  N   VAL d   1     -19.839   7.596  54.938  0.00  0.00    -0.346 N 
ATOM    151 6H11 VAL d   1     -19.214   6.816  54.917  0.00  0.00     0.163 HD
BRANCH 150 152
ATOM    152  CA  VAL d   1     -20.906   7.682  53.937  0.00  0.00     0.092 C 
ATOM    153 7H11 VAL d   1     -21.240   8.728  53.868  0.00  0.00     0.088 H 
BRANCH 152 154
ATOM    154  C   VAL d   1     -22.083   6.807  54.358  0.00  0.00     0.241 C 
ATOM    155  O   VAL d   1     -21.887   5.674  54.798  0.00  0.00    -0.271 OA
ATOM    156  N   ARG d   1     -23.298   7.336  54.228  0.00  0.00    -0.345 N 
ATOM    157 5H12 ARG d   1     -23.385   8.289  53.939  0.00  0.00     0.163 HD
BRANCH 156 158
ATOM    158  CA  ARG d   1     -24.512   6.560  54.497  0.00  0.00     0.096 C 
ATOM    159 6H12 ARG d   1     -24.319   5.891  55.349  0.00  0.00     0.089 H 
BRANCH 158 160
ATOM    160  C   ARG d   1     -24.871   5.715  53.279  0.00  0.00     0.196 C 
ATOM    161  O   ARG d   1     -25.914   5.008  53.266  0.00  0.00    -0.646 OA
ATOM    162  O   ARG d   1     -24.114   5.724  52.272  0.00  0.00    -0.646 OA
ENDBRANCH 158 160
BRANCH 158 163
ATOM    163  CB  ARG d   1     -25.682   7.479  54.853  0.00  0.00    -0.035 C 
ATOM    164 7H12 ARG d   1     -26.585   6.861  54.962  0.00  0.00     0.036 H 
ATOM    165 8H12 ARG d   1     -25.823   8.193  54.028  0.00  0.00     0.036 H 
BRANCH 163 166
ATOM    166  CG  ARG d   1     -25.486   8.266  56.135  0.00  0.00    -0.047 C 
ATOM    167 9H12 ARG d   1     -24.724   9.042  55.969  0.00  0.00     0.035 H 
ATOM    168 0H13 ARG d   1     -25.147   7.584  56.929  0.00  0.00     0.035 H 
BRANCH 166 169
ATOM    169  CD  ARG d   1     -26.783   8.926  56.566  0.00  0.00     0.009 C 
ATOM    170 1H13 ARG d   1     -27.461   8.154  56.960  0.00  0.00     0.064 H 
ATOM    171 2H13 ARG d   1     -27.244   9.408  55.692  0.00  0.00     0.064 H 
BRANCH 169 172
ATOM    172  NE  ARG d   1     -26.564   9.933  57.599  0.00  0.00    -0.227 N 
ATOM    173  CZ  ARG d   1     -27.520  10.685  58.140  0.00  0.00     0.665 C 
ATOM    174  NH1 ARG d   1     -28.785  10.554  57.760  0.00  0.00    -0.235 N 
ATOM    175  NH2 ARG d   1     -27.206  11.576  59.072  0.00  0.00    -0.235 N 
ATOM    176 4H13 ARG d   1     -29.515  11.142  58.187  0.00  0.00     0.174 HD
ATOM    177 5H13 ARG d   1     -29.037   9.864  57.038  0.00  0.00     0.174 HD
ATOM    178 6H13 ARG d   1     -26.227  11.684  59.372  0.00  0.00     0.174 HD
ATOM    179 7H13 ARG d   1     -27.942  12.160  59.495  0.00  0.00     0.174 HD
ATOM    180 3H13 ARG d   1     -25.600  10.072  57.934  0.00  0.00     0.177 HD
ENDBRANCH 169 172
ENDBRANCH 166 169
ENDBRANCH 163 166
ENDBRANCH 158 163
ENDBRANCH 156 158
ENDBRANCH 152 154
BRANCH 152 181
ATOM    181  CB  VAL d   1     -20.415   7.225  52.551  0.00  0.00    -0.033 C 
ATOM    182 8H11 VAL d   1     -20.100   6.174  52.624  0.00  0.00     0.042 H 
BRANCH 181 183
ATOM    183  CG1 VAL d   1     -21.538   7.317  51.525  0.00  0.00    -0.071 C 
ATOM    184 9H11 VAL d   1     -21.166   6.987  50.544  0.00  0.00     0.028 H 
ATOM    185 0H12 VAL d   1     -21.885   8.358  51.454  0.00  0.00     0.028 H 
ATOM    186 1H12 VAL d   1     -22.373   6.673  51.837  0.00  0.00     0.028 H 
ENDBRANCH 181 183
BRANCH 181 187
ATOM    187  CG2 VAL d   1     -19.216   8.054  52.114  0.00  0.00    -0.071 C 
ATOM    188 2H12 VAL d   1     -18.419   7.973  52.868  0.00  0.00     0.028 H 
ATOM    189 3H12 VAL d   1     -19.517   9.107  52.010  0.00  0.00     0.028 H 
ATOM    190 4H12 VAL d   1     -18.845   7.681  51.148  0.00  0.00     0.028 H 
ENDBRANCH 181 187
ENDBRANCH 152 181
ENDBRANCH 150 152
ENDBRANCH 146 148
BRANCH 146 191
ATOM    191  CB  PRK d   1     -19.277   8.101  58.264  0.00  0.00    -0.038 C 
ATOM    192 2H10 PRK d   1     -20.358   7.980  58.098  0.00  0.00     0.036 H 
ATOM    193 3H10 PRK d   1     -19.097   9.005  58.864  0.00  0.00     0.036 H 
BRANCH 191 194
ATOM    194  CG  PRK d   1     -18.783   6.897  59.062  0.00  0.00    -0.061 C 
ATOM    195 8H10 PRK d   1     -17.760   6.660  58.735  0.00  0.00     0.033 H 
ATOM    196 9H10 PRK d   1     -19.443   6.044  58.847  0.00  0.00     0.033 H 
BRANCH 194 197
ATOM    197  CD  PRK d   1     -18.765   7.124  60.582  0.00  0.00    -0.050 C 
ATOM    198 4H10 PRK d   1     -18.686   6.140  61.067  0.00  0.00     0.035 H 
ATOM    199 5H10 PRK d   1     -17.874   7.723  60.821  0.00  0.00     0.035 H 
BRANCH 197 200
ATOM    200  CE  PRK d   1     -19.986   7.842  61.175  0.00  0.00    -0.005 C 
ATOM    201 6H10 PRK d   1     -20.661   8.109  60.348  0.00  0.00     0.064 H 
ATOM    202 7H10 PRK d   1     -19.636   8.758  61.673  0.00  0.00     0.064 H 
BRANCH 200 203
ATOM    203  NZ  PRK d   1     -20.744   7.061  62.144  0.00  0.00    -0.361 N 
ATOM    204  CAL PRK d   1     -20.295   6.729  63.360  0.00  0.00     0.217 C 
ATOM    205  OAD PRK d   1     -19.190   7.043  63.771  0.00  0.00    -0.274 OA
ATOM    206 0H11 PRK d   1     -21.659   6.753  61.883  0.00  0.00     0.162 HD
BRANCH 204 207
ATOM    207  CAF PRK d   1     -21.215   5.917  64.250  0.00  0.00     0.006 C 
ATOM    208 4H11 PRK d   1     -22.129   5.663  63.693  0.00  0.00     0.046 H 
ATOM    209 5H11 PRK d   1     -20.703   4.992  64.555  0.00  0.00     0.046 H 
BRANCH 207 210
ATOM    210  CAA PRK d   1     -21.586   6.715  65.485  0.00  0.00    -0.068 C 
ATOM    211 1H11 PRK d   1     -22.253   6.116  66.122  0.00  0.00     0.028 H 
ATOM    212 2H11 PRK d   1     -22.100   7.639  65.183  0.00  0.00     0.028 H 
ATOM    213 3H11 PRK d   1     -20.674   6.969  66.045  0.00  0.00     0.028 H 
ENDBRANCH 207 210
ENDBRANCH 204 207
ENDBRANCH 200 203
ENDBRANCH 197 200
ENDBRANCH 194 197
ENDBRANCH 191 194
ENDBRANCH 146 191
ENDBRANCH 144 146
ENDBRANCH 131 142
ENDBRANCH 126 128
BRANCH 126 214
ATOM    214  CB  ARG d   1     -11.932   9.255  58.582  0.00  0.00    -0.036 C 
ATOM    215  H82 ARG d   1     -12.123   8.934  57.547  0.00  0.00     0.036 H 
ATOM    216  H83 ARG d   1     -12.440   8.571  59.278  0.00  0.00     0.036 H 
BRANCH 214 217
ATOM    217  CG  ARG d   1     -10.431   9.164  58.838  0.00  0.00    -0.048 C 
ATOM    218  H84 ARG d   1     -10.131   8.107  58.793  0.00  0.00     0.035 H 
ATOM    219  H85 ARG d   1     -10.222   9.562  59.842  0.00  0.00     0.035 H 
BRANCH 217 220
ATOM    220  CD  ARG d   1      -9.604   9.947  57.824  0.00  0.00     0.009 C 
ATOM    221  H86 ARG d   1      -8.541   9.854  58.090  0.00  0.00     0.064 H 
ATOM    222  H87 ARG d   1      -9.902  11.005  57.868  0.00  0.00     0.064 H 
BRANCH 220 223
ATOM    223  NE  ARG d   1      -9.789   9.465  56.455  0.00  0.00    -0.227 N 
ATOM    224  CZ  ARG d   1      -9.097   9.888  55.399  0.00  0.00     0.665 C 
ATOM    225  NH1 ARG d   1      -8.151  10.815  55.530  0.00  0.00    -0.235 N 
ATOM    226  NH2 ARG d   1      -9.351   9.376  54.199  0.00  0.00    -0.235 N 
ATOM    227  H89 ARG d   1      -7.623  11.133  54.704  0.00  0.00     0.174 HD
ATOM    228  H90 ARG d   1      -7.946  11.215  56.457  0.00  0.00     0.174 HD
ATOM    229  H91 ARG d   1     -10.082   8.658  54.090  0.00  0.00     0.174 HD
ATOM    230  H92 ARG d   1      -8.817   9.697  53.379  0.00  0.00     0.174 HD
ATOM    231  H88 ARG d   1     -10.508   8.745  56.296  0.00  0.00     0.177 HD
ENDBRANCH 220 223
ENDBRANCH 217 220
ENDBRANCH 214 217
ENDBRANCH 126 214
ENDBRANCH 124 126
ENDBRANCH 120 122
BRANCH 120 232
ATOM    232  CB  VAL d   1     -13.284  13.380  62.450  0.00  0.00    -0.033 C 
ATOM    233  H73 VAL d   1     -13.527  14.257  61.832  0.00  0.00     0.042 H 
BRANCH 232 234
ATOM    234  CG1 VAL d   1     -14.442  12.398  62.369  0.00  0.00    -0.071 C 
ATOM    235  H74 VAL d   1     -15.352  12.871  62.766  0.00  0.00     0.028 H 
ATOM    236  H75 VAL d   1     -14.206  11.502  62.962  0.00  0.00     0.028 H 
ATOM    237  H76 VAL d   1     -14.606  12.110  61.320  0.00  0.00     0.028 H 
ENDBRANCH 232 234
BRANCH 232 238
ATOM    238  CG2 VAL d   1     -13.065  13.847  63.883  0.00  0.00    -0.071 C 
ATOM    239  H77 VAL d   1     -12.224  14.555  63.913  0.00  0.00     0.028 H 
ATOM    240  H78 VAL d   1     -12.838  12.980  64.521  0.00  0.00     0.028 H 
ATOM    241  H79 VAL d   1     -13.975  14.344  64.250  0.00  0.00     0.028 H 
ENDBRANCH 232 238
ENDBRANCH 120 232
ENDBRANCH 118 120
ENDBRANCH   1 116
BRANCH   1 242
ATOM    242  CB  MET d   1      -7.308  13.735  62.095  0.00  0.00    -0.030 C 
ATOM    243  H64 MET d   1      -7.207  12.653  62.264  0.00  0.00     0.037 H 
ATOM    244  H65 MET d   1      -6.469  14.261  62.575  0.00  0.00     0.037 H 
BRANCH 242 245
ATOM    245  CG  MET d   1      -7.232  13.988  60.602  0.00  0.00    -0.021 C 
ATOM    246  H66 MET d   1      -7.668  14.974  60.385  0.00  0.00     0.049 H 
ATOM    247  H67 MET d   1      -7.807  13.210  60.079  0.00  0.00     0.049 H 
BRANCH 245 248
ATOM    248  SD  MET d   1      -5.530  13.958  60.003  0.00  0.00    -0.173 SA
BRANCH 248 249
ATOM    249  CE  MET d   1      -4.861  15.416  60.804  0.00  0.00    -0.035 C 
ATOM    250  H68 MET d   1      -3.803  15.533  60.527  0.00  0.00     0.041 H 
ATOM    251  H69 MET d   1      -4.945  15.306  61.895  0.00  0.00     0.041 H 
ATOM    252  H70 MET d   1      -5.425  16.303  60.481  0.00  0.00     0.041 H 
ENDBRANCH 248 249
ENDBRANCH 245 248
ENDBRANCH 242 245
ENDBRANCH   1 242
TORSDOF 67
