REMARK  15 active torsions:
REMARK  status: ('A' for Active; 'I' for Inactive)
REMARK    1  A    between atoms: C2_2  and  C1_1 
REMARK    2  A    between atoms: N3_3  and  C2_2 
REMARK    3  A    between atoms: N6_6  and  C7_7 
REMARK    4  A    between atoms: C33_33  and  C12_12 
REMARK    5  A    between atoms: C21_21  and  C20_20 
REMARK    6  A    between atoms: O22_22  and  C21_21 
REMARK    7  A    between atoms: P23_23  and  O22_22 
REMARK    8  A    between atoms: C24_24  and  P23_23 
REMARK    9  A    between atoms: P23_23  and  O34_34 
REMARK   10  A    between atoms: O25_25  and  C24_24 
REMARK   11  A    between atoms: C26_26  and  O25_25 
REMARK   12  A    between atoms: C32_32  and  C29_29 
REMARK   13  A    between atoms: C32_32  and  C33_33 
REMARK   14  A    between atoms: O34_34  and  C35_35 
REMARK   15  A    between atoms: C35_35  and  C36_36 
ROOT
ATOM      1  C32 NVE d   1       5.296  11.335  14.873  0.00  0.00    -0.037 C 
ATOM      2  H25 NVE d   1       5.233  11.669  15.919  0.00  0.00     0.040 H 
ATOM      3  H26 NVE d   1       4.290  11.330  14.428  0.00  0.00     0.040 H 
ENDROOT
BRANCH   1   4
ATOM      4  C29 NVE d   1       5.823   9.884  14.869  0.00  0.00    -0.058 A 
ATOM      5  C28 NVE d   1       6.320   9.242  13.636  0.00  0.00    -0.074 A 
ATOM      6  C27 NVE d   1       6.798   7.906  13.672  0.00  0.00    -0.050 A 
ATOM      7  H22 NVE d   1       6.320   9.792  12.702  0.00  0.00     0.084 H 
ATOM      8  C26 NVE d   1       6.807   7.160  14.908  0.00  0.00     0.069 A 
ATOM      9  H21 NVE d   1       7.160   7.441  12.762  0.00  0.00     0.087 H 
ATOM     10  C31 NVE d   1       6.312   7.786  16.165  0.00  0.00    -0.050 A 
ATOM     11  C30 NVE d   1       5.824   9.147  16.128  0.00  0.00    -0.074 A 
ATOM     12  H24 NVE d   1       6.317   7.229  17.095  0.00  0.00     0.087 H 
ATOM     13  H23 NVE d   1       5.460   9.618  17.034  0.00  0.00     0.084 H 
BRANCH   8  14
ATOM     14  O25 NVE d   1       7.287   5.870  14.815  0.00  0.00    -0.340 OA
BRANCH  14  15
ATOM     15  C24 NVE d   1       6.695   4.904  15.671  0.00  0.00     0.120 C 
ATOM     16  H19 NVE d   1       6.882   5.171  16.722  0.00  0.00     0.093 H 
ATOM     17  H20 NVE d   1       5.611   4.859  15.491  0.00  0.00     0.093 H 
BRANCH  15  18
ATOM     18  P23 NVE d   1       7.443   3.309  15.302  0.00  0.00     0.352 P 
ATOM     19  O37 NVE d   1       7.504   2.585  16.619  0.00  0.00    -0.256 OA
BRANCH  18  20
ATOM     20  O22 NVE d   1       6.413   2.590  14.215  0.00  0.00    -0.313 OA
BRANCH  20  21
ATOM     21  C21 NVE d   1       6.089   3.396  12.998  0.00  0.00     0.025 C 
ATOM     22  H17 NVE d   1       5.051   3.751  13.074  0.00  0.00     0.074 H 
ATOM     23  H18 NVE d   1       6.769   4.260  12.954  0.00  0.00     0.074 H 
BRANCH  21  24
ATOM     24  C20 NVE d   1       6.242   2.569  11.686  0.00  0.00    -0.056 C 
ATOM     25  H14 NVE d   1       5.994   3.203  10.822  0.00  0.00     0.030 H 
ATOM     26  H15 NVE d   1       5.561   1.706  11.715  0.00  0.00     0.030 H 
ATOM     27  H16 NVE d   1       7.279   2.215  11.595  0.00  0.00     0.030 H 
ENDBRANCH  21  24
ENDBRANCH  20  21
ENDBRANCH  18  20
BRANCH  18  28
ATOM     28  O34 NVE d   1       8.932   3.458  14.640  0.00  0.00    -0.313 OA
BRANCH  28  29
ATOM     29  C35 NVE d   1       9.453   2.170  14.055  0.00  0.00     0.025 C 
ATOM     30  H29 NVE d   1      10.177   2.423  13.266  0.00  0.00     0.074 H 
ATOM     31  H30 NVE d   1       8.604   1.628  13.614  0.00  0.00     0.074 H 
BRANCH  29  32
ATOM     32  C36 NVE d   1      10.151   1.227  15.060  0.00  0.00    -0.056 C 
ATOM     33  H31 NVE d   1      10.492   0.322  14.537  0.00  0.00     0.030 H 
ATOM     34  H32 NVE d   1       9.442   0.947  15.853  0.00  0.00     0.030 H 
ATOM     35  H33 NVE d   1      11.015   1.741  15.506  0.00  0.00     0.030 H 
ENDBRANCH  29  32
ENDBRANCH  28  29
ENDBRANCH  18  28
ENDBRANCH  15  18
ENDBRANCH  14  15
ENDBRANCH   8  14
ENDBRANCH   1   4
BRANCH   1  36
ATOM     36  C33 NVE d   1       6.160  12.372  14.091  0.00  0.00    -0.036 C 
ATOM     37  H27 NVE d   1       6.432  11.957  13.109  0.00  0.00     0.040 H 
ATOM     38  H28 NVE d   1       5.584  13.298  13.951  0.00  0.00     0.040 H 
BRANCH  36  39
ATOM     39  C12 NVE d   1       7.493  12.692  14.924  0.00  0.00    -0.039 A 
ATOM     40  C11 NVE d   1       7.687  12.498  16.362  0.00  0.00    -0.056 A 
ATOM     41  C10 NVE d   1       8.923  12.842  16.986  0.00  0.00     0.079 A 
ATOM     42  H9  NVE d   1       6.881  12.088  16.960  0.00  0.00     0.086 H 
ATOM     43  C8  NVE d   1       9.054  12.643  18.435  0.00  0.00     0.262 C 
ATOM     44  C15 NVE d   1       9.969  13.390  16.136  0.00  0.00     0.146 A 
ATOM     45  N6  NVE d   1       9.749  13.495  19.266  0.00  0.00    -0.315 N 
ATOM     46  O9  NVE d   1       8.484  11.638  18.906  0.00  0.00    -0.267 OA
ATOM     47  C5  NVE d   1      10.464  14.686  18.908  0.00  0.00     0.083 A 
ATOM     48  C4  NVE d   1      11.192  14.825  17.652  0.00  0.00     0.158 A 
ATOM     49  C16 NVE d   1      10.477  15.821  19.817  0.00  0.00    -0.052 A 
ATOM     50  N3  NVE d   1      11.248  13.800  16.651  0.00  0.00    -0.314 N 
ATOM     51  N19 NVE d   1      11.866  16.019  17.385  0.00  0.00    -0.241 NA
ATOM     52  C18 NVE d   1      11.880  17.101  18.263  0.00  0.00     0.005 A 
ATOM     53  C17 NVE d   1      11.171  17.020  19.510  0.00  0.00    -0.064 A 
ATOM     54  H13 NVE d   1      12.425  18.002  18.006  0.00  0.00     0.114 H 
ATOM     55  H12 NVE d   1      11.166  17.856  20.201  0.00  0.00     0.085 H 
ATOM     56  H11 NVE d   1       9.941  15.749  20.756  0.00  0.00     0.087 H 
ATOM     57  N14 NVE d   1       9.713  13.544  14.759  0.00  0.00    -0.241 NA
ATOM     58  C13 NVE d   1       8.545  13.221  14.146  0.00  0.00     0.011 A 
ATOM     59  H10 NVE d   1       8.423  13.367  13.079  0.00  0.00     0.115 H 
BRANCH  45  60
ATOM     60  C7  NVE d   1       9.763  13.139  20.737  0.00  0.00    -0.011 C 
ATOM     61  H6  NVE d   1      10.346  13.890  21.291  0.00  0.00     0.057 H 
ATOM     62  H7  NVE d   1      10.222  12.148  20.870  0.00  0.00     0.057 H 
ATOM     63  H8  NVE d   1       8.732  13.120  21.120  0.00  0.00     0.057 H 
ENDBRANCH  45  60
BRANCH  50  64
ATOM     64  C2  NVE d   1      12.571  13.315  16.142  0.00  0.00    -0.000 C 
ATOM     65  H4  NVE d   1      13.040  14.155  15.608  0.00  0.00     0.064 H 
ATOM     66  H5  NVE d   1      13.179  13.053  17.020  0.00  0.00     0.064 H 
BRANCH  64  67
ATOM     67  C1  NVE d   1      12.598  12.099  15.190  0.00  0.00    -0.061 C 
ATOM     68  H1  NVE d   1      13.638  11.874  14.912  0.00  0.00     0.029 H 
ATOM     69  H2  NVE d   1      12.018  12.329  14.284  0.00  0.00     0.029 H 
ATOM     70  H3  NVE d   1      12.157  11.227  15.696  0.00  0.00     0.029 H 
ENDBRANCH  64  67
ENDBRANCH  50  64
ENDBRANCH  36  39
ENDBRANCH   1  36
TORSDOF 15
