REMARK  19 active torsions:
REMARK  status: ('A' for Active; 'I' for Inactive)
REMARK    1  A    between atoms: C_1  and  CH3_3 
REMARK       I    between atoms: N_4  and  C_1 
REMARK    2  A    between atoms: CA_5  and  N_4 
REMARK    3  A    between atoms: C_6  and  CA_5 
REMARK    4  A    between atoms: CA_5  and  CB_8 
REMARK       I    between atoms: N_15  and  C_6 
REMARK    5  A    between atoms: CB_8  and  CG_9 
REMARK    6  A    between atoms: CG_9  and  CD_10 
REMARK    7  A    between atoms: CD_10  and  NE_11 
REMARK       I    between atoms: NE_11  and  CZ_12 
REMARK       I    between atoms: CZ_12  and  NH1_13 
REMARK       I    between atoms: CZ_12  and  NH2_14 
REMARK    8  A    between atoms: CA_16  and  N_15 
REMARK    9  A    between atoms: C_17  and  CA_16 
REMARK   10  A    between atoms: CA_16  and  CB_19 
REMARK       I    between atoms: N_32  and  C_17 
REMARK   11  A    between atoms: CB_19  and  CG_20 
REMARK   12  A    between atoms: CA_31  and  N_32 
REMARK   13  A    between atoms: CA_42  and  CB_45 
REMARK   14  A    between atoms: CB_45  and  CG_46 
REMARK   15  A    between atoms: CA_60  and  CB_63 
REMARK   16  A    between atoms: CA_65  and  CB_68 
REMARK   17  A    between atoms: CB_68  and  CG_69 
REMARK   18  A    between atoms: CG_69  and  CD_70 
REMARK   19  A    between atoms: CD_70  and  NE_71 
REMARK       I    between atoms: NE_71  and  CZ_72 
REMARK       I    between atoms: CZ_72  and  NH1_73 
ROOT
ATOM      1  N   ARG d   1     -41.589  17.750  24.067  0.00  0.00    -0.346 N 
ATOM      2  CA  ARG d   1     -40.253  17.153  24.056  0.00  0.00     0.089 C 
ATOM      3  C   ARG d   1     -39.810  16.888  25.495  0.00  0.00     0.243 C 
ATOM      4  O   ARG d   1     -40.263  17.568  26.414  0.00  0.00    -0.271 OA
ATOM      5  H65 ARG d   1     -41.697  18.699  23.772  0.00  0.00     0.163 HD
ATOM      6  H66 ARG d   1     -40.285  16.201  23.506  0.00  0.00     0.087 H 
ATOM      7  O   1E3 d   1     -40.707  23.210  21.924  0.00  0.00    -0.271 OA
ATOM      8  C   1E3 d   1     -39.569  22.829  21.652  0.00  0.00     0.241 C 
ATOM      9  CA  1E3 d   1     -38.412  23.043  22.630  0.00  0.00     0.089 C 
ATOM     10  CB  1E3 d   1     -38.603  22.145  23.853  0.00  0.00    -0.038 C 
ATOM     11  CAJ 1E3 d   1     -37.822  22.719  25.036  0.00  0.00    -0.063 C 
ATOM     12  CAI 1E3 d   1     -38.212  21.976  26.315  0.00  0.00    -0.065 C 
ATOM     13  CAH 1E3 d   1     -36.992  21.237  26.869  0.00  0.00    -0.065 C 
ATOM     14  CAG 1E3 d   1     -37.411  20.389  28.072  0.00  0.00    -0.064 C 
ATOM     15  CAF 1E3 d   1     -37.586  18.934  27.635  0.00  0.00    -0.050 C 
ATOM     16  CAE 1E3 d   1     -37.319  18.008  28.823  0.00  0.00    -0.005 C 
ATOM     17  NAA 1E3 d   1     -36.935  16.664  28.368  0.00  0.00    -0.359 N 
ATOM     18  H27 1E3 d   1     -37.467  22.773  22.136  0.00  0.00     0.087 H 
ATOM     19  H29 1E3 d   1     -38.234  21.134  23.626  0.00  0.00     0.036 H 
ATOM     20  H30 1E3 d   1     -39.672  22.096  24.109  0.00  0.00     0.036 H 
ATOM     21  H31 1E3 d   1     -38.058  23.788  25.147  0.00  0.00     0.033 H 
ATOM     22  H32 1E3 d   1     -36.743  22.598  24.856  0.00  0.00     0.033 H 
ATOM     23  H33 1E3 d   1     -39.008  21.251  26.090  0.00  0.00     0.033 H 
ATOM     24  H34 1E3 d   1     -38.574  22.698  27.062  0.00  0.00     0.033 H 
ATOM     25  H35 1E3 d   1     -36.232  21.968  27.183  0.00  0.00     0.033 H 
ATOM     26  H36 1E3 d   1     -36.573  20.584  26.089  0.00  0.00     0.033 H 
ATOM     27  H37 1E3 d   1     -38.362  20.768  28.474  0.00  0.00     0.033 H 
ATOM     28  H38 1E3 d   1     -36.635  20.447  28.850  0.00  0.00     0.033 H 
ATOM     29  H39 1E3 d   1     -36.876  18.706  26.826  0.00  0.00     0.035 H 
ATOM     30  H40 1E3 d   1     -38.614  18.781  27.275  0.00  0.00     0.035 H 
ATOM     31  H41 1E3 d   1     -38.231  17.934  29.433  0.00  0.00     0.064 H 
ATOM     32  H42 1E3 d   1     -36.504  18.428  29.431  0.00  0.00     0.064 H 
ATOM     33  H43 1E3 d   1     -36.444  16.030  28.966  0.00  0.00     0.162 HD
ATOM     34  N   PHE d   1     -39.443  21.835  20.883  0.00  0.00    -0.346 N 
ATOM     35  CA  PHE d   1     -40.610  21.236  20.243  0.00  0.00     0.093 C 
ATOM     36  C   PHE d   1     -41.587  20.788  21.325  0.00  0.00     0.243 C 
ATOM     37  O   PHE d   1     -41.180  20.207  22.328  0.00  0.00    -0.271 OA
ATOM     38  H44 PHE d   1     -38.534  21.454  20.711  0.00  0.00     0.163 HD
ATOM     39  H45 PHE d   1     -41.098  21.998  19.618  0.00  0.00     0.088 H 
ATOM     40  N   PRO d   1     -42.882  21.078  21.132  0.00  0.00    -0.337 N 
ATOM     41  CA  PRO d   1     -43.913  20.806  22.141  0.00  0.00     0.091 C 
ATOM     42  C   PRO d   1     -43.921  19.351  22.608  0.00  0.00     0.241 C 
ATOM     43  O   PRO d   1     -43.930  18.425  21.790  0.00  0.00    -0.271 OA
ATOM     44  CB  PRO d   1     -45.218  21.140  21.409  0.00  0.00    -0.036 C 
ATOM     45  CG  PRO d   1     -44.820  22.102  20.351  0.00  0.00    -0.048 C 
ATOM     46  CD  PRO d   1     -43.449  21.674  19.912  0.00  0.00    -0.001 C 
ATOM     47  N   PRO d   1     -38.811  15.912  25.175  0.00  0.00    -0.337 N 
ATOM     48  CA  PRO d   1     -38.448  15.501  26.535  0.00  0.00     0.091 C 
ATOM     49  C   PRO d   1     -37.282  16.317  27.082  0.00  0.00     0.240 C 
ATOM     50  O   PRO d   1     -36.396  16.684  26.310  0.00  0.00    -0.271 OA
ATOM     51  CB  PRO d   1     -38.029  14.041  26.353  0.00  0.00    -0.036 C 
ATOM     52  CG  PRO d   1     -37.544  13.967  24.950  0.00  0.00    -0.048 C 
ATOM     53  CD  PRO d   1     -38.403  14.919  24.167  0.00  0.00    -0.001 C 
ATOM     54  H53 PRO d   1     -43.775  21.460  23.014  0.00  0.00     0.087 H 
ATOM     55  H54 PRO d   1     -45.943  21.599  22.098  0.00  0.00     0.036 H 
ATOM     56  H55 PRO d   1     -45.657  20.234  20.965  0.00  0.00     0.036 H 
ATOM     57  H56 PRO d   1     -44.792  23.125  20.753  0.00  0.00     0.035 H 
ATOM     58  H57 PRO d   1     -45.525  22.058  19.507  0.00  0.00     0.035 H 
ATOM     59  H58 PRO d   1     -43.507  20.934  19.100  0.00  0.00     0.064 H 
ATOM     60  H59 PRO d   1     -42.853  22.537  19.580  0.00  0.00     0.064 H 
ATOM     61  H78 PRO d   1     -39.309  15.588  27.215  0.00  0.00     0.087 H 
ATOM     62  H79 PRO d   1     -38.886  13.368  26.504  0.00  0.00     0.036 H 
ATOM     63  H80 PRO d   1     -37.226  13.776  27.057  0.00  0.00     0.036 H 
ATOM     64  H81 PRO d   1     -37.654  12.944  24.561  0.00  0.00     0.035 H 
ATOM     65  H82 PRO d   1     -36.488  14.270  24.894  0.00  0.00     0.035 H 
ATOM     66  H83 PRO d   1     -37.829  15.393  23.357  0.00  0.00     0.064 H 
ATOM     67  H84 PRO d   1     -39.278  14.404  23.744  0.00  0.00     0.064 H 
ATOM     68  N   ALA d   1     -43.907  19.171  23.925  0.00  0.00    -0.346 N 
ATOM     69  CA  ALA d   1     -43.980  17.849  24.537  0.00  0.00     0.086 C 
ATOM     70  C   ALA d   1     -42.664  17.071  24.457  0.00  0.00     0.240 C 
ATOM     71  O   ALA d   1     -42.631  15.878  24.741  0.00  0.00    -0.271 OA
ATOM     72  H60 ALA d   1     -43.844  19.973  24.519  0.00  0.00     0.163 HD
ATOM     73  H61 ALA d   1     -44.203  17.998  25.604  0.00  0.00     0.086 H 
ENDROOT
BRANCH   9  74
ATOM     74  N   1E3 d   1     -38.355  24.459  23.019  0.00  0.00    -0.346 N 
ATOM     75  C   TRP d   1     -37.950  25.697  22.690  0.00  0.00     0.241 C 
ATOM     76  O   TRP d   1     -36.794  25.632  22.256  0.00  0.00    -0.271 OA
ATOM     77  H28 1E3 d   1     -38.812  24.532  23.905  0.00  0.00     0.163 HD
BRANCH  75  78
ATOM     78  CA  TRP d   1     -38.606  27.039  22.991  0.00  0.00     0.093 C 
ATOM     79  H18 TRP d   1     -39.564  26.852  23.498  0.00  0.00     0.088 H 
BRANCH  78  80
ATOM     80  N   TRP d   1     -37.764  27.819  23.888  0.00  0.00    -0.346 N 
ATOM     81  C   ARG d   1     -38.259  28.753  24.691  0.00  0.00     0.241 C 
ATOM     82  O   ARG d   1     -39.431  29.114  24.649  0.00  0.00    -0.271 OA
ATOM     83  H17 TRP d   1     -36.779  27.645  23.899  0.00  0.00     0.163 HD
BRANCH  81  84
ATOM     84  CA  ARG d   1     -37.279  29.368  25.684  0.00  0.00     0.089 C 
ATOM     85  H5  ARG d   1     -37.805  30.112  26.300  0.00  0.00     0.087 H 
BRANCH  84  86
ATOM     86  N   ARG d   1     -36.758  28.312  26.549  0.00  0.00    -0.348 N 
ATOM     87  C   ACE d   1     -37.368  27.605  27.406  0.00  0.00     0.214 C 
ATOM     88  O   ACE d   1     -38.591  27.516  27.309  0.00  0.00    -0.274 OA
ATOM     89  H4  ARG d   1     -35.782  28.120  26.451  0.00  0.00     0.163 HD
BRANCH  87  90
ATOM     90  CH3 ACE d   1     -36.691  27.711  28.774  0.00  0.00    -0.003 C 
ATOM     91  H1  ACE d   1     -35.602  27.781  28.640  0.00  0.00     0.040 H 
ATOM     92  H2  ACE d   1     -36.930  26.819  29.372  0.00  0.00     0.040 H 
ATOM     93  H3  ACE d   1     -37.054  28.609  29.294  0.00  0.00     0.040 H 
ENDBRANCH  87  90
ENDBRANCH  84  86
BRANCH  84  94
ATOM     94  CB  ARG d   1     -36.141  30.063  24.931  0.00  0.00    -0.036 C 
ATOM     95  H6  ARG d   1     -36.531  31.002  24.511  0.00  0.00     0.036 H 
ATOM     96  H7  ARG d   1     -35.817  29.402  24.113  0.00  0.00     0.036 H 
BRANCH  94  97
ATOM     97  CG  ARG d   1     -34.920  30.395  25.786  0.00  0.00    -0.048 C 
ATOM     98  H8  ARG d   1     -34.481  29.459  26.161  0.00  0.00     0.035 H 
ATOM     99  H9  ARG d   1     -35.237  31.018  26.636  0.00  0.00     0.035 H 
BRANCH  97 100
ATOM    100  CD  ARG d   1     -33.866  31.150  24.985  0.00  0.00     0.009 C 
ATOM    101  H10 ARG d   1     -33.914  30.821  23.936  0.00  0.00     0.064 H 
ATOM    102  H11 ARG d   1     -32.873  30.917  25.397  0.00  0.00     0.064 H 
BRANCH 100 103
ATOM    103  NE  ARG d   1     -34.070  32.595  25.035  0.00  0.00    -0.227 N 
ATOM    104  CZ  ARG d   1     -35.026  33.241  24.376  0.00  0.00     0.665 C 
ATOM    105  NH1 ARG d   1     -35.883  32.577  23.610  0.00  0.00    -0.235 N 
ATOM    106  NH2 ARG d   1     -35.131  34.558  24.485  0.00  0.00    -0.235 N 
ATOM    107  H13 ARG d   1     -36.621  33.086  23.103  0.00  0.00     0.174 HD
ATOM    108  H14 ARG d   1     -35.810  31.553  23.523  0.00  0.00     0.174 HD
ATOM    109  H15 ARG d   1     -34.470  35.080  25.078  0.00  0.00     0.174 HD
ATOM    110  H16 ARG d   1     -35.874  35.059  23.977  0.00  0.00     0.174 HD
ATOM    111  H12 ARG d   1     -33.430  33.151  25.620  0.00  0.00     0.177 HD
ENDBRANCH 100 103
ENDBRANCH  97 100
ENDBRANCH  94  97
ENDBRANCH  84  94
ENDBRANCH  81  84
ENDBRANCH  78  80
BRANCH  78 112
ATOM    112  CB  TRP d   1     -38.898  27.792  21.684  0.00  0.00    -0.012 C 
ATOM    113  H19 TRP d   1     -38.132  28.570  21.549  0.00  0.00     0.044 H 
ATOM    114  H20 TRP d   1     -39.889  28.263  21.764  0.00  0.00     0.044 H 
BRANCH 112 115
ATOM    115  CG  TRP d   1     -38.890  26.892  20.472  0.00  0.00    -0.028 A 
ATOM    116  CD1 TRP d   1     -37.807  26.574  19.699  0.00  0.00    -0.015 A 
ATOM    117  NE1 TRP d   1     -38.176  25.714  18.691  0.00  0.00    -0.365 N 
ATOM    118  H21 TRP d   1     -36.797  26.948  19.859  0.00  0.00     0.112 H 
ATOM    119  CE2 TRP d   1     -39.520  25.458  18.796  0.00  0.00     0.042 A 
ATOM    120  H22 TRP d   1     -37.546  25.326  17.974  0.00  0.00     0.165 HD
ATOM    121  CD2 TRP d   1     -40.001  26.187  19.908  0.00  0.00    -0.002 A 
ATOM    122  CZ2 TRP d   1     -40.339  24.655  18.010  0.00  0.00    -0.056 A 
ATOM    123  CE3 TRP d   1     -41.359  26.091  20.234  0.00  0.00    -0.070 A 
ATOM    124  CZ3 TRP d   1     -42.176  25.290  19.450  0.00  0.00    -0.082 A 
ATOM    125  H23 TRP d   1     -41.764  26.632  21.082  0.00  0.00     0.084 H 
ATOM    126  CH2 TRP d   1     -41.662  24.584  18.350  0.00  0.00    -0.081 A 
ATOM    127  H25 TRP d   1     -43.230  25.207  19.691  0.00  0.00     0.083 H 
ATOM    128  H26 TRP d   1     -42.329  23.969  17.757  0.00  0.00     0.083 H 
ATOM    129  H24 TRP d   1     -39.945  24.107  17.162  0.00  0.00     0.086 H 
ENDBRANCH 112 115
ENDBRANCH  78 112
ENDBRANCH  75  78
ENDBRANCH   9  74
BRANCH  35 130
ATOM    130  CB  PHE d   1     -40.218  20.062  19.346  0.00  0.00    -0.014 C 
ATOM    131  H46 PHE d   1     -39.908  19.224  19.987  0.00  0.00     0.043 H 
ATOM    132  H47 PHE d   1     -39.372  20.374  18.716  0.00  0.00     0.043 H 
BRANCH 130 133
ATOM    133  CG  PHE d   1     -41.329  19.588  18.449  0.00  0.00    -0.056 A 
ATOM    134  CD1 PHE d   1     -41.529  20.167  17.209  0.00  0.00    -0.077 A 
ATOM    135  CE1 PHE d   1     -42.546  19.738  16.384  0.00  0.00    -0.082 A 
ATOM    136  H48 PHE d   1     -40.877  20.969  16.882  0.00  0.00     0.084 H 
ATOM    137  CZ  PHE d   1     -43.380  18.717  16.793  0.00  0.00    -0.083 A 
ATOM    138  H50 PHE d   1     -42.691  20.202  15.415  0.00  0.00     0.083 H 
ATOM    139  CE2 PHE d   1     -43.196  18.132  18.028  0.00  0.00    -0.082 A 
ATOM    140  H52 PHE d   1     -44.178  18.376  16.144  0.00  0.00     0.083 H 
ATOM    141  CD2 PHE d   1     -42.174  18.565  18.849  0.00  0.00    -0.077 A 
ATOM    142  H51 PHE d   1     -43.853  17.333  18.354  0.00  0.00     0.083 H 
ATOM    143  H49 PHE d   1     -42.031  18.099  19.817  0.00  0.00     0.084 H 
ENDBRANCH 130 133
ENDBRANCH  35 130
BRANCH  69 144
ATOM    144  CB  ALA d   1     -45.126  17.041  23.935  0.00  0.00    -0.049 C 
ATOM    145  H62 ALA d   1     -45.164  16.049  24.409  0.00  0.00     0.030 H 
ATOM    146  H63 ALA d   1     -44.964  16.924  22.853  0.00  0.00     0.030 H 
ATOM    147  H64 ALA d   1     -46.076  17.567  24.109  0.00  0.00     0.030 H 
ENDBRANCH  69 144
BRANCH   2 148
ATOM    148  CB  ARG d   1     -39.266  18.097  23.363  0.00  0.00    -0.036 C 
ATOM    149  H67 ARG d   1     -39.220  19.031  23.943  0.00  0.00     0.036 H 
ATOM    150  H68 ARG d   1     -39.647  18.311  22.354  0.00  0.00     0.036 H 
BRANCH 148 151
ATOM    151  CG  ARG d   1     -37.858  17.553  23.231  0.00  0.00    -0.048 C 
ATOM    152  H69 ARG d   1     -37.861  16.729  22.503  0.00  0.00     0.035 H 
ATOM    153  H70 ARG d   1     -37.528  17.176  24.210  0.00  0.00     0.035 H 
BRANCH 151 154
ATOM    154  CD  ARG d   1     -36.888  18.619  22.763  0.00  0.00     0.009 C 
ATOM    155  H71 ARG d   1     -36.903  19.455  23.478  0.00  0.00     0.064 H 
ATOM    156  H72 ARG d   1     -37.202  18.978  21.772  0.00  0.00     0.064 H 
BRANCH 154 157
ATOM    157  NE  ARG d   1     -35.527  18.099  22.670  0.00  0.00    -0.227 N 
ATOM    158  CZ  ARG d   1     -34.678  18.406  21.697  0.00  0.00     0.665 C 
ATOM    159  NH1 ARG d   1     -35.051  19.233  20.729  0.00  0.00    -0.235 N 
ATOM    160  NH2 ARG d   1     -33.458  17.889  21.686  0.00  0.00    -0.235 N 
ATOM    161  H74 ARG d   1     -34.393  19.472  19.974  0.00  0.00     0.174 HD
ATOM    162  H75 ARG d   1     -35.999  19.636  20.733  0.00  0.00     0.174 HD
ATOM    163  H76 ARG d   1     -33.164  17.247  22.436  0.00  0.00     0.174 HD
ATOM    164  H77 ARG d   1     -32.803  18.130  20.928  0.00  0.00     0.174 HD
ATOM    165  H73 ARG d   1     -35.206  17.453  23.405  0.00  0.00     0.177 HD
ENDBRANCH 154 157
ENDBRANCH 151 154
ENDBRANCH 148 151
ENDBRANCH   2 148
TORSDOF 18
