REMARK  8 active torsions:
REMARK  status: ('A' for Active; 'I' for Inactive)
REMARK    1  A    between atoms: C8_11  and  C9_12 
REMARK    2  A    between atoms: C9_12  and  C10_13 
REMARK    3  A    between atoms: C10_13  and  C11_14 
REMARK       I    between atoms: C11_14  and  N3_16 
REMARK    4  A    between atoms: N3_16  and  C12_17 
REMARK    5  A    between atoms: C17_22  and  C18_23 
REMARK       I    between atoms: C18_23  and  N4_25 
REMARK    6  A    between atoms: N4_25  and  C19_26 
REMARK    7  A    between atoms: C24_31  and  O4_32 
REMARK    8  A    between atoms: O4_32  and  C25_33 
ROOT
ATOM      1  C12 1DY d   1      32.625  24.449  23.011  0.00  0.00     0.034 A 
ATOM      2  C13 1DY d   1      33.202  24.387  24.322  0.00  0.00    -0.056 A 
ATOM      3  C14 1DY d   1      32.998  23.171  25.088  0.00  0.00    -0.066 A 
ATOM      4  C15 1DY d   1      31.861  23.357  22.437  0.00  0.00    -0.056 A 
ATOM      5  C16 1DY d   1      31.652  22.159  23.173  0.00  0.00    -0.066 A 
ATOM      6  C17 1DY d   1      32.221  22.095  24.481  0.00  0.00     0.032 A 
ATOM      7  H11 1DY d   1      33.770  25.217  24.726  0.00  0.00     0.086 H 
ATOM      8  H12 1DY d   1      33.412  23.065  26.084  0.00  0.00     0.085 H 
ATOM      9  H13 1DY d   1      31.447  23.456  21.440  0.00  0.00     0.086 H 
ATOM     10  H14 1DY d   1      31.086  21.332  22.760  0.00  0.00     0.085 H 
ENDROOT
BRANCH   1  11
ATOM     11  N3  1DY d   1      32.829  25.606  22.331  0.00  0.00    -0.327 N 
ATOM     12  C11 1DY d   1      32.705  25.836  20.971  0.00  0.00     0.222 C 
ATOM     13  O2  1DY d   1      32.182  25.061  20.173  0.00  0.00    -0.273 OA
ATOM     14  H10 1DY d   1      33.104  26.393  22.883  0.00  0.00     0.169 HD
BRANCH  12  15
ATOM     15  C10 1DY d   1      33.268  27.163  20.488  0.00  0.00     0.016 C 
ATOM     16  H8  1DY d   1      32.749  27.447  19.561  0.00  0.00     0.047 H 
ATOM     17  H9  1DY d   1      33.081  27.924  21.260  0.00  0.00     0.047 H 
BRANCH  15  18
ATOM     18  C9  1DY d   1      34.757  27.112  20.211  0.00  0.00    -0.002 C 
ATOM     19  H6  1DY d   1      35.230  28.059  20.510  0.00  0.00     0.045 H 
ATOM     20  H7  1DY d   1      35.216  26.281  20.767  0.00  0.00     0.045 H 
BRANCH  18  21
ATOM     21  C8  1DY d   1      34.923  26.896  18.721  0.00  0.00     0.107 A 
ATOM     22  N1  1DY d   1      35.704  25.882  18.271  0.00  0.00    -0.311 N 
ATOM     23  C1  1DY d   1      35.918  25.596  16.993  0.00  0.00     0.259 A 
ATOM     24  H1  1DY d   1      36.153  25.306  18.954  0.00  0.00     0.170 HD
ATOM     25  O1  1DY d   1      36.671  24.683  16.682  0.00  0.00    -0.267 OA
ATOM     26  C2  1DY d   1      35.246  26.451  16.048  0.00  0.00     0.061 A 
ATOM     27  C3  1DY d   1      35.424  26.214  14.657  0.00  0.00    -0.065 A 
ATOM     28  C7  1DY d   1      34.421  27.531  16.529  0.00  0.00     0.074 A 
ATOM     29  C4  1DY d   1      34.744  27.106  13.753  0.00  0.00    -0.082 A 
ATOM     30  H2  1DY d   1      36.042  25.401  14.294  0.00  0.00     0.085 H 
ATOM     31  C5  1DY d   1      33.928  28.185  14.225  0.00  0.00    -0.081 A 
ATOM     32  H3  1DY d   1      34.853  26.957  12.685  0.00  0.00     0.083 H 
ATOM     33  C6  1DY d   1      33.742  28.427  15.628  0.00  0.00    -0.054 A 
ATOM     34  H4  1DY d   1      33.440  28.834  13.506  0.00  0.00     0.083 H 
ATOM     35  H5  1DY d   1      33.124  29.241  15.990  0.00  0.00     0.087 H 
ATOM     36  N2  1DY d   1      34.294  27.707  17.859  0.00  0.00    -0.235 NA
ENDBRANCH  18  21
ENDBRANCH  15  18
ENDBRANCH  12  15
ENDBRANCH   1  11
BRANCH   6  37
ATOM     37  C18 1DY d   1      31.916  20.860  25.213  0.00  0.00     0.256 C 
ATOM     38  O3  1DY d   1      31.448  19.862  24.676  0.00  0.00    -0.267 OA
ATOM     39  N4  1DY d   1      32.153  20.882  26.551  0.00  0.00    -0.321 N 
ATOM     40  H15 1DY d   1      32.350  21.782  26.939  0.00  0.00     0.169 HD
BRANCH  39  41
ATOM     41  C19 1DY d   1      32.159  19.829  27.452  0.00  0.00     0.068 A 
ATOM     42  C20 1DY d   1      31.748  18.478  27.167  0.00  0.00    -0.054 A 
ATOM     43  C21 1DY d   1      31.816  17.489  28.242  0.00  0.00    -0.081 A 
ATOM     44  H16 1DY d   1      31.397  18.201  26.180  0.00  0.00     0.087 H 
ATOM     45  C22 1DY d   1      32.282  17.822  29.565  0.00  0.00    -0.080 A 
ATOM     46  H17 1DY d   1      31.506  16.471  28.037  0.00  0.00     0.083 H 
ATOM     47  C23 1DY d   1      32.695  19.169  29.860  0.00  0.00    -0.049 A 
ATOM     48  H18 1DY d   1      32.321  17.060  30.335  0.00  0.00     0.083 H 
ATOM     49  C24 1DY d   1      32.617  20.148  28.775  0.00  0.00     0.095 A 
ATOM     50  H19 1DY d   1      33.050  19.447  30.846  0.00  0.00     0.087 H 
BRANCH  49  51
ATOM     51  O4  1DY d   1      32.916  21.488  28.747  0.00  0.00    -0.354 OA
BRANCH  51  52
ATOM     52  C25 1DY d   1      33.019  22.207  29.970  0.00  0.00     0.010 C 
ATOM     53  H20 1DY d   1      33.263  23.259  29.758  0.00  0.00     0.066 H 
ATOM     54  H21 1DY d   1      33.813  21.765  30.590  0.00  0.00     0.066 H 
ATOM     55  H22 1DY d   1      32.061  22.154  30.508  0.00  0.00     0.066 H 
ENDBRANCH  51  52
ENDBRANCH  49  51
ENDBRANCH  39  41
ENDBRANCH   6  37
TORSDOF 8
