REMARK  6 active torsions:
REMARK  status: ('A' for Active; 'I' for Inactive)
REMARK    1  A    between atoms: C3_2  and  C2_3 
REMARK       I    between atoms: C3_2  and  N_6 
REMARK    2  A    between atoms: C2_3  and  C1_4 
REMARK    3  A    between atoms: C1_4  and  S_5 
REMARK    4  A    between atoms: C8_9  and  O1_10 
REMARK    5  A    between atoms: C8_9  and  C9_13 
REMARK    6  A    between atoms: C11_18  and  C12_20 
ROOT
ATOM      1  O2  KI1 d   1      25.266  -2.137  14.493  0.00  0.00    -0.273 OA
ATOM      2  C3  KI1 d   1      25.938  -1.699  15.410  0.00  0.00     0.220 C 
ATOM      3  N   KI1 d   1      25.377  -1.073  16.465  0.00  0.00    -0.352 N 
ATOM      4  C6  KI1 d   1      23.943  -0.779  16.587  0.00  0.00     0.001 C 
ATOM      5  C7  KI1 d   1      23.685   0.722  16.532  0.00  0.00    -0.017 C 
ATOM      6  C8  KI1 d   1      24.443   1.456  17.647  0.00  0.00     0.088 C 
ATOM      7  C5  KI1 d   1      25.895   0.970  17.704  0.00  0.00    -0.017 C 
ATOM      8  C4  KI1 d   1      26.124  -0.527  17.605  0.00  0.00     0.001 C 
ATOM      9  H6  KI1 d   1      23.576  -1.172  17.547  0.00  0.00     0.064 H 
ATOM     10  H7  KI1 d   1      23.404  -1.267  15.761  0.00  0.00     0.064 H 
ATOM     11  H8  KI1 d   1      22.607   0.905  16.650  0.00  0.00     0.040 H 
ATOM     12  H9  KI1 d   1      24.018   1.108  15.557  0.00  0.00     0.040 H 
ATOM     13  H11 KI1 d   1      26.321   1.308  18.660  0.00  0.00     0.040 H 
ATOM     14  H12 KI1 d   1      26.437   1.444  16.872  0.00  0.00     0.040 H 
ATOM     15  H13 KI1 d   1      27.197  -0.723  17.465  0.00  0.00     0.064 H 
ATOM     16  H14 KI1 d   1      25.780  -1.010  18.531  0.00  0.00     0.064 H 
ENDROOT
BRANCH   6  17
ATOM     17  O1  KI1 d   1      23.839   1.101  18.893  0.00  0.00    -0.385 OA
ATOM     18  H10 KI1 d   1      24.292   1.544  19.601  0.00  0.00     0.211 HD
ENDBRANCH   6  17
BRANCH   6  19
ATOM     19  C9  KI1 d   1      24.381   2.971  17.478  0.00  0.00    -0.023 A 
ATOM     20  C15 KI1 d   1      24.457   3.573  16.223  0.00  0.00    -0.072 A 
ATOM     21  C14 KI1 d   1      24.422   4.952  16.090  0.00  0.00    -0.060 A 
ATOM     22  H15 KI1 d   1      24.545   2.953  15.338  0.00  0.00     0.084 H 
ATOM     23  C13 KI1 d   1      24.327   5.754  17.222  0.00  0.00     0.049 A 
ATOM     24  H16 KI1 d   1      24.469   5.404  15.106  0.00  0.00     0.086 H 
ATOM     25 CL   KI1 d   1      24.309   7.475  17.006  0.00  0.00    -0.083 Cl
ATOM     26  C11 KI1 d   1      24.255   5.187  18.493  0.00  0.00     0.070 A 
ATOM     27  C10 KI1 d   1      24.277   3.800  18.591  0.00  0.00    -0.058 A 
ATOM     28  H17 KI1 d   1      24.210   3.346  19.573  0.00  0.00     0.085 H 
BRANCH  26  29
ATOM     29  C12 KI1 d   1      24.213   6.020  19.737  0.00  0.00     0.419 C 
ATOM     30  F1  KI1 d   1      23.132   6.787  19.798  0.00  0.00    -0.166 F 
ATOM     31  F2  KI1 d   1      25.251   6.831  19.808  0.00  0.00    -0.166 F 
ATOM     32  F3  KI1 d   1      24.141   5.301  20.838  0.00  0.00    -0.166 F 
ENDBRANCH  26  29
ENDBRANCH   6  19
BRANCH   2  33
ATOM     33  C2  KI1 d   1      27.443  -1.834  15.384  0.00  0.00     0.017 C 
ATOM     34  H1  KI1 d   1      27.598  -2.910  15.554  0.00  0.00     0.048 H 
ATOM     35  H2  KI1 d   1      27.758  -1.272  16.276  0.00  0.00     0.048 H 
BRANCH  33  36
ATOM     36  C1  KI1 d   1      28.473  -1.504  14.408  0.00  0.00    -0.018 C 
ATOM     37  H3  KI1 d   1      28.137  -1.794  13.402  0.00  0.00     0.049 H 
ATOM     38  H4  KI1 d   1      29.402  -2.040  14.653  0.00  0.00     0.049 H 
BRANCH  36  39
ATOM     39  S   KI1 d   1      28.767   0.284  14.462  0.00  0.00    -0.182 SA
ATOM     40  H5  KI1 d   1      29.072   0.545  15.386  0.00  0.00     0.101 HD
ENDBRANCH  36  39
ENDBRANCH  33  36
ENDBRANCH   2  33
TORSDOF 6
