REMARK  10 active torsions:
REMARK  status: ('A' for Active; 'I' for Inactive)
REMARK    1  A    between atoms: C1_1  and  C16_16 
REMARK    2  A    between atoms: C1_1  and  C17_17 
REMARK    3  A    between atoms: C5_5  and  C18_18 
REMARK    4  A    between atoms: C6_6  and  C7_7 
REMARK    5  A    between atoms: C8_8  and  C9_9 
REMARK    6  A    between atoms: C9_9  and  C19_19 
REMARK    7  A    between atoms: C10_10  and  C11_11 
REMARK    8  A    between atoms: C12_12  and  C13_13 
REMARK    9  A    between atoms: C13_13  and  C20_20 
REMARK   10  A    between atoms: C14_14  and  C15_15 
ROOT
ATOM      1  C7  RET d   1     -38.634  18.568  10.089  0.00  0.00    -0.075 C 
ATOM      2  C8  RET d   1     -37.528  18.474  10.789  0.00  0.00    -0.077 C 
ATOM      3  H7  RET d   1     -39.499  17.967  10.367  0.00  0.00     0.084 H 
ATOM      4  H8  RET d   1     -36.653  19.045  10.481  0.00  0.00     0.084 H 
ENDROOT
BRANCH   1   5
ATOM      5  C6  RET d   1     -38.723  19.495   8.908  0.00  0.00    -0.048 C 
ATOM      6  C1  RET d   1     -37.513  19.877   8.102  0.00  0.00    -0.020 C 
ATOM      7  C2  RET d   1     -37.857  20.509   6.847  0.00  0.00    -0.054 C 
ATOM      8  C3  RET d   1     -38.875  21.577   7.098  0.00  0.00    -0.061 C 
ATOM      9  H1  RET d   1     -38.273  19.759   6.159  0.00  0.00     0.034 H 
ATOM     10  H2  RET d   1     -36.956  20.956   6.401  0.00  0.00     0.034 H 
ATOM     11  C4  RET d   1     -40.173  20.904   7.443  0.00  0.00    -0.044 C 
ATOM     12  H3  RET d   1     -39.001  22.193   6.195  0.00  0.00     0.033 H 
ATOM     13  H4  RET d   1     -38.550  22.214   7.934  0.00  0.00     0.033 H 
ATOM     14  C5  RET d   1     -39.935  19.936   8.577  0.00  0.00    -0.077 C 
ATOM     15  H5  RET d   1     -40.551  20.359   6.566  0.00  0.00     0.039 H 
ATOM     16  H6  RET d   1     -40.910  21.660   7.751  0.00  0.00     0.039 H 
BRANCH   6  17
ATOM     17  C16 RET d   1     -36.632  18.749   7.872  0.00  0.00    -0.065 C 
ATOM     18  H16 RET d   1     -36.379  18.279   8.834  0.00  0.00     0.028 H 
ATOM     19  H17 RET d   1     -35.711  19.097   7.381  0.00  0.00     0.028 H 
ATOM     20  H18 RET d   1     -37.137  18.015   7.227  0.00  0.00     0.028 H 
ENDBRANCH   6  17
BRANCH   6  21
ATOM     21  C17 RET d   1     -36.743  20.893   8.901  0.00  0.00    -0.065 C 
ATOM     22  H19 RET d   1     -37.382  21.767   9.096  0.00  0.00     0.028 H 
ATOM     23  H20 RET d   1     -35.854  21.208   8.335  0.00  0.00     0.028 H 
ATOM     24  H21 RET d   1     -36.430  20.447   9.857  0.00  0.00     0.028 H 
ENDBRANCH   6  21
BRANCH  14  25
ATOM     25  C18 RET d   1     -41.093  19.527   9.433  0.00  0.00    -0.054 C 
ATOM     26  H22 RET d   1     -40.748  18.824  10.205  0.00  0.00     0.033 H 
ATOM     27  H23 RET d   1     -41.857  19.040   8.809  0.00  0.00     0.033 H 
ATOM     28  H24 RET d   1     -41.526  20.417   9.914  0.00  0.00     0.033 H 
ENDBRANCH  14  25
ENDBRANCH   1   5
BRANCH   2  29
ATOM     29  C9  RET d   1     -37.444  17.614  11.981  0.00  0.00    -0.062 C 
ATOM     30  C10 RET d   1     -36.388  17.762  12.780  0.00  0.00    -0.077 C 
ATOM     31  H9  RET d   1     -35.639  18.511  12.528  0.00  0.00     0.084 H 
BRANCH  30  32
ATOM     32  C11 RET d   1     -36.203  16.959  13.973  0.00  0.00    -0.082 C 
ATOM     33  C12 RET d   1     -35.198  17.270  14.778  0.00  0.00    -0.077 C 
ATOM     34  H11 RET d   1     -34.571  18.128  14.537  0.00  0.00     0.084 H 
ATOM     35  H10 RET d   1     -36.868  16.127  14.200  0.00  0.00     0.083 H 
BRANCH  33  36
ATOM     36  C13 RET d   1     -34.907  16.489  15.986  0.00  0.00    -0.066 C 
ATOM     37  C14 RET d   1     -33.778  16.764  16.666  0.00  0.00    -0.101 C 
ATOM     38  H12 RET d   1     -33.129  17.567  16.320  0.00  0.00     0.077 H 
BRANCH  37  39
ATOM     39  C15 RET d   1     -33.406  16.009  17.857  0.00  0.00    -0.059 C 
ATOM     40  H13 RET d   1     -32.455  16.395  18.253  0.00  0.00     0.032 H 
ATOM     41  H14 RET d   1     -33.291  14.947  17.596  0.00  0.00     0.032 H 
ATOM     42  H15 RET d   1     -34.192  16.116  18.619  0.00  0.00     0.032 H 
ENDBRANCH  37  39
BRANCH  36  43
ATOM     43  C20 RET d   1     -35.857  15.410  16.426  0.00  0.00    -0.051 C 
ATOM     44  H28 RET d   1     -36.705  15.361  15.727  0.00  0.00     0.033 H 
ATOM     45  H29 RET d   1     -36.227  15.637  17.437  0.00  0.00     0.033 H 
ATOM     46  H30 RET d   1     -35.334  14.443  16.436  0.00  0.00     0.033 H 
ENDBRANCH  36  43
ENDBRANCH  33  36
ENDBRANCH  30  32
BRANCH  29  47
ATOM     47  C19 RET d   1     -38.511  16.578  12.248  0.00  0.00    -0.051 C 
ATOM     48  H25 RET d   1     -39.282  16.635  11.465  0.00  0.00     0.033 H 
ATOM     49  H26 RET d   1     -38.970  16.769  13.229  0.00  0.00     0.033 H 
ATOM     50  H27 RET d   1     -38.058  15.576  12.244  0.00  0.00     0.033 H 
ENDBRANCH  29  47
ENDBRANCH   2  29
TORSDOF 10
