REMARK  10 active torsions:
REMARK  status: ('A' for Active; 'I' for Inactive)
REMARK    1  A    between atoms: C1_1  and  C16_16 
REMARK    2  A    between atoms: C1_1  and  C17_17 
REMARK    3  A    between atoms: C5_5  and  C18_18 
REMARK    4  A    between atoms: C6_6  and  C7_7 
REMARK    5  A    between atoms: C8_8  and  C9_9 
REMARK    6  A    between atoms: C9_9  and  C19_19 
REMARK    7  A    between atoms: C10_10  and  C11_11 
REMARK    8  A    between atoms: C12_12  and  C13_13 
REMARK    9  A    between atoms: C13_13  and  C20_20 
REMARK   10  A    between atoms: C14_14  and  C15_15 
ROOT
ATOM      1  C7  RET d   1      24.997  -6.878  -7.536  0.00  0.00    -0.075 C 
ATOM      2  C8  RET d   1      24.771  -8.173  -7.287  0.00  0.00    -0.077 C 
ATOM      3  H7  RET d   1      24.906  -6.162  -6.721  0.00  0.00     0.084 H 
ATOM      4  H8  RET d   1      24.852  -8.903  -8.091  0.00  0.00     0.084 H 
ENDROOT
BRANCH   1   5
ATOM      5  C6  RET d   1      25.375  -6.376  -8.912  0.00  0.00    -0.048 C 
ATOM      6  C1  RET d   1      25.564  -7.315 -10.077  0.00  0.00    -0.020 C 
ATOM      7  C2  RET d   1      26.115  -6.654 -11.250  0.00  0.00    -0.054 C 
ATOM      8  C3  RET d   1      25.402  -5.362 -11.484  0.00  0.00    -0.061 C 
ATOM      9  H1  RET d   1      25.990  -7.304 -12.128  0.00  0.00     0.034 H 
ATOM     10  H2  RET d   1      27.185  -6.457 -11.089  0.00  0.00     0.034 H 
ATOM     11  C4  RET d   1      25.810  -4.418 -10.406  0.00  0.00    -0.044 C 
ATOM     12  H3  RET d   1      24.314  -5.523 -11.449  0.00  0.00     0.033 H 
ATOM     13  H4  RET d   1      25.681  -4.952 -12.466  0.00  0.00     0.033 H 
ATOM     14  C5  RET d   1      25.468  -5.032  -9.074  0.00  0.00    -0.077 C 
ATOM     15  H5  RET d   1      25.272  -3.466 -10.524  0.00  0.00     0.039 H 
ATOM     16  H6  RET d   1      26.893  -4.237 -10.463  0.00  0.00     0.039 H 
BRANCH   6  17
ATOM     17  C16 RET d   1      24.322  -7.994 -10.406  0.00  0.00    -0.065 C 
ATOM     18  H16 RET d   1      23.924  -8.486  -9.506  0.00  0.00     0.028 H 
ATOM     19  H17 RET d   1      24.512  -8.749 -11.183  0.00  0.00     0.028 H 
ATOM     20  H18 RET d   1      23.591  -7.261 -10.777  0.00  0.00     0.028 H 
ENDBRANCH   6  17
BRANCH   6  21
ATOM     21  C17 RET d   1      26.586  -8.381  -9.673  0.00  0.00    -0.065 C 
ATOM     22  H19 RET d   1      27.540  -7.896  -9.417  0.00  0.00     0.028 H 
ATOM     23  H20 RET d   1      26.741  -9.076 -10.511  0.00  0.00     0.028 H 
ATOM     24  H21 RET d   1      26.211  -8.936  -8.800  0.00  0.00     0.028 H 
ENDBRANCH   6  21
BRANCH  14  25
ATOM     25  C18 RET d   1      25.251  -4.122  -7.895  0.00  0.00    -0.054 C 
ATOM     26  H22 RET d   1      25.011  -4.724  -7.006  0.00  0.00     0.033 H 
ATOM     27  H23 RET d   1      24.418  -3.437  -8.109  0.00  0.00     0.033 H 
ATOM     28  H24 RET d   1      26.165  -3.540  -7.708  0.00  0.00     0.033 H 
ENDBRANCH  14  25
ENDBRANCH   1   5
BRANCH   2  29
ATOM     29  C9  RET d   1      24.412  -8.613  -5.924  0.00  0.00    -0.062 C 
ATOM     30  C10 RET d   1      24.764  -9.829  -5.511  0.00  0.00    -0.077 C 
ATOM     31  H9  RET d   1      25.305 -10.495  -6.182  0.00  0.00     0.084 H 
BRANCH  30  32
ATOM     32  C11 RET d   1      24.428 -10.273  -4.163  0.00  0.00    -0.082 C 
ATOM     33  C12 RET d   1      25.145 -11.229  -3.599  0.00  0.00    -0.077 C 
ATOM     34  H11 RET d   1      25.984 -11.664  -4.139  0.00  0.00     0.084 H 
ATOM     35  H10 RET d   1      23.595  -9.821  -3.627  0.00  0.00     0.083 H 
BRANCH  33  36
ATOM     36  C13 RET d   1      24.820 -11.710  -2.249  0.00  0.00    -0.066 C 
ATOM     37  C14 RET d   1      25.580 -12.653  -1.684  0.00  0.00    -0.101 C 
ATOM     38  H12 RET d   1      26.454 -13.029  -2.214  0.00  0.00     0.077 H 
BRANCH  37  39
ATOM     39  C15 RET d   1      25.255 -13.179  -0.377  0.00  0.00    -0.059 C 
ATOM     40  H13 RET d   1      25.997 -13.939  -0.093  0.00  0.00     0.032 H 
ATOM     41  H14 RET d   1      24.255 -13.635  -0.404  0.00  0.00     0.032 H 
ATOM     42  H15 RET d   1      25.266 -12.363   0.360  0.00  0.00     0.032 H 
ENDBRANCH  37  39
BRANCH  36  43
ATOM     43  C20 RET d   1      23.608 -11.178  -1.525  0.00  0.00    -0.051 C 
ATOM     44  H28 RET d   1      23.116 -10.415  -2.146  0.00  0.00     0.033 H 
ATOM     45  H29 RET d   1      23.919 -10.729  -0.570  0.00  0.00     0.033 H 
ATOM     46  H30 RET d   1      22.905 -12.002  -1.331  0.00  0.00     0.033 H 
ENDBRANCH  36  43
ENDBRANCH  33  36
ENDBRANCH  30  32
BRANCH  29  47
ATOM     47  C19 RET d   1      23.626  -7.702  -5.016  0.00  0.00    -0.051 C 
ATOM     48  H25 RET d   1      23.432  -6.749  -5.531  0.00  0.00     0.033 H 
ATOM     49  H26 RET d   1      24.202  -7.512  -4.098  0.00  0.00     0.033 H 
ATOM     50  H27 RET d   1      22.670  -8.179  -4.756  0.00  0.00     0.033 H 
ENDBRANCH  29  47
ENDBRANCH   2  29
TORSDOF 10
