REMARK  12 active torsions:
REMARK  status: ('A' for Active; 'I' for Inactive)
REMARK    1  A    between atoms: NBD_3  and  CAD_4 
REMARK    2  A    between atoms: N_7  and  CA_8 
REMARK    3  A    between atoms: CA_8  and  C_9 
REMARK    4  A    between atoms: C_9  and  CAV_11 
REMARK    5  A    between atoms: CAW_15  and  OAT_16 
REMARK    6  A    between atoms: OAT_16  and  CAL_17 
REMARK    7  A    between atoms: CAL_17  and  CAK_18 
REMARK    8  A    between atoms: CAK_18  and  CAA_19 
REMARK    9  A    between atoms: CAY_20  and  CAZ_21 
REMARK   10  A    between atoms: CBA_28  and  CBC_29 
REMARK   11  A    between atoms: CBC_29  and  CAC_30 
REMARK   12  A    between atoms: CBC_29  and  CAB_31 
ROOT
ATOM      1  CAV 5BA d   1     -43.841  15.335  44.602  0.00  0.00     0.013 A 
ATOM      2  CAJ 5BA d   1     -43.824  15.578  43.219  0.00  0.00    -0.053 A 
ATOM      3  CAH 5BA d   1     -45.000  15.649  45.355  0.00  0.00    -0.067 A 
ATOM      4  CAI 5BA d   1     -46.128  16.181  44.708  0.00  0.00    -0.049 A 
ATOM      5  CAW 5BA d   1     -46.101  16.417  43.330  0.00  0.00     0.082 A 
ATOM      6  CAY 5BA d   1     -44.945  16.089  42.572  0.00  0.00     0.044 A 
ATOM      7  H16 5BA d   1     -42.927  15.365  42.649  0.00  0.00     0.086 H 
ATOM      8  H17 5BA d   1     -45.016  15.479  46.425  0.00  0.00     0.085 H 
ATOM      9  H18 5BA d   1     -47.021  16.409  45.278  0.00  0.00     0.087 H 
ENDROOT
BRANCH   1  10
ATOM     10  C   5BA d   1     -42.599  14.767  45.271  0.00  0.00     0.185 C 
ATOM     11  O   5BA d   1     -41.705  14.286  44.579  0.00  0.00    -0.291 OA
BRANCH  10  12
ATOM     12  CA  5BA d   1     -42.508  14.877  46.774  0.00  0.00     0.142 C 
ATOM     13  H14 5BA d   1     -42.477  15.954  46.997  0.00  0.00     0.088 H 
ATOM     14  H15 5BA d   1     -43.442  14.448  47.166  0.00  0.00     0.088 H 
BRANCH  12  15
ATOM     15  N   5BA d   1     -41.432  14.275  47.554  0.00  0.00    -0.061 N 
ATOM     16  CAO 5BA d   1     -41.504  14.442  48.988  0.00  0.00     0.106 C 
ATOM     17  CAM 5BA d   1     -40.256  14.048  49.708  0.00  0.00     0.105 C 
ATOM     18  H1  5BA d   1     -41.708  15.501  49.203  0.00  0.00     0.078 H 
ATOM     19  H2  5BA d   1     -42.332  13.825  49.367  0.00  0.00     0.078 H 
ATOM     20  NBD 5BA d   1     -39.087  14.748  49.223  0.00  0.00    -0.072 N 
ATOM     21  H3  5BA d   1     -40.099  12.967  49.575  0.00  0.00     0.078 H 
ATOM     22  H4  5BA d   1     -40.381  14.272  50.778  0.00  0.00     0.078 H 
ATOM     23  CAN 5BA d   1     -39.255  15.305  47.906  0.00  0.00     0.105 C 
ATOM     24  H5  5BA d   1     -39.095  15.580  49.792  0.00  0.00     0.279 HD
ATOM     25  CAP 5BA d   1     -40.093  14.418  47.042  0.00  0.00     0.106 C 
ATOM     26  H9  5BA d   1     -38.266  15.428  47.440  0.00  0.00     0.078 H 
ATOM     27  H10 5BA d   1     -39.744  16.287  47.992  0.00  0.00     0.078 H 
ATOM     28  H11 5BA d   1     -39.624  13.424  46.992  0.00  0.00     0.078 H 
ATOM     29  H12 5BA d   1     -40.143  14.851  46.032  0.00  0.00     0.078 H 
ATOM     30  H13 5BA d   1     -41.611  13.290  47.434  0.00  0.00     0.280 HD
BRANCH  20  31
ATOM     31  CAD 5BA d   1     -37.781  14.178  49.590  0.00  0.00     0.066 C 
ATOM     32  H6  5BA d   1     -36.978  14.797  49.164  0.00  0.00     0.068 H 
ATOM     33  H7  5BA d   1     -37.704  13.154  49.195  0.00  0.00     0.068 H 
ATOM     34  H8  5BA d   1     -37.685  14.156  50.686  0.00  0.00     0.068 H 
ENDBRANCH  20  31
ENDBRANCH  12  15
ENDBRANCH  10  12
ENDBRANCH   1  10
BRANCH   6  35
ATOM     35  CAZ 5BA d   1     -44.794  16.341  41.101  0.00  0.00     0.143 A 
ATOM     36  NAR 5BA d   1     -44.343  15.383  40.265  0.00  0.00    -0.233 NA
ATOM     37  CBA 5BA d   1     -44.153  15.648  38.969  0.00  0.00     0.062 A 
ATOM     38  CAX 5BA d   1     -44.420  16.973  38.448  0.00  0.00     0.089 A 
ATOM     39  CBB 5BA d   1     -44.857  17.929  39.345  0.00  0.00     0.200 A 
ATOM     40 BR   5BA d   1     -44.139  17.430  36.580  0.00  0.00    -0.044 Br
ATOM     41  NAS 5BA d   1     -45.025  17.608  40.646  0.00  0.00    -0.317 N 
ATOM     42  OAF 5BA d   1     -45.123  19.217  38.928  0.00  0.00    -0.171 OA
ATOM     43  H26 5BA d   1     -45.325  18.312  41.289  0.00  0.00     0.169 HD
BRANCH  37  44
ATOM     44  CBC 5BA d   1     -43.659  14.522  38.016  0.00  0.00    -0.017 C 
ATOM     45  H27 5BA d   1     -43.159  15.040  37.184  0.00  0.00     0.048 H 
BRANCH  44  46
ATOM     46  CAC 5BA d   1     -44.846  13.788  37.393  0.00  0.00    -0.068 C 
ATOM     47  H28 5BA d   1     -44.477  12.997  36.724  0.00  0.00     0.028 H 
ATOM     48  H29 5BA d   1     -45.457  14.500  36.818  0.00  0.00     0.028 H 
ATOM     49  H30 5BA d   1     -45.458  13.339  38.189  0.00  0.00     0.028 H 
ENDBRANCH  44  46
BRANCH  44  50
ATOM     50  CAB 5BA d   1     -42.626  13.630  38.580  0.00  0.00    -0.068 C 
ATOM     51  H31 5BA d   1     -41.812  14.235  39.006  0.00  0.00     0.028 H 
ATOM     52  H32 5BA d   1     -42.225  12.984  37.785  0.00  0.00     0.028 H 
ATOM     53  H33 5BA d   1     -43.071  13.007  39.370  0.00  0.00     0.028 H 
ENDBRANCH  44  50
ENDBRANCH  37  44
ENDBRANCH   6  35
BRANCH   5  54
ATOM     54  OAT 5BA d   1     -47.199  16.948  42.678  0.00  0.00    -0.350 OA
BRANCH  54  55
ATOM     55  CAL 5BA d   1     -48.295  17.482  43.353  0.00  0.00     0.026 C 
ATOM     56  H19 5BA d   1     -47.938  18.269  44.034  0.00  0.00     0.075 H 
ATOM     57  H20 5BA d   1     -48.771  16.680  43.937  0.00  0.00     0.075 H 
BRANCH  55  58
ATOM     58  CAK 5BA d   1     -49.329  18.081  42.425  0.00  0.00    -0.048 C 
ATOM     59  H21 5BA d   1     -50.044  18.654  43.034  0.00  0.00     0.035 H 
ATOM     60  H22 5BA d   1     -49.855  17.256  41.921  0.00  0.00     0.035 H 
BRANCH  58  61
ATOM     61  CAA 5BA d   1     -48.811  18.939  41.436  0.00  0.00    -0.075 C 
ATOM     62  H23 5BA d   1     -49.634  19.322  40.815  0.00  0.00     0.027 H 
ATOM     63  H24 5BA d   1     -48.102  18.384  40.804  0.00  0.00     0.027 H 
ATOM     64  H25 5BA d   1     -48.292  19.781  41.917  0.00  0.00     0.027 H 
ENDBRANCH  58  61
ENDBRANCH  55  58
ENDBRANCH  54  55
ENDBRANCH   5  54
TORSDOF 12
