REMARK  15 active torsions:
REMARK  status: ('A' for Active; 'I' for Inactive)
REMARK    1  A    between atoms: NBG_3  and  CAC_4 
REMARK    2  A    between atoms: NBH_7  and  SBI_8 
REMARK    3  A    between atoms: SBI_8  and  CAZ_11 
REMARK    4  A    between atoms: CBA_15  and  OAY_16 
REMARK    5  A    between atoms: OAY_16  and  CAL_17 
REMARK    6  A    between atoms: CAL_17  and  CAB_18 
REMARK    7  A    between atoms: CBD_19  and  CBE_20 
REMARK    8  A    between atoms: CBB_27  and  CAR_28 
REMARK    9  A    between atoms: CAR_28  and  CAQ_29 
REMARK   10  A    between atoms: CAQ_29  and  CAP_30 
REMARK   11  A    between atoms: CAP_30  and  CAO_31 
REMARK   12  A    between atoms: CAO_31  and  CAN_32 
REMARK   13  A    between atoms: CAN_32  and  CAM_33 
REMARK   14  A    between atoms: CAM_33  and  CAK_34 
REMARK   15  A    between atoms: CAK_34  and  CAA_35 
ROOT
ATOM      1  CAZ 5BB d   1     -27.700  18.727  23.013  0.00  0.00     0.080 A 
ATOM      2  CAJ 5BB d   1     -28.043  18.833  21.648  0.00  0.00    -0.044 A 
ATOM      3  CAH 5BB d   1     -27.619  17.484  23.631  0.00  0.00    -0.058 A 
ATOM      4  CAI 5BB d   1     -27.901  16.318  22.902  0.00  0.00    -0.048 A 
ATOM      5  CBA 5BB d   1     -28.240  16.423  21.540  0.00  0.00     0.082 A 
ATOM      6  CBD 5BB d   1     -28.306  17.687  20.921  0.00  0.00     0.045 A 
ATOM      7  H13 5BB d   1     -28.100  19.806  21.173  0.00  0.00     0.087 H 
ATOM      8  H14 5BB d   1     -27.338  17.415  24.676  0.00  0.00     0.086 H 
ATOM      9  H15 5BB d   1     -27.858  15.347  23.383  0.00  0.00     0.087 H 
ENDROOT
BRANCH   6  10
ATOM     10  CBE 5BB d   1     -28.693  17.836  19.466  0.00  0.00     0.143 A 
ATOM     11  NAW 5BB d   1     -28.058  18.733  18.695  0.00  0.00    -0.233 NA
ATOM     12  CBB 5BB d   1     -28.390  18.906  17.394  0.00  0.00     0.058 A 
ATOM     13  CBC 5BB d   1     -29.439  18.121  16.855  0.00  0.00     0.089 A 
ATOM     14  CBF 5BB d   1     -30.079  17.191  17.687  0.00  0.00     0.200 A 
ATOM     15 BR   5BB d   1     -30.019  18.278  15.007  0.00  0.00    -0.044 Br
ATOM     16  NAX 5BB d   1     -29.693  17.079  18.976  0.00  0.00    -0.317 N 
ATOM     17  OAD 5BB d   1     -31.116  16.371  17.218  0.00  0.00    -0.171 OA
ATOM     18  H21 5BB d   1     -30.156  16.425  19.575  0.00  0.00     0.169 HD
BRANCH  12  19
ATOM     19  CAR 5BB d   1     -27.608  19.968  16.586  0.00  0.00    -0.023 C 
ATOM     20  H22 5BB d   1     -27.610  20.884  17.196  0.00  0.00     0.042 H 
ATOM     21  H23 5BB d   1     -28.183  20.140  15.664  0.00  0.00     0.042 H 
BRANCH  19  22
ATOM     22  CAQ 5BB d   1     -26.140  19.742  16.147  0.00  0.00    -0.060 C 
ATOM     23  H24 5BB d   1     -26.169  19.242  15.168  0.00  0.00     0.033 H 
ATOM     24  H25 5BB d   1     -25.681  19.070  16.888  0.00  0.00     0.033 H 
BRANCH  22  25
ATOM     25  CAP 5BB d   1     -25.231  20.932  16.008  0.00  0.00    -0.065 C 
ATOM     26  H26 5BB d   1     -24.709  20.833  15.045  0.00  0.00     0.033 H 
ATOM     27  H27 5BB d   1     -24.500  20.881  16.828  0.00  0.00     0.033 H 
BRANCH  25  28
ATOM     28  CAO 5BB d   1     -25.847  22.312  16.043  0.00  0.00    -0.065 C 
ATOM     29  H28 5BB d   1     -25.821  22.654  17.088  0.00  0.00     0.033 H 
ATOM     30  H29 5BB d   1     -26.892  22.211  15.716  0.00  0.00     0.033 H 
BRANCH  28  31
ATOM     31  CAN 5BB d   1     -25.220  23.395  15.203  0.00  0.00    -0.065 C 
ATOM     32  H30 5BB d   1     -25.128  23.001  14.180  0.00  0.00     0.033 H 
ATOM     33  H31 5BB d   1     -24.218  23.587  15.614  0.00  0.00     0.033 H 
BRANCH  31  34
ATOM     34  CAM 5BB d   1     -25.943  24.759  15.105  0.00  0.00    -0.065 C 
ATOM     35  H32 5BB d   1     -25.253  25.453  14.604  0.00  0.00     0.033 H 
ATOM     36  H33 5BB d   1     -26.124  25.101  16.135  0.00  0.00     0.033 H 
BRANCH  34  37
ATOM     37  CAK 5BB d   1     -27.256  24.844  14.377  0.00  0.00    -0.069 C 
ATOM     38  H34 5BB d   1     -28.047  24.852  15.142  0.00  0.00     0.032 H 
ATOM     39  H35 5BB d   1     -27.345  23.932  13.768  0.00  0.00     0.032 H 
BRANCH  37  40
ATOM     40  CAA 5BB d   1     -27.520  26.019  13.455  0.00  0.00    -0.077 C 
ATOM     41  H36 5BB d   1     -28.521  25.919  13.011  0.00  0.00     0.027 H 
ATOM     42  H37 5BB d   1     -26.764  26.035  12.656  0.00  0.00     0.027 H 
ATOM     43  H38 5BB d   1     -27.466  26.955  14.030  0.00  0.00     0.027 H 
ENDBRANCH  37  40
ENDBRANCH  34  37
ENDBRANCH  31  34
ENDBRANCH  28  31
ENDBRANCH  25  28
ENDBRANCH  22  25
ENDBRANCH  19  22
ENDBRANCH  12  19
ENDBRANCH   6  10
BRANCH   5  44
ATOM     44  OAY 5BB d   1     -28.530  15.299  20.761  0.00  0.00    -0.351 OA
BRANCH  44  45
ATOM     45  CAL 5BB d   1     -28.254  13.970  21.161  0.00  0.00     0.023 C 
ATOM     46  H16 5BB d   1     -28.594  13.847  22.200  0.00  0.00     0.074 H 
ATOM     47  H17 5BB d   1     -27.166  13.815  21.110  0.00  0.00     0.074 H 
BRANCH  45  48
ATOM     48  CAB 5BB d   1     -28.932  12.892  20.304  0.00  0.00    -0.056 C 
ATOM     49  H18 5BB d   1     -28.662  11.896  20.686  0.00  0.00     0.030 H 
ATOM     50  H19 5BB d   1     -28.596  12.988  19.261  0.00  0.00     0.030 H 
ATOM     51  H20 5BB d   1     -30.024  13.019  20.351  0.00  0.00     0.030 H 
ENDBRANCH  45  48
ENDBRANCH  44  45
ENDBRANCH   5  44
BRANCH   1  52
ATOM     52  SBI 5BB d   1     -27.335  20.212  23.926  0.00  0.00     0.261 S 
ATOM     53  OAE 5BB d   1     -28.226  20.216  25.100  0.00  0.00    -0.200 OA
ATOM     54  OAF 5BB d   1     -27.653  21.368  23.110  0.00  0.00    -0.200 OA
BRANCH  52  55
ATOM     55  NBH 5BB d   1     -25.682  20.162  24.276  0.00  0.00    -0.304 N 
ATOM     56  CAU 5BB d   1     -24.983  20.724  23.129  0.00  0.00     0.028 C 
ATOM     57  CAS 5BB d   1     -23.528  21.045  23.329  0.00  0.00     0.098 C 
ATOM     58  H1  5BB d   1     -25.056  20.000  22.304  0.00  0.00     0.067 H 
ATOM     59  H2  5BB d   1     -25.496  21.655  22.847  0.00  0.00     0.067 H 
ATOM     60  NBG 5BB d   1     -22.822  19.968  23.963  0.00  0.00    -0.072 N 
ATOM     61  H3  5BB d   1     -23.446  21.943  23.959  0.00  0.00     0.078 H 
ATOM     62  H4  5BB d   1     -23.070  21.242  22.349  0.00  0.00     0.078 H 
ATOM     63  CAT 5BB d   1     -23.431  19.541  25.191  0.00  0.00     0.098 C 
ATOM     64  H5  5BB d   1     -23.103  19.213  23.358  0.00  0.00     0.279 HD
ATOM     65  CAV 5BB d   1     -24.883  19.182  24.997  0.00  0.00     0.028 C 
ATOM     66  H9  5BB d   1     -23.360  20.356  25.927  0.00  0.00     0.078 H 
ATOM     67  H10 5BB d   1     -22.893  18.659  25.568  0.00  0.00     0.078 H 
ATOM     68  H11 5BB d   1     -25.333  19.044  25.991  0.00  0.00     0.067 H 
ATOM     69  H12 5BB d   1     -24.926  18.235  24.440  0.00  0.00     0.067 H 
BRANCH  60  70
ATOM     70  CAC 5BB d   1     -21.387  19.817  23.832  0.00  0.00     0.066 C 
ATOM     71  H6  5BB d   1     -21.059  18.931  24.395  0.00  0.00     0.068 H 
ATOM     72  H7  5BB d   1     -20.886  20.711  24.231  0.00  0.00     0.068 H 
ATOM     73  H8  5BB d   1     -21.127  19.694  22.770  0.00  0.00     0.068 H 
ENDBRANCH  60  70
ENDBRANCH  52  55
ENDBRANCH   1  52
TORSDOF 15
