REMARK  19 active torsions:
REMARK  status: ('A' for Active; 'I' for Inactive)
REMARK    1  A    between atoms: N1_1  and  C4_3 
REMARK    2  A    between atoms: C11_29  and  N1_1 
REMARK    3  A    between atoms: N1_1  and  C2_33 
REMARK    4  A    between atoms: N3_2  and  C8_7 
REMARK    5  A    between atoms: N3_2  and  C10_8 
REMARK    6  A    between atoms: C14_22  and  N3_2 
REMARK    7  A    between atoms: C4_3  and  C3_30 
REMARK    8  A    between atoms: C6_5  and  C5_4 
REMARK    9  A    between atoms: N2_25  and  C6_5 
REMARK   10  A    between atoms: C8_7  and  C7_6 
REMARK   11  A    between atoms: C10_8  and  C9_19 
REMARK   12  A    between atoms: N2_25  and  C13_9 
REMARK   13  A    between atoms: C22_14  and  N4_40 
REMARK   14  A    between atoms: N4_40  and  C26_16 
REMARK   15  A    between atoms: C12_28  and  N2_25 
REMARK   16  A    between atoms: C11_29  and  C12_28 
REMARK   17  A    between atoms: C25_37  and  C11_29 
REMARK   18  A    between atoms: C2_33  and  C1_34 
REMARK   19  A    between atoms: C25_37  and  C19_38 
ROOT
ATOM      1  C12 LIZ d   1      11.641 -17.471  -9.745  0.00  0.00     0.111 C 
ATOM      2  H25 LIZ d   1      12.313 -16.670  -9.402  0.00  0.00     0.079 H 
ATOM      3  H26 LIZ d   1      12.204 -18.413  -9.826  0.00  0.00     0.079 H 
ENDROOT
BRANCH   1   4
ATOM      4  N2  LIZ d   1      11.151 -17.111 -11.098  0.00  0.00    -0.053 N 
ATOM      5  H24 LIZ d   1      10.453 -16.392 -10.990  0.00  0.00     0.281 HD
BRANCH   4   6
ATOM      6  C6  LIZ d   1      10.487 -18.267 -11.770  0.00  0.00     0.162 C 
ATOM      7  H5  LIZ d   1      10.508 -18.101 -12.857  0.00  0.00     0.093 H 
ATOM      8  H6  LIZ d   1      11.046 -19.183 -11.528  0.00  0.00     0.093 H 
BRANCH   6   9
ATOM      9  C5  LIZ d   1       9.029 -18.450 -11.329  0.00  0.00     0.199 C 
ATOM     10  O6  LIZ d   1       8.438 -17.554 -10.686  0.00  0.00    -0.647 OA
ATOM     11  O5  LIZ d   1       8.431 -19.491 -11.632  0.00  0.00    -0.647 OA
ENDBRANCH   6   9
ENDBRANCH   4   6
BRANCH   4  12
ATOM     12  C13 LIZ d   1      12.271 -16.531 -11.902  0.00  0.00     0.132 C 
ATOM     13  C15 LIZ d   1      13.374 -17.573 -12.282  0.00  0.00    -0.036 C 
ATOM     14  C16 LIZ d   1      14.430 -17.080 -13.290  0.00  0.00    -0.063 C 
ATOM     15  H12 LIZ d   1      12.875 -18.452 -12.716  0.00  0.00     0.036 H 
ATOM     16  H13 LIZ d   1      13.896 -17.866 -11.359  0.00  0.00     0.036 H 
ATOM     17  C17 LIZ d   1      13.779 -16.400 -14.509  0.00  0.00    -0.063 C 
ATOM     18  H22 LIZ d   1      15.022 -17.940 -13.636  0.00  0.00     0.033 H 
ATOM     19  H23 LIZ d   1      15.091 -16.357 -12.789  0.00  0.00     0.033 H 
ATOM     20  C18 LIZ d   1      12.905 -15.257 -13.993  0.00  0.00    -0.036 C 
ATOM     21  H14 LIZ d   1      14.558 -16.004 -15.177  0.00  0.00     0.033 H 
ATOM     22  H15 LIZ d   1      13.161 -17.126 -15.057  0.00  0.00     0.033 H 
ATOM     23  C14 LIZ d   1      11.737 -15.827 -13.161  0.00  0.00     0.132 C 
ATOM     24  H20 LIZ d   1      12.503 -14.691 -14.846  0.00  0.00     0.036 H 
ATOM     25  H21 LIZ d   1      13.511 -14.590 -13.363  0.00  0.00     0.036 H 
ATOM     26  H19 LIZ d   1      11.230 -16.590 -13.770  0.00  0.00     0.087 H 
ATOM     27  H11 LIZ d   1      12.753 -15.767 -11.275  0.00  0.00     0.087 H 
BRANCH  23  28
ATOM     28  N3  LIZ d   1      10.747 -14.766 -12.875  0.00  0.00    -0.046 N 
ATOM     29  H2  LIZ d   1      10.206 -15.038 -12.069  0.00  0.00     0.281 HD
BRANCH  28  30
ATOM     30  C8  LIZ d   1      11.333 -13.431 -12.622  0.00  0.00     0.163 C 
ATOM     31  H7  LIZ d   1      11.644 -12.975 -13.573  0.00  0.00     0.093 H 
ATOM     32  H8  LIZ d   1      12.206 -13.527 -11.959  0.00  0.00     0.093 H 
BRANCH  30  33
ATOM     33  C7  LIZ d   1      10.273 -12.561 -11.955  0.00  0.00     0.199 C 
ATOM     34  O7  LIZ d   1      10.493 -11.360 -11.881  0.00  0.00    -0.647 OA
ATOM     35  O8  LIZ d   1       9.197 -13.053 -11.506  0.00  0.00    -0.647 OA
ENDBRANCH  30  33
ENDBRANCH  28  30
BRANCH  28  36
ATOM     36  C10 LIZ d   1       9.872 -14.649 -14.058  0.00  0.00     0.163 C 
ATOM     37  H9  LIZ d   1      10.466 -14.746 -14.978  0.00  0.00     0.093 H 
ATOM     38  H10 LIZ d   1       9.359 -13.676 -14.054  0.00  0.00     0.093 H 
BRANCH  36  39
ATOM     39  C9  LIZ d   1       8.858 -15.771 -13.973  0.00  0.00     0.199 C 
ATOM     40  O10 LIZ d   1       8.536 -16.217 -12.851  0.00  0.00    -0.647 OA
ATOM     41  O9  LIZ d   1       8.409 -16.188 -15.041  0.00  0.00    -0.647 OA
ENDBRANCH  36  39
ENDBRANCH  28  36
ENDBRANCH  23  28
ENDBRANCH   4  12
ENDBRANCH   1   4
BRANCH   1  42
ATOM     42  C11 LIZ d   1      10.543 -17.662  -8.679  0.00  0.00     0.132 C 
ATOM     43  H27 LIZ d   1       9.793 -18.361  -9.078  0.00  0.00     0.087 H 
BRANCH  42  44
ATOM     44  N1  LIZ d   1       9.863 -16.361  -8.464  0.00  0.00    -0.046 N 
ATOM     45  H1  LIZ d   1       9.666 -15.971  -9.372  0.00  0.00     0.281 HD
BRANCH  44  46
ATOM     46  C4  LIZ d   1      10.736 -15.422  -7.704  0.00  0.00     0.163 C 
ATOM     47  H3  LIZ d   1      11.477 -15.998  -7.131  0.00  0.00     0.093 H 
ATOM     48  H4  LIZ d   1      10.118 -14.829  -7.013  0.00  0.00     0.093 H 
BRANCH  46  49
ATOM     49  C3  LIZ d   1      11.457 -14.487  -8.661  0.00  0.00     0.199 C 
ATOM     50  O4  LIZ d   1      11.001 -14.409  -9.835  0.00  0.00    -0.647 OA
ATOM     51  O3  LIZ d   1      12.466 -13.851  -8.241  0.00  0.00    -0.647 OA
ENDBRANCH  46  49
ENDBRANCH  44  46
BRANCH  44  52
ATOM     52  C2  LIZ d   1       8.649 -16.430  -7.732  0.00  0.00     0.163 C 
ATOM     53  H28 LIZ d   1       8.908 -16.428  -6.663  0.00  0.00     0.093 H 
ATOM     54  H29 LIZ d   1       8.162 -17.382  -7.990  0.00  0.00     0.093 H 
BRANCH  52  55
ATOM     55  C1  LIZ d   1       7.732 -15.431  -7.935  0.00  0.00     0.199 C 
ATOM     56  O2  LIZ d   1       7.931 -14.533  -8.791  0.00  0.00    -0.647 OA
ATOM     57  O1  LIZ d   1       6.680 -15.413  -7.270  0.00  0.00    -0.647 OA
ENDBRANCH  52  55
ENDBRANCH  44  52
ENDBRANCH  42  44
BRANCH  42  58
ATOM     58  C25 LIZ d   1      11.135 -18.313  -7.406  0.00  0.00    -0.013 C 
ATOM     59  H30 LIZ d   1      10.387 -18.261  -6.601  0.00  0.00     0.043 H 
ATOM     60  H31 LIZ d   1      12.034 -17.753  -7.108  0.00  0.00     0.043 H 
BRANCH  58  61
ATOM     61  C19 LIZ d   1      11.516 -19.769  -7.626  0.00  0.00    -0.056 A 
ATOM     62  C20 LIZ d   1      10.557 -20.734  -7.959  0.00  0.00    -0.075 A 
ATOM     63  C21 LIZ d   1      10.930 -22.069  -8.145  0.00  0.00    -0.057 A 
ATOM     64  H16 LIZ d   1       9.519 -20.444  -8.073  0.00  0.00     0.084 H 
ATOM     65  C22 LIZ d   1      12.268 -22.476  -7.994  0.00  0.00     0.034 A 
ATOM     66  H17 LIZ d   1      10.176 -22.802  -8.410  0.00  0.00     0.086 H 
ATOM     67  C23 LIZ d   1      13.210 -21.507  -7.660  0.00  0.00    -0.057 A 
ATOM     68  C24 LIZ d   1      12.849 -20.172  -7.480  0.00  0.00    -0.075 A 
ATOM     69  H32 LIZ d   1      14.247 -21.797  -7.537  0.00  0.00     0.086 H 
ATOM     70  H18 LIZ d   1      13.607 -19.440  -7.225  0.00  0.00     0.084 H 
BRANCH  65  71
ATOM     71  N4  LIZ d   1      12.702 -23.823  -8.169  0.00  0.00    -0.334 N 
ATOM     72  H33 LIZ d   1      13.463 -24.117  -7.591  0.00  0.00     0.168 HD
BRANCH  71  73
ATOM     73  C26 LIZ d   1      12.210 -24.750  -9.020  0.00  0.00     0.169 C 
ATOM     74  S1  LIZ d   1      10.926 -24.480 -10.068  0.00  0.00    -0.041 SA
ATOM     75  N5  LIZ d   1      12.712 -25.977  -9.100  0.00  0.00    -0.376 N 
ATOM     76  H34 LIZ d   1      12.321 -26.636  -9.742  0.00  0.00     0.158 HD
ATOM     77  H35 LIZ d   1      13.481 -26.242  -8.518  0.00  0.00     0.158 HD
ENDBRANCH  71  73
ENDBRANCH  65  71
ENDBRANCH  58  61
ENDBRANCH  42  58
ENDBRANCH   1  42
TORSDOF 19
