REMARK  19 active torsions:
REMARK  status: ('A' for Active; 'I' for Inactive)
REMARK    1  A    between atoms: N1_1  and  C4_3 
REMARK    2  A    between atoms: C11_29  and  N1_1 
REMARK    3  A    between atoms: N1_1  and  C2_33 
REMARK    4  A    between atoms: N3_2  and  C8_7 
REMARK    5  A    between atoms: N3_2  and  C10_8 
REMARK    6  A    between atoms: C14_22  and  N3_2 
REMARK    7  A    between atoms: C4_3  and  C3_30 
REMARK    8  A    between atoms: C6_5  and  C5_4 
REMARK    9  A    between atoms: N2_25  and  C6_5 
REMARK   10  A    between atoms: C8_7  and  C7_6 
REMARK   11  A    between atoms: C10_8  and  C9_19 
REMARK   12  A    between atoms: N2_25  and  C13_9 
REMARK   13  A    between atoms: C22_14  and  N4_40 
REMARK   14  A    between atoms: N4_40  and  C26_16 
REMARK   15  A    between atoms: C12_28  and  N2_25 
REMARK   16  A    between atoms: C11_29  and  C12_28 
REMARK   17  A    between atoms: C25_37  and  C11_29 
REMARK   18  A    between atoms: C2_33  and  C1_34 
REMARK   19  A    between atoms: C25_37  and  C19_38 
ROOT
ATOM      1  C12 LIZ d   1       2.230 -19.127   4.240  0.00  0.00     0.111 C 
ATOM      2  H25 LIZ d   1       2.354 -18.373   5.032  0.00  0.00     0.079 H 
ATOM      3  H26 LIZ d   1       1.665 -19.984   4.635  0.00  0.00     0.079 H 
ENDROOT
BRANCH   1   4
ATOM      4  N2  LIZ d   1       3.573 -19.595   3.808  0.00  0.00    -0.053 N 
ATOM      5  H24 LIZ d   1       3.969 -18.933   3.159  0.00  0.00     0.281 HD
BRANCH   4   6
ATOM      6  C6  LIZ d   1       3.448 -20.929   3.122  0.00  0.00     0.162 C 
ATOM      7  H5  LIZ d   1       4.395 -21.480   3.221  0.00  0.00     0.093 H 
ATOM      8  H6  LIZ d   1       2.637 -21.506   3.592  0.00  0.00     0.093 H 
BRANCH   6   9
ATOM      9  C5  LIZ d   1       3.129 -20.725   1.622  0.00  0.00     0.199 C 
ATOM     10  O6  LIZ d   1       3.349 -19.609   1.103  0.00  0.00    -0.647 OA
ATOM     11  O5  LIZ d   1       2.634 -21.654   0.988  0.00  0.00    -0.647 OA
ENDBRANCH   6   9
ENDBRANCH   4   6
BRANCH   4  12
ATOM     12  C13 LIZ d   1       4.477 -19.675   5.070  0.00  0.00     0.132 C 
ATOM     13  C15 LIZ d   1       3.977 -20.795   6.023  0.00  0.00    -0.036 C 
ATOM     14  C16 LIZ d   1       4.831 -20.859   7.304  0.00  0.00    -0.063 C 
ATOM     15  H12 LIZ d   1       4.037 -21.762   5.503  0.00  0.00     0.036 H 
ATOM     16  H13 LIZ d   1       2.932 -20.592   6.298  0.00  0.00     0.036 H 
ATOM     17  C17 LIZ d   1       6.333 -21.055   6.973  0.00  0.00    -0.063 C 
ATOM     18  H22 LIZ d   1       4.488 -21.702   7.921  0.00  0.00     0.033 H 
ATOM     19  H23 LIZ d   1       4.707 -19.920   7.864  0.00  0.00     0.033 H 
ATOM     20  C18 LIZ d   1       6.839 -19.938   6.057  0.00  0.00    -0.036 C 
ATOM     21  H14 LIZ d   1       6.912 -21.045   7.908  0.00  0.00     0.033 H 
ATOM     22  H15 LIZ d   1       6.468 -22.023   6.469  0.00  0.00     0.033 H 
ATOM     23  C14 LIZ d   1       5.992 -19.869   4.749  0.00  0.00     0.132 C 
ATOM     24  H20 LIZ d   1       7.890 -20.133   5.796  0.00  0.00     0.036 H 
ATOM     25  H21 LIZ d   1       6.765 -18.976   6.586  0.00  0.00     0.036 H 
ATOM     26  H19 LIZ d   1       6.089 -20.839   4.239  0.00  0.00     0.087 H 
ATOM     27  H11 LIZ d   1       4.379 -18.716   5.599  0.00  0.00     0.087 H 
BRANCH  23  28
ATOM     28  N3  LIZ d   1       6.550 -18.822   3.818  0.00  0.00    -0.046 N 
ATOM     29  H2  LIZ d   1       5.820 -18.550   3.178  0.00  0.00     0.281 HD
BRANCH  28  30
ATOM     30  C8  LIZ d   1       7.017 -17.581   4.544  0.00  0.00     0.163 C 
ATOM     31  H7  LIZ d   1       7.995 -17.771   5.010  0.00  0.00     0.093 H 
ATOM     32  H8  LIZ d   1       6.287 -17.310   5.321  0.00  0.00     0.093 H 
BRANCH  30  33
ATOM     33  C7  LIZ d   1       7.139 -16.454   3.546  0.00  0.00     0.199 C 
ATOM     34  O7  LIZ d   1       7.795 -15.422   3.872  0.00  0.00    -0.647 OA
ATOM     35  O8  LIZ d   1       6.625 -16.616   2.392  0.00  0.00    -0.647 OA
ENDBRANCH  30  33
ENDBRANCH  28  30
BRANCH  28  36
ATOM     36  C10 LIZ d   1       7.661 -19.412   3.045  0.00  0.00     0.163 C 
ATOM     37  H9  LIZ d   1       8.322 -19.982   3.715  0.00  0.00     0.093 H 
ATOM     38  H10 LIZ d   1       8.238 -18.616   2.552  0.00  0.00     0.093 H 
BRANCH  36  39
ATOM     39  C9  LIZ d   1       7.058 -20.340   1.998  0.00  0.00     0.199 C 
ATOM     40  O10 LIZ d   1       5.924 -20.068   1.552  0.00  0.00    -0.647 OA
ATOM     41  O9  LIZ d   1       7.703 -21.376   1.644  0.00  0.00    -0.647 OA
ENDBRANCH  36  39
ENDBRANCH  28  36
ENDBRANCH  23  28
ENDBRANCH   4  12
ENDBRANCH   1   4
BRANCH   1  42
ATOM     42  C11 LIZ d   1       1.434 -18.499   3.073  0.00  0.00     0.132 C 
ATOM     43  H27 LIZ d   1       1.343 -19.240   2.265  0.00  0.00     0.087 H 
BRANCH  42  44
ATOM     44  N1  LIZ d   1       2.181 -17.300   2.532  0.00  0.00    -0.046 N 
ATOM     45  H1  LIZ d   1       3.161 -17.533   2.493  0.00  0.00     0.281 HD
BRANCH  44  46
ATOM     46  C4  LIZ d   1       2.004 -16.148   3.407  0.00  0.00     0.163 C 
ATOM     47  H3  LIZ d   1       1.135 -16.316   4.061  0.00  0.00     0.093 H 
ATOM     48  H4  LIZ d   1       1.835 -15.249   2.796  0.00  0.00     0.093 H 
BRANCH  46  49
ATOM     49  C3  LIZ d   1       3.237 -15.953   4.254  0.00  0.00     0.199 C 
ATOM     50  O4  LIZ d   1       4.280 -16.588   3.957  0.00  0.00    -0.647 OA
ATOM     51  O3  LIZ d   1       3.161 -15.188   5.216  0.00  0.00    -0.647 OA
ENDBRANCH  46  49
ENDBRANCH  44  46
BRANCH  44  52
ATOM     52  C2  LIZ d   1       1.747 -16.940   1.223  0.00  0.00     0.163 C 
ATOM     53  H28 LIZ d   1       0.838 -16.331   1.339  0.00  0.00     0.093 H 
ATOM     54  H29 LIZ d   1       1.498 -17.873   0.696  0.00  0.00     0.093 H 
BRANCH  52  55
ATOM     55  C1  LIZ d   1       2.608 -16.235   0.416  0.00  0.00     0.199 C 
ATOM     56  O2  LIZ d   1       3.801 -16.113   0.757  0.00  0.00    -0.647 OA
ATOM     57  O1  LIZ d   1       2.199 -15.777  -0.642  0.00  0.00    -0.647 OA
ENDBRANCH  52  55
ENDBRANCH  44  52
ENDBRANCH  42  44
BRANCH  42  58
ATOM     58  C25 LIZ d   1      -0.026 -18.127   3.577  0.00  0.00    -0.013 C 
ATOM     59  H30 LIZ d   1      -0.571 -17.606   2.776  0.00  0.00     0.043 H 
ATOM     60  H31 LIZ d   1       0.044 -17.473   4.458  0.00  0.00     0.043 H 
BRANCH  58  61
ATOM     61  C19 LIZ d   1      -0.773 -19.417   3.952  0.00  0.00    -0.056 A 
ATOM     62  C20 LIZ d   1      -0.958 -20.460   3.012  0.00  0.00    -0.075 A 
ATOM     63  C21 LIZ d   1      -1.661 -21.645   3.419  0.00  0.00    -0.057 A 
ATOM     64  H16 LIZ d   1      -0.576 -20.366   2.002  0.00  0.00     0.084 H 
ATOM     65  C22 LIZ d   1      -2.174 -21.710   4.755  0.00  0.00     0.034 A 
ATOM     66  H17 LIZ d   1      -1.800 -22.471   2.731  0.00  0.00     0.086 H 
ATOM     67  C23 LIZ d   1      -1.943 -20.691   5.613  0.00  0.00    -0.057 A 
ATOM     68  C24 LIZ d   1      -1.243 -19.567   5.242  0.00  0.00    -0.075 A 
ATOM     69  H32 LIZ d   1      -2.322 -20.762   6.626  0.00  0.00     0.086 H 
ATOM     70  H18 LIZ d   1      -1.058 -18.788   5.972  0.00  0.00     0.084 H 
BRANCH  65  71
ATOM     71  N4  LIZ d   1      -2.777 -22.894   5.305  0.00  0.00    -0.334 N 
ATOM     72  H33 LIZ d   1      -2.564 -23.107   6.259  0.00  0.00     0.168 HD
BRANCH  71  73
ATOM     73  C26 LIZ d   1      -3.596 -23.740   4.665  0.00  0.00     0.169 C 
ATOM     74  S1  LIZ d   1      -4.050 -23.503   3.091  0.00  0.00    -0.041 SA
ATOM     75  N5  LIZ d   1      -4.088 -24.795   5.337  0.00  0.00    -0.376 N 
ATOM     76  H34 LIZ d   1      -4.701 -25.438   4.878  0.00  0.00     0.158 HD
ATOM     77  H35 LIZ d   1      -3.841 -24.936   6.296  0.00  0.00     0.158 HD
ENDBRANCH  71  73
ENDBRANCH  65  71
ENDBRANCH  58  61
ENDBRANCH  42  58
ENDBRANCH   1  42
TORSDOF 19
