REMARK  30 active torsions:
REMARK  status: ('A' for Active; 'I' for Inactive)
REMARK    1  A    between atoms: N_1  and  CA_2 
REMARK    2  A    between atoms: CA_2  and  C_3 
REMARK       I    between atoms: C_3  and  N_5 
REMARK    3  A    between atoms: N_5  and  CA_6 
REMARK    4  A    between atoms: CA_12  and  CB_15 
REMARK    5  A    between atoms: CB_15  and  CG_16 
REMARK    6  A    between atoms: CG_16  and  CD_17 
REMARK    7  A    between atoms: CD_17  and  NE_18 
REMARK       I    between atoms: NE_18  and  CZ_19 
REMARK       I    between atoms: CZ_19  and  NH1_20 
REMARK    8  A    between atoms: CA_23  and  CB_26 
REMARK    9  A    between atoms: CB_26  and  CG_27 
REMARK   10  A    between atoms: CG_27  and  CD1_28 
REMARK   11  A    between atoms: CG_27  and  CD2_29 
REMARK   12  A    between atoms: CA_31  and  CB_34 
REMARK   13  A    between atoms: CB_34  and  CG_35 
REMARK   14  A    between atoms: CZ_40  and  OH_41 
REMARK   15  A    between atoms: CA_47  and  CB_50 
REMARK   16  A    between atoms: CB_50  and  CG_51 
REMARK   17  A    between atoms: CA_58  and  CB_61 
REMARK   18  A    between atoms: CB_61  and  CG_62 
REMARK   19  A    between atoms: CG_62  and  CD_63 
REMARK   20  A    between atoms: CD_63  and  CE_64 
REMARK   21  A    between atoms: CE_64  and  NZ_65 
REMARK   22  A    between atoms: CA_67  and  CB_70 
REMARK   23  A    between atoms: CB_70  and  CG1_71 
REMARK   24  A    between atoms: CB_70  and  CG2_72 
REMARK   25  A    between atoms: CG1_71  and  CD1_73 
REMARK   26  A    between atoms: CA_75  and  CB_78 
REMARK   27  A    between atoms: CB_78  and  CG_79 
REMARK   28  A    between atoms: CA_89  and  C_90 
REMARK       I    between atoms: C_90  and  N_94 
REMARK   29  A    between atoms: N_94  and  CA_95 
REMARK   30  A    between atoms: CA_95  and  C_96 
ROOT
ATOM      1  N   GLY d   1       9.508 -25.793  21.051  0.00  0.00    -0.351 N 
ATOM      2  CA  GLY d   1      10.020 -24.566  21.628  0.00  0.00     0.069 C 
ATOM      3  C   GLY d   1       9.100 -23.377  21.429  0.00  0.00     0.236 C 
ATOM      4  O   GLY d   1       9.030 -22.493  22.280  0.00  0.00    -0.272 OA
ATOM      5  N   GLY d   1      -1.862 -17.547  21.356  0.00  0.00    -0.351 N 
ATOM      6  CA  GLY d   1      -3.153 -17.460  22.015  0.00  0.00     0.069 C 
ATOM      7  C   GLY d   1      -3.473 -18.636  22.918  0.00  0.00     0.236 C 
ATOM      8  O   GLY d   1      -4.535 -18.674  23.537  0.00  0.00    -0.272 OA
ATOM      9  H43 GLY d   1       8.871 -26.350  21.584  0.00  0.00     0.163 HD
ATOM     10  H44 GLY d   1      10.989 -24.339  21.160  0.00  0.00     0.078 H 
ATOM     11  H45 GLY d   1      10.161 -24.721  22.708  0.00  0.00     0.078 H 
ATOM     12  H86 GLY d   1      -1.063 -17.145  21.802  0.00  0.00     0.163 HD
ATOM     13  H87 GLY d   1      -3.932 -17.398  21.241  0.00  0.00     0.078 H 
ATOM     14  H88 GLY d   1      -3.168 -16.544  22.624  0.00  0.00     0.078 H 
ATOM     15  CA  CYS d   1       1.195 -24.604  24.725  0.00  0.00     0.098 C 
ATOM     16  C   CYS d   1       2.529 -24.353  24.031  0.00  0.00     0.241 C 
ATOM     17  O   CYS d   1       2.789 -23.253  23.542  0.00  0.00    -0.271 OA
ATOM     18  CB  CYS d   1       0.635 -23.294  25.283  0.00  0.00     0.013 C 
ATOM     19  SG  CYS d   1      -1.003 -23.447  26.030  0.00  0.00    -0.095 SA
ATOM     20  N   CYS d   1      -2.558 -19.596  23.000  0.00  0.00    -0.346 N 
ATOM     21  CA  CYS d   1      -2.780 -20.788  23.815  0.00  0.00     0.098 C 
ATOM     22  CB  CYS d   1      -1.746 -21.866  23.482  0.00  0.00     0.013 C 
ATOM     23  SG  CYS d   1      -2.040 -23.461  24.280  0.00  0.00    -0.095 SA
ATOM     24  H7  CYS d   1       0.487 -24.994  23.979  0.00  0.00     0.088 H 
ATOM     25  H8  CYS d   1       0.572 -22.567  24.460  0.00  0.00     0.053 H 
ATOM     26  H9  CYS d   1       1.330 -22.921  26.049  0.00  0.00     0.053 H 
ATOM     27  H89 CYS d   1      -1.701 -19.501  22.494  0.00  0.00     0.163 HD
ATOM     28  H90 CYS d   1      -3.780 -21.180  23.578  0.00  0.00     0.088 H 
ATOM     29  H91 CYS d   1      -0.757 -21.502  23.797  0.00  0.00     0.053 H 
ATOM     30  H92 CYS d   1      -1.750 -22.021  22.393  0.00  0.00     0.053 H 
ATOM     31  N   ARG d   1       3.371 -25.381  23.995  0.00  0.00    -0.346 N 
ATOM     32  CA  ARG d   1       4.674 -25.291  23.345  0.00  0.00     0.089 C 
ATOM     33  C   ARG d   1       4.833 -26.377  22.285  0.00  0.00     0.241 C 
ATOM     34  O   ARG d   1       4.513 -27.542  22.521  0.00  0.00    -0.271 OA
ATOM     35  H10 ARG d   1       3.103 -26.242  24.427  0.00  0.00     0.163 HD
ATOM     36  H11 ARG d   1       4.746 -24.311  22.850  0.00  0.00     0.087 H 
ATOM     37  N   LEU d   1       5.326 -25.984  21.116  0.00  0.00    -0.346 N 
ATOM     38  CA  LEU d   1       5.560 -26.922  20.026  0.00  0.00     0.089 C 
ATOM     39  C   LEU d   1       6.954 -26.706  19.453  0.00  0.00     0.241 C 
ATOM     40  O   LEU d   1       7.206 -25.717  18.763  0.00  0.00    -0.271 OA
ATOM     41  H23 LEU d   1       5.543 -25.017  20.980  0.00  0.00     0.163 HD
ATOM     42  H24 LEU d   1       5.495 -27.946  20.422  0.00  0.00     0.087 H 
ATOM     43  N   TYR d   1       7.851 -27.642  19.752  0.00  0.00    -0.346 N 
ATOM     44  CA  TYR d   1       9.261 -27.532  19.385  0.00  0.00     0.093 C 
ATOM     45  C   TYR d   1       9.858 -26.201  19.835  0.00  0.00     0.241 C 
ATOM     46  O   TYR d   1      10.610 -25.563  19.098  0.00  0.00    -0.271 OA
ATOM     47  H34 TYR d   1       7.547 -28.455  20.249  0.00  0.00     0.163 HD
ATOM     48  H35 TYR d   1       9.803 -28.331  19.912  0.00  0.00     0.088 H 
ATOM     49  N   PHE d   1       8.394 -23.357  20.303  0.00  0.00    -0.346 N 
ATOM     50  CA  PHE d   1       7.494 -22.256  19.980  0.00  0.00     0.093 C 
ATOM     51  C   PHE d   1       6.240 -22.279  20.836  0.00  0.00     0.241 C 
ATOM     52  O   PHE d   1       5.627 -23.329  21.021  0.00  0.00    -0.271 OA
ATOM     53  H46 PHE d   1       8.482 -24.118  19.660  0.00  0.00     0.163 HD
ATOM     54  H47 PHE d   1       8.027 -21.310  20.155  0.00  0.00     0.088 H 
ATOM     55  N   LYS d   1       5.849 -21.116  21.341  0.00  0.00    -0.346 N 
ATOM     56  CA  LYS d   1       4.563 -20.988  22.005  0.00  0.00     0.089 C 
ATOM     57  C   LYS d   1       3.482 -20.945  20.932  0.00  0.00     0.241 C 
ATOM     58  O   LYS d   1       3.682 -20.368  19.863  0.00  0.00    -0.271 OA
ATOM     59  H55 LYS d   1       6.447 -20.318  21.264  0.00  0.00     0.163 HD
ATOM     60  H56 LYS d   1       4.399 -21.863  22.651  0.00  0.00     0.087 H 
ATOM     61  N   ILE d   1       2.350 -21.581  21.202  0.00  0.00    -0.346 N 
ATOM     62  CA  ILE d   1       1.221 -21.512  20.284  0.00  0.00     0.092 C 
ATOM     63  C   ILE d   1       0.456 -20.216  20.526  0.00  0.00     0.241 C 
ATOM     64  O   ILE d   1       0.027 -19.943  21.646  0.00  0.00    -0.271 OA
ATOM     65  H68 ILE d   1       2.271 -22.114  22.045  0.00  0.00     0.163 HD
ATOM     66  H69 ILE d   1       1.611 -21.503  19.255  0.00  0.00     0.088 H 
ATOM     67  N   HIS d   1       0.306 -19.417  19.474  0.00  0.00    -0.346 N 
ATOM     68  CA  HIS d   1      -0.306 -18.093  19.577  0.00  0.00     0.094 C 
ATOM     69  C   HIS d   1      -1.709 -18.145  20.177  0.00  0.00     0.241 C 
ATOM     70  O   HIS d   1      -2.624 -18.725  19.594  0.00  0.00    -0.271 OA
ATOM     71  H79 HIS d   1       0.623 -19.733  18.580  0.00  0.00     0.163 HD
ATOM     72  H80 HIS d   1       0.322 -17.483  20.243  0.00  0.00     0.088 H 
ENDROOT
BRANCH  32  73
ATOM     73  CB  ARG d   1       5.796 -25.394  24.381  0.00  0.00    -0.036 C 
ATOM     74  H12 ARG d   1       6.750 -25.505  23.845  0.00  0.00     0.036 H 
ATOM     75  H13 ARG d   1       5.615 -26.288  24.996  0.00  0.00     0.036 H 
BRANCH  73  76
ATOM     76  CG  ARG d   1       5.909 -24.192  25.309  0.00  0.00    -0.048 C 
ATOM     77  H14 ARG d   1       6.375 -24.513  26.252  0.00  0.00     0.035 H 
ATOM     78  H15 ARG d   1       4.900 -23.803  25.512  0.00  0.00     0.035 H 
BRANCH  76  79
ATOM     79  CD  ARG d   1       6.751 -23.081  24.696  0.00  0.00     0.009 C 
ATOM     80  H16 ARG d   1       6.255 -22.720  23.783  0.00  0.00     0.064 H 
ATOM     81  H17 ARG d   1       7.742 -23.485  24.440  0.00  0.00     0.064 H 
BRANCH  79  82
ATOM     82  NE  ARG d   1       6.921 -21.960  25.617  0.00  0.00    -0.227 N 
ATOM     83  CZ  ARG d   1       7.714 -20.917  25.390  0.00  0.00     0.665 C 
ATOM     84  NH1 ARG d   1       8.420 -20.849  24.270  0.00  0.00    -0.235 N 
ATOM     85  NH2 ARG d   1       7.804 -19.944  26.287  0.00  0.00    -0.235 N 
ATOM     86  H19 ARG d   1       9.034 -20.040  24.096  0.00  0.00     0.174 HD
ATOM     87  H20 ARG d   1       8.355 -21.605  23.573  0.00  0.00     0.174 HD
ATOM     88  H21 ARG d   1       7.257 -19.994  27.158  0.00  0.00     0.174 HD
ATOM     89  H22 ARG d   1       8.421 -19.138  26.113  0.00  0.00     0.174 HD
ATOM     90  H18 ARG d   1       6.392 -21.979  26.500  0.00  0.00     0.177 HD
ENDBRANCH  79  82
ENDBRANCH  76  79
ENDBRANCH  73  76
ENDBRANCH  32  73
BRANCH  15  91
ATOM     91  N   CYS d   1       1.328 -25.594  25.787  0.00  0.00    -0.346 N 
ATOM     92  C   GLY d   1       0.776 -26.799  25.692  0.00  0.00     0.243 C 
ATOM     93  O   GLY d   1       0.123 -27.162  24.713  0.00  0.00    -0.272 OA
ATOM     94  H6  CYS d   1       1.848 -25.360  26.608  0.00  0.00     0.163 HD
BRANCH  92  95
ATOM     95  CA  GLY d   1       0.990 -27.727  26.871  0.00  0.00     0.152 C 
ATOM     96  H4  GLY d   1       0.665 -28.739  26.588  0.00  0.00     0.090 H 
ATOM     97  H5  GLY d   1       2.062 -27.742  27.119  0.00  0.00     0.090 H 
BRANCH  95  98
ATOM     98  N   GLY d   1       0.246 -27.310  28.044  0.00  0.00    -0.071 N 
ATOM     99  H1  GLY d   1       0.419 -27.955  28.799  0.00  0.00     0.274 HD
ATOM    100  H2  GLY d   1      -0.739 -27.299  27.831  0.00  0.00     0.274 HD
ATOM    101  H3  GLY d   1       0.541 -26.386  28.318  0.00  0.00     0.274 HD
ENDBRANCH  95  98
ENDBRANCH  92  95
ENDBRANCH  15  91
BRANCH  38 102
ATOM    102  CB  LEU d   1       4.500 -26.753  18.936  0.00  0.00    -0.035 C 
ATOM    103  H25 LEU d   1       4.632 -25.752  18.499  0.00  0.00     0.037 H 
ATOM    104  H26 LEU d   1       3.514 -26.814  19.421  0.00  0.00     0.037 H 
BRANCH 102 105
ATOM    105  CG  LEU d   1       4.510 -27.762  17.786  0.00  0.00    -0.059 C 
ATOM    106  H27 LEU d   1       5.437 -27.622  17.211  0.00  0.00     0.038 H 
BRANCH 105 107
ATOM    107  CD1 LEU d   1       4.488 -29.184  18.317  0.00  0.00    -0.073 C 
ATOM    108  H28 LEU d   1       4.496 -29.890  17.474  0.00  0.00     0.028 H 
ATOM    109  H29 LEU d   1       3.578 -29.338  18.916  0.00  0.00     0.028 H 
ATOM    110  H30 LEU d   1       5.374 -29.354  18.946  0.00  0.00     0.028 H 
ENDBRANCH 105 107
BRANCH 105 111
ATOM    111  CD2 LEU d   1       3.330 -27.518  16.859  0.00  0.00    -0.073 C 
ATOM    112  H31 LEU d   1       3.365 -26.484  16.486  0.00  0.00     0.028 H 
ATOM    113  H32 LEU d   1       2.392 -27.678  17.410  0.00  0.00     0.028 H 
ATOM    114  H33 LEU d   1       3.380 -28.216  16.010  0.00  0.00     0.028 H 
ENDBRANCH 105 111
ENDBRANCH 102 105
ENDBRANCH  38 102
BRANCH  44 115
ATOM    115  CB  TYR d   1       9.460 -27.754  17.884  0.00  0.00    -0.014 C 
ATOM    116  H36 TYR d   1      10.528 -27.632  17.650  0.00  0.00     0.043 H 
ATOM    117  H37 TYR d   1       8.876 -26.999  17.337  0.00  0.00     0.043 H 
BRANCH 115 118
ATOM    118  CG  TYR d   1       9.020 -29.127  17.429  0.00  0.00    -0.056 A 
ATOM    119  CD1 TYR d   1       9.772 -30.253  17.735  0.00  0.00    -0.074 A 
ATOM    120  CE1 TYR d   1       9.372 -31.512  17.330  0.00  0.00    -0.051 A 
ATOM    121  H38 TYR d   1      10.689 -30.143  18.302  0.00  0.00     0.084 H 
ATOM    122  CZ  TYR d   1       8.205 -31.658  16.610  0.00  0.00     0.065 A 
ATOM    123  H40 TYR d   1       9.972 -32.380  17.577  0.00  0.00     0.087 H 
ATOM    124  CE2 TYR d   1       7.438 -30.556  16.295  0.00  0.00    -0.051 A 
ATOM    125  CD2 TYR d   1       7.847 -29.299  16.706  0.00  0.00    -0.074 A 
ATOM    126  H41 TYR d   1       6.521 -30.673  15.729  0.00  0.00     0.087 H 
ATOM    127  H39 TYR d   1       7.241 -28.434  16.459  0.00  0.00     0.084 H 
BRANCH 122 128
ATOM    128  OH  TYR d   1       7.805 -32.911  16.209  0.00  0.00    -0.361 OA
ATOM    129  H42 TYR d   1       8.439 -33.554  16.504  0.00  0.00     0.217 HD
ENDBRANCH 122 128
ENDBRANCH 115 118
ENDBRANCH  44 115
BRANCH  21 130
ATOM    130  C   CYS d   1      -2.733 -20.473  25.308  0.00  0.00     0.241 C 
ATOM    131  O   CYS d   1      -2.032 -19.553  25.729  0.00  0.00    -0.271 OA
ATOM    132  N   GLY d   1      -3.492 -21.247  26.085  0.00  0.00    -0.349 N 
ATOM    133  H93 GLY d   1      -4.096 -21.908  25.640  0.00  0.00     0.163 HD
BRANCH 132 134
ATOM    134  CA  GLY d   1      -3.498 -21.191  27.542  0.00  0.00     0.075 C 
ATOM    135  H94 GLY d   1      -2.704 -21.863  27.900  0.00  0.00     0.080 H 
ATOM    136  H95 GLY d   1      -4.475 -21.564  27.882  0.00  0.00     0.080 H 
BRANCH 134 137
ATOM    137  C   GLY d   1      -3.277 -19.839  28.194  0.00  0.00     0.191 C 
ATOM    138  O   GLY d   1      -4.247 -19.090  28.488  0.00  0.00    -0.647 OA
ATOM    139  O   GLY d   1      -2.103 -19.458  28.446  0.00  0.00    -0.647 OA
ENDBRANCH 134 137
ENDBRANCH 132 134
ENDBRANCH  21 130
BRANCH  50 140
ATOM    140  CB  PHE d   1       7.065 -22.325  18.514  0.00  0.00    -0.014 C 
ATOM    141  H48 PHE d   1       6.284 -21.569  18.347  0.00  0.00     0.043 H 
ATOM    142  H49 PHE d   1       6.653 -23.327  18.322  0.00  0.00     0.043 H 
BRANCH 140 143
ATOM    143  CG  PHE d   1       8.174 -22.078  17.539  0.00  0.00    -0.056 A 
ATOM    144  CD1 PHE d   1       8.624 -20.792  17.292  0.00  0.00    -0.077 A 
ATOM    145  CE1 PHE d   1       9.640 -20.564  16.382  0.00  0.00    -0.082 A 
ATOM    146  H50 PHE d   1       8.176 -19.956  17.817  0.00  0.00     0.084 H 
ATOM    147  CZ  PHE d   1      10.210 -21.625  15.702  0.00  0.00    -0.083 A 
ATOM    148  H52 PHE d   1       9.990 -19.554  16.202  0.00  0.00     0.083 H 
ATOM    149  CE2 PHE d   1       9.764 -22.910  15.933  0.00  0.00    -0.082 A 
ATOM    150  H54 PHE d   1      11.006 -21.447  14.988  0.00  0.00     0.083 H 
ATOM    151  CD2 PHE d   1       8.750 -23.131  16.845  0.00  0.00    -0.077 A 
ATOM    152  H53 PHE d   1      10.208 -23.744  15.401  0.00  0.00     0.083 H 
ATOM    153  H51 PHE d   1       8.400 -24.142  17.020  0.00  0.00     0.084 H 
ENDBRANCH 140 143
ENDBRANCH  50 140
BRANCH  68 154
ATOM    154  CB  HIS d   1      -0.339 -17.420  18.201  0.00  0.00     0.004 C 
ATOM    155  H81 HIS d   1      -0.965 -18.030  17.533  0.00  0.00     0.046 H 
ATOM    156  H82 HIS d   1       0.688 -17.383  17.809  0.00  0.00     0.046 H 
BRANCH 154 157
ATOM    157  CG  HIS d   1      -0.886 -16.028  18.216  0.00  0.00     0.053 A 
ATOM    158  ND1 HIS d   1      -0.301 -15.004  18.930  0.00  0.00    -0.247 NA
ATOM    159  CE1 HIS d   1      -0.996 -13.894  18.754  0.00  0.00     0.064 A 
ATOM    160  NE2 HIS d   1      -2.009 -14.161  17.949  0.00  0.00    -0.359 N 
ATOM    161  H84 HIS d   1      -0.772 -12.925  19.197  0.00  0.00     0.143 H 
ATOM    162  CD2 HIS d   1      -1.962 -15.487  17.597  0.00  0.00     0.002 A 
ATOM    163  H85 HIS d   1      -2.719 -13.484  17.636  0.00  0.00     0.166 HD
ATOM    164  H83 HIS d   1      -2.660 -16.007  16.942  0.00  0.00     0.114 H 
ENDBRANCH 154 157
ENDBRANCH  68 154
BRANCH  56 165
ATOM    165  CB  LYS d   1       4.522 -19.726  22.869  0.00  0.00    -0.038 C 
ATOM    166  H57 LYS d   1       4.420 -18.856  22.203  0.00  0.00     0.036 H 
ATOM    167  H58 LYS d   1       5.471 -19.656  23.421  0.00  0.00     0.036 H 
BRANCH 165 168
ATOM    168  CG  LYS d   1       3.381 -19.691  23.876  0.00  0.00    -0.061 C 
ATOM    169  H59 LYS d   1       3.272 -20.686  24.331  0.00  0.00     0.033 H 
ATOM    170  H60 LYS d   1       2.450 -19.422  23.356  0.00  0.00     0.033 H 
BRANCH 168 171
ATOM    171  CD  LYS d   1       3.653 -18.669  24.971  0.00  0.00    -0.043 C 
ATOM    172  H61 LYS d   1       3.950 -17.719  24.503  0.00  0.00     0.035 H 
ATOM    173  H62 LYS d   1       4.473 -19.038  25.605  0.00  0.00     0.035 H 
BRANCH 171 174
ATOM    174  CE  LYS d   1       2.429 -18.425  25.844  0.00  0.00     0.080 C 
ATOM    175  H63 LYS d   1       1.621 -18.025  25.214  0.00  0.00     0.075 H 
ATOM    176  H64 LYS d   1       2.690 -17.688  26.618  0.00  0.00     0.075 H 
BRANCH 174 177
ATOM    177  NZ  LYS d   1       1.944 -19.664  26.510  0.00  0.00    -0.079 N 
ATOM    178  H65 LYS d   1       1.136 -19.449  27.073  0.00  0.00     0.274 HD
ATOM    179  H66 LYS d   1       2.673 -20.037  27.097  0.00  0.00     0.274 HD
ATOM    180  H67 LYS d   1       1.694 -20.346  25.811  0.00  0.00     0.274 HD
ENDBRANCH 174 177
ENDBRANCH 171 174
ENDBRANCH 168 171
ENDBRANCH 165 168
ENDBRANCH  56 165
BRANCH  62 181
ATOM    181  CB  ILE d   1       0.289 -22.729  20.431  0.00  0.00    -0.030 C 
ATOM    182  H70 ILE d   1      -0.010 -22.816  21.486  0.00  0.00     0.043 H 
BRANCH 181 183
ATOM    183  CG1 ILE d   1       1.027 -24.008  20.025  0.00  0.00    -0.063 C 
ATOM    184  H71 ILE d   1       1.923 -24.106  20.656  0.00  0.00     0.033 H 
ATOM    185  H72 ILE d   1       1.329 -23.914  18.971  0.00  0.00     0.033 H 
BRANCH 183 186
ATOM    186  CD1 ILE d   1       0.201 -25.268  20.173  0.00  0.00    -0.076 C 
ATOM    187  H76 ILE d   1       0.799 -26.137  19.863  0.00  0.00     0.027 H 
ATOM    188  H77 ILE d   1      -0.695 -25.195  19.540  0.00  0.00     0.027 H 
ATOM    189  H78 ILE d   1      -0.101 -25.387  21.224  0.00  0.00     0.027 H 
ENDBRANCH 183 186
ENDBRANCH 181 183
BRANCH 181 190
ATOM    190  CG2 ILE d   1      -0.966 -22.551  19.586  0.00  0.00    -0.071 C 
ATOM    191  H73 ILE d   1      -1.484 -21.629  19.889  0.00  0.00     0.028 H 
ATOM    192  H74 ILE d   1      -1.633 -23.413  19.735  0.00  0.00     0.028 H 
ATOM    193  H75 ILE d   1      -0.686 -22.482  18.524  0.00  0.00     0.028 H 
ENDBRANCH 181 190
ENDBRANCH  62 181
TORSDOF 30
