REMARK  2 active torsions:
REMARK  status: ('A' for Active; 'I' for Inactive)
REMARK    1  A    between atoms: C18_9  and  C24_11 
REMARK    2  A    between atoms: C23_17  and  C6_20 
ROOT
ATOM      1  C24 IR1 d   1       4.689  -8.818   6.074  0.00  0.00     0.054 A 
ATOM      2  C12 IR1 d   1       4.904  -8.079   4.815  0.00  0.00     0.073 A 
ATOM      3  C11 IR1 d   1       4.283  -8.133   3.570  0.00  0.00    -0.054 A 
ATOM      4  C10 IR1 d   1       4.770  -7.294   2.569  0.00  0.00    -0.079 A 
ATOM      5  C9  IR1 d   1       5.862  -6.467   2.859  0.00  0.00    -0.066 A 
ATOM      6  C8  IR1 d   1       6.450  -6.486   4.123  0.00  0.00     0.004 A 
ATOM      7  C23 IR1 d   1       5.713  -8.289   7.019  0.00  0.00     0.102 A 
ATOM      8  N22 IR1 d   1       6.459  -7.374   6.354  0.00  0.00    -0.166 NA
ATOM      9  N7  IR1 d   1       5.945  -7.303   5.066  0.00  0.00    -0.244 N 
ATOM     10  H2  IR1 d   1       3.447  -8.806   3.385  0.00  0.00     0.087 H 
ATOM     11  H3  IR1 d   1       4.311  -7.282   1.582  0.00  0.00     0.083 H 
ATOM     12  H4  IR1 d   1       6.255  -5.803   2.091  0.00  0.00     0.085 H 
ATOM     13  H5  IR1 d   1       7.305  -5.849   4.344  0.00  0.00     0.114 H 
ENDROOT
BRANCH   1  14
ATOM     14  C18 IR1 d   1       3.617  -9.804   6.307  0.00  0.00     0.095 A 
ATOM     15  C17 IR1 d   1       3.584 -10.601   7.453  0.00  0.00    -0.034 A 
ATOM     16  C16 IR1 d   1       2.506 -11.465   7.542  0.00  0.00     0.075 A 
ATOM     17  H1  IR1 d   1       4.349 -10.547   8.219  0.00  0.00     0.088 H 
ATOM     18  C27 IR1 d   1       2.028 -12.460   8.503  0.00  0.00     0.235 A 
ATOM     19  C15 IR1 d   1       1.459 -11.529   6.513  0.00  0.00     0.207 A 
ATOM     20  O28 IR1 d   1       2.703 -12.802   9.747  0.00  0.00    -0.167 OA
ATOM     21  N26 IR1 d   1       0.879 -13.040   8.127  0.00  0.00    -0.119 NA
ATOM     22  N25 IR1 d   1       0.559 -12.461   6.880  0.00  0.00    -0.125 NA
ATOM     23  N14 IR1 d   1       1.575 -10.740   5.432  0.00  0.00    -0.127 NA
ATOM     24  N13 IR1 d   1       2.658  -9.873   5.351  0.00  0.00    -0.147 NA
ENDBRANCH   1  14
BRANCH   7  25
ATOM     25  C6  IR1 d   1       5.951  -8.637   8.438  0.00  0.00    -0.005 A 
ATOM     26  C1  IR1 d   1       7.054  -9.408   8.783  0.00  0.00    -0.071 A 
ATOM     27  C2  IR1 d   1       7.290  -9.689  10.128  0.00  0.00    -0.082 A 
ATOM     28  H6  IR1 d   1       7.722  -9.786   8.017  0.00  0.00     0.084 H 
ATOM     29  C3  IR1 d   1       6.431  -9.196  11.103  0.00  0.00    -0.083 A 
ATOM     30  H10 IR1 d   1       8.144 -10.292  10.414  0.00  0.00     0.083 H 
ATOM     31  C4  IR1 d   1       5.308  -8.425  10.747  0.00  0.00    -0.082 A 
ATOM     32  H9  IR1 d   1       6.628  -9.407  12.148  0.00  0.00     0.083 H 
ATOM     33  C5  IR1 d   1       5.084  -8.128   9.402  0.00  0.00    -0.071 A 
ATOM     34  H8  IR1 d   1       4.625  -8.066  11.509  0.00  0.00     0.083 H 
ATOM     35  H7  IR1 d   1       4.244  -7.508   9.111  0.00  0.00     0.084 H 
ENDBRANCH   7  25
TORSDOF 2
