REMARK  1 active torsions:
REMARK  status: ('A' for Active; 'I' for Inactive)
REMARK    1  A    between atoms: C15_13  and  N20_14 
ROOT
ATOM      1 BR1  T28 d   1      95.056  51.190 118.523  0.00  0.00    -0.051 Br
ATOM      2  C12 T28 d   1      96.079  50.164 119.754  0.00  0.00     0.011 A 
ATOM      3  C6  T28 d   1      96.310  48.803 119.565  0.00  0.00    -0.053 A 
ATOM      4  C2  T28 d   1      97.074  48.100 120.504  0.00  0.00     0.006 A 
ATOM      5  C5  T28 d   1      97.600  48.742 121.614  0.00  0.00     0.043 A 
ATOM      6  C11 T28 d   1      97.371  50.099 121.799  0.00  0.00    -0.055 A 
ATOM      7  C17 T28 d   1      96.615  50.804 120.870  0.00  0.00    -0.064 A 
ATOM      8  C1  T28 d   1      97.443  46.755 120.569  0.00  0.00     0.029 A 
ATOM      9  C4  T28 d   1      98.199  46.625 121.728  0.00  0.00     0.023 A 
ATOM     10  N9  T28 d   1      98.282  47.830 122.337  0.00  0.00    -0.358 N 
ATOM     11  C3  T28 d   1      97.097  45.724 119.540  0.00  0.00     0.096 A 
ATOM     12  N8  T28 d   1      96.194  46.118 118.617  0.00  0.00    -0.062 NA
ATOM     13  C15 T28 d   1      95.797  45.325 117.609  0.00  0.00     0.720 A 
ATOM     14  N19 T28 d   1      96.309  44.088 117.484  0.00  0.00    -0.075 NA
ATOM     15  C13 T28 d   1      97.212  43.649 118.364  0.00  0.00     0.029 A 
ATOM     16  C7  T28 d   1      97.650  44.449 119.415  0.00  0.00    -0.010 A 
ATOM     17  C14 T28 d   1      98.674  43.801 120.331  0.00  0.00    -0.037 C 
ATOM     18  C16 T28 d   1      99.573  44.775 121.055  0.00  0.00    -0.056 C 
ATOM     19  C10 T28 d   1      98.845  45.366 122.237  0.00  0.00    -0.025 C 
ATOM     20  H1  T28 d   1      95.902  48.294 118.699  0.00  0.00     0.087 H 
ATOM     21  H2  T28 d   1      97.780  50.607 122.665  0.00  0.00     0.087 H 
ATOM     22  H3  T28 d   1      96.440  51.864 121.015  0.00  0.00     0.085 H 
ATOM     23  H4  T28 d   1      98.786  48.021 123.215  0.00  0.00     0.166 HD
ATOM     24  H7  T28 d   1      97.613  42.647 118.257  0.00  0.00     0.116 H 
ATOM     25  H8  T28 d   1      99.306  43.136 119.724  0.00  0.00     0.040 H 
ATOM     26  H9  T28 d   1      98.135  43.207 121.084  0.00  0.00     0.040 H 
ATOM     27  H10 T28 d   1      99.866  45.582 120.367  0.00  0.00     0.034 H 
ATOM     28  H11 T28 d   1     100.472  44.249 121.407  0.00  0.00     0.034 H 
ATOM     29  H12 T28 d   1      98.082  44.666 122.607  0.00  0.00     0.042 H 
ATOM     30  H13 T28 d   1      99.553  45.598 123.046  0.00  0.00     0.042 H 
ENDROOT
BRANCH  13  31
ATOM     31  N20 T28 d   1      94.880  45.777 116.726  0.00  0.00    -0.231 N 
ATOM     32  H5  T28 d   1      94.492  46.726 116.827  0.00  0.00     0.174 HD
ATOM     33  H6  T28 d   1      94.569  45.173 115.952  0.00  0.00     0.174 HD
ENDBRANCH  13  31
TORSDOF 1
