REMARK  12 active torsions:
REMARK  status: ('A' for Active; 'I' for Inactive)
REMARK    1  A    between atoms: N3_1  and  C15_2 
REMARK    2  A    between atoms: C17_6  and  O2_7 
REMARK    3  A    between atoms: O2_7  and  C18_8 
REMARK    4  A    between atoms: C18_8  and  C19_9 
REMARK    5  A    between atoms: C19_9  and  O3_10 
REMARK    6  A    between atoms: O3_10  and  C20_11 
REMARK    7  A    between atoms: C14_12  and  C11_13 
REMARK    8  A    between atoms: C6_21  and  C5_22 
REMARK    9  A    between atoms: C4_23  and  C1_24 
REMARK   10  A    between atoms: C1_24  and  C3_25 
REMARK   11  A    between atoms: C1_24  and  C2_26 
REMARK   12  A    between atoms: C1_24  and  O1_27 
ROOT
ATOM      1  C11 13V d   1      17.483  14.877  87.048  0.00  0.00     0.024 A 
ATOM      2  C10 13V d   1      17.436  16.127  86.470  0.00  0.00    -0.009 A 
ATOM      3  N1  13V d   1      16.165  16.469  86.260  0.00  0.00    -0.364 N 
ATOM      4  C12 13V d   1      16.152  14.457  87.146  0.00  0.00     0.006 A 
ATOM      5  C9  13V d   1      15.326  15.489  86.650  0.00  0.00     0.043 A 
ATOM      6  C8  13V d   1      13.944  15.436  86.614  0.00  0.00    -0.055 A 
ATOM      7  C7  13V d   1      13.329  14.305  87.088  0.00  0.00    -0.063 A 
ATOM      8  C13 13V d   1      15.488  13.335  87.615  0.00  0.00    -0.052 A 
ATOM      9  C6  13V d   1      14.094  13.279  87.598  0.00  0.00     0.018 A 
ATOM     10  H11 13V d   1      18.302  16.740  86.223  0.00  0.00     0.112 H 
ATOM     11  H12 13V d   1      15.863  17.366  85.853  0.00  0.00     0.165 HD
ATOM     12  H13 13V d   1      13.364  16.264  86.223  0.00  0.00     0.087 H 
ATOM     13  H14 13V d   1      12.249  14.219  87.061  0.00  0.00     0.085 H 
ATOM     14  H15 13V d   1      16.056  12.495  87.998  0.00  0.00     0.087 H 
ENDROOT
BRANCH   1  15
ATOM     15  C14 13V d   1      18.751  14.100  87.396  0.00  0.00     0.123 A 
ATOM     16  N2  13V d   1      18.635  12.840  87.891  0.00  0.00    -0.060 NA
ATOM     17  C15 13V d   1      19.744  12.166  88.128  0.00  0.00     0.720 A 
ATOM     18  N4  13V d   1      20.971  12.579  87.958  0.00  0.00    -0.073 NA
ATOM     19  C16 13V d   1      21.144  13.825  87.471  0.00  0.00     0.055 A 
ATOM     20  C17 13V d   1      20.064  14.650  87.137  0.00  0.00     0.117 A 
ATOM     21  H3  13V d   1      22.152  14.199  87.334  0.00  0.00     0.120 H 
BRANCH  17  22
ATOM     22  N3  13V d   1      19.589  10.927  88.612  0.00  0.00    -0.231 N 
ATOM     23  H1  13V d   1      18.643  10.549  88.766  0.00  0.00     0.174 HD
ATOM     24  H2  13V d   1      20.415  10.352  88.830  0.00  0.00     0.174 HD
ENDBRANCH  17  22
BRANCH  20  25
ATOM     25  O2  13V d   1      20.193  15.966  86.653  0.00  0.00    -0.345 OA
BRANCH  25  26
ATOM     26  C18 13V d   1      21.193  16.567  85.867  0.00  0.00     0.046 C 
ATOM     27  H4  13V d   1      21.351  15.973  84.955  0.00  0.00     0.078 H 
ATOM     28  H5  13V d   1      22.131  16.616  86.440  0.00  0.00     0.078 H 
BRANCH  26  29
ATOM     29  C19 13V d   1      20.746  17.999  85.481  0.00  0.00     0.039 C 
ATOM     30  H6  13V d   1      21.652  18.574  85.238  0.00  0.00     0.077 H 
ATOM     31  H7  13V d   1      20.256  18.441  86.361  0.00  0.00     0.077 H 
BRANCH  29  32
ATOM     32  O3  13V d   1      19.845  18.128  84.377  0.00  0.00    -0.394 OA
BRANCH  32  33
ATOM     33  C20 13V d   1      18.889  19.167  84.333  0.00  0.00     0.004 C 
ATOM     34  H8  13V d   1      18.302  19.086  83.406  0.00  0.00     0.066 H 
ATOM     35  H9  13V d   1      19.403  20.139  84.357  0.00  0.00     0.066 H 
ATOM     36  H10 13V d   1      18.218  19.085  85.201  0.00  0.00     0.066 H 
ENDBRANCH  32  33
ENDBRANCH  29  32
ENDBRANCH  26  29
ENDBRANCH  25  26
ENDBRANCH  20  25
ENDBRANCH   1  15
BRANCH   9  37
ATOM     37  C5  13V d   1      13.504  12.115  88.077  0.00  0.00    -0.064 C 
ATOM     38  C4  13V d   1      12.978  11.090  88.467  0.00  0.00    -0.064 C 
BRANCH  38  39
ATOM     39  C1  13V d   1      12.345   9.814  88.910  0.00  0.00     0.114 C 
BRANCH  39  40
ATOM     40  C3  13V d   1      12.253   9.864  90.389  0.00  0.00    -0.038 C 
ATOM     41  H16 13V d   1      11.790   8.938  90.759  0.00  0.00     0.033 H 
ATOM     42  H17 13V d   1      11.639  10.726  90.689  0.00  0.00     0.033 H 
ATOM     43  H18 13V d   1      13.262   9.965  90.816  0.00  0.00     0.033 H 
ENDBRANCH  39  40
BRANCH  39  44
ATOM     44  C2  13V d   1      13.187   8.667  88.414  0.00  0.00    -0.038 C 
ATOM     45  H19 13V d   1      13.217   8.683  87.314  0.00  0.00     0.033 H 
ATOM     46  H20 13V d   1      12.750   7.717  88.755  0.00  0.00     0.033 H 
ATOM     47  H21 13V d   1      14.209   8.764  88.810  0.00  0.00     0.033 H 
ENDBRANCH  39  44
BRANCH  39  48
ATOM     48  O1  13V d   1      11.075   9.701  88.386  0.00  0.00    -0.378 OA
ATOM     49  H22 13V d   1      10.556  10.452  88.650  0.00  0.00     0.211 HD
ENDBRANCH  39  48
ENDBRANCH  38  39
ENDBRANCH   9  37
TORSDOF 12
