REMARK  3 active torsions:
REMARK  status: ('A' for Active; 'I' for Inactive)
REMARK    1  A    between atoms: C2_2  and  C1_1 
REMARK       I    between atoms: N1_9  and  C2_2 
REMARK    2  A    between atoms: C4_3  and  C5_4 
REMARK    3  A    between atoms: C4_3  and  N1_9 
ROOT
ATOM      1  C2  OGA d   1      31.263  -6.903 -23.271  0.00  0.00     0.318 C 
ATOM      2  O2' OGA d   1      31.359  -5.715 -23.535  0.00  0.00    -0.261 OA
ATOM      3  N1  OGA d   1      32.021  -7.510 -22.238  0.00  0.00    -0.342 N 
ATOM      4  H3  OGA d   1      31.914  -8.483 -22.035  0.00  0.00     0.163 HD
ENDROOT
BRANCH   3   5
ATOM      5  C4  OGA d   1      32.934  -6.715 -21.496  0.00  0.00     0.075 C 
ATOM      6  H1  OGA d   1      33.479  -6.050 -22.182  0.00  0.00     0.080 H 
ATOM      7  H2  OGA d   1      32.379  -6.111 -20.763  0.00  0.00     0.080 H 
BRANCH   5   8
ATOM      8  C5  OGA d   1      33.906  -7.590 -20.780  0.00  0.00     0.191 C 
ATOM      9  O3  OGA d   1      34.518  -7.138 -19.777  0.00  0.00    -0.647 OA
ATOM     10  O4  OGA d   1      34.105  -8.784 -21.166  0.00  0.00    -0.647 OA
ENDBRANCH   5   8
ENDBRANCH   3   5
BRANCH   1  11
ATOM     11  C1  OGA d   1      30.285  -7.720 -24.020  0.00  0.00     0.270 C 
ATOM     12  O1  OGA d   1      30.435  -8.975 -24.100  0.00  0.00    -0.640 OA
ATOM     13  O2  OGA d   1      29.301  -7.094 -24.525  0.00  0.00    -0.640 OA
ENDBRANCH   1  11
TORSDOF 3
