REMARK  2 active torsions:
REMARK  status: ('A' for Active; 'I' for Inactive)
REMARK    1  A    between atoms: C41_2  and  C4_4 
REMARK    2  A    between atoms: C2_8  and  C21_10 
ROOT
ATOM      1  C4  PD2 d   1      33.040  -6.991 -22.003  0.00  0.00     0.044 A 
ATOM      2  C5  PD2 d   1      32.553  -5.803 -21.493  0.00  0.00    -0.049 A 
ATOM      3  C6  PD2 d   1      31.475  -5.172 -22.090  0.00  0.00     0.004 A 
ATOM      4  C3  PD2 d   1      32.421  -7.554 -23.110  0.00  0.00    -0.032 A 
ATOM      5  C2  PD2 d   1      31.333  -6.861 -23.656  0.00  0.00     0.133 A 
ATOM      6  N1  PD2 d   1      30.882  -5.701 -23.152  0.00  0.00    -0.254 NA
ATOM      7  H1  PD2 d   1      33.018  -5.362 -20.619  0.00  0.00     0.087 H 
ATOM      8  H2  PD2 d   1      31.111  -4.235 -21.685  0.00  0.00     0.114 H 
ATOM      9  H3  PD2 d   1      32.765  -8.490 -23.534  0.00  0.00     0.089 H 
ENDROOT
BRANCH   1  10
ATOM     10  C41 PD2 d   1      34.217  -7.606 -21.305  0.00  0.00     0.209 C 
ATOM     11  O42 PD2 d   1      34.817  -8.591 -21.808  0.00  0.00    -0.644 OA
ATOM     12  O41 PD2 d   1      34.622  -7.157 -20.192  0.00  0.00    -0.644 OA
ENDBRANCH   1  10
BRANCH   5  13
ATOM     13  C21 PD2 d   1      30.598  -7.416 -24.820  0.00  0.00     0.229 C 
ATOM     14  O21 PD2 d   1      29.554  -6.839 -25.247  0.00  0.00    -0.643 OA
ATOM     15  O22 PD2 d   1      31.009  -8.486 -25.336  0.00  0.00    -0.643 OA
ENDBRANCH   5  13
TORSDOF 2
