REMARK  14 active torsions:
REMARK  status: ('A' for Active; 'I' for Inactive)
REMARK    1  A    between atoms: C1_2  and  C5_4 
REMARK    2  A    between atoms: C5_4  and  N16_5 
REMARK    3  A    between atoms: C5_4  and  C15_6 
REMARK    4  A    between atoms: C5_4  and  C6_10 
REMARK    5  A    between atoms: C15_6  and  C19_7 
REMARK    6  A    between atoms: C19_7  and  C20_8 
REMARK    7  A    between atoms: C20_8  and  O21_9 
REMARK    8  A    between atoms: C6_10  and  C7_11 
REMARK    9  A    between atoms: C7_11  and  C8_12 
REMARK   10  A    between atoms: C8_12  and  C9_13 
REMARK   11  A    between atoms: C9_13  and  B10_14 
REMARK   12  A    between atoms: B10_14  and  O13_16 
REMARK   13  A    between atoms: B10_14  and  O11_17 
REMARK   14  A    between atoms: B10_14  and  O23_15 
ROOT
ATOM      1  C6  1EC d   1      35.082  86.567  70.660  0.00  0.00    -0.024 C 
ATOM      2  H11 1EC d   1      34.857  85.502  70.499  0.00  0.00     0.037 H 
ATOM      3  H12 1EC d   1      36.024  86.662  71.220  0.00  0.00     0.037 H 
ENDROOT
BRANCH   1   4
ATOM      4  C5  1EC d   1      33.964  87.171  71.499  0.00  0.00     0.210 C 
BRANCH   4   5
ATOM      5  C1  1EC d   1      34.147  88.660  71.666  0.00  0.00     0.210 C 
ATOM      6  O3  1EC d   1      35.210  89.103  72.165  0.00  0.00    -0.646 OA
ATOM      7  O2  1EC d   1      33.216  89.416  71.299  0.00  0.00    -0.646 OA
ENDBRANCH   4   5
BRANCH   4   8
ATOM      8  N16 1EC d   1      32.661  86.924  70.860  0.00  0.00    -0.060 N 
ATOM      9  H1  1EC d   1      32.527  85.932  70.743  0.00  0.00     0.275 HD
ATOM     10  H2  1EC d   1      32.638  87.375  69.959  0.00  0.00     0.275 HD
ATOM     11  H3  1EC d   1      31.926  87.296  71.441  0.00  0.00     0.275 HD
ENDBRANCH   4   8
BRANCH   4  12
ATOM     12  C15 1EC d   1      34.013  86.492  72.870  0.00  0.00    -0.022 C 
ATOM     13  H4  1EC d   1      35.040  86.564  73.258  0.00  0.00     0.037 H 
ATOM     14  H5  1EC d   1      33.742  85.433  72.745  0.00  0.00     0.037 H 
BRANCH  12  15
ATOM     15  C19 1EC d   1      33.067  87.116  73.888  0.00  0.00    -0.043 C 
ATOM     16  H6  1EC d   1      32.090  87.295  73.416  0.00  0.00     0.036 H 
ATOM     17  H7  1EC d   1      33.486  88.071  74.238  0.00  0.00     0.036 H 
BRANCH  15  18
ATOM     18  C20 1EC d   1      32.891  86.173  75.078  0.00  0.00     0.017 C 
ATOM     19  H8  1EC d   1      32.422  86.711  75.915  0.00  0.00     0.073 H 
ATOM     20  H9  1EC d   1      33.870  85.783  75.394  0.00  0.00     0.073 H 
BRANCH  18  21
ATOM     21  O21 1EC d   1      32.045  85.089  74.658  0.00  0.00    -0.401 OA
ATOM     22  H10 1EC d   1      31.920  84.487  75.382  0.00  0.00     0.209 HD
ENDBRANCH  18  21
ENDBRANCH  15  18
ENDBRANCH  12  15
ENDBRANCH   4  12
ENDBRANCH   1   4
BRANCH   1  23
ATOM     23  C7  1EC d   1      35.264  87.229  69.301  0.00  0.00    -0.063 C 
ATOM     24  H13 1EC d   1      35.558  88.278  69.451  0.00  0.00     0.033 H 
ATOM     25  H14 1EC d   1      34.310  87.190  68.754  0.00  0.00     0.033 H 
BRANCH  23  26
ATOM     26  C8  1EC d   1      36.343  86.523  68.471  0.00  0.00    -0.071 C 
ATOM     27  H15 1EC d   1      35.890  85.681  67.927  0.00  0.00     0.032 H 
ATOM     28  H16 1EC d   1      37.129  86.146  69.142  0.00  0.00     0.032 H 
BRANCH  26  29
ATOM     29  C9  1EC d   1      36.961  87.499  67.467  0.00  0.00    -0.069 C 
ATOM     30  H18 1EC d   1      37.142  88.466  67.959  0.00  0.00     0.023 H 
ATOM     31  H19 1EC d   1      36.271  87.641  66.622  0.00  0.00     0.023 H 
BRANCH  29  32
ATOM     32  B10 1EC d   1      37.266  86.834  66.055  0.00  0.00     0.318 B 
BRANCH  32  33
ATOM     33  O13 1EC d   1      36.277  85.866  65.445  0.00  0.00     0.000 OA
ATOM     34  H21 1EC d   1      35.597  86.352  64.993  0.00  0.00     0.000 HD
ATOM     35  H22 1EC d   1      35.597  86.352  64.993  0.00  0.00     0.000 HD
ENDBRANCH  32  33
BRANCH  32  36
ATOM     36  O11 1EC d   1      37.971  87.746  65.079  0.00  0.00     0.000 OA
ATOM     37  H23 1EC d   1      37.328  88.273  64.619  0.00  0.00     0.000 HD
ATOM     38  H24 1EC d   1      37.328  88.273  64.619  0.00  0.00     0.000 HD
ENDBRANCH  32  36
BRANCH  32  39
ATOM     39  O23 1EC d   1      38.393  85.844  66.405  0.00  0.00    -0.467 OA
ATOM     40  H20 1EC d   1      38.956  85.175  65.920  0.00  0.00     0.181 HD
ENDBRANCH  32  39
ENDBRANCH  29  32
ENDBRANCH  26  29
ENDBRANCH  23  26
ENDBRANCH   1  23
TORSDOF 14
