REMARK  14 active torsions:
REMARK  status: ('A' for Active; 'I' for Inactive)
REMARK    1  A    between atoms: C1_2  and  C4_4 
REMARK    2  A    between atoms: C4_4  and  N5_5 
REMARK    3  A    between atoms: C4_4  and  C6_6 
REMARK    4  A    between atoms: C4_4  and  C13_14 
REMARK    5  A    between atoms: C6_6  and  C7_7 
REMARK    6  A    between atoms: C7_7  and  C8_8 
REMARK    7  A    between atoms: C8_8  and  C9_9 
REMARK    8  A    between atoms: C9_9  and  B10_10 
REMARK    9  A    between atoms: B10_10  and  O22_11 
REMARK   10  A    between atoms: B10_10  and  O12_12 
REMARK   11  A    between atoms: B10_10  and  O11_13 
REMARK   12  A    between atoms: C13_14  and  C14_15 
REMARK   13  A    between atoms: C14_15  and  N15_16 
REMARK   14  A    between atoms: C18_19  and  O21_20 
ROOT
ATOM      1  C4  1EE d   1      33.726  87.266  71.051  0.00  0.00     0.211 C 
ENDROOT
BRANCH   1   2
ATOM      2  C1  1EE d   1      34.003  88.699  71.444  0.00  0.00     0.210 C 
ATOM      3  O3  1EE d   1      35.064  88.948  72.069  0.00  0.00    -0.646 OA
ATOM      4  O2  1EE d   1      33.158  89.583  71.131  0.00  0.00    -0.646 OA
ENDBRANCH   1   2
BRANCH   1   5
ATOM      5  N5  1EE d   1      32.287  87.138  70.765  0.00  0.00    -0.060 N 
ATOM      6  H1  1EE d   1      32.080  86.188  70.500  0.00  0.00     0.275 HD
ATOM      7  H2  1EE d   1      32.038  87.759  70.011  0.00  0.00     0.275 HD
ATOM      8  H3  1EE d   1      31.758  87.380  71.588  0.00  0.00     0.275 HD
ENDBRANCH   1   5
BRANCH   1   9
ATOM      9  C6  1EE d   1      34.486  86.873  69.785  0.00  0.00    -0.024 C 
ATOM     10  H4  1EE d   1      34.405  87.706  69.071  0.00  0.00     0.037 H 
ATOM     11  H5  1EE d   1      34.001  85.980  69.364  0.00  0.00     0.037 H 
BRANCH   9  12
ATOM     12  C7  1EE d   1      35.966  86.557  69.969  0.00  0.00    -0.063 C 
ATOM     13  H6  1EE d   1      36.075  85.761  70.721  0.00  0.00     0.033 H 
ATOM     14  H7  1EE d   1      36.489  87.461  70.314  0.00  0.00     0.033 H 
BRANCH  12  15
ATOM     15  C8  1EE d   1      36.589  86.088  68.642  0.00  0.00    -0.071 C 
ATOM     16  H8  1EE d   1      35.877  85.420  68.135  0.00  0.00     0.032 H 
ATOM     17  H9  1EE d   1      37.516  85.538  68.863  0.00  0.00     0.032 H 
BRANCH  15  18
ATOM     18  C9  1EE d   1      36.921  87.252  67.705  0.00  0.00    -0.069 C 
ATOM     19  H10 1EE d   1      38.011  87.316  67.572  0.00  0.00     0.023 H 
ATOM     20  H11 1EE d   1      36.549  88.191  68.141  0.00  0.00     0.023 H 
BRANCH  18  21
ATOM     21  B10 1EE d   1      37.265  86.736  66.238  0.00  0.00     0.318 B 
BRANCH  21  22
ATOM     22  O22 1EE d   1      37.923  87.689  65.263  0.00  0.00     0.000 OA
ATOM     23  H13 1EE d   1      37.258  88.226  64.849  0.00  0.00     0.000 HD
ATOM     24  H14 1EE d   1      37.258  88.226  64.849  0.00  0.00     0.000 HD
ENDBRANCH  21  22
BRANCH  21  25
ATOM     25  O12 1EE d   1      36.269  85.802  65.598  0.00  0.00     0.000 OA
ATOM     26  H15 1EE d   1      35.578  86.310  65.189  0.00  0.00     0.000 HD
ATOM     27  H16 1EE d   1      35.578  86.310  65.189  0.00  0.00     0.000 HD
ENDBRANCH  21  25
BRANCH  21  28
ATOM     28  O11 1EE d   1      38.440  85.784  66.526  0.00  0.00    -0.467 OA
ATOM     29  H17 1EE d   1      39.068  85.177  66.038  0.00  0.00     0.181 HD
ENDBRANCH  21  28
ENDBRANCH  18  21
ENDBRANCH  15  18
ENDBRANCH  12  15
ENDBRANCH   9  12
ENDBRANCH   1   9
BRANCH   1  30
ATOM     30  C13 1EE d   1      34.099  86.380  72.236  0.00  0.00    -0.001 C 
ATOM     31  H18 1EE d   1      35.131  86.596  72.550  0.00  0.00     0.040 H 
ATOM     32  H19 1EE d   1      34.017  85.322  71.948  0.00  0.00     0.040 H 
BRANCH  30  33
ATOM     33  C14 1EE d   1      33.142  86.674  73.384  0.00  0.00     0.086 C 
ATOM     34  H20 1EE d   1      32.110  86.586  73.014  0.00  0.00     0.076 H 
ATOM     35  H21 1EE d   1      33.319  87.701  73.736  0.00  0.00     0.076 H 
BRANCH  33  36
ATOM     36  N15 1EE d   1      33.317  85.753  74.514  0.00  0.00    -0.071 N 
ATOM     37  C20 1EE d   1      32.191  85.919  75.455  0.00  0.00     0.086 C 
ATOM     38  C19 1EE d   1      32.296  84.889  76.581  0.00  0.00    -0.018 C 
ATOM     39  H23 1EE d   1      31.242  85.776  74.917  0.00  0.00     0.076 H 
ATOM     40  H24 1EE d   1      32.220  86.932  75.883  0.00  0.00     0.076 H 
ATOM     41  C18 1EE d   1      33.598  85.109  77.337  0.00  0.00     0.038 C 
ATOM     42  H25 1EE d   1      32.284  83.875  76.155  0.00  0.00     0.039 H 
ATOM     43  H26 1EE d   1      31.446  85.007  77.269  0.00  0.00     0.039 H 
ATOM     44  C17 1EE d   1      34.779  85.083  76.363  0.00  0.00    -0.018 C 
ATOM     45  H27 1EE d   1      33.565  86.088  77.836  0.00  0.00     0.083 H 
ATOM     46  C16 1EE d   1      34.588  86.059  75.202  0.00  0.00     0.086 C 
ATOM     47  H29 1EE d   1      34.882  84.066  75.958  0.00  0.00     0.039 H 
ATOM     48  H30 1EE d   1      35.695  85.355  76.908  0.00  0.00     0.039 H 
ATOM     49  H31 1EE d   1      34.559  87.089  75.588  0.00  0.00     0.076 H 
ATOM     50  H32 1EE d   1      35.424  85.956  74.494  0.00  0.00     0.076 H 
ATOM     51  H22 1EE d   1      33.337  84.803  74.176  0.00  0.00     0.279 HD
BRANCH  41  52
ATOM     52  O21 1EE d   1      33.758  84.083  78.323  0.00  0.00    -0.395 OA
ATOM     53  H28 1EE d   1      34.571  84.222  78.794  0.00  0.00     0.210 HD
ENDBRANCH  41  52
ENDBRANCH  33  36
ENDBRANCH  30  33
ENDBRANCH   1  30
TORSDOF 14
