REMARK  2 active torsions:
REMARK  status: ('A' for Active; 'I' for Inactive)
REMARK    1  A    between atoms: CAK_11  and  OAC_3 
REMARK    2  A    between atoms: CAL_12  and  CAJ_10 
ROOT
ATOM      1  CAD 8XQ d   1      31.143  -5.023 -20.895  0.00  0.00    -0.065 A 
ATOM      2  CAE 8XQ d   1      30.222  -4.729 -21.910  0.00  0.00     0.003 A 
ATOM      3  CAF 8XQ d   1      32.003  -8.127 -24.698  0.00  0.00    -0.048 A 
ATOM      4  CAG 8XQ d   1      32.947  -8.491 -23.739  0.00  0.00    -0.063 A 
ATOM      5  CAH 8XQ d   1      32.075  -6.043 -21.072  0.00  0.00    -0.068 A 
ATOM      6  NAI 8XQ d   1      30.251  -5.432 -23.050  0.00  0.00    -0.257 NA
ATOM      7  CAK 8XQ d   1      31.110  -7.096 -24.451  0.00  0.00     0.095 A 
ATOM      8  CAL 8XQ d   1      33.000  -7.813 -22.534  0.00  0.00     0.053 A 
ATOM      9  CAM 8XQ d   1      32.088  -6.768 -22.286  0.00  0.00     0.012 A 
ATOM     10  CAN 8XQ d   1      31.161  -6.422 -23.238  0.00  0.00     0.100 A 
ATOM     11  H2  8XQ d   1      31.130  -4.456 -19.971  0.00  0.00     0.085 H 
ATOM     12  H3  8XQ d   1      29.492  -3.939 -21.774  0.00  0.00     0.114 H 
ATOM     13  H4  8XQ d   1      31.967  -8.654 -25.644  0.00  0.00     0.087 H 
ATOM     14  H5  8XQ d   1      33.638  -9.303 -23.937  0.00  0.00     0.085 H 
ATOM     15  H6  8XQ d   1      32.784  -6.279 -20.286  0.00  0.00     0.085 H 
ENDROOT
BRANCH   8  16
ATOM     16  CAJ 8XQ d   1      34.028  -8.210 -21.535  0.00  0.00     0.210 C 
ATOM     17  OAA 8XQ d   1      34.179  -7.554 -20.472  0.00  0.00    -0.644 OA
ATOM     18  OAB 8XQ d   1      34.778  -9.200 -21.761  0.00  0.00    -0.644 OA
ENDBRANCH   8  16
BRANCH   7  19
ATOM     19  OAC 8XQ d   1      30.155  -6.717 -25.391  0.00  0.00    -0.358 OA
ATOM     20  H1  8XQ d   1      29.639  -5.999 -25.044  0.00  0.00     0.217 HD
ENDBRANCH   7  19
TORSDOF 2
