REMARK  4 active torsions:
REMARK  status: ('A' for Active; 'I' for Inactive)
REMARK    1  A    between atoms: CA_4  and  C_1 
REMARK    2  A    between atoms: N_2  and  CA_4 
REMARK       I    between atoms: C3_7  and  N_2 
REMARK    3  A    between atoms: C3_7  and  C4_9 
REMARK    4  A    between atoms: C8_14  and  O4_10 
ROOT
ATOM      1  N2  MD6 d   1      29.325  -6.504 -24.940  0.00  0.00    -0.253 NA
ATOM      2  C4  MD6 d   1      30.333  -7.271 -24.480  0.00  0.00     0.157 A 
ATOM      3  C5  MD6 d   1      28.346  -6.996 -25.714  0.00  0.00     0.003 A 
ATOM      4  C6  MD6 d   1      28.355  -8.350 -26.040  0.00  0.00    -0.063 A 
ATOM      5  C7  MD6 d   1      29.370  -9.187 -25.575  0.00  0.00    -0.047 A 
ATOM      6  C8  MD6 d   1      30.373  -8.623 -24.768  0.00  0.00     0.100 A 
ATOM      7  H5  MD6 d   1      27.558  -6.348 -26.081  0.00  0.00     0.114 H 
ATOM      8  H6  MD6 d   1      27.566  -8.758 -26.661  0.00  0.00     0.085 H 
ATOM      9  H7  MD6 d   1      29.384 -10.241 -25.829  0.00  0.00     0.087 H 
ENDROOT
BRANCH   2  10
ATOM     10  C3  MD6 d   1      31.356  -6.554 -23.638  0.00  0.00     0.273 C 
ATOM     11  N   MD6 d   1      32.153  -7.214 -22.835  0.00  0.00    -0.346 N 
ATOM     12  H1  MD6 d   1      32.224  -8.210 -22.884  0.00  0.00     0.163 HD
ATOM     13  O3  MD6 d   1      31.333  -5.335 -23.675  0.00  0.00    -0.266 OA
BRANCH  11  14
ATOM     14  CA  MD6 d   1      32.931  -6.456 -21.871  0.00  0.00     0.075 C 
ATOM     15  H2  MD6 d   1      33.458  -5.645 -22.395  0.00  0.00     0.080 H 
ATOM     16  H3  MD6 d   1      32.251  -6.027 -21.120  0.00  0.00     0.080 H 
BRANCH  14  17
ATOM     17  C   MD6 d   1      33.943  -7.329 -21.175  0.00  0.00     0.191 C 
ATOM     18  O   MD6 d   1      34.124  -8.567 -21.599  0.00  0.00    -0.647 OA
ATOM     19  OXT MD6 d   1      34.619  -6.899 -20.244  0.00  0.00    -0.647 OA
ENDBRANCH  14  17
ENDBRANCH  11  14
ENDBRANCH   2  10
BRANCH   6  20
ATOM     20  O4  MD6 d   1      31.367  -9.412 -24.313  0.00  0.00    -0.358 OA
ATOM     21  H4  MD6 d   1      31.224 -10.303 -24.611  0.00  0.00     0.217 HD
ENDBRANCH   6  20
TORSDOF 4
