REMARK  4 active torsions:
REMARK  status: ('A' for Active; 'I' for Inactive)
REMARK    1  A    between atoms: C16_2  and  C15_4 
REMARK    2  A    between atoms: C15_4  and  N14_5 
REMARK       I    between atoms: N14_5  and  C12_6 
REMARK    3  A    between atoms: C12_6  and  C9_8 
REMARK    4  A    between atoms: C10_13  and  O19_14 
ROOT
ATOM      1  C9  UN9 d   1      30.404  -7.382 -25.300  0.00  0.00     0.160 A 
ATOM      2  N8  UN9 d   1      29.093  -7.069 -25.409  0.00  0.00    -0.227 NA
ATOM      3  C7  UN9 d   1      28.424  -7.276 -26.566  0.00  0.00     0.138 A 
ATOM      4 CL1  UN9 d   1      26.661  -6.901 -26.677  0.00  0.00    -0.061 Cl
ATOM      5  C2  UN9 d   1      29.107  -7.789 -27.662  0.00  0.00     0.018 A 
ATOM      6  C10 UN9 d   1      31.108  -7.864 -26.378  0.00  0.00     0.111 A 
ATOM      7  C3  UN9 d   1      30.447  -8.090 -27.568  0.00  0.00     0.013 A 
ATOM      8  C4  UN9 d   1      31.141  -8.596 -28.651  0.00  0.00    -0.069 A 
ATOM      9  C5  UN9 d   1      30.493  -8.823 -29.845  0.00  0.00    -0.082 A 
ATOM     10  C6  UN9 d   1      29.152  -8.526 -29.943  0.00  0.00    -0.082 A 
ATOM     11  C1  UN9 d   1      28.458  -8.015 -28.856  0.00  0.00    -0.069 A 
ATOM     12  H5  UN9 d   1      32.199  -8.815 -28.560  0.00  0.00     0.085 H 
ATOM     13  H6  UN9 d   1      31.030  -9.229 -30.694  0.00  0.00     0.083 H 
ATOM     14  H7  UN9 d   1      28.633  -8.693 -30.880  0.00  0.00     0.083 H 
ATOM     15  H8  UN9 d   1      27.401  -7.793 -28.946  0.00  0.00     0.085 H 
ENDROOT
BRANCH   1  16
ATOM     16  C12 UN9 d   1      31.147  -7.060 -24.053  0.00  0.00     0.273 C 
ATOM     17  N14 UN9 d   1      31.896  -7.844 -23.307  0.00  0.00    -0.346 N 
ATOM     18  H3  UN9 d   1      31.977  -8.832 -23.435  0.00  0.00     0.163 HD
ATOM     19  O13 UN9 d   1      31.118  -5.877 -23.774  0.00  0.00    -0.266 OA
BRANCH  17  20
ATOM     20  C15 UN9 d   1      32.589  -7.095 -22.275  0.00  0.00     0.075 C 
ATOM     21  H1  UN9 d   1      32.947  -6.151 -22.711  0.00  0.00     0.080 H 
ATOM     22  H2  UN9 d   1      31.877  -6.878 -21.465  0.00  0.00     0.080 H 
BRANCH  20  23
ATOM     23  C16 UN9 d   1      33.756  -7.819 -21.696  0.00  0.00     0.191 C 
ATOM     24  O18 UN9 d   1      34.063  -8.938 -22.089  0.00  0.00    -0.647 OA
ATOM     25  O17 UN9 d   1      34.460  -7.255 -20.729  0.00  0.00    -0.647 OA
ENDBRANCH  20  23
ENDBRANCH  17  20
ENDBRANCH   1  16
BRANCH   6  26
ATOM     26  O19 UN9 d   1      32.429  -8.158 -26.270  0.00  0.00    -0.357 OA
ATOM     27  H4  UN9 d   1      32.751  -8.476 -27.105  0.00  0.00     0.217 HD
ENDBRANCH   6  26
TORSDOF 4
