REMARK  3 active torsions:
REMARK  status: ('A' for Active; 'I' for Inactive)
REMARK    1  A    between atoms: CAN_14  and  OAE_5 
REMARK    2  A    between atoms: CAO_15  and  OAF_6 
REMARK    3  A    between atoms: CAM_13  and  CAL_12 
ROOT
ATOM      1  OAB RHN d   1      27.218  -4.529 -31.692  0.00  0.00    -0.287 OA
ATOM      2  OAC RHN d   1      29.559  -7.762 -28.024  0.00  0.00    -0.286 OA
ATOM      3  CAG RHN d   1      25.066  -5.855 -28.235  0.00  0.00    -0.079 A 
ATOM      4  CAH RHN d   1      25.700  -6.663 -27.317  0.00  0.00    -0.050 A 
ATOM      5  CAI RHN d   1      25.701  -5.406 -29.379  0.00  0.00    -0.068 A 
ATOM      6  CAJ RHN d   1      31.757  -6.539 -31.381  0.00  0.00    -0.034 A 
ATOM      7  CAK RHN d   1      29.854  -5.287 -32.173  0.00  0.00    -0.051 A 
ATOM      8  CAM RHN d   1      31.179  -5.709 -32.338  0.00  0.00     0.044 A 
ATOM      9  CAN RHN d   1      27.000  -7.044 -27.547  0.00  0.00     0.080 A 
ATOM     10  CAO RHN d   1      31.056  -6.957 -30.262  0.00  0.00     0.082 A 
ATOM     11  CAP RHN d   1      27.744  -5.280 -30.835  0.00  0.00     0.194 A 
ATOM     12  CAQ RHN d   1      29.036  -7.009 -28.888  0.00  0.00     0.199 A 
ATOM     13  CAR RHN d   1      27.011  -5.763 -29.617  0.00  0.00     0.032 A 
ATOM     14  CAS RHN d   1      29.152  -5.718 -31.043  0.00  0.00     0.033 A 
ATOM     15  CAT RHN d   1      27.644  -6.584 -28.688  0.00  0.00     0.062 A 
ATOM     16  CAU RHN d   1      29.754  -6.555 -30.099  0.00  0.00     0.062 A 
ATOM     17  H3  RHN d   1      24.038  -5.562 -28.055  0.00  0.00     0.083 H 
ATOM     18  H4  RHN d   1      25.180  -6.994 -26.425  0.00  0.00     0.087 H 
ATOM     19  H5  RHN d   1      25.171  -4.777 -30.085  0.00  0.00     0.085 H 
ATOM     20  H6  RHN d   1      32.782  -6.866 -31.515  0.00  0.00     0.089 H 
ATOM     21  H7  RHN d   1      29.383  -4.641 -32.905  0.00  0.00     0.086 H 
ENDROOT
BRANCH   8  22
ATOM     22  CAL RHN d   1      32.006  -5.301 -33.537  0.00  0.00     0.209 C 
ATOM     23  OAA RHN d   1      31.521  -4.643 -34.450  0.00  0.00    -0.644 OA
ATOM     24  OAD RHN d   1      33.285  -5.666 -33.659  0.00  0.00    -0.644 OA
ENDBRANCH   8  22
BRANCH  10  25
ATOM     25  OAF RHN d   1      31.690  -7.783 -29.375  0.00  0.00    -0.360 OA
ATOM     26  H2  RHN d   1      31.100  -7.991 -28.660  0.00  0.00     0.217 HD
ENDBRANCH  10  25
BRANCH   9  27
ATOM     27  OAE RHN d   1      27.645  -7.835 -26.642  0.00  0.00    -0.360 OA
ATOM     28  H1  RHN d   1      28.529  -8.007 -26.946  0.00  0.00     0.217 HD
ENDBRANCH   9  27
TORSDOF 3
