REMARK  25 active torsions:
REMARK  status: ('A' for Active; 'I' for Inactive)
REMARK    1  A    between atoms: N_1  and  CA_2 
REMARK    2  A    between atoms: CA_2  and  C_3 
REMARK    3  A    between atoms: CA_2  and  CB_5 
REMARK       I    between atoms: C_3  and  N_12 
REMARK    4  A    between atoms: CB_5  and  CG_6 
REMARK    5  A    between atoms: CG_6  and  CD_7 
REMARK    6  A    between atoms: CD_7  and  NE_8 
REMARK       I    between atoms: NE_8  and  CZ_9 
REMARK       I    between atoms: CZ_9  and  NH1_10 
REMARK    7  A    between atoms: N_12  and  CA_13 
REMARK    8  A    between atoms: CA_13  and  CB_14 
REMARK    9  A    between atoms: CA_13  and  C_16 
REMARK   10  A    between atoms: CB_14  and  OG_15 
REMARK   11  A    between atoms: OG_15  and  P_18 
REMARK       I    between atoms: C_16  and  N_22 
REMARK   12  A    between atoms: CA_23  and  C_24 
REMARK       I    between atoms: C_24  and  N_29 
REMARK   13  A    between atoms: N_29  and  CA_30 
REMARK   14  A    between atoms: CA_30  and  C_31 
REMARK   15  A    between atoms: CA_30  and  CB_33 
REMARK       I    between atoms: C_31  and  N_36 
REMARK   16  A    between atoms: CB_33  and  CG1_34 
REMARK   17  A    between atoms: CB_33  and  CG2_35 
REMARK   18  A    between atoms: N_36  and  CA_37 
REMARK   19  A    between atoms: CA_37  and  C_38 
REMARK   20  A    between atoms: CA_37  and  CB_40 
REMARK       I    between atoms: C_38  and  N_47 
REMARK   21  A    between atoms: CB_40  and  CG_41 
REMARK   22  A    between atoms: N_47  and  CA_48 
REMARK   23  A    between atoms: CA_48  and  C_49 
REMARK   24  A    between atoms: CA_48  and  CB_51 
REMARK   25  A    between atoms: CB_51  and  OG_52 
ROOT
ATOM      1  C   SEP d   1     -15.556  15.665 -25.108  0.00  0.00     0.245 C 
ATOM      2  O   SEP d   1     -14.866  15.725 -24.102  0.00  0.00    -0.271 OA
ATOM      3  N   PRO d   1     -16.347  16.694 -25.484  0.00  0.00    -0.337 N 
ATOM      4  CA  PRO d   1     -16.231  17.919 -24.635  0.00  0.00     0.091 C 
ATOM      5  CB  PRO d   1     -17.230  18.890 -25.274  0.00  0.00    -0.036 C 
ATOM      6  CG  PRO d   1     -17.396  18.407 -26.699  0.00  0.00    -0.048 C 
ATOM      7  CD  PRO d   1     -17.276  16.901 -26.618  0.00  0.00    -0.001 C 
ATOM      8  H20 PRO d   1     -15.210  18.319 -24.715  0.00  0.00     0.087 H 
ATOM      9  H21 PRO d   1     -16.835  19.916 -25.258  0.00  0.00     0.036 H 
ATOM     10  H22 PRO d   1     -18.192  18.859 -24.742  0.00  0.00     0.036 H 
ATOM     11  H23 PRO d   1     -16.607  18.824 -27.343  0.00  0.00     0.035 H 
ATOM     12  H24 PRO d   1     -18.382  18.696 -27.093  0.00  0.00     0.035 H 
ATOM     13  H25 PRO d   1     -18.253  16.438 -26.416  0.00  0.00     0.064 H 
ATOM     14  H26 PRO d   1     -16.860  16.488 -27.549  0.00  0.00     0.064 H 
ENDROOT
BRANCH   4  15
ATOM     15  C   PRO d   1     -16.542  17.718 -23.136  0.00  0.00     0.241 C 
ATOM     16  O   PRO d   1     -17.417  16.902 -22.767  0.00  0.00    -0.271 OA
ATOM     17  N   VAL d   1     -15.820  18.457 -22.283  0.00  0.00    -0.346 N 
ATOM     18  H27 VAL d   1     -15.091  19.025 -22.665  0.00  0.00     0.163 HD
BRANCH  17  19
ATOM     19  CA  VAL d   1     -16.021  18.495 -20.820  0.00  0.00     0.092 C 
ATOM     20  H28 VAL d   1     -16.683  17.666 -20.527  0.00  0.00     0.088 H 
BRANCH  19  21
ATOM     21  C   VAL d   1     -16.699  19.824 -20.491  0.00  0.00     0.241 C 
ATOM     22  O   VAL d   1     -16.551  20.802 -21.225  0.00  0.00    -0.271 OA
ATOM     23  N   PHE d   1     -17.481  19.845 -19.415  0.00  0.00    -0.346 N 
ATOM     24  H36 PHE d   1     -17.527  19.036 -18.829  0.00  0.00     0.163 HD
BRANCH  23  25
ATOM     25  CA  PHE d   1     -18.273  21.020 -19.070  0.00  0.00     0.093 C 
ATOM     26  H37 PHE d   1     -17.992  21.855 -19.729  0.00  0.00     0.088 H 
BRANCH  25  27
ATOM     27  C   PHE d   1     -17.927  21.374 -17.668  0.00  0.00     0.241 C 
ATOM     28  O   PHE d   1     -18.406  20.750 -16.736  0.00  0.00    -0.271 OA
ATOM     29  N   SER d   1     -17.026  22.342 -17.545  0.00  0.00    -0.343 N 
ATOM     30  H45 SER d   1     -16.588  22.698 -18.371  0.00  0.00     0.163 HD
BRANCH  29  31
ATOM     31  CA  SER d   1     -16.648  22.908 -16.251  0.00  0.00     0.116 C 
ATOM     32  H46 SER d   1     -16.976  22.219 -15.459  0.00  0.00     0.093 H 
BRANCH  31  33
ATOM     33  C   SER d   1     -17.347  24.254 -16.057  0.00  0.00     0.198 C 
ATOM     34  O   SER d   1     -17.321  24.793 -14.964  0.00  0.00    -0.646 OA
ATOM     35  H   SER d   1     -17.865  24.728 -16.890  0.00  0.00    -0.646 OA
ENDBRANCH  31  33
BRANCH  31  36
ATOM     36  CB  SER d   1     -15.123  23.091 -16.139  0.00  0.00     0.045 C 
ATOM     37  H47 SER d   1     -14.843  23.042 -15.076  0.00  0.00     0.077 H 
ATOM     38  H48 SER d   1     -14.860  24.080 -16.542  0.00  0.00     0.077 H 
BRANCH  36  39
ATOM     39  OG  SER d   1     -14.380  22.103 -16.847  0.00  0.00    -0.398 OA
ATOM     40  H49 SER d   1     -14.605  22.140 -17.769  0.00  0.00     0.209 HD
ENDBRANCH  36  39
ENDBRANCH  31  36
ENDBRANCH  29  31
ENDBRANCH  25  27
BRANCH  25  41
ATOM     41  CB  PHE d   1     -19.787  20.742 -19.262  0.00  0.00    -0.014 C 
ATOM     42  H38 PHE d   1     -20.358  21.594 -18.864  0.00  0.00     0.043 H 
ATOM     43  H39 PHE d   1     -20.054  19.830 -18.707  0.00  0.00     0.043 H 
BRANCH  41  44
ATOM     44  CG  PHE d   1     -20.141  20.553 -20.701  0.00  0.00    -0.056 A 
ATOM     45  CD1 PHE d   1     -20.310  21.652 -21.530  0.00  0.00    -0.077 A 
ATOM     46  CE1 PHE d   1     -20.552  21.478 -22.882  0.00  0.00    -0.082 A 
ATOM     47  H40 PHE d   1     -20.252  22.653 -21.117  0.00  0.00     0.084 H 
ATOM     48  CZ  PHE d   1     -20.603  20.203 -23.428  0.00  0.00    -0.083 A 
ATOM     49  H42 PHE d   1     -20.703  22.343 -23.518  0.00  0.00     0.083 H 
ATOM     50  CE2 PHE d   1     -20.436  19.108 -22.622  0.00  0.00    -0.082 A 
ATOM     51  H44 PHE d   1     -20.775  20.074 -24.491  0.00  0.00     0.083 H 
ATOM     52  CD2 PHE d   1     -20.188  19.271 -21.266  0.00  0.00    -0.077 A 
ATOM     53  H43 PHE d   1     -20.498  18.111 -23.044  0.00  0.00     0.083 H 
ATOM     54  H41 PHE d   1     -20.029  18.401 -20.640  0.00  0.00     0.084 H 
ENDBRANCH  41  44
ENDBRANCH  25  41
ENDBRANCH  23  25
ENDBRANCH  19  21
BRANCH  19  55
ATOM     55  CB  VAL d   1     -14.678  18.353 -20.034  0.00  0.00    -0.033 C 
ATOM     56  H29 VAL d   1     -13.992  19.127 -20.410  0.00  0.00     0.042 H 
BRANCH  55  57
ATOM     57  CG1 VAL d   1     -14.867  18.590 -18.536  0.00  0.00    -0.071 C 
ATOM     58  H30 VAL d   1     -13.900  18.481 -18.023  0.00  0.00     0.028 H 
ATOM     59  H31 VAL d   1     -15.580  17.854 -18.135  0.00  0.00     0.028 H 
ATOM     60  H32 VAL d   1     -15.257  19.605 -18.372  0.00  0.00     0.028 H 
ENDBRANCH  55  57
BRANCH  55  61
ATOM     61  CG2 VAL d   1     -14.017  16.974 -20.287  0.00  0.00    -0.071 C 
ATOM     62  H33 VAL d   1     -13.889  16.822 -21.369  0.00  0.00     0.028 H 
ATOM     63  H34 VAL d   1     -14.658  16.179 -19.878  0.00  0.00     0.028 H 
ATOM     64  H35 VAL d   1     -13.034  16.942 -19.794  0.00  0.00     0.028 H 
ENDBRANCH  55  61
ENDBRANCH  19  55
ENDBRANCH  17  19
ENDBRANCH   4  15
BRANCH   1  65
ATOM     65  CA  SEP d   1     -15.535  14.395 -25.940  0.00  0.00     0.110 C 
ATOM     66  H17 SEP d   1     -16.150  14.528 -26.842  0.00  0.00     0.090 H 
BRANCH  65  67
ATOM     67  N   SEP d   1     -14.128  14.034 -26.368  0.00  0.00    -0.344 N 
ATOM     68  C   ARG d   1     -13.446  14.837 -27.194  0.00  0.00     0.249 C 
ATOM     69  O   ARG d   1     -13.934  15.908 -27.583  0.00  0.00    -0.271 OA
ATOM     70  H16 SEP d   1     -13.706  13.192 -26.032  0.00  0.00     0.163 HD
BRANCH  68  71
ATOM     71  CA  ARG d   1     -11.995  14.437 -27.660  0.00  0.00     0.176 C 
ATOM     72  H4  ARG d   1     -11.612  15.302 -28.222  0.00  0.00     0.099 H 
BRANCH  71  73
ATOM     73  N   ARG d   1     -11.042  14.217 -26.535  0.00  0.00    -0.067 N 
ATOM     74  H1  ARG d   1     -10.139  13.966 -26.904  0.00  0.00     0.275 HD
ATOM     75  H2  ARG d   1     -11.383  13.473 -25.946  0.00  0.00     0.275 HD
ATOM     76  H3  ARG d   1     -10.960  15.063 -25.994  0.00  0.00     0.275 HD
ENDBRANCH  71  73
BRANCH  71  77
ATOM     77  CB  ARG d   1     -11.982  13.249 -28.633  0.00  0.00    -0.029 C 
ATOM     78  H5  ARG d   1     -12.319  12.353 -28.091  0.00  0.00     0.036 H 
ATOM     79  H6  ARG d   1     -10.950  13.099 -28.984  0.00  0.00     0.036 H 
BRANCH  77  80
ATOM     80  CG  ARG d   1     -12.876  13.439 -29.844  0.00  0.00    -0.047 C 
ATOM     81  H7  ARG d   1     -13.830  13.874 -29.512  0.00  0.00     0.035 H 
ATOM     82  H8  ARG d   1     -13.061  12.456 -30.302  0.00  0.00     0.035 H 
BRANCH  80  83
ATOM     83  CD  ARG d   1     -12.261  14.356 -30.891  0.00  0.00     0.009 C 
ATOM     84  H9  ARG d   1     -11.571  15.057 -30.399  0.00  0.00     0.064 H 
ATOM     85  H10 ARG d   1     -13.060  14.920 -31.394  0.00  0.00     0.064 H 
BRANCH  83  86
ATOM     86  NE  ARG d   1     -11.525  13.572 -31.885  0.00  0.00    -0.227 N 
ATOM     87  CZ  ARG d   1     -10.307  13.036 -31.729  0.00  0.00     0.665 C 
ATOM     88  NH1 ARG d   1      -9.609  13.174 -30.598  0.00  0.00    -0.235 N 
ATOM     89  NH2 ARG d   1      -9.772  12.343 -32.733  0.00  0.00    -0.235 N 
ATOM     90  H12 ARG d   1      -8.675  12.748 -30.514  0.00  0.00     0.174 HD
ATOM     91  H13 ARG d   1     -10.005  13.707 -29.810  0.00  0.00     0.174 HD
ATOM     92  H14 ARG d   1     -10.294  12.225 -33.613  0.00  0.00     0.174 HD
ATOM     93  H15 ARG d   1      -8.836  11.925 -32.629  0.00  0.00     0.174 HD
ATOM     94  H11 ARG d   1     -11.989  13.418 -32.792  0.00  0.00     0.177 HD
ENDBRANCH  83  86
ENDBRANCH  80  83
ENDBRANCH  77  80
ENDBRANCH  71  77
ENDBRANCH  68  71
ENDBRANCH  65  67
BRANCH  65  95
ATOM     95  CB  SEP d   1     -16.164  13.320 -25.036  0.00  0.00     0.059 C 
ATOM     96  H18 SEP d   1     -16.896  13.803 -24.372  0.00  0.00     0.079 H 
ATOM     97  H19 SEP d   1     -15.368  12.860 -24.431  0.00  0.00     0.079 H 
BRANCH  95  98
ATOM     98  OG  SEP d   1     -16.836  12.279 -25.785  0.00  0.00    -0.280 OA
BRANCH  98  99
ATOM     99  P   SEP d   1     -17.191  10.897 -25.015  0.00  0.00     0.422 P 
ATOM    100  O1P SEP d   1     -17.887  10.125 -26.097  0.00  0.00    -0.617 OA
ATOM    101  O2P SEP d   1     -15.892  10.391 -24.390  0.00  0.00    -0.617 OA
ATOM    102  O3P SEP d   1     -18.139  11.310 -23.930  0.00  0.00    -0.617 OA
ENDBRANCH  98  99
ENDBRANCH  95  98
ENDBRANCH  65  95
ENDBRANCH   1  65
TORSDOF 25
