REMARK  24 active torsions:
REMARK  status: ('A' for Active; 'I' for Inactive)
REMARK    1  A    between atoms: N_1  and  CA_2 
REMARK    2  A    between atoms: CA_2  and  C_3 
REMARK    3  A    between atoms: CA_2  and  CB_5 
REMARK       I    between atoms: C_3  and  N_6 
REMARK    4  A    between atoms: N_6  and  CA_7 
REMARK    5  A    between atoms: CA_7  and  C_8 
REMARK    6  A    between atoms: CA_7  and  CB_10 
REMARK       I    between atoms: C_8  and  N_12 
REMARK    7  A    between atoms: CB_10  and  SG_11 
REMARK    8  A    between atoms: N_12  and  CA_13 
REMARK    9  A    between atoms: CA_13  and  CB_14 
REMARK   10  A    between atoms: CA_13  and  C_16 
REMARK   11  A    between atoms: CB_14  and  OG_15 
REMARK   12  A    between atoms: OG_15  and  P_18 
REMARK       I    between atoms: C_16  and  N_22 
REMARK   13  A    between atoms: CA_23  and  C_24 
REMARK       I    between atoms: C_24  and  N_29 
REMARK   14  A    between atoms: N_29  and  CA_30 
REMARK   15  A    between atoms: CA_30  and  C_31 
REMARK   16  A    between atoms: CA_30  and  CB_33 
REMARK       I    between atoms: C_31  and  N_38 
REMARK   17  A    between atoms: CB_33  and  CG_34 
REMARK   18  A    between atoms: CG_34  and  CD_35 
REMARK       I    between atoms: CD_35  and  NE2_37 
REMARK   19  A    between atoms: N_38  and  CA_39 
REMARK   20  A    between atoms: CA_39  and  C_40 
REMARK   21  A    between atoms: CA_39  and  CB_42 
REMARK       I    between atoms: C_40  and  N_49 
REMARK   22  A    between atoms: CB_42  and  CG_43 
REMARK   23  A    between atoms: N_49  and  CA_50 
REMARK   24  A    between atoms: CA_50  and  C_51 
ROOT
ATOM      1  C   SEP d   1      10.114 -12.551  11.730  0.00  0.00     0.245 C 
ATOM      2  O   SEP d   1      11.082 -12.655  12.545  0.00  0.00    -0.271 OA
ATOM      3  N   PRO d   1       9.705 -13.549  10.997  0.00  0.00    -0.337 N 
ATOM      4  CA  PRO d   1      10.253 -14.896  11.236  0.00  0.00     0.091 C 
ATOM      5  CB  PRO d   1       9.373 -15.793  10.362  0.00  0.00    -0.036 C 
ATOM      6  CG  PRO d   1       8.255 -15.024   9.891  0.00  0.00    -0.048 C 
ATOM      7  CD  PRO d   1       8.546 -13.582  10.097  0.00  0.00    -0.001 C 
ATOM      8  H17 PRO d   1      10.163 -15.176  12.296  0.00  0.00     0.087 H 
ATOM      9  H18 PRO d   1       9.012 -16.647  10.954  0.00  0.00     0.036 H 
ATOM     10  H19 PRO d   1       9.956 -16.161   9.505  0.00  0.00     0.036 H 
ATOM     11  H20 PRO d   1       7.351 -15.303  10.453  0.00  0.00     0.035 H 
ATOM     12  H21 PRO d   1       8.096 -15.220   8.820  0.00  0.00     0.035 H 
ATOM     13  H22 PRO d   1       8.787 -13.096   9.140  0.00  0.00     0.064 H 
ATOM     14  H23 PRO d   1       7.685 -13.077  10.558  0.00  0.00     0.064 H 
ENDROOT
BRANCH   4  15
ATOM     15  C   PRO d   1      11.697 -14.960  10.826  0.00  0.00     0.241 C 
ATOM     16  O   PRO d   1      12.126 -14.177   9.941  0.00  0.00    -0.271 OA
ATOM     17  N   GLN d   1      12.457 -15.780  11.530  0.00  0.00    -0.346 N 
ATOM     18  H24 GLN d   1      12.036 -16.246  12.308  0.00  0.00     0.163 HD
BRANCH  17  19
ATOM     19  CA  GLN d   1      13.888 -16.062  11.255  0.00  0.00     0.090 C 
ATOM     20  H25 GLN d   1      14.243 -15.333  10.512  0.00  0.00     0.087 H 
BRANCH  19  21
ATOM     21  C   GLN d   1      14.042 -17.488  10.655  0.00  0.00     0.241 C 
ATOM     22  O   GLN d   1      13.272 -18.416  10.969  0.00  0.00    -0.271 OA
ATOM     23  N   PHE d   1      15.053 -17.658   9.814  0.00  0.00    -0.346 N 
ATOM     24  H32 PHE d   1      15.687 -16.898   9.671  0.00  0.00     0.163 HD
BRANCH  23  25
ATOM     25  CA  PHE d   1      15.286 -18.924   9.076  0.00  0.00     0.093 C 
ATOM     26  H33 PHE d   1      14.525 -19.651   9.396  0.00  0.00     0.088 H 
BRANCH  25  27
ATOM     27  C   PHE d   1      16.646 -19.475   9.491  0.00  0.00     0.241 C 
ATOM     28  O   PHE d   1      17.751 -19.038   9.094  0.00  0.00    -0.271 OA
ATOM     29  N   GLY d   1      16.571 -20.411  10.466  0.00  0.00    -0.349 N 
ATOM     30  H41 GLY d   1      15.686 -20.673  10.852  0.00  0.00     0.163 HD
BRANCH  29  31
ATOM     31  CA  GLY d   1      17.765 -21.014  10.931  0.00  0.00     0.075 C 
ATOM     32  H42 GLY d   1      17.639 -21.361  11.967  0.00  0.00     0.080 H 
ATOM     33  H43 GLY d   1      18.598 -20.297  10.883  0.00  0.00     0.080 H 
BRANCH  31  34
ATOM     34  C   GLY d   1      18.035 -22.207   9.999  0.00  0.00     0.191 C 
ATOM     35  O   GLY d   1      19.048 -22.897  10.292  0.00  0.00    -0.647 OA
ATOM     36  O   GLY d   1      17.297 -22.475   9.014  0.00  0.00    -0.647 OA
ENDBRANCH  31  34
ENDBRANCH  29  31
ENDBRANCH  25  27
BRANCH  25  37
ATOM     37  CB  PHE d   1      15.104 -18.729   7.564  0.00  0.00    -0.014 C 
ATOM     38  H34 PHE d   1      15.300 -19.688   7.062  0.00  0.00     0.043 H 
ATOM     39  H35 PHE d   1      15.831 -17.979   7.218  0.00  0.00     0.043 H 
BRANCH  37  40
ATOM     40  CG  PHE d   1      13.755 -18.276   7.195  0.00  0.00    -0.056 A 
ATOM     41  CD1 PHE d   1      13.402 -16.897   7.211  0.00  0.00    -0.077 A 
ATOM     42  CE1 PHE d   1      12.127 -16.484   6.959  0.00  0.00    -0.082 A 
ATOM     43  H36 PHE d   1      14.165 -16.158   7.429  0.00  0.00     0.084 H 
ATOM     44  CZ  PHE d   1      11.142 -17.405   6.608  0.00  0.00    -0.083 A 
ATOM     45  H38 PHE d   1      11.878 -15.431   7.032  0.00  0.00     0.083 H 
ATOM     46  CE2 PHE d   1      11.470 -18.767   6.604  0.00  0.00    -0.082 A 
ATOM     47  H40 PHE d   1      10.144 -17.075   6.344  0.00  0.00     0.083 H 
ATOM     48  CD2 PHE d   1      12.773 -19.169   6.887  0.00  0.00    -0.077 A 
ATOM     49  H39 PHE d   1      10.710 -19.507   6.381  0.00  0.00     0.083 H 
ATOM     50  H37 PHE d   1      13.014 -20.226   6.861  0.00  0.00     0.084 H 
ENDBRANCH  37  40
ENDBRANCH  25  37
ENDBRANCH  23  25
ENDBRANCH  19  21
BRANCH  19  51
ATOM     51  CB  GLN d   1      14.746 -15.916  12.502  0.00  0.00    -0.030 C 
ATOM     52  H26 GLN d   1      15.797 -16.076  12.219  0.00  0.00     0.037 H 
ATOM     53  H27 GLN d   1      14.439 -16.686  13.225  0.00  0.00     0.037 H 
BRANCH  51  54
ATOM     54  CG  GLN d   1      14.634 -14.541  13.185  0.00  0.00     0.011 C 
ATOM     55  H28 GLN d   1      13.571 -14.326  13.370  0.00  0.00     0.047 H 
ATOM     56  H29 GLN d   1      15.051 -13.778  12.511  0.00  0.00     0.047 H 
BRANCH  54  57
ATOM     57  CD  GLN d   1      15.360 -14.480  14.474  0.00  0.00     0.215 C 
ATOM     58  OE1 GLN d   1      15.443 -15.489  15.194  0.00  0.00    -0.274 OA
ATOM     59  NE2 GLN d   1      15.898 -13.331  14.801  0.00  0.00    -0.370 N 
ATOM     60  H30 GLN d   1      16.398 -13.240  15.662  0.00  0.00     0.159 HD
ATOM     61  H31 GLN d   1      15.808 -12.545  14.190  0.00  0.00     0.159 HD
ENDBRANCH  54  57
ENDBRANCH  51  54
ENDBRANCH  19  51
ENDBRANCH  17  19
ENDBRANCH   4  15
BRANCH   1  62
ATOM     62  CA  SEP d   1       9.465 -11.187  11.435  0.00  0.00     0.110 C 
ATOM     63  H14 SEP d   1       8.577 -11.291  10.794  0.00  0.00     0.090 H 
BRANCH  62  64
ATOM     64  N   SEP d   1       9.095 -10.562  12.731  0.00  0.00    -0.344 N 
ATOM     65  C   CYS d   1       7.955 -10.940  13.284  0.00  0.00     0.242 C 
ATOM     66  O   CYS d   1       7.290 -11.822  12.810  0.00  0.00    -0.271 OA
ATOM     67  H13 SEP d   1       9.685  -9.883  13.168  0.00  0.00     0.163 HD
BRANCH  65  68
ATOM     68  CA  CYS d   1       7.487 -10.246  14.588  0.00  0.00     0.097 C 
ATOM     69  H9  CYS d   1       8.060  -9.330  14.796  0.00  0.00     0.088 H 
BRANCH  68  70
ATOM     70  N   CYS d   1       6.081  -9.968  14.422  0.00  0.00    -0.345 N 
ATOM     71  C   ALA d   1       5.521  -8.769  14.542  0.00  0.00     0.248 C 
ATOM     72  O   ALA d   1       6.141  -7.773  14.934  0.00  0.00    -0.271 OA
ATOM     73  H8  CYS d   1       5.482 -10.737  14.200  0.00  0.00     0.163 HD
BRANCH  71  74
ATOM     74  CA  ALA d   1       4.000  -8.714  14.175  0.00  0.00     0.172 C 
ATOM     75  H4  ALA d   1       3.568  -7.835  14.676  0.00  0.00     0.098 H 
BRANCH  74  76
ATOM     76  N   ALA d   1       3.709  -8.601  12.695  0.00  0.00    -0.067 N 
ATOM     77  H1  ALA d   1       2.712  -8.572  12.550  0.00  0.00     0.275 HD
ATOM     78  H2  ALA d   1       4.095  -9.399  12.215  0.00  0.00     0.275 HD
ATOM     79  H3  ALA d   1       4.126  -7.757  12.334  0.00  0.00     0.275 HD
ENDBRANCH  74  76
BRANCH  74  80
ATOM     80  CB  ALA d   1       3.310  -9.952  14.675  0.00  0.00    -0.042 C 
ATOM     81  H5  ALA d   1       3.500 -10.068  15.752  0.00  0.00     0.030 H 
ATOM     82  H6  ALA d   1       3.698 -10.830  14.138  0.00  0.00     0.030 H 
ATOM     83  H7  ALA d   1       2.227  -9.864  14.501  0.00  0.00     0.030 H 
ENDBRANCH  74  80
ENDBRANCH  71  74
ENDBRANCH  68  70
BRANCH  68  84
ATOM     84  CB  CYS d   1       7.641 -11.254  15.682  0.00  0.00     0.001 C 
ATOM     85  H10 CYS d   1       7.051 -12.146  15.426  0.00  0.00     0.052 H 
ATOM     86  H11 CYS d   1       7.262 -10.819  16.619  0.00  0.00     0.052 H 
BRANCH  84  87
ATOM     87  SG  CYS d   1       9.360 -11.747  15.926  0.00  0.00    -0.180 SA
ATOM     88  H12 CYS d   1       9.412 -12.425  16.671  0.00  0.00     0.101 HD
ENDBRANCH  84  87
ENDBRANCH  68  84
ENDBRANCH  65  68
ENDBRANCH  62  64
BRANCH  62  89
ATOM     89  CB  SEP d   1      10.577 -10.368  10.718  0.00  0.00     0.059 C 
ATOM     90  H15 SEP d   1      10.881 -10.873   9.789  0.00  0.00     0.079 H 
ATOM     91  H16 SEP d   1      11.450 -10.255  11.377  0.00  0.00     0.079 H 
BRANCH  89  92
ATOM     92  OG  SEP d   1      10.017  -9.099  10.425  0.00  0.00    -0.280 OA
BRANCH  92  93
ATOM     93  P   SEP d   1      11.033  -7.860  10.051  0.00  0.00     0.422 P 
ATOM     94  O1P SEP d   1      10.076  -6.853   9.494  0.00  0.00    -0.617 OA
ATOM     95  O2P SEP d   1      11.711  -7.429  11.303  0.00  0.00    -0.617 OA
ATOM     96  O3P SEP d   1      12.045  -8.410   9.049  0.00  0.00    -0.617 OA
ENDBRANCH  92  93
ENDBRANCH  89  92
ENDBRANCH  62  89
ENDBRANCH   1  62
TORSDOF 24
