REMARK  20 active torsions:
REMARK  status: ('A' for Active; 'I' for Inactive)
REMARK    1  A    between atoms: N_1  and  CA_2 
REMARK    2  A    between atoms: CA_2  and  C_3 
REMARK    3  A    between atoms: CA_2  and  CB_5 
REMARK       I    between atoms: C_3  and  N_8 
REMARK    4  A    between atoms: CB_5  and  OG1_6 
REMARK    5  A    between atoms: CB_5  and  CG2_7 
REMARK    6  A    between atoms: N_8  and  CA_9 
REMARK    7  A    between atoms: CA_9  and  CB_10 
REMARK    8  A    between atoms: CA_9  and  C_15 
REMARK    9  A    between atoms: CB_10  and  CG_11 
REMARK   10  A    between atoms: CG_11  and  CD_12 
REMARK   11  A    between atoms: CD_12  and  CE_13 
REMARK   12  A    between atoms: CE_13  and  NZ_14 
REMARK   13  A    between atoms: NZ_14  and  CM1_17 
REMARK   14  A    between atoms: NZ_14  and  CM2_18 
REMARK   15  A    between atoms: NZ_14  and  CM3_19 
REMARK       I    between atoms: C_15  and  N_20 
REMARK   16  A    between atoms: N_20  and  CA_21 
REMARK   17  A    between atoms: CA_21  and  C_22 
REMARK   18  A    between atoms: CA_21  and  CB_24 
REMARK   19  A    between atoms: CB_24  and  CG_25 
REMARK   20  A    between atoms: CG_25  and  CD_26 
REMARK       I    between atoms: CD_26  and  NE2_28 
ROOT
ATOM      1  CA  M3L d   1      31.949  -4.643 -18.537  0.00  0.00     0.089 C 
ATOM      2  H11 M3L d   1      31.213  -5.221 -19.116  0.00  0.00     0.087 H 
ENDROOT
BRANCH   1   3
ATOM      3  N   M3L d   1      31.850  -4.915 -17.132  0.00  0.00    -0.346 N 
ATOM      4  C   THR d   1      32.530  -5.297 -16.146  0.00  0.00     0.251 C 
ATOM      5  O   THR d   1      33.734  -5.254 -16.419  0.00  0.00    -0.271 OA
ATOM      6  H10 M3L d   1      30.912  -4.739 -16.832  0.00  0.00     0.163 HD
BRANCH   4   7
ATOM      7  CA  THR d   1      32.024  -5.949 -14.872  0.00  0.00     0.199 C 
ATOM      8  H4  THR d   1      31.247  -6.678 -15.144  0.00  0.00     0.103 H 
BRANCH   7   9
ATOM      9  N   THR d   1      33.025  -6.671 -14.090  0.00  0.00    -0.064 N 
ATOM     10  H1  THR d   1      33.421  -7.409 -14.651  0.00  0.00     0.275 HD
ATOM     11  H2  THR d   1      32.590  -7.067 -13.272  0.00  0.00     0.275 HD
ATOM     12  H3  THR d   1      33.754  -6.035 -13.808  0.00  0.00     0.275 HD
ENDBRANCH   7   9
BRANCH   7  13
ATOM     13  CB  THR d   1      31.373  -4.799 -14.071  0.00  0.00     0.068 C 
ATOM     14  H5  THR d   1      30.733  -4.212 -14.746  0.00  0.00     0.086 H 
BRANCH  13  15
ATOM     15  OG1 THR d   1      32.388  -3.947 -13.524  0.00  0.00    -0.393 OA
ATOM     16  H6  THR d   1      32.947  -4.453 -12.947  0.00  0.00     0.210 HD
ENDBRANCH  13  15
BRANCH  13  17
ATOM     17  CG2 THR d   1      30.547  -5.336 -12.970  0.00  0.00    -0.050 C 
ATOM     18  H7  THR d   1      30.093  -4.503 -12.413  0.00  0.00     0.031 H 
ATOM     19  H8  THR d   1      31.179  -5.929 -12.293  0.00  0.00     0.031 H 
ATOM     20  H9  THR d   1      29.754  -5.975 -13.385  0.00  0.00     0.031 H 
ENDBRANCH  13  17
ENDBRANCH   7  13
ENDBRANCH   4   7
ENDBRANCH   1   3
BRANCH   1  21
ATOM     21  CB  M3L d   1      31.683  -3.156 -18.746  0.00  0.00    -0.038 C 
ATOM     22  H12 M3L d   1      30.595  -2.993 -18.735  0.00  0.00     0.036 H 
ATOM     23  H13 M3L d   1      32.088  -2.865 -19.727  0.00  0.00     0.036 H 
BRANCH  21  24
ATOM     24  CG  M3L d   1      32.296  -2.290 -17.711  0.00  0.00    -0.061 C 
ATOM     25  H14 M3L d   1      33.045  -1.659 -18.212  0.00  0.00     0.033 H 
ATOM     26  H15 M3L d   1      32.797  -2.949 -16.986  0.00  0.00     0.033 H 
BRANCH  24  27
ATOM     27  CD  M3L d   1      31.390  -1.380 -16.938  0.00  0.00    -0.042 C 
ATOM     28  H16 M3L d   1      31.689  -1.421 -15.880  0.00  0.00     0.035 H 
ATOM     29  H17 M3L d   1      30.361  -1.755 -17.043  0.00  0.00     0.035 H 
BRANCH  27  30
ATOM     30  CE  M3L d   1      31.407   0.114 -17.386  0.00  0.00     0.084 C 
ATOM     31  H18 M3L d   1      32.450   0.465 -17.384  0.00  0.00     0.076 H 
ATOM     32  H19 M3L d   1      30.822   0.700 -16.662  0.00  0.00     0.076 H 
BRANCH  30  33
ATOM     33  NZ  M3L d   1      30.840   0.340 -18.737  0.00  0.00    -0.079 N 
BRANCH  33  34
ATOM     34  CM1 M3L d   1      29.781  -0.541 -19.138  0.00  0.00     0.067 C 
ATOM     35  H20 M3L d   1      29.447  -0.275 -20.151  0.00  0.00     0.068 H 
ATOM     36  H21 M3L d   1      28.939  -0.445 -18.437  0.00  0.00     0.068 H 
ATOM     37  H22 M3L d   1      30.146  -1.579 -19.133  0.00  0.00     0.068 H 
ENDBRANCH  33  34
BRANCH  33  38
ATOM     38  CM2 M3L d   1      30.246   1.685 -18.808  0.00  0.00     0.067 C 
ATOM     39  H23 M3L d   1      30.997   2.433 -18.513  0.00  0.00     0.068 H 
ATOM     40  H24 M3L d   1      29.384   1.742 -18.126  0.00  0.00     0.068 H 
ATOM     41  H25 M3L d   1      29.913   1.885 -19.837  0.00  0.00     0.068 H 
ENDBRANCH  33  38
BRANCH  33  42
ATOM     42  CM3 M3L d   1      31.953   0.230 -19.730  0.00  0.00     0.067 C 
ATOM     43  H26 M3L d   1      32.395  -0.776 -19.675  0.00  0.00     0.068 H 
ATOM     44  H27 M3L d   1      32.723   0.982 -19.503  0.00  0.00     0.068 H 
ATOM     45  H28 M3L d   1      31.559   0.403 -20.743  0.00  0.00     0.068 H 
ENDBRANCH  33  42
ENDBRANCH  30  33
ENDBRANCH  27  30
ENDBRANCH  24  27
ENDBRANCH  21  24
ENDBRANCH   1  21
BRANCH   1  46
ATOM     46  C   M3L d   1      33.336  -5.116 -18.856  0.00  0.00     0.241 C 
ATOM     47  O   M3L d   1      33.633  -6.296 -18.752  0.00  0.00    -0.271 OA
ATOM     48  N   GLN d   1      34.415  -4.230 -19.015  0.00  0.00    -0.345 N 
ATOM     49  H29 GLN d   1      34.504  -3.260 -18.788  0.00  0.00     0.163 HD
BRANCH  48  50
ATOM     50  CA  GLN d   1      35.343  -5.138 -19.598  0.00  0.00     0.096 C 
ATOM     51  H30 GLN d   1      34.878  -5.500 -20.527  0.00  0.00     0.089 H 
BRANCH  50  52
ATOM     52  C   GLN d   1      35.733  -6.395 -18.803  0.00  0.00     0.196 C 
ATOM     53  O   GLN d   1      36.512  -6.332 -17.815  0.00  0.00    -0.646 OA
ATOM     54  O   GLN d   1      35.263  -7.512 -19.147  0.00  0.00    -0.646 OA
ENDBRANCH  50  52
BRANCH  50  55
ATOM     55  CB  GLN d   1      36.602  -4.348 -19.975  0.00  0.00    -0.029 C 
ATOM     56  H31 GLN d   1      37.067  -3.981 -19.049  0.00  0.00     0.037 H 
ATOM     57  H32 GLN d   1      36.298  -3.493 -20.596  0.00  0.00     0.037 H 
BRANCH  55  58
ATOM     58  CG  GLN d   1      37.646  -5.151 -20.747  0.00  0.00     0.011 C 
ATOM     59  H33 GLN d   1      37.157  -5.623 -21.611  0.00  0.00     0.047 H 
ATOM     60  H34 GLN d   1      38.051  -5.930 -20.084  0.00  0.00     0.047 H 
BRANCH  58  61
ATOM     61  CD  GLN d   1      38.794  -4.298 -21.248  0.00  0.00     0.215 C 
ATOM     62  OE1 GLN d   1      38.777  -3.075 -21.102  0.00  0.00    -0.274 OA
ATOM     63  NE2 GLN d   1      39.798  -4.934 -21.846  0.00  0.00    -0.370 N 
ATOM     64  H35 GLN d   1      40.580  -4.418 -22.195  0.00  0.00     0.159 HD
ATOM     65  H36 GLN d   1      39.771  -5.928 -21.947  0.00  0.00     0.159 HD
ENDBRANCH  58  61
ENDBRANCH  55  58
ENDBRANCH  50  55
ENDBRANCH  48  50
ENDBRANCH   1  46
TORSDOF 20
