REMARK  10 active torsions:
REMARK  status: ('A' for Active; 'I' for Inactive)
REMARK    1  A    between atoms: N2_16  and  O6_1 
REMARK    2  A    between atoms: C5_2  and  C8_7 
REMARK    3  A    between atoms: C4_10  and  C5_2 
REMARK    4  A    between atoms: C3_3  and  C7_6 
REMARK    5  A    between atoms: C2_9  and  C3_3 
REMARK    6  A    between atoms: C3_3  and  C4_10 
REMARK       I    between atoms: C8_7  and  N2_16 
REMARK    7  A    between atoms: C1_8  and  C2_9 
REMARK    8  A    between atoms: C1_8  and  N1_11 
REMARK    9  A    between atoms: C1_8  and  C6_12 
REMARK   10  A    between atoms: N2_16  and  C9_17 
ROOT
ATOM      1  C3  3ZA d   1      -4.203  28.006 -15.409  0.00  0.00     0.033 C 
ATOM      2  H4  3ZA d   1      -5.202  27.993 -14.950  0.00  0.00     0.056 H 
ENDROOT
BRANCH   1   3
ATOM      3  C7  3ZA d   1      -3.377  26.879 -14.785  0.00  0.00     0.177 C 
ATOM      4  O3  3ZA d   1      -2.125  27.025 -14.732  0.00  0.00    -0.648 OA
ATOM      5  O4  3ZA d   1      -4.053  25.890 -14.378  0.00  0.00    -0.648 OA
ENDBRANCH   1   3
BRANCH   1   6
ATOM      6  C2  3ZA d   1      -3.597  29.398 -15.139  0.00  0.00    -0.016 C 
ATOM      7  H6  3ZA d   1      -4.248  30.147 -15.614  0.00  0.00     0.038 H 
ATOM      8  H7  3ZA d   1      -2.601  29.429 -15.605  0.00  0.00     0.038 H 
BRANCH   6   9
ATOM      9  C1  3ZA d   1      -3.437  29.782 -13.659  0.00  0.00     0.183 C 
ATOM     10  H5  3ZA d   1      -3.241  28.862 -13.089  0.00  0.00     0.101 H 
BRANCH   9  11
ATOM     11  N1  3ZA d   1      -4.745  30.356 -13.144  0.00  0.00    -0.065 N 
ATOM     12  H10 3ZA d   1      -4.642  30.608 -12.174  0.00  0.00     0.275 HD
ATOM     13  H11 3ZA d   1      -5.474  29.666 -13.236  0.00  0.00     0.275 HD
ATOM     14  H12 3ZA d   1      -4.987  31.174 -13.680  0.00  0.00     0.275 HD
ENDBRANCH   9  11
BRANCH   9  15
ATOM     15  C6  3ZA d   1      -2.177  30.720 -13.466  0.00  0.00     0.204 C 
ATOM     16  O2  3ZA d   1      -2.390  31.832 -12.864  0.00  0.00    -0.646 OA
ATOM     17  O1  3ZA d   1      -1.070  30.316 -13.922  0.00  0.00    -0.646 OA
ENDBRANCH   9  15
ENDBRANCH   6   9
ENDBRANCH   1   6
BRANCH   1  18
ATOM     18  C4  3ZA d   1      -4.366  27.694 -16.923  0.00  0.00    -0.044 C 
ATOM     19  H8  3ZA d   1      -3.509  28.141 -17.448  0.00  0.00     0.035 H 
ATOM     20  H9  3ZA d   1      -4.339  26.601 -17.042  0.00  0.00     0.035 H 
BRANCH  18  21
ATOM     21  C5  3ZA d   1      -5.653  28.206 -17.608  0.00  0.00     0.012 C 
ATOM     22  H2  3ZA d   1      -5.491  29.250 -17.915  0.00  0.00     0.047 H 
ATOM     23  H3  3ZA d   1      -5.842  27.587 -18.498  0.00  0.00     0.047 H 
BRANCH  21  24
ATOM     24  C8  3ZA d   1      -6.889  28.153 -16.712  0.00  0.00     0.242 C 
ATOM     25  O5  3ZA d   1      -7.454  27.072 -16.526  0.00  0.00    -0.271 OA
ATOM     26  N2  3ZA d   1      -7.345  29.321 -16.122  0.00  0.00    -0.233 N 
BRANCH  26  27
ATOM     27  O6  3ZA d   1      -6.572  30.496 -15.998  0.00  0.00    -0.285 OA
ATOM     28  H1  3ZA d   1      -6.319  30.800 -16.862  0.00  0.00     0.245 HD
ENDBRANCH  26  27
BRANCH  26  29
ATOM     29  C9  3ZA d   1      -8.668  29.533 -15.555  0.00  0.00     0.009 C 
ATOM     30  H13 3ZA d   1      -9.262  28.613 -15.656  0.00  0.00     0.060 H 
ATOM     31  H14 3ZA d   1      -9.169  30.354 -16.090  0.00  0.00     0.060 H 
ATOM     32  H15 3ZA d   1      -8.573  29.793 -14.490  0.00  0.00     0.060 H 
ENDBRANCH  26  29
ENDBRANCH  21  24
ENDBRANCH  18  21
ENDBRANCH   1  18
TORSDOF 10
