REMARK WARNING: 32 MAX_TORS EXCEEDED!!!
REMARK  37 active torsions:
REMARK  status: ('A' for Active; 'I' for Inactive)
REMARK    1  A    between atoms: N_1  and  CA_2 
REMARK    2  A    between atoms: CA_2  and  C_3 
REMARK    3  A    between atoms: CA_2  and  CB_5 
REMARK       I    between atoms: C_3  and  N_10 
REMARK    4  A    between atoms: CB_5  and  CG_6 
REMARK    5  A    between atoms: CG_6  and  CD_7 
REMARK    6  A    between atoms: N_10  and  CA_11 
REMARK    7  A    between atoms: CA_11  and  C_12 
REMARK       I    between atoms: C_12  and  N_14 
REMARK    8  A    between atoms: CA_15  and  C_16 
REMARK       I    between atoms: C_16  and  N_21 
REMARK    9  A    between atoms: N_21  and  CA_22 
REMARK   10  A    between atoms: CA_22  and  C_23 
REMARK   11  A    between atoms: CA_22  and  CB_25 
REMARK       I    between atoms: C_23  and  N_32 
REMARK   12  A    between atoms: CB_25  and  CG_26 
REMARK   13  A    between atoms: CG_26  and  CD_27 
REMARK   14  A    between atoms: CD_27  and  NE_28 
REMARK       I    between atoms: NE_28  and  CZ_29 
REMARK       I    between atoms: CZ_29  and  NH1_30 
REMARK   15  A    between atoms: N_32  and  CA_33 
REMARK   16  A    between atoms: CA_33  and  C_34 
REMARK   17  A    between atoms: CA_33  and  CB_36 
REMARK       I    between atoms: C_34  and  N_40 
REMARK   18  A    between atoms: CB_36  and  CG_37 
REMARK       I    between atoms: CG_37  and  ND2_39 
REMARK   19  A    between atoms: N_40  and  CA_41 
REMARK   20  A    between atoms: CA_41  and  C_42 
REMARK   21  A    between atoms: CA_41  and  CB_44 
REMARK       I    between atoms: C_42  and  N_49 
REMARK   22  A    between atoms: CB_44  and  CG_45 
REMARK   23  A    between atoms: CG_45  and  CD_46 
REMARK       I    between atoms: CD_46  and  NE2_48 
REMARK   24  A    between atoms: N_49  and  CA_50 
REMARK   25  A    between atoms: CA_50  and  C_51 
REMARK   26  A    between atoms: CA_50  and  CB_53 
REMARK       I    between atoms: C_51  and  N_57 
REMARK   27  A    between atoms: CB_53  and  CG_54 
REMARK   28  A    between atoms: N_57  and  CA_58 
REMARK   29  A    between atoms: CA_58  and  C_59 
REMARK   30  A    between atoms: CA_58  and  CB_61 
REMARK       I    between atoms: C_59  and  N_71 
REMARK   31  A    between atoms: CB_61  and  CG_62 
REMARK   32  A    between atoms: N_71  and  CA_72 
REMARK   33  A    between atoms: CA_72  and  C_73 
REMARK   34  A    between atoms: CA_72  and  CB_75 
REMARK   35  A    between atoms: CB_75  and  CG_76 
REMARK   36  A    between atoms: CG_76  and  CD1_77 
REMARK   37  A    between atoms: CG_76  and  CD2_78 
ROOT
ATOM      1  C   ASN d   1     -26.616 -48.401 -18.741  0.00  0.00     0.241 C 
ATOM      2  O   ASN d   1     -25.940 -47.902 -19.642  0.00  0.00    -0.271 OA
ATOM      3  N   GLN d   1     -27.905 -48.731 -18.870  0.00  0.00    -0.346 N 
ATOM      4  H38 GLN d   1     -28.379 -49.112 -18.077  0.00  0.00     0.163 HD
ENDROOT
BRANCH   1   5
ATOM      5  CA  ASN d   1     -25.985 -48.693 -17.387  0.00  0.00     0.097 C 
ATOM      6  H33 ASN d   1     -26.321 -49.695 -17.082  0.00  0.00     0.088 H 
BRANCH   5   7
ATOM      7  N   ASN d   1     -24.522 -48.728 -17.443  0.00  0.00    -0.346 N 
ATOM      8  C   ARG d   1     -23.888 -49.780 -17.954  0.00  0.00     0.241 C 
ATOM      9  O   ARG d   1     -24.468 -50.786 -18.372  0.00  0.00    -0.271 OA
ATOM     10  H32 ASN d   1     -23.994 -47.954 -17.094  0.00  0.00     0.163 HD
BRANCH   8  11
ATOM     11  CA  ARG d   1     -22.385 -49.719 -17.973  0.00  0.00     0.089 C 
ATOM     12  H20 ARG d   1     -22.034 -48.863 -17.378  0.00  0.00     0.087 H 
BRANCH  11  13
ATOM     13  N   ARG d   1     -21.954 -50.955 -17.379  0.00  0.00    -0.346 N 
ATOM     14  C   PRO d   1     -21.507 -50.921 -16.141  0.00  0.00     0.241 C 
ATOM     15  O   PRO d   1     -21.368 -49.855 -15.523  0.00  0.00    -0.271 OA
ATOM     16  H19 ARG d   1     -21.992 -51.814 -17.890  0.00  0.00     0.163 HD
BRANCH  14  17
ATOM     17  CA  PRO d   1     -21.186 -52.248 -15.488  0.00  0.00     0.091 C 
ATOM     18  N   PRO d   1     -20.031 -52.104 -14.610  0.00  0.00    -0.337 N 
ATOM     19  C   GLY d   1     -18.778 -52.074 -15.099  0.00  0.00     0.238 C 
ATOM     20  CD  PRO d   1     -20.429 -51.812 -13.220  0.00  0.00    -0.001 C 
ATOM     21  O   GLY d   1     -18.515 -52.267 -16.288  0.00  0.00    -0.272 OA
ATOM     22  CG  PRO d   1     -21.938 -51.827 -13.275  0.00  0.00    -0.048 C 
ATOM     23  H17 PRO d   1     -20.057 -50.827 -12.903  0.00  0.00     0.064 H 
ATOM     24  H18 PRO d   1     -20.053 -52.584 -12.533  0.00  0.00     0.064 H 
ATOM     25  CB  PRO d   1     -22.311 -52.567 -14.518  0.00  0.00    -0.036 C 
ATOM     26  H15 PRO d   1     -22.345 -52.340 -12.391  0.00  0.00     0.035 H 
ATOM     27  H16 PRO d   1     -22.327 -50.799 -13.314  0.00  0.00     0.035 H 
ATOM     28  H13 PRO d   1     -22.367 -53.649 -14.327  0.00  0.00     0.036 H 
ATOM     29  H14 PRO d   1     -23.276 -52.213 -14.909  0.00  0.00     0.036 H 
ATOM     30  H12 PRO d   1     -21.039 -53.037 -16.241  0.00  0.00     0.087 H 
BRANCH  19  31
ATOM     31  CA  GLY d   1     -17.658 -51.759 -14.132  0.00  0.00     0.069 C 
ATOM     32  H10 GLY d   1     -17.666 -50.682 -13.909  0.00  0.00     0.078 H 
ATOM     33  H11 GLY d   1     -17.813 -52.327 -13.203  0.00  0.00     0.078 H 
BRANCH  31  34
ATOM     34  N   GLY d   1     -16.350 -52.125 -14.711  0.00  0.00    -0.351 N 
ATOM     35  C   GLU d   1     -15.899 -53.375 -14.634  0.00  0.00     0.248 C 
ATOM     36  O   GLU d   1     -16.570 -54.273 -14.145  0.00  0.00    -0.271 OA
ATOM     37  H9  GLY d   1     -15.797 -51.427 -15.166  0.00  0.00     0.163 HD
BRANCH  35  38
ATOM     38  CA  GLU d   1     -14.478 -53.652 -15.127  0.00  0.00     0.176 C 
ATOM     39  H4  GLU d   1     -13.823 -52.892 -14.676  0.00  0.00     0.099 H 
BRANCH  38  40
ATOM     40  N   GLU d   1     -14.010 -54.982 -14.678  0.00  0.00    -0.066 N 
ATOM     41  H1  GLU d   1     -13.073 -55.140 -15.015  0.00  0.00     0.275 HD
ATOM     42  H2  GLU d   1     -14.623 -55.694 -15.042  0.00  0.00     0.275 HD
ATOM     43  H3  GLU d   1     -14.015 -55.017 -13.671  0.00  0.00     0.275 HD
ENDBRANCH  38  40
BRANCH  38  44
ATOM     44  CB  GLU d   1     -14.328 -53.545 -16.645  0.00  0.00    -0.021 C 
ATOM     45  H5  GLU d   1     -14.872 -52.655 -16.995  0.00  0.00     0.037 H 
ATOM     46  H6  GLU d   1     -14.758 -54.444 -17.110  0.00  0.00     0.037 H 
BRANCH  44  47
ATOM     47  CG  GLU d   1     -12.864 -53.425 -17.064  0.00  0.00     0.018 C 
ATOM     48  H7  GLU d   1     -12.344 -54.348 -16.769  0.00  0.00     0.049 H 
ATOM     49  H8  GLU d   1     -12.422 -52.569 -16.533  0.00  0.00     0.049 H 
BRANCH  47  50
ATOM     50  CD  GLU d   1     -12.658 -53.217 -18.563  0.00  0.00     0.172 C 
ATOM     51  OE1 GLU d   1     -13.650 -53.083 -19.304  0.00  0.00    -0.648 OA
ATOM     52  OE2 GLU d   1     -11.486 -53.167 -19.017  0.00  0.00    -0.648 OA
ENDBRANCH  47  50
ENDBRANCH  44  47
ENDBRANCH  38  44
ENDBRANCH  35  38
ENDBRANCH  31  34
ENDBRANCH  19  31
ENDBRANCH  14  17
ENDBRANCH  11  13
BRANCH  11  53
ATOM     53  CB  ARG d   1     -21.838 -49.599 -19.385  0.00  0.00    -0.036 C 
ATOM     54  H21 ARG d   1     -22.652 -49.815 -20.093  0.00  0.00     0.036 H 
ATOM     55  H22 ARG d   1     -21.036 -50.341 -19.511  0.00  0.00     0.036 H 
BRANCH  53  56
ATOM     56  CG  ARG d   1     -21.278 -48.230 -19.703  0.00  0.00    -0.048 C 
ATOM     57  H23 ARG d   1     -20.444 -48.013 -19.019  0.00  0.00     0.035 H 
ATOM     58  H24 ARG d   1     -22.068 -47.476 -19.569  0.00  0.00     0.035 H 
BRANCH  56  59
ATOM     59  CD  ARG d   1     -20.774 -48.177 -21.140  0.00  0.00     0.009 C 
ATOM     60  H25 ARG d   1     -20.755 -47.124 -21.459  0.00  0.00     0.064 H 
ATOM     61  H26 ARG d   1     -21.478 -48.739 -21.772  0.00  0.00     0.064 H 
BRANCH  59  62
ATOM     62  NE  ARG d   1     -19.432 -48.740 -21.336  0.00  0.00    -0.227 N 
ATOM     63  CZ  ARG d   1     -19.172 -49.975 -21.767  0.00  0.00     0.665 C 
ATOM     64  NH1 ARG d   1     -20.164 -50.812 -22.056  0.00  0.00    -0.235 N 
ATOM     65  NH2 ARG d   1     -17.910 -50.380 -21.904  0.00  0.00    -0.235 N 
ATOM     66  H28 ARG d   1     -19.954 -51.764 -22.388  0.00  0.00     0.174 HD
ATOM     67  H29 ARG d   1     -21.142 -50.508 -21.948  0.00  0.00     0.174 HD
ATOM     68  H30 ARG d   1     -17.136 -49.738 -21.682  0.00  0.00     0.174 HD
ATOM     69  H31 ARG d   1     -17.708 -51.335 -22.232  0.00  0.00     0.174 HD
ATOM     70  H27 ARG d   1     -18.628 -48.133 -21.124  0.00  0.00     0.177 HD
ENDBRANCH  59  62
ENDBRANCH  56  59
ENDBRANCH  53  56
ENDBRANCH  11  53
ENDBRANCH   8  11
ENDBRANCH   5   7
BRANCH   5  71
ATOM     71  CB  ASN d   1     -26.478 -47.702 -16.328  0.00  0.00     0.036 C 
ATOM     72  H34 ASN d   1     -27.531 -47.459 -16.535  0.00  0.00     0.051 H 
ATOM     73  H35 ASN d   1     -25.871 -46.787 -16.392  0.00  0.00     0.051 H 
BRANCH  71  74
ATOM     74  CG  ASN d   1     -26.375 -48.257 -14.919  0.00  0.00     0.217 C 
ATOM     75  OD1 ASN d   1     -26.220 -49.471 -14.722  0.00  0.00    -0.274 OA
ATOM     76  ND2 ASN d   1     -26.479 -47.379 -13.930  0.00  0.00    -0.370 N 
ATOM     77  H36 ASN d   1     -26.419 -47.686 -12.980  0.00  0.00     0.159 HD
ATOM     78  H37 ASN d   1     -26.617 -46.410 -14.134  0.00  0.00     0.159 HD
ENDBRANCH  71  74
ENDBRANCH   5  71
ENDBRANCH   1   5
BRANCH   3  79
ATOM     79  CA  GLN d   1     -28.661 -48.561 -20.121  0.00  0.00     0.090 C 
ATOM     80  H39 GLN d   1     -27.944 -48.242 -20.892  0.00  0.00     0.087 H 
BRANCH  79  81
ATOM     81  C   GLN d   1     -29.732 -47.434 -20.015  0.00  0.00     0.241 C 
ATOM     82  O   GLN d   1     -29.374 -46.283 -19.827  0.00  0.00    -0.271 OA
ATOM     83  N   ASP d   1     -31.018 -47.766 -20.129  0.00  0.00    -0.346 N 
ATOM     84  H46 ASP d   1     -31.263 -48.727 -20.256  0.00  0.00     0.163 HD
BRANCH  83  85
ATOM     85  CA  ASP d   1     -32.078 -46.765 -20.073  0.00  0.00     0.098 C 
ATOM     86  H47 ASP d   1     -31.798 -45.933 -20.735  0.00  0.00     0.088 H 
BRANCH  85  87
ATOM     87  C   ASP d   1     -32.224 -46.225 -18.655  0.00  0.00     0.241 C 
ATOM     88  O   ASP d   1     -32.208 -46.998 -17.695  0.00  0.00    -0.271 OA
ATOM     89  N   TRP d   1     -32.548 -44.967 -18.515  0.00  0.00    -0.346 N 
ATOM     90  H50 TRP d   1     -32.792 -44.444 -19.332  0.00  0.00     0.163 HD
BRANCH  89  91
ATOM     91  CA  TRP d   1     -32.571 -44.301 -17.248  0.00  0.00     0.093 C 
ATOM     92  H51 TRP d   1     -31.613 -44.473 -16.735  0.00  0.00     0.088 H 
BRANCH  91  93
ATOM     93  C   TRP d   1     -33.691 -44.844 -16.379  0.00  0.00     0.241 C 
ATOM     94  O   TRP d   1     -34.504 -45.587 -16.840  0.00  0.00    -0.271 OA
ATOM     95  N   LEU d   1     -33.667 -44.563 -15.087  0.00  0.00    -0.345 N 
ATOM     96  H60 LEU d   1     -32.818 -44.253 -14.660  0.00  0.00     0.163 HD
BRANCH  95  97
ATOM     97  CA  LEU d   1     -34.882 -44.705 -14.278  0.00  0.00     0.096 C 
ATOM     98  H61 LEU d   1     -35.210 -45.754 -14.318  0.00  0.00     0.089 H 
BRANCH  97  99
ATOM     99  C   LEU d   1     -36.010 -43.805 -14.808  0.00  0.00     0.196 C 
ATOM    100  O   LEU d   1     -35.805 -42.636 -15.259  0.00  0.00    -0.646 OA
ATOM    101  OXT LEU d   1     -37.171 -44.244 -14.770  0.00  0.00    -0.646 OA
ENDBRANCH  97  99
BRANCH  97 102
ATOM    102  CB  LEU d   1     -34.607 -44.319 -12.827  0.00  0.00    -0.034 C 
ATOM    103  H62 LEU d   1     -35.530 -44.530 -12.267  0.00  0.00     0.037 H 
ATOM    104  H63 LEU d   1     -34.415 -43.236 -12.822  0.00  0.00     0.037 H 
BRANCH 102 105
ATOM    105  CG  LEU d   1     -33.466 -44.966 -12.044  0.00  0.00    -0.059 C 
ATOM    106  H64 LEU d   1     -32.520 -44.791 -12.578  0.00  0.00     0.038 H 
BRANCH 105 107
ATOM    107  CD1 LEU d   1     -33.427 -44.276 -10.695  0.00  0.00    -0.073 C 
ATOM    108  H65 LEU d   1     -32.618 -44.706 -10.086  0.00  0.00     0.028 H 
ATOM    109  H66 LEU d   1     -34.389 -44.421 -10.181  0.00  0.00     0.028 H 
ATOM    110  H67 LEU d   1     -33.246 -43.200 -10.838  0.00  0.00     0.028 H 
ENDBRANCH 105 107
BRANCH 105 111
ATOM    111  CD2 LEU d   1     -33.640 -46.475 -11.857  0.00  0.00    -0.073 C 
ATOM    112  H68 LEU d   1     -33.667 -46.966 -12.841  0.00  0.00     0.028 H 
ATOM    113  H69 LEU d   1     -34.581 -46.672 -11.323  0.00  0.00     0.028 H 
ATOM    114  H70 LEU d   1     -32.797 -46.872 -11.273  0.00  0.00     0.028 H 
ENDBRANCH 105 111
ENDBRANCH 102 105
ENDBRANCH  97 102
ENDBRANCH  95  97
ENDBRANCH  91  93
BRANCH  91 115
ATOM    115  CB  TRP d   1     -32.748 -42.788 -17.488  0.00  0.00    -0.012 C 
ATOM    116  H52 TRP d   1     -32.921 -42.309 -16.513  0.00  0.00     0.044 H 
ATOM    117  H53 TRP d   1     -33.632 -42.648 -18.128  0.00  0.00     0.044 H 
BRANCH 115 118
ATOM    118  CG  TRP d   1     -31.585 -42.092 -18.146  0.00  0.00    -0.028 A 
ATOM    119  CD1 TRP d   1     -30.392 -41.886 -17.609  0.00  0.00    -0.015 A 
ATOM    120  NE1 TRP d   1     -29.588 -41.237 -18.463  0.00  0.00    -0.365 N 
ATOM    121  H54 TRP d   1     -30.103 -42.202 -16.608  0.00  0.00     0.112 H 
ATOM    122  CE2 TRP d   1     -30.266 -41.000 -19.615  0.00  0.00     0.042 A 
ATOM    123  H55 TRP d   1     -28.613 -40.962 -18.275  0.00  0.00     0.165 HD
ATOM    124  CD2 TRP d   1     -31.531 -41.508 -19.451  0.00  0.00    -0.002 A 
ATOM    125  CZ2 TRP d   1     -29.876 -40.360 -20.764  0.00  0.00    -0.056 A 
ATOM    126  CE3 TRP d   1     -32.441 -41.370 -20.501  0.00  0.00    -0.070 A 
ATOM    127  CZ3 TRP d   1     -32.043 -40.765 -21.637  0.00  0.00    -0.082 A 
ATOM    128  H56 TRP d   1     -33.454 -41.744 -20.403  0.00  0.00     0.084 H 
ATOM    129  CH2 TRP d   1     -30.782 -40.260 -21.762  0.00  0.00    -0.081 A 
ATOM    130  H58 TRP d   1     -32.736 -40.678 -22.466  0.00  0.00     0.083 H 
ATOM    131  H59 TRP d   1     -30.500 -39.766 -22.685  0.00  0.00     0.083 H 
ATOM    132  H57 TRP d   1     -28.878 -39.950 -20.868  0.00  0.00     0.086 H 
ENDBRANCH 115 118
ENDBRANCH  91 115
ENDBRANCH  89  91
ENDBRANCH  85  87
BRANCH  85 133
ATOM    133  CB  ASP d   1     -33.426 -47.338 -20.561  0.00  0.00     0.043 C 
ATOM    134  H48 ASP d   1     -33.843 -47.978 -19.769  0.00  0.00     0.052 H 
ATOM    135  H49 ASP d   1     -33.245 -47.941 -21.463  0.00  0.00     0.052 H 
BRANCH 133 136
ATOM    136  CG  ASP d   1     -34.456 -46.239 -20.901  0.00  0.00     0.175 C 
ATOM    137  OD1 ASP d   1     -34.046 -45.073 -21.090  0.00  0.00    -0.648 OA
ATOM    138  OD2 ASP d   1     -35.673 -46.532 -20.995  0.00  0.00    -0.648 OA
ENDBRANCH 133 136
ENDBRANCH  85 133
ENDBRANCH  83  85
ENDBRANCH  79  81
BRANCH  79 139
ATOM    139  CB  GLN d   1     -29.245 -49.908 -20.580  0.00  0.00    -0.030 C 
ATOM    140  H40 GLN d   1     -30.047 -50.190 -19.881  0.00  0.00     0.037 H 
ATOM    141  H41 GLN d   1     -28.443 -50.660 -20.542  0.00  0.00     0.037 H 
BRANCH 139 142
ATOM    142  CG  GLN d   1     -29.823 -49.902 -21.988  0.00  0.00     0.011 C 
ATOM    143  H42 GLN d   1     -29.061 -50.283 -22.683  0.00  0.00     0.047 H 
ATOM    144  H43 GLN d   1     -30.082 -48.868 -22.258  0.00  0.00     0.047 H 
BRANCH 142 145
ATOM    145  CD  GLN d   1     -31.065 -50.761 -22.112  0.00  0.00     0.215 C 
ATOM    146  OE1 GLN d   1     -30.974 -51.944 -22.415  0.00  0.00    -0.274 OA
ATOM    147  NE2 GLN d   1     -32.232 -50.168 -21.881  0.00  0.00    -0.370 N 
ATOM    148  H44 GLN d   1     -33.081 -50.692 -21.950  0.00  0.00     0.159 HD
ATOM    149  H45 GLN d   1     -32.261 -49.198 -21.638  0.00  0.00     0.159 HD
ENDBRANCH 142 145
ENDBRANCH 139 142
ENDBRANCH  79 139
ENDBRANCH   3  79
TORSDOF 37
