REMARK WARNING: 32 MAX_TORS EXCEEDED!!!
REMARK  63 active torsions:
REMARK  status: ('A' for Active; 'I' for Inactive)
REMARK    1  A    between atoms: N_1  and  CA_2 
REMARK       I    between atoms: C10_133  and  N_1 
REMARK    2  A    between atoms: CA_2  and  C_3 
REMARK    3  A    between atoms: CA_2  and  CB_5 
REMARK       I    between atoms: C_3  and  N_6 
REMARK    4  A    between atoms: N_6  and  CA_7 
REMARK    5  A    between atoms: CA_7  and  C_8 
REMARK    6  A    between atoms: CA_7  and  CB_10 
REMARK    7  A    between atoms: CB_10  and  CG_11 
REMARK    8  A    between atoms: CG_11  and  CD_12 
REMARK       I    between atoms: CD_12  and  N_15 
REMARK    9  A    between atoms: N_15  and  CA_16 
REMARK   10  A    between atoms: CA_16  and  C_17 
REMARK   11  A    between atoms: CA_16  and  CB_19 
REMARK       I    between atoms: C_17  and  N_21 
REMARK   12  A    between atoms: CB_19  and  SG_20 
REMARK   13  A    between atoms: SG_20  and  C7T_85 
REMARK   14  A    between atoms: N_21  and  CA_22 
REMARK   15  A    between atoms: CA_22  and  CB_23 
REMARK   16  A    between atoms: CA_22  and  C_24 
REMARK       I    between atoms: C_24  and  N_26 
REMARK   17  A    between atoms: N_26  and  CA_27 
REMARK   18  A    between atoms: CA_27  and  CB_28 
REMARK   19  A    between atoms: CA_27  and  C_29 
REMARK   20  A    between atoms: O5'_35  and  P_32 
REMARK   21  A    between atoms: C5'_36  and  O5'_35 
REMARK   22  A    between atoms: C4'_37  and  C5'_36 
REMARK   23  A    between atoms: O3'_40  and  C3'_39 
REMARK   24  A    between atoms: P_52  and  O3'_40 
REMARK   25  A    between atoms: C2'_41  and  O2'_42 
REMARK   26  A    between atoms: C1'_43  and  N1_44 
REMARK   27  A    between atoms: C4_48  and  N4_49 
REMARK   28  A    between atoms: O5'_55  and  P_52 
REMARK   29  A    between atoms: C5'_56  and  O5'_55 
REMARK   30  A    between atoms: C4'_57  and  C5'_56 
REMARK   31  A    between atoms: O3'_60  and  C3'_59 
REMARK   32  A    between atoms: P_73  and  O3'_60 
REMARK   33  A    between atoms: C2'_61  and  O2'_62 
REMARK   34  A    between atoms: C1'_63  and  N1_64 
REMARK   35  A    between atoms: C4_68  and  N4_69 
REMARK   36  A    between atoms: O5'_75  and  P_73 
REMARK   37  A    between atoms: C5'_76  and  O5'_75 
REMARK   38  A    between atoms: C4'_77  and  C5'_76 
REMARK   39  A    between atoms: C3'_78  and  O3'_79 
REMARK   40  A    between atoms: N1T_81  and  C2'_80 
REMARK   41  A    between atoms: C6T_84  and  C4T_83 
REMARK   42  A    between atoms: C7T_85  and  C6T_84 
REMARK   43  A    between atoms: C1'_88  and  N9_90 
REMARK   44  A    between atoms: C6_98  and  N6_99 
REMARK   45  A    between atoms: C1'_108  and  N1_100 
REMARK   46  A    between atoms: C2'_109  and  O2'_110 
REMARK   47  A    between atoms: C3'_111  and  O3'_114 
REMARK   48  A    between atoms: C5'_115  and  C4'_112 
REMARK   49  A    between atoms: O5'_116  and  C5'_115 
REMARK   50  A    between atoms: PA_117  and  O5'_116 
REMARK   51  A    between atoms: O3A_120  and  PA_117 
REMARK   52  A    between atoms: PB_121  and  O3A_120 
REMARK   53  A    between atoms: O1_135  and  PB_121 
REMARK   54  A    between atoms: C1_124  and  O1_135 
REMARK   55  A    between atoms: C2_125  and  N2_142 
REMARK   56  A    between atoms: O3_136  and  C3_126 
REMARK   57  A    between atoms: C4_127  and  O4_137 
REMARK   58  A    between atoms: C5_128  and  C6_129 
REMARK   59  A    between atoms: C6_129  and  O6_139 
REMARK   60  A    between atoms: C7_130  and  C8_131 
REMARK       I    between atoms: N2_142  and  C7_130 
REMARK   61  A    between atoms: C9_132  and  C10_133 
REMARK   62  A    between atoms: C9_132  and  C11_134 
REMARK   63  A    between atoms: C9_132  and  O3_136 
ROOT
ATOM      1  CA  CYS d   1       9.189   7.493  21.067  0.00  0.00     0.097 C 
ATOM      2  H13 CYS d   1       8.823   7.198  22.062  0.00  0.00     0.088 H 
ENDROOT
BRANCH   1   3
ATOM      3  N   CYS d   1      10.575   6.965  20.802  0.00  0.00    -0.347 N 
ATOM      4  CD  FGA d   1      11.474   6.971  21.890  0.00  0.00     0.218 C 
ATOM      5  OE1 FGA d   1      11.116   6.946  23.064  0.00  0.00    -0.274 OA
ATOM      6  H12 CYS d   1      10.845   6.627  19.900  0.00  0.00     0.163 HD
BRANCH   4   7
ATOM      7  CG  FGA d   1      12.859   6.604  21.406  0.00  0.00     0.011 C 
ATOM      8  H10 FGA d   1      12.812   5.638  20.882  0.00  0.00     0.047 H 
ATOM      9  H11 FGA d   1      13.214   7.380  20.713  0.00  0.00     0.047 H 
BRANCH   7  10
ATOM     10  CB  FGA d   1      13.864   6.488  22.602  0.00  0.00    -0.029 C 
ATOM     11  H8  FGA d   1      14.884   6.496  22.190  0.00  0.00     0.037 H 
ATOM     12  H9  FGA d   1      13.723   7.365  23.250  0.00  0.00     0.037 H 
BRANCH  10  13
ATOM     13  CA  FGA d   1      13.712   5.224  23.472  0.00  0.00     0.096 C 
ATOM     14  H7  FGA d   1      12.697   5.192  23.896  0.00  0.00     0.089 H 
BRANCH  13  15
ATOM     15  N   FGA d   1      13.918   4.034  22.674  0.00  0.00    -0.345 N 
ATOM     16  C   ALA d   1      13.075   2.980  22.763  0.00  0.00     0.240 C 
ATOM     17  O   ALA d   1      12.076   3.001  23.541  0.00  0.00    -0.271 OA
ATOM     18  H6  FGA d   1      14.696   3.990  22.047  0.00  0.00     0.163 HD
BRANCH  16  19
ATOM     19  CA  ALA d   1      13.356   1.795  21.840  0.00  0.00     0.086 C 
ATOM     20  H2  ALA d   1      12.391   1.334  21.584  0.00  0.00     0.086 H 
BRANCH  19  21
ATOM     21  N   ALA d   1      14.064   2.135  20.580  0.00  0.00    -0.346 N 
ATOM     22  C10 MUB d   1      13.458   2.937  19.638  0.00  0.00     0.247 C 
ATOM     23  O10 MUB d   1      12.367   3.525  19.769  0.00  0.00    -0.271 OA
ATOM     24  H1  ALA d   1      14.984   1.780  20.415  0.00  0.00     0.163 HD
BRANCH  22  25
ATOM     25  C9  MUB d   1      14.165   3.118  18.334  0.00  0.00     0.112 C 
ATOM     26  H86 ALA d   1      13.425   3.323  17.547  0.00  0.00     0.097 H 
BRANCH  25  27
ATOM     27  C11 MUB d   1      15.183   4.294  18.425  0.00  0.00    -0.044 C 
ATOM     28  H87 ALA d   1      15.693   4.413  17.458  0.00  0.00     0.031 H 
ATOM     29  H88 ALA d   1      15.925   4.077  19.207  0.00  0.00     0.031 H 
ATOM     30  H89 ALA d   1      14.649   5.223  18.674  0.00  0.00     0.031 H 
ENDBRANCH  25  27
BRANCH  25  31
ATOM     31  O3  MUB d   1      14.914   1.945  18.004  0.00  0.00    -0.367 OA
BRANCH  31  32
ATOM     32  C3  MUB d   1      14.496   1.184  16.873  0.00  0.00     0.090 C 
ATOM     33  C2  MUB d   1      13.568   0.051  17.347  0.00  0.00     0.087 C 
ATOM     34  C1  MUB d   1      13.298  -0.857  16.169  0.00  0.00     0.165 C 
ATOM     35  H77 ALA d   1      14.071  -0.517  18.143  0.00  0.00     0.084 H 
ATOM     36  O5  MUB d   1      14.511  -1.375  15.606  0.00  0.00    -0.348 OA
ATOM     37  H76 ALA d   1      12.648  -1.688  16.481  0.00  0.00     0.133 H 
ATOM     38  C5  MUB d   1      15.352  -0.357  15.060  0.00  0.00     0.089 C 
ATOM     39  C4  MUB d   1      15.749   0.603  16.173  0.00  0.00     0.089 C 
ATOM     40  H80 ALA d   1      14.890   0.171  14.212  0.00  0.00     0.090 H 
ATOM     41  H79 ALA d   1      16.373   0.080  16.912  0.00  0.00     0.091 H 
ATOM     42  H78 ALA d   1      13.952   1.832  16.170  0.00  0.00     0.090 H 
BRANCH  33  43
ATOM     43  N2  MUB d   1      12.278   0.571  17.870  0.00  0.00    -0.349 N 
ATOM     44  C7  MUB d   1      11.719   0.209  19.022  0.00  0.00     0.214 C 
ATOM     45  O7  MUB d   1      12.311  -0.545  19.791  0.00  0.00    -0.274 OA
ATOM     46  H92 ALA d   1      11.793   1.245  17.313  0.00  0.00     0.163 HD
BRANCH  44  47
ATOM     47  C8  MUB d   1      10.411   0.815  19.449  0.00  0.00    -0.003 C 
ATOM     48  H83 ALA d   1      10.025   1.458  18.644  0.00  0.00     0.040 H 
ATOM     49  H84 ALA d   1      10.565   1.417  20.357  0.00  0.00     0.040 H 
ATOM     50  H85 ALA d   1       9.687   0.014  19.658  0.00  0.00     0.040 H 
ENDBRANCH  44  47
ENDBRANCH  33  43
BRANCH  34  51
ATOM     51  O1  MUB d   1      12.668  -0.076  15.167  0.00  0.00    -0.256 OA
BRANCH  51  52
ATOM     52  PB  UDP d   1      11.627  -0.610  14.047  0.00  0.00     0.420 P 
ATOM     53  O1B UDP d   1      11.371   0.529  13.133  0.00  0.00    -0.624 OA
ATOM     54  O3B UDP d   1      12.078  -1.971  13.468  0.00  0.00    -0.624 OA
BRANCH  52  55
ATOM     55  O3A UDP d   1      10.317  -0.921  14.876  0.00  0.00    -0.180 OA
BRANCH  55  56
ATOM     56  PA  UDP d   1       9.332   0.096  15.650  0.00  0.00     0.417 P 
ATOM     57  O1A UDP d   1       8.167   0.352  14.744  0.00  0.00    -0.624 OA
ATOM     58  O2A UDP d   1      10.099   1.340  16.055  0.00  0.00    -0.624 OA
BRANCH  56  59
ATOM     59  O5' UDP d   1       9.038  -0.690  16.895  0.00  0.00    -0.287 OA
BRANCH  59  60
ATOM     60  C5' UDP d   1       8.351  -1.986  16.869  0.00  0.00     0.058 C 
ATOM     61  H74 UDP d   1       7.527  -1.956  16.141  0.00  0.00     0.079 H 
ATOM     62  H75 UDP d   1       9.061  -2.777  16.587  0.00  0.00     0.079 H 
BRANCH  60  63
ATOM     63  C4' UDP d   1       7.808  -2.258  18.235  0.00  0.00     0.089 C 
ATOM     64  C3' UDP d   1       8.870  -2.484  19.303  0.00  0.00     0.091 C 
ATOM     65  C2' UDP d   1       8.655  -3.954  19.598  0.00  0.00     0.105 C 
ATOM     66  H71 UDP d   1       9.903  -2.260  18.998  0.00  0.00     0.091 H 
ATOM     67  C1' UDP d   1       7.180  -4.131  19.349  0.00  0.00     0.141 C 
ATOM     68  H69 UDP d   1       9.263  -4.602  18.950  0.00  0.00     0.093 H 
ATOM     69  O4' UDP d   1       7.114  -3.522  18.114  0.00  0.00    -0.353 OA
ATOM     70  H68 UDP d   1       6.549  -3.649  20.110  0.00  0.00     0.123 H 
ATOM     71  H72 UDP d   1       7.133  -1.445  18.542  0.00  0.00     0.090 H 
BRANCH  64  72
ATOM     72  O3' UDP d   1       8.400  -1.612  20.331  0.00  0.00    -0.390 OA
ATOM     73  H73 UDP d   1       8.987  -1.657  21.076  0.00  0.00     0.210 HD
ENDBRANCH  64  72
BRANCH  65  74
ATOM     74  O2' UDP d   1       8.946  -4.193  20.965  0.00  0.00    -0.388 OA
ATOM     75  H70 UDP d   1       8.461  -3.578  21.503  0.00  0.00     0.210 HD
ENDBRANCH  65  74
BRANCH  67  76
ATOM     76  N1  UDP d   1       6.846  -5.574  19.214  0.00  0.00    -0.280 N 
ATOM     77  C2  UDP d   1       5.806  -6.058  20.038  0.00  0.00     0.331 A 
ATOM     78  N3  UDP d   1       5.469  -7.407  19.976  0.00  0.00    -0.275 N 
ATOM     79  O2  UDP d   1       5.150  -5.320  20.750  0.00  0.00    -0.246 OA
ATOM     80  C4  UDP d   1       6.197  -8.191  19.173  0.00  0.00     0.250 A 
ATOM     81  H65 UDP d   1       4.710  -7.777  20.512  0.00  0.00     0.173 HD
ATOM     82  C5  UDP d   1       7.221  -7.700  18.344  0.00  0.00    -0.002 A 
ATOM     83  O4  UDP d   1       5.935  -9.459  19.120  0.00  0.00    -0.268 OA
ATOM     84  C6  UDP d   1       7.525  -6.347  18.348  0.00  0.00    -0.008 A 
ATOM     85  H66 UDP d   1       7.775  -8.381  17.700  0.00  0.00     0.094 H 
ATOM     86  H67 UDP d   1       8.278  -5.930  17.681  0.00  0.00     0.112 H 
ENDBRANCH  67  76
ENDBRANCH  60  63
ENDBRANCH  59  60
ENDBRANCH  56  59
ENDBRANCH  55  56
ENDBRANCH  52  55
ENDBRANCH  51  52
ENDBRANCH  34  51
BRANCH  38  87
ATOM     87  C6  MUB d   1      16.593  -1.151  14.668  0.00  0.00     0.043 C 
ATOM     88  H81 ALA d   1      16.814  -1.896  15.446  0.00  0.00     0.078 H 
ATOM     89  H82 ALA d   1      17.448  -0.468  14.561  0.00  0.00     0.078 H 
BRANCH  87  90
ATOM     90  O6  MUB d   1      16.352  -1.818  13.419  0.00  0.00    -0.398 OA
ATOM     91  H91 ALA d   1      15.613  -2.407  13.513  0.00  0.00     0.209 HD
ENDBRANCH  87  90
ENDBRANCH  38  87
BRANCH  39  92
ATOM     92  O4  MUB d   1      16.493   1.682  15.565  0.00  0.00    -0.390 OA
ATOM     93  H90 ALA d   1      16.756   2.301  16.236  0.00  0.00     0.210 HD
ENDBRANCH  39  92
ENDBRANCH  31  32
ENDBRANCH  25  31
ENDBRANCH  22  25
ENDBRANCH  19  21
BRANCH  19  94
ATOM     94  CB  ALA d   1      14.243   0.765  22.558  0.00  0.00    -0.049 C 
ATOM     95  H3  ALA d   1      13.769   0.471  23.506  0.00  0.00     0.030 H 
ATOM     96  H4  ALA d   1      15.228   1.209  22.763  0.00  0.00     0.030 H 
ATOM     97  H5  ALA d   1      14.366  -0.122  21.919  0.00  0.00     0.030 H 
ENDBRANCH  19  94
ENDBRANCH  16  19
ENDBRANCH  13  15
BRANCH  13  98
ATOM     98  C   FGA d   1      14.743   5.321  24.626  0.00  0.00     0.196 C 
ATOM     99  O   FGA d   1      15.913   4.818  24.488  0.00  0.00    -0.646 OA
ATOM    100  OXT FGA d   1      14.398   5.947  25.669  0.00  0.00    -0.646 OA
ENDBRANCH  13  98
ENDBRANCH  10  13
ENDBRANCH   7  10
ENDBRANCH   4   7
ENDBRANCH   1   3
BRANCH   1 101
ATOM    101  C   CYS d   1       8.325   6.857  19.973  0.00  0.00     0.241 C 
ATOM    102  O   CYS d   1       7.517   7.555  19.328  0.00  0.00    -0.271 OA
ATOM    103  N   DAL d   1       8.480   5.549  19.705  0.00  0.00    -0.346 N 
ATOM    104  H16 DAL d   1       9.065   4.968  20.271  0.00  0.00     0.163 HD
BRANCH 103 105
ATOM    105  CA  DAL d   1       7.754   5.005  18.543  0.00  0.00     0.086 C 
ATOM    106  H17 DAL d   1       6.686   5.204  18.717  0.00  0.00     0.086 H 
BRANCH 105 107
ATOM    107  CB  DAL d   1       7.958   3.487  18.460  0.00  0.00    -0.049 C 
ATOM    108  H18 DAL d   1       7.413   3.091  17.591  0.00  0.00     0.030 H 
ATOM    109  H19 DAL d   1       7.577   3.015  19.378  0.00  0.00     0.030 H 
ATOM    110  H20 DAL d   1       9.030   3.267  18.352  0.00  0.00     0.030 H 
ENDBRANCH 105 107
BRANCH 105 111
ATOM    111  C   DAL d   1       8.098   5.584  17.203  0.00  0.00     0.240 C 
ATOM    112  O   DAL d   1       9.301   5.780  16.898  0.00  0.00    -0.271 OA
ATOM    113  N   DAL d   1       7.057   5.886  16.388  0.00  0.00    -0.345 N 
ATOM    114  H21 DAL d   1       6.125   5.627  16.641  0.00  0.00     0.163 HD
BRANCH 113 115
ATOM    115  CA  DAL d   1       7.315   6.598  15.128  0.00  0.00     0.093 C 
ATOM    116  H22 DAL d   1       7.790   7.566  15.348  0.00  0.00     0.089 H 
BRANCH 115 117
ATOM    117  CB  DAL d   1       5.989   6.827  14.413  0.00  0.00    -0.048 C 
ATOM    118  H23 DAL d   1       6.169   7.360  13.468  0.00  0.00     0.030 H 
ATOM    119  H24 DAL d   1       5.327   7.429  15.053  0.00  0.00     0.030 H 
ATOM    120  H25 DAL d   1       5.514   5.858  14.203  0.00  0.00     0.030 H 
ENDBRANCH 115 117
BRANCH 115 121
ATOM    121  C   DAL d   1       8.246   5.770  14.204  0.00  0.00     0.196 C 
ATOM    122  O   DAL d   1       9.129   6.283  13.441  0.00  0.00    -0.646 OA
ATOM    123  OXT DAL d   1       8.152   4.524  14.137  0.00  0.00    -0.646 OA
ENDBRANCH 115 121
ENDBRANCH 113 115
ENDBRANCH 105 111
ENDBRANCH 103 105
ENDBRANCH   1 101
BRANCH   1 124
ATOM    124  CB  CYS d   1       9.280   9.097  20.972  0.00  0.00     0.004 C 
ATOM    125  H14 CYS d   1       8.829   9.462  20.038  0.00  0.00     0.052 H 
ATOM    126  H15 CYS d   1      10.325   9.436  21.031  0.00  0.00     0.052 H 
BRANCH 124 127
ATOM    127  SG  CYS d   1       8.337   9.660  22.407  0.00  0.00    -0.166 SA
BRANCH 127 128
ATOM    128  C7T A9Z d   1       7.264  11.094  22.414  0.00  0.00    -0.018 C 
ATOM    129  H58 CYS d   1       7.540  11.857  23.157  0.00  0.00     0.049 H 
ATOM    130  H59 CYS d   1       6.195  10.854  22.514  0.00  0.00     0.049 H 
BRANCH 128 131
ATOM    131  C6T A9Z d   1       7.689  11.422  21.014  0.00  0.00    -0.014 C 
ATOM    132  H56 CYS d   1       8.194  10.577  20.524  0.00  0.00     0.043 H 
ATOM    133  H57 CYS d   1       6.846  11.757  20.391  0.00  0.00     0.043 H 
BRANCH 131 134
ATOM    134  C4T A9Z d   1       8.668  12.578  21.347  0.00  0.00     0.070 A 
ATOM    135  C5T A9Z d   1      10.112  12.575  21.387  0.00  0.00     0.021 A 
ATOM    136  N1T A9Z d   1      10.529  13.800  21.790  0.00  0.00    -0.272 N 
ATOM    137  H55 CYS d   1      10.755  11.733  21.136  0.00  0.00     0.116 H 
ATOM    138  N2T A9Z d   1       9.407  14.631  22.006  0.00  0.00     0.005 NA
ATOM    139  N3T A9Z d   1       8.316  13.846  21.722  0.00  0.00    -0.163 NA
BRANCH 136 140
ATOM    140  C2' A9Z d   1      11.727  14.460  21.959  0.00  0.00     0.100 C 
ATOM    141  C3' A9Z d   1      12.280  15.094  20.655  0.00  0.00     0.087 C 
ATOM    142  C4' A9Z d   1      13.808  15.090  20.806  0.00  0.00     0.089 C 
ATOM    143  H52 CYS d   1      11.875  16.108  20.517  0.00  0.00     0.090 H 
ATOM    144  O4' A9Z d   1      14.094  14.303  22.009  0.00  0.00    -0.354 OA
ATOM    145  H51 CYS d   1      14.230  14.571  19.933  0.00  0.00     0.090 H 
ATOM    146  C1' A9Z d   1      12.898  13.480  22.231  0.00  0.00     0.136 C 
ATOM    147  H60 CYS d   1      12.859  12.590  21.586  0.00  0.00     0.122 H 
ATOM    148  H54 CYS d   1      11.616  15.206  22.760  0.00  0.00     0.086 H 
BRANCH 141 149
ATOM    149  O3' A9Z d   1      12.045  14.296  19.506  0.00  0.00    -0.391 OA
ATOM    150  H53 CYS d   1      11.111  14.247  19.341  0.00  0.00     0.210 HD
ENDBRANCH 141 149
BRANCH 142 151
ATOM    151  C5' A9Z d   1      14.474  16.443  20.875  0.00  0.00     0.058 C 
ATOM    152  H49 CYS d   1      15.561  16.360  20.726  0.00  0.00     0.079 H 
ATOM    153  H50 CYS d   1      14.053  17.132  20.128  0.00  0.00     0.079 H 
BRANCH 151 154
ATOM    154  O5' A9Z d   1      14.171  16.862  22.182  0.00  0.00    -0.287 OA
BRANCH 154 155
ATOM    155  P   A9Z d   1      15.200  18.097  22.884  0.00  0.00     0.408 P 
ATOM    156  OP1 A9Z d   1      15.569  19.022  21.672  0.00  0.00    -0.624 OA
ATOM    157  OP2 A9Z d   1      16.441  17.745  23.649  0.00  0.00    -0.624 OA
BRANCH 155 158
ATOM    158  O3'   C d   1      13.925  19.003  23.613  0.00  0.00    -0.279 OA
BRANCH 158 159
ATOM    159  C3'   C d   1      14.508  19.836  24.638  0.00  0.00     0.106 C 
ATOM    160  C4'   C d   1      13.493  19.980  25.756  0.00  0.00     0.090 C 
ATOM    161  O4'   C d   1      13.827  21.245  26.393  0.00  0.00    -0.353 OA
ATOM    162  H40   C d   1      12.484  20.026  25.320  0.00  0.00     0.090 H 
ATOM    163  C1'   C d   1      14.496  22.083  25.476  0.00  0.00     0.141 C 
ATOM    164  C2'   C d   1      14.647  21.287  24.159  0.00  0.00     0.106 C 
ATOM    165  H44   C d   1      13.897  22.983  25.276  0.00  0.00     0.123 H 
ATOM    166  H42   C d   1      15.621  21.489  23.690  0.00  0.00     0.093 H 
ATOM    167  H41   C d   1      15.466  19.420  24.983  0.00  0.00     0.092 H 
BRANCH 160 168
ATOM    168  C5'   C d   1      13.505  18.896  26.784  0.00  0.00     0.058 C 
ATOM    169  H38   C d   1      12.596  18.968  27.400  0.00  0.00     0.079 H 
ATOM    170  H39   C d   1      13.531  17.918  26.281  0.00  0.00     0.079 H 
BRANCH 168 171
ATOM    171  O5'   C d   1      14.662  19.029  27.626  0.00  0.00    -0.287 OA
BRANCH 171 172
ATOM    172  P     C d   1      15.091  17.896  28.637  0.00  0.00     0.408 P 
ATOM    173  OP1   C d   1      14.477  16.628  28.134  0.00  0.00    -0.624 OA
ATOM    174  OP2   C d   1      16.577  17.971  28.895  0.00  0.00    -0.624 OA
BRANCH 172 175
ATOM    175  O3'   C d   1      14.277  18.355  29.941  0.00  0.00    -0.279 OA
BRANCH 175 176
ATOM    176  C3'   C d   1      14.673  19.587  30.522  0.00  0.00     0.106 C 
ATOM    177  C4'   C d   1      14.227  19.615  31.969  0.00  0.00     0.090 C 
ATOM    178  O4'   C d   1      14.244  21.037  32.271  0.00  0.00    -0.353 OA
ATOM    179  H29   C d   1      13.202  19.222  32.041  0.00  0.00     0.090 H 
ATOM    180  C1'   C d   1      14.006  21.784  31.073  0.00  0.00     0.141 C 
ATOM    181  C2'   C d   1      13.891  20.764  29.941  0.00  0.00     0.106 C 
ATOM    182  H33   C d   1      13.086  22.382  31.150  0.00  0.00     0.123 H 
ATOM    183  H31   C d   1      14.359  21.137  29.018  0.00  0.00     0.093 H 
ATOM    184  H30   C d   1      15.759  19.727  30.416  0.00  0.00     0.092 H 
BRANCH 177 185
ATOM    185  C5'   C d   1      15.081  18.841  32.939  0.00  0.00     0.056 C 
ATOM    186  H27   C d   1      14.704  18.997  33.961  0.00  0.00     0.079 H 
ATOM    187  H28   C d   1      15.034  17.770  32.691  0.00  0.00     0.079 H 
BRANCH 185 188
ATOM    188  O5'   C d   1      16.443  19.287  32.862  0.00  0.00    -0.311 OA
BRANCH 188 189
ATOM    189  P     C d   1      17.382  19.144  34.140  0.00  0.00     0.240 P 
ATOM    190  OP1   C d   1      16.611  19.640  35.322  0.00  0.00    -0.648 OA
ATOM    191  OP2   C d   1      17.815  17.730  34.084  0.00  0.00    -0.648 OA
ATOM    192  H26   C d   1      18.200  19.726  34.049  0.00  0.00     0.164 HD
ENDBRANCH 188 189
ENDBRANCH 185 188
ENDBRANCH 177 185
BRANCH 180 193
ATOM    193  N1    C d   1      15.170  22.656  30.874  0.00  0.00    -0.280 N 
ATOM    194  C2    C d   1      15.071  23.786  30.045  0.00  0.00     0.330 A 
ATOM    195  O2    C d   1      13.987  24.040  29.478  0.00  0.00    -0.246 OA
ATOM    196  N3    C d   1      16.152  24.587  29.902  0.00  0.00    -0.293 N 
ATOM    197  C4    C d   1      17.304  24.267  30.501  0.00  0.00     0.125 A 
ATOM    198  H34   C d   1      16.090  25.418  29.349  0.00  0.00     0.172 HD
ATOM    199  C5    C d   1      17.423  23.131  31.354  0.00  0.00    -0.024 A 
ATOM    200  C6    C d   1      16.343  22.369  31.518  0.00  0.00    -0.009 A 
ATOM    201  H36   C d   1      18.362  22.895  31.853  0.00  0.00     0.091 H 
ATOM    202  H37   C d   1      16.394  21.503  32.176  0.00  0.00     0.112 H 
BRANCH 197 203
ATOM    203  N4    C d   1      18.343  25.088  30.333  0.00  0.00    -0.284 NA
ATOM    204  H35   C d   1      19.227  24.878  30.770  0.00  0.00     0.188 HD
ENDBRANCH 197 203
ENDBRANCH 180 193
BRANCH 181 205
ATOM    205  O2'   C d   1      12.549  20.423  29.675  0.00  0.00    -0.388 OA
ATOM    206  H32   C d   1      12.523  19.709  29.049  0.00  0.00     0.210 HD
ENDBRANCH 181 205
ENDBRANCH 175 176
ENDBRANCH 172 175
ENDBRANCH 171 172
ENDBRANCH 168 171
ENDBRANCH 160 168
BRANCH 163 207
ATOM    207  N1    C d   1      15.769  22.493  26.106  0.00  0.00    -0.280 N 
ATOM    208  C2    C d   1      16.467  23.580  25.568  0.00  0.00     0.330 A 
ATOM    209  O2    C d   1      15.962  24.209  24.621  0.00  0.00    -0.246 OA
ATOM    210  N3    C d   1      17.654  23.941  26.120  0.00  0.00    -0.293 N 
ATOM    211  C4    C d   1      18.168  23.219  27.123  0.00  0.00     0.125 A 
ATOM    212  H45   C d   1      18.143  24.744  25.778  0.00  0.00     0.172 HD
ATOM    213  C5    C d   1      17.500  22.073  27.650  0.00  0.00    -0.024 A 
ATOM    214  C6    C d   1      16.326  21.739  27.104  0.00  0.00    -0.009 A 
ATOM    215  H47   C d   1      17.930  21.493  28.465  0.00  0.00     0.091 H 
ATOM    216  H48   C d   1      15.804  20.852  27.459  0.00  0.00     0.112 H 
BRANCH 211 217
ATOM    217  N4    C d   1      19.337  23.607  27.642  0.00  0.00    -0.284 NA
ATOM    218  H46   C d   1      19.751  23.085  28.398  0.00  0.00     0.188 HD
ENDBRANCH 211 217
ENDBRANCH 163 207
BRANCH 164 219
ATOM    219  O2'   C d   1      13.596  21.483  23.212  0.00  0.00    -0.388 OA
ATOM    220  H43   C d   1      13.700  20.870  22.494  0.00  0.00     0.210 HD
ENDBRANCH 164 219
ENDBRANCH 158 159
ENDBRANCH 155 158
ENDBRANCH 154 155
ENDBRANCH 151 154
ENDBRANCH 142 151
BRANCH 146 221
ATOM    221  N9  A9Z d   1      12.913  13.136  23.620  0.00  0.00    -0.294 N 
ATOM    222  C4  A9Z d   1      12.617  11.933  24.169  0.00  0.00     0.167 A 
ATOM    223  C5  A9Z d   1      12.819  12.053  25.604  0.00  0.00     0.149 A 
ATOM    224  N3  A9Z d   1      12.220  10.783  23.605  0.00  0.00    -0.222 NA
ATOM    225  N7  A9Z d   1      13.278  13.357  25.806  0.00  0.00    -0.236 NA
ATOM    226  C6  A9Z d   1      12.542  10.866  26.401  0.00  0.00     0.155 A 
ATOM    227  C8  A9Z d   1      13.333  13.974  24.620  0.00  0.00     0.071 A 
ATOM    228  H61 CYS d   1      13.665  15.000  24.470  0.00  0.00     0.144 H 
ATOM    229  N1  A9Z d   1      12.075   9.709  25.748  0.00  0.00    -0.222 NA
ATOM    230  C2  A9Z d   1      11.929   9.742  24.431  0.00  0.00     0.091 A 
ATOM    231  H62 CYS d   1      11.537   8.846  23.963  0.00  0.00     0.146 H 
BRANCH 226 232
ATOM    232  N6  A9Z d   1      12.715  10.922  27.705  0.00  0.00    -0.382 N 
ATOM    233  H63 CYS d   1      12.524  10.093  28.286  0.00  0.00     0.157 HD
ATOM    234  H64 CYS d   1      13.041  11.795  28.144  0.00  0.00     0.157 HD
ENDBRANCH 226 232
ENDBRANCH 146 221
ENDBRANCH 136 140
ENDBRANCH 131 134
ENDBRANCH 128 131
ENDBRANCH 127 128
ENDBRANCH 124 127
ENDBRANCH   1 124
TORSDOF 63
