REMARK  4 active torsions:
REMARK  status: ('A' for Active; 'I' for Inactive)
REMARK    1  A    between atoms: C05_5  and  C07_7 
REMARK    2  A    between atoms: N08_8  and  C12_12 
REMARK    3  A    between atoms: C09_9  and  S18_18 
REMARK    4  A    between atoms: C20_20  and  C22_22 
ROOT
ATOM      1  C07 1EJ d   1      13.777  -8.739  25.614  0.00  0.00     0.169 A 
ATOM      2  N08 1EJ d   1      13.981  -9.623  26.623  0.00  0.00    -0.271 N 
ATOM      3  C09 1EJ d   1      13.927  -8.909  27.762  0.00  0.00     0.193 A 
ATOM      4  N10 1EJ d   1      13.647  -7.658  27.472  0.00  0.00    -0.122 NA
ATOM      5  N11 1EJ d   1      13.577  -7.534  26.148  0.00  0.00    -0.128 NA
ENDROOT
BRANCH   2   6
ATOM      6  C12 1EJ d   1      14.225 -11.009  26.409  0.00  0.00     0.044 A 
ATOM      7  C13 1EJ d   1      15.338 -11.329  25.666  0.00  0.00    -0.039 A 
ATOM      8  C14 1EJ d   1      15.587 -12.669  25.385  0.00  0.00     0.020 A 
ATOM      9  H5  1EJ d   1      16.006 -10.554  25.307  0.00  0.00     0.089 H 
ATOM     10  C15 1EJ d   1      14.707 -13.651  25.838  0.00  0.00     0.004 A 
ATOM     11  S19 1EJ d   1      16.859 -13.393  24.502  0.00  0.00    -0.081 SA
ATOM     12  C16 1EJ d   1      13.576 -13.317  26.610  0.00  0.00    -0.068 A 
ATOM     13  C21 1EJ d   1      15.104 -14.978  25.443  0.00  0.00     0.069 A 
ATOM     14  C17 1EJ d   1      13.330 -11.973  26.891  0.00  0.00    -0.056 A 
ATOM     15  H6  1EJ d   1      12.910 -14.089  26.978  0.00  0.00     0.085 H 
ATOM     16  H7  1EJ d   1      12.463 -11.680  27.471  0.00  0.00     0.087 H 
ATOM     17  C20 1EJ d   1      16.288 -14.989  24.711  0.00  0.00     0.104 A 
ATOM     18 CL2  1EJ d   1      14.160 -16.347  25.900  0.00  0.00    -0.082 Cl
BRANCH  17  19
ATOM     19  C22 1EJ d   1      17.012 -16.110  24.095  0.00  0.00     0.218 C 
ATOM     20  O23 1EJ d   1      16.669 -17.282  24.291  0.00  0.00    -0.643 OA
ATOM     21  O24 1EJ d   1      17.951 -15.788  23.333  0.00  0.00    -0.643 OA
ENDBRANCH  17  19
ENDBRANCH   2   6
BRANCH   1  22
ATOM     22  C05 1EJ d   1      13.731  -8.982  24.180  0.00  0.00     0.012 A 
ATOM     23  C04 1EJ d   1      14.315  -8.068  23.336  0.00  0.00    -0.066 A 
ATOM     24  C03 1EJ d   1      14.266  -8.272  21.974  0.00  0.00    -0.045 A 
ATOM     25  H3  1EJ d   1      14.811  -7.192  23.739  0.00  0.00     0.085 H 
ATOM     26  C02 1EJ d   1      13.576  -9.358  21.449  0.00  0.00     0.116 A 
ATOM     27  H2  1EJ d   1      14.769  -7.581  21.308  0.00  0.00     0.088 H 
ATOM     28  C01 1EJ d   1      12.981 -10.252  22.296  0.00  0.00    -0.045 A 
ATOM     29  F26 1EJ d   1      13.490  -9.534  20.128  0.00  0.00    -0.206 F 
ATOM     30  C06 1EJ d   1      13.044 -10.058  23.670  0.00  0.00    -0.066 A 
ATOM     31  H1  1EJ d   1      12.460 -11.113  21.894  0.00  0.00     0.088 H 
ATOM     32  H4  1EJ d   1      12.552 -10.754  24.339  0.00  0.00     0.085 H 
ENDBRANCH   1  22
BRANCH   3  33
ATOM     33  S18 1EJ d   1      14.139  -9.577  29.337  0.00  0.00    -0.103 SA
ATOM     34  H8  1EJ d   1      13.293  -9.452  29.870  0.00  0.00     0.110 HD
ENDBRANCH   3  33
TORSDOF 4
