REMARK  5 active torsions:
REMARK  status: ('A' for Active; 'I' for Inactive)
REMARK    1  A    between atoms: C08_8  and  C10_10 
REMARK    2  A    between atoms: N11_11  and  C20_20 
REMARK    3  A    between atoms: C12_12  and  S15_15 
REMARK    4  A    between atoms: S15_15  and  C16_16 
REMARK    5  A    between atoms: C16_16  and  C17_17 
ROOT
ATOM      1  C10 1EK d   1      -6.566  -9.395   2.747  0.00  0.00     0.177 A 
ATOM      2  N11 1EK d   1      -6.054  -8.924   1.554  0.00  0.00    -0.271 N 
ATOM      3  C12 1EK d   1      -6.713  -7.740   1.334  0.00  0.00     0.197 A 
ATOM      4  N13 1EK d   1      -7.561  -7.515   2.329  0.00  0.00    -0.122 NA
ATOM      5  N14 1EK d   1      -7.469  -8.517   3.191  0.00  0.00    -0.127 NA
ENDROOT
BRANCH   1   6
ATOM      6  C08 1EK d   1      -6.221 -10.634   3.495  0.00  0.00     0.076 A 
ATOM      7  S07 1EK d   1      -7.289 -11.809   4.039  0.00  0.00    -0.084 SA
ATOM      8  C03 1EK d   1      -6.183 -12.838   4.819  0.00  0.00     0.017 A 
ATOM      9  C02 1EK d   1      -6.315 -14.051   5.497  0.00  0.00    -0.066 A 
ATOM     10  C04 1EK d   1      -4.923 -12.246   4.675  0.00  0.00     0.004 A 
ATOM     11  C01 1EK d   1      -5.184 -14.660   6.038  0.00  0.00    -0.082 A 
ATOM     12  H2  1EK d   1      -7.289 -14.515   5.602  0.00  0.00     0.085 H 
ATOM     13  C06 1EK d   1      -3.933 -14.053   5.894  0.00  0.00    -0.082 A 
ATOM     14  H1  1EK d   1      -5.274 -15.601   6.569  0.00  0.00     0.083 H 
ATOM     15  C05 1EK d   1      -3.785 -12.844   5.214  0.00  0.00    -0.070 A 
ATOM     16  H4  1EK d   1      -3.059 -14.532   6.320  0.00  0.00     0.083 H 
ATOM     17  H3  1EK d   1      -2.810 -12.382   5.107  0.00  0.00     0.084 H 
ATOM     18  C09 1EK d   1      -4.949 -11.008   3.939  0.00  0.00     0.066 A 
ATOM     19 CL2  1EK d   1      -3.514 -10.094   3.633  0.00  0.00    -0.082 Cl
ENDBRANCH   1   6
BRANCH   2  20
ATOM     20  C20 1EK d   1      -5.080  -9.480   0.660  0.00  0.00     0.043 A 
ATOM     21  C21 1EK d   1      -3.884  -8.808   0.414  0.00  0.00    -0.057 A 
ATOM     22  C22 1EK d   1      -2.959  -9.369  -0.470  0.00  0.00    -0.081 A 
ATOM     23  H7  1EK d   1      -3.674  -7.863   0.902  0.00  0.00     0.086 H 
ATOM     24  C23 1EK d   1      -3.234 -10.578  -1.106  0.00  0.00    -0.083 A 
ATOM     25  H8  1EK d   1      -2.021  -8.861  -0.662  0.00  0.00     0.083 H 
ATOM     26  C24 1EK d   1      -4.436 -11.244  -0.862  0.00  0.00    -0.081 A 
ATOM     27  H9  1EK d   1      -2.511 -11.003  -1.793  0.00  0.00     0.083 H 
ATOM     28  C25 1EK d   1      -5.360 -10.681   0.017  0.00  0.00    -0.057 A 
ATOM     29  H10 1EK d   1      -4.649 -12.188  -1.350  0.00  0.00     0.083 H 
ATOM     30  H11 1EK d   1      -6.303 -11.183   0.201  0.00  0.00     0.086 H 
ENDBRANCH   2  20
BRANCH   3  31
ATOM     31  S15 1EK d   1      -6.496  -6.672  -0.039  0.00  0.00    -0.079 SA
BRANCH  31  32
ATOM     32  C16 1EK d   1      -7.927  -5.646   0.020  0.00  0.00     0.064 C 
ATOM     33  H5  1EK d   1      -7.855  -4.963   0.880  0.00  0.00     0.066 H 
ATOM     34  H6  1EK d   1      -8.825  -6.273   0.124  0.00  0.00     0.066 H 
BRANCH  32  35
ATOM     35  C17 1EK d   1      -8.016  -4.859  -1.230  0.00  0.00     0.182 C 
ATOM     36  O18 1EK d   1      -8.928  -4.007  -1.381  0.00  0.00    -0.647 OA
ATOM     37  O19 1EK d   1      -7.124  -5.080  -2.113  0.00  0.00    -0.647 OA
ENDBRANCH  32  35
ENDBRANCH  31  32
ENDBRANCH   3  31
TORSDOF 5
