REMARK  4 active torsions:
REMARK  status: ('A' for Active; 'I' for Inactive)
REMARK    1  A    between atoms: CAA_7  and  CAD_8 
REMARK    2  A    between atoms: CAD_8  and  NAG_9 
REMARK       I    between atoms: NAG_9  and  CAM_10 
REMARK    3  A    between atoms: CAM_10  and  CAL_12 
REMARK    4  A    between atoms: CAW_25  and  CAZ_26 
REMARK       I    between atoms: CAZ_26  and  NBA_28 
ROOT
ATOM      1  CAL 1EH d   1     -23.940 -29.581  20.139  0.00  0.00     0.073 A 
ATOM      2  SAK 1EH d   1     -23.704 -27.928  19.991  0.00  0.00    -0.084 SA
ATOM      3  CAO 1EH d   1     -24.809 -29.791  21.134  0.00  0.00    -0.060 A 
ATOM      4  CAN 1EH d   1     -25.216 -28.662  21.758  0.00  0.00    -0.064 A 
ATOM      5  CAJ 1EH d   1     -24.727 -27.511  21.265  0.00  0.00     0.017 A 
ATOM      6  CAV 1EH d   1     -24.936 -26.181  21.655  0.00  0.00    -0.007 A 
ATOM      7  CAY 1EH d   1     -23.909 -25.243  21.500  0.00  0.00    -0.071 A 
ATOM      8  CAX 1EH d   1     -24.091 -23.909  21.858  0.00  0.00    -0.081 A 
ATOM      9  CAT 1EH d   1     -25.325 -23.491  22.346  0.00  0.00    -0.066 A 
ATOM     10  CAQ 1EH d   1     -26.365 -24.411  22.484  0.00  0.00     0.017 A 
ATOM     11  SAS 1EH d   1     -27.938 -24.228  23.056  0.00  0.00    -0.084 SA
ATOM     12  CAR 1EH d   1     -26.197 -25.771  22.136  0.00  0.00    -0.006 A 
ATOM     13  CAU 1EH d   1     -27.322 -26.498  22.357  0.00  0.00    -0.049 A 
ATOM     14  CAW 1EH d   1     -28.368 -25.827  22.853  0.00  0.00     0.074 A 
ATOM     15  H7  1EH d   1     -25.158 -30.783  21.417  0.00  0.00     0.085 H 
ATOM     16  H8  1EH d   1     -25.898 -28.684  22.607  0.00  0.00     0.085 H 
ATOM     17  H9  1EH d   1     -22.955 -25.560  21.094  0.00  0.00     0.084 H 
ATOM     18  H10 1EH d   1     -23.276 -23.201  21.757  0.00  0.00     0.083 H 
ATOM     19  H11 1EH d   1     -25.478 -22.453  22.618  0.00  0.00     0.085 H 
ATOM     20  H12 1EH d   1     -27.370 -27.565  22.143  0.00  0.00     0.087 H 
ENDROOT
BRANCH   1  21
ATOM     21  CAM 1EH d   1     -23.342 -30.645  19.206  0.00  0.00     0.258 C 
ATOM     22  NAG 1EH d   1     -23.557 -31.915  19.556  0.00  0.00    -0.352 N 
ATOM     23  H6  1EH d   1     -24.043 -32.097  20.411  0.00  0.00     0.163 HD
ATOM     24  OAP 1EH d   1     -22.737 -30.306  18.190  0.00  0.00    -0.267 OA
BRANCH  22  25
ATOM     25  CAD 1EH d   1     -23.113 -33.064  18.743  0.00  0.00     0.019 C 
ATOM     26  H4  1EH d   1     -23.735 -33.933  19.005  0.00  0.00     0.071 H 
ATOM     27  H5  1EH d   1     -23.261 -32.813  17.682  0.00  0.00     0.071 H 
BRANCH  25  28
ATOM     28  CAA 1EH d   1     -21.647 -33.446  18.945  0.00  0.00    -0.036 A 
ATOM     29  CAB 1EH d   1     -20.617 -32.605  18.528  0.00  0.00    -0.036 A 
ATOM     30  CAE 1EH d   1     -19.294 -33.017  18.698  0.00  0.00     0.126 A 
ATOM     31  H1  1EH d   1     -20.840 -31.644  18.078  0.00  0.00     0.089 H 
ATOM     32 CL   1EH d   1     -18.001 -31.973  18.220  0.00  0.00    -0.062 Cl
ATOM     33  NAH 1EH d   1     -19.019 -34.226  19.232  0.00  0.00    -0.249 NA
ATOM     34  CAF 1EH d   1     -19.987 -35.057  19.605  0.00  0.00     0.004 A 
ATOM     35  CAC 1EH d   1     -21.327 -34.698  19.466  0.00  0.00    -0.058 A 
ATOM     36  H2  1EH d   1     -19.732 -36.025  20.022  0.00  0.00     0.114 H 
ATOM     37  H3  1EH d   1     -22.112 -35.386  19.760  0.00  0.00     0.086 H 
ENDBRANCH  25  28
ENDBRANCH  22  25
ENDBRANCH   1  21
BRANCH  14  38
ATOM     38  CAZ 1EH d   1     -29.742 -26.415  23.203  0.00  0.00     0.256 C 
ATOM     39  OBB 1EH d   1     -30.564 -25.753  23.835  0.00  0.00    -0.267 OA
ATOM     40  NBA 1EH d   1     -29.957 -27.662  22.789  0.00  0.00    -0.366 N 
ATOM     41  H13 1EH d   1     -30.830 -28.109  22.982  0.00  0.00     0.159 HD
ATOM     42  H14 1EH d   1     -29.245 -28.151  22.285  0.00  0.00     0.159 HD
ENDBRANCH  14  38
TORSDOF 4
