REMARK  11 active torsions:
REMARK  status: ('A' for Active; 'I' for Inactive)
REMARK    1  A    between atoms: PAZ_2  and  CAL_5 
REMARK    2  A    between atoms: CAL_5  and  OAR_6 
REMARK    3  A    between atoms: OAR_6  and  CAJ_7 
REMARK    4  A    between atoms: CAJ_7  and  CAX_8 
REMARK    5  A    between atoms: CAX_8  and  CAK_9 
REMARK    6  A    between atoms: CAX_8  and  CAN_16 
REMARK    7  A    between atoms: CAK_9  and  OAS_10 
REMARK    8  A    between atoms: OAS_10  and  CAM_11 
REMARK    9  A    between atoms: CAM_11  and  PBA_12 
REMARK   10  A    between atoms: CAN_16  and  N9_17 
REMARK   11  A    between atoms: C2_23  and  N2_24 
ROOT
ATOM      1  CAX SV2 d   1      -7.620 -18.814 -18.906  0.00  0.00     0.003 C 
ATOM      2  H5  SV2 d   1      -8.096 -19.615 -19.491  0.00  0.00     0.049 H 
ENDROOT
BRANCH   1   3
ATOM      3  CAJ SV2 d   1      -7.394 -19.510 -17.597  0.00  0.00     0.027 C 
ATOM      4  H3  SV2 d   1      -7.430 -20.593 -17.788  0.00  0.00     0.075 H 
ATOM      5  H4  SV2 d   1      -6.389 -19.233 -17.245  0.00  0.00     0.075 H 
BRANCH   3   6
ATOM      6  OAR SV2 d   1      -8.273 -19.243 -16.582  0.00  0.00    -0.377 OA
BRANCH   6   7
ATOM      7  CAL SV2 d   1      -7.652 -18.780 -15.434  0.00  0.00     0.122 C 
ATOM      8  H1  SV2 d   1      -7.187 -19.642 -14.933  0.00  0.00     0.095 H 
ATOM      9  H2  SV2 d   1      -6.871 -18.068 -15.739  0.00  0.00     0.095 H 
BRANCH   7  10
ATOM     10  PAZ SV2 d   1      -8.729 -17.938 -14.213  0.00  0.00     0.283 P 
ATOM     11  OAE SV2 d   1      -9.463 -19.059 -13.398  0.00  0.00    -0.638 OA
ATOM     12  OAF SV2 d   1      -7.817 -17.099 -13.256  0.00  0.00    -0.638 OA
ATOM     13  OAC SV2 d   1      -9.716 -17.048 -14.938  0.00  0.00    -0.638 OA
ENDBRANCH   7  10
ENDBRANCH   6   7
ENDBRANCH   3   6
ENDBRANCH   1   3
BRANCH   1  14
ATOM     14  CAK SV2 d   1      -6.315 -18.641 -19.633  0.00  0.00     0.027 C 
ATOM     15  H6  SV2 d   1      -6.195 -19.507 -20.300  0.00  0.00     0.075 H 
ATOM     16  H7  SV2 d   1      -5.516 -18.647 -18.877  0.00  0.00     0.075 H 
BRANCH  14  17
ATOM     17  OAS SV2 d   1      -6.146 -17.502 -20.402  0.00  0.00    -0.377 OA
BRANCH  17  18
ATOM     18  CAM SV2 d   1      -5.223 -16.615 -19.841  0.00  0.00     0.122 C 
ATOM     19  H8  SV2 d   1      -4.505 -17.209 -19.256  0.00  0.00     0.095 H 
ATOM     20  H9  SV2 d   1      -5.775 -15.941 -19.169  0.00  0.00     0.095 H 
BRANCH  18  21
ATOM     21  PBA SV2 d   1      -4.266 -15.576 -20.999  0.00  0.00     0.283 P 
ATOM     22  OAG SV2 d   1      -5.292 -14.584 -21.653  0.00  0.00    -0.638 OA
ATOM     23  OAH SV2 d   1      -3.237 -14.825 -20.089  0.00  0.00    -0.638 OA
ATOM     24  OAD SV2 d   1      -3.534 -16.355 -22.062  0.00  0.00    -0.638 OA
ENDBRANCH  18  21
ENDBRANCH  17  18
ENDBRANCH  14  17
ENDBRANCH   1  14
BRANCH   1  25
ATOM     25  CAN SV2 d   1      -8.703 -17.704 -19.059  0.00  0.00     0.009 C 
ATOM     26  H10 SV2 d   1      -8.258 -16.739 -19.343  0.00  0.00     0.065 H 
ATOM     27  H11 SV2 d   1      -9.289 -17.580 -18.137  0.00  0.00     0.065 H 
BRANCH  25  28
ATOM     28  N9  SV2 d   1      -9.510 -18.262 -20.138  0.00  0.00    -0.323 N 
ATOM     29  C8  SV2 d   1      -9.506 -17.911 -21.441  0.00  0.00     0.068 A 
ATOM     30  N7  SV2 d   1     -10.347 -18.748 -22.093  0.00  0.00    -0.235 NA
ATOM     31  H12 SV2 d   1      -8.931 -17.101 -21.887  0.00  0.00     0.143 H 
ATOM     32  C5  SV2 d   1     -10.846 -19.655 -21.161  0.00  0.00     0.159 A 
ATOM     33  C4  SV2 d   1     -10.307 -19.374 -19.934  0.00  0.00     0.183 A 
ATOM     34  C6  SV2 d   1     -11.746 -20.740 -21.278  0.00  0.00     0.226 A 
ATOM     35  N3  SV2 d   1     -10.666 -20.124 -18.838  0.00  0.00    -0.044 NA
ATOM     36  C2  SV2 d   1     -11.527 -21.149 -18.985  0.00  0.00     0.702 A 
ATOM     37  N1  SV2 d   1     -12.048 -21.448 -20.188  0.00  0.00    -0.164 N 
ATOM     38  H15 SV2 d   1     -12.678 -22.221 -20.268  0.00  0.00     0.186 HD
ATOM     39  O6  SV2 d   1     -12.292 -21.037 -22.515  0.00  0.00    -0.169 OA
BRANCH  36  40
ATOM     40  N2  SV2 d   1     -11.918 -21.947 -17.875  0.00  0.00    -0.233 N 
ATOM     41  H13 SV2 d   1     -11.539 -21.747 -16.938  0.00  0.00     0.174 HD
ATOM     42  H14 SV2 d   1     -12.580 -22.725 -18.008  0.00  0.00     0.174 HD
ENDBRANCH  36  40
ENDBRANCH  25  28
ENDBRANCH   1  25
TORSDOF 11
