REMARK  26 active torsions:
REMARK  status: ('A' for Active; 'I' for Inactive)
REMARK    1  A    between atoms: N_1  and  CA_2 
REMARK    2  A    between atoms: CA_2  and  C_3 
REMARK    3  A    between atoms: CA_2  and  CB_5 
REMARK       I    between atoms: C_3  and  N_9 
REMARK    4  A    between atoms: CB_5  and  CG_6 
REMARK    5  A    between atoms: N_9  and  CA_10 
REMARK    6  A    between atoms: CA_10  and  C_11 
REMARK    7  A    between atoms: CA_10  and  CB_13 
REMARK       I    between atoms: C_11  and  N_21 
REMARK    8  A    between atoms: CB_13  and  CG_14 
REMARK    9  A    between atoms: CZ_19  and  OH_20 
REMARK   10  A    between atoms: N_21  and  CA_22 
REMARK   11  A    between atoms: CA_22  and  C_23 
REMARK   12  A    between atoms: CA_22  and  CB_25 
REMARK       I    between atoms: C_23  and  N_30 
REMARK   13  A    between atoms: CB_25  and  CG_26 
REMARK   14  A    between atoms: CG_26  and  CD_27 
REMARK       I    between atoms: CD_27  and  NE2_29 
REMARK   15  A    between atoms: N_30  and  CA_31 
REMARK   16  A    between atoms: CA_31  and  C_32 
REMARK   17  A    between atoms: CA_31  and  CB_34 
REMARK       I    between atoms: C_32  and  N_41 
REMARK   18  A    between atoms: CB_34  and  CG_35 
REMARK   19  A    between atoms: CG_35  and  CD_36 
REMARK   20  A    between atoms: CD_36  and  NE_37 
REMARK       I    between atoms: NE_37  and  CZ_38 
REMARK       I    between atoms: CZ_38  and  NH1_39 
REMARK   21  A    between atoms: N_41  and  CA_42 
REMARK   22  A    between atoms: CA_42  and  C_43 
REMARK   23  A    between atoms: CA_42  and  CB_45 
REMARK   24  A    between atoms: CB_45  and  CG_46 
REMARK   25  A    between atoms: CG_46  and  CD1_47 
REMARK   26  A    between atoms: CG_46  and  CD2_48 
ROOT
ATOM      1  CA  GLN d   1     -12.111  -4.970   5.500  0.00  0.00     0.090 C 
ATOM      2  H17 GLN d   1     -11.625  -5.852   5.944  0.00  0.00     0.087 H 
ENDROOT
BRANCH   1   3
ATOM      3  N   GLN d   1     -12.813  -5.349   4.298  0.00  0.00    -0.346 N 
ATOM      4  C   TYR d   1     -13.488  -6.492   4.210  0.00  0.00     0.241 C 
ATOM      5  O   TYR d   1     -13.406  -7.379   5.065  0.00  0.00    -0.271 OA
ATOM      6  H16 GLN d   1     -12.792  -4.735   3.509  0.00  0.00     0.163 HD
BRANCH   4   7
ATOM      7  CA  TYR d   1     -14.385  -6.701   2.992  0.00  0.00     0.093 C 
ATOM      8  H8  TYR d   1     -14.034  -6.061   2.169  0.00  0.00     0.088 H 
BRANCH   7   9
ATOM      9  N   TYR d   1     -14.292  -8.110   2.599  0.00  0.00    -0.346 N 
ATOM     10  C   ASP d   1     -13.335  -8.544   1.786  0.00  0.00     0.249 C 
ATOM     11  O   ASP d   1     -12.550  -7.767   1.209  0.00  0.00    -0.271 OA
ATOM     12  H7  TYR d   1     -14.965  -8.760   2.951  0.00  0.00     0.163 HD
BRANCH  10  13
ATOM     13  CA  ASP d   1     -13.299 -10.079   1.546  0.00  0.00     0.185 C 
ATOM     14  H4  ASP d   1     -12.352 -10.326   1.043  0.00  0.00     0.100 H 
BRANCH  13  15
ATOM     15  N   ASP d   1     -13.365 -10.882   2.836  0.00  0.00    -0.066 N 
ATOM     16  H1  ASP d   1     -13.338 -11.866   2.621  0.00  0.00     0.275 HD
ATOM     17  H2  ASP d   1     -14.222 -10.668   3.322  0.00  0.00     0.275 HD
ATOM     18  H3  ASP d   1     -12.579 -10.644   3.420  0.00  0.00     0.275 HD
ENDBRANCH  13  15
BRANCH  13  19
ATOM     19  CB  ASP d   1     -14.459 -10.455   0.621  0.00  0.00     0.050 C 
ATOM     20  H5  ASP d   1     -15.322  -9.815   0.858  0.00  0.00     0.052 H 
ATOM     21  H6  ASP d   1     -14.725 -11.508   0.797  0.00  0.00     0.052 H 
BRANCH  19  22
ATOM     22  CG  ASP d   1     -14.105 -10.277  -0.855  0.00  0.00     0.175 C 
ATOM     23  OD1 ASP d   1     -14.758  -9.444  -1.578  0.00  0.00    -0.648 OA
ATOM     24  OD2 ASP d   1     -13.146 -10.975  -1.278  0.00  0.00    -0.648 OA
ENDBRANCH  19  22
ENDBRANCH  13  19
ENDBRANCH  10  13
ENDBRANCH   7   9
BRANCH   7  25
ATOM     25  CB  TYR d   1     -15.857  -6.359   3.302  0.00  0.00    -0.014 C 
ATOM     26  H9  TYR d   1     -15.891  -5.451   3.922  0.00  0.00     0.043 H 
ATOM     27  H10 TYR d   1     -16.311  -7.196   3.853  0.00  0.00     0.043 H 
BRANCH  25  28
ATOM     28  CG  TYR d   1     -16.637  -6.122   2.049  0.00  0.00    -0.056 A 
ATOM     29  CD1 TYR d   1     -16.735  -4.834   1.537  0.00  0.00    -0.074 A 
ATOM     30  CE1 TYR d   1     -17.395  -4.583   0.388  0.00  0.00    -0.051 A 
ATOM     31  H11 TYR d   1     -16.271  -4.013   2.072  0.00  0.00     0.084 H 
ATOM     32  CZ  TYR d   1     -17.990  -5.637  -0.330  0.00  0.00     0.065 A 
ATOM     33  H13 TYR d   1     -17.467  -3.567   0.017  0.00  0.00     0.087 H 
ATOM     34  CE2 TYR d   1     -17.946  -6.920   0.119  0.00  0.00    -0.051 A 
ATOM     35  CD2 TYR d   1     -17.261  -7.174   1.353  0.00  0.00    -0.074 A 
ATOM     36  H14 TYR d   1     -18.413  -7.724  -0.438  0.00  0.00     0.087 H 
ATOM     37  H12 TYR d   1     -17.224  -8.181   1.752  0.00  0.00     0.084 H 
BRANCH  32  38
ATOM     38  OH  TYR d   1     -18.672  -5.292  -1.464  0.00  0.00    -0.361 OA
ATOM     39  H15 TYR d   1     -18.586  -4.358  -1.612  0.00  0.00     0.217 HD
ENDBRANCH  32  38
ENDBRANCH  25  28
ENDBRANCH   7  25
ENDBRANCH   4   7
ENDBRANCH   1   3
BRANCH   1  40
ATOM     40  C   GLN d   1     -13.162  -4.401   6.471  0.00  0.00     0.241 C 
ATOM     41  O   GLN d   1     -13.848  -3.431   6.129  0.00  0.00    -0.271 OA
ATOM     42  N   ARG d   1     -13.253  -4.992   7.675  0.00  0.00    -0.346 N 
ATOM     43  H24 ARG d   1     -12.633  -5.745   7.894  0.00  0.00     0.163 HD
BRANCH  42  44
ATOM     44  CA  ARG d   1     -14.249  -4.558   8.690  0.00  0.00     0.089 C 
ATOM     45  H25 ARG d   1     -15.227  -4.514   8.189  0.00  0.00     0.087 H 
BRANCH  44  46
ATOM     46  C   ARG d   1     -13.966  -3.145   9.248  0.00  0.00     0.241 C 
ATOM     47  O   ARG d   1     -12.848  -2.821   9.638  0.00  0.00    -0.271 OA
ATOM     48  N   LEU d   1     -14.994  -2.313   9.322  0.00  0.00    -0.345 N 
ATOM     49  H37 LEU d   1     -15.872  -2.568   8.918  0.00  0.00     0.163 HD
BRANCH  48  50
ATOM     50  CA  LEU d   1     -14.848  -1.031   9.989  0.00  0.00     0.096 C 
ATOM     51  H38 LEU d   1     -13.782  -0.865  10.204  0.00  0.00     0.089 H 
BRANCH  50  52
ATOM     52  C   LEU d   1     -15.613  -1.062  11.341  0.00  0.00     0.196 C 
ATOM     53  O   LEU d   1     -16.292  -2.059  11.704  0.00  0.00    -0.646 OA
ATOM     54  OXT LEU d   1     -15.565  -0.067  12.075  0.00  0.00    -0.646 OA
ENDBRANCH  50  52
BRANCH  50  55
ATOM     55  CB  LEU d   1     -15.324   0.091   9.068  0.00  0.00    -0.034 C 
ATOM     56  H39 LEU d   1     -15.181   1.048   9.592  0.00  0.00     0.037 H 
ATOM     57  H40 LEU d   1     -16.395  -0.061   8.868  0.00  0.00     0.037 H 
BRANCH  55  58
ATOM     58  CG  LEU d   1     -14.580   0.172   7.696  0.00  0.00    -0.059 C 
ATOM     59  H41 LEU d   1     -14.483  -0.866   7.346  0.00  0.00     0.038 H 
BRANCH  58  60
ATOM     60  CD1 LEU d   1     -15.461   0.921   6.571  0.00  0.00    -0.073 C 
ATOM     61  H42 LEU d   1     -14.898   0.954   5.626  0.00  0.00     0.028 H 
ATOM     62  H43 LEU d   1     -15.683   1.946   6.901  0.00  0.00     0.028 H 
ATOM     63  H44 LEU d   1     -16.403   0.373   6.418  0.00  0.00     0.028 H 
ENDBRANCH  58  60
BRANCH  58  64
ATOM     64  CD2 LEU d   1     -13.101   0.701   7.841  0.00  0.00    -0.073 C 
ATOM     65  H45 LEU d   1     -12.584   0.132   8.628  0.00  0.00     0.028 H 
ATOM     66  H46 LEU d   1     -13.118   1.767   8.111  0.00  0.00     0.028 H 
ATOM     67  H47 LEU d   1     -12.570   0.572   6.886  0.00  0.00     0.028 H 
ENDBRANCH  58  64
ENDBRANCH  55  58
ENDBRANCH  50  55
ENDBRANCH  48  50
ENDBRANCH  44  46
BRANCH  44  68
ATOM     68  CB  ARG d   1     -14.352  -5.628   9.831  0.00  0.00    -0.036 C 
ATOM     69  H26 ARG d   1     -13.331  -5.941  10.094  0.00  0.00     0.036 H 
ATOM     70  H27 ARG d   1     -14.909  -6.490   9.437  0.00  0.00     0.036 H 
BRANCH  68  71
ATOM     71  CG  ARG d   1     -15.045  -5.167  11.109  0.00  0.00    -0.048 C 
ATOM     72  H28 ARG d   1     -16.107  -4.984  10.889  0.00  0.00     0.035 H 
ATOM     73  H29 ARG d   1     -14.575  -4.232  11.449  0.00  0.00     0.035 H 
BRANCH  71  74
ATOM     74  CD  ARG d   1     -14.945  -6.226  12.257  0.00  0.00     0.009 C 
ATOM     75  H30 ARG d   1     -14.157  -5.922  12.962  0.00  0.00     0.064 H 
ATOM     76  H31 ARG d   1     -14.693  -7.206  11.825  0.00  0.00     0.064 H 
BRANCH  74  77
ATOM     77  NE  ARG d   1     -16.226  -6.329  12.976  0.00  0.00    -0.227 N 
ATOM     78  CZ  ARG d   1     -17.301  -7.005  12.531  0.00  0.00     0.665 C 
ATOM     79  NH1 ARG d   1     -18.426  -7.037  13.247  0.00  0.00    -0.235 N 
ATOM     80  NH2 ARG d   1     -17.251  -7.669  11.373  0.00  0.00    -0.235 N 
ATOM     81  H33 ARG d   1     -19.244  -7.557  12.898  0.00  0.00     0.174 HD
ATOM     82  H34 ARG d   1     -18.477  -6.542  14.149  0.00  0.00     0.174 HD
ATOM     83  H35 ARG d   1     -16.390  -7.655  10.808  0.00  0.00     0.174 HD
ATOM     84  H36 ARG d   1     -18.073  -8.195  11.045  0.00  0.00     0.174 HD
ATOM     85  H32 ARG d   1     -16.305  -5.849  13.884  0.00  0.00     0.177 HD
ENDBRANCH  74  77
ENDBRANCH  71  74
ENDBRANCH  68  71
ENDBRANCH  44  68
ENDBRANCH  42  44
ENDBRANCH   1  40
BRANCH   1  86
ATOM     86  CB  GLN d   1     -11.056  -3.913   5.198  0.00  0.00    -0.030 C 
ATOM     87  H18 GLN d   1     -11.499  -3.182   4.506  0.00  0.00     0.037 H 
ATOM     88  H19 GLN d   1     -10.207  -4.413   4.709  0.00  0.00     0.037 H 
BRANCH  86  89
ATOM     89  CG  GLN d   1     -10.515  -3.144   6.415  0.00  0.00     0.011 C 
ATOM     90  H20 GLN d   1     -11.363  -2.666   6.927  0.00  0.00     0.047 H 
ATOM     91  H21 GLN d   1      -9.821  -2.370   6.054  0.00  0.00     0.047 H 
BRANCH  89  92
ATOM     92  CD  GLN d   1      -9.765  -4.031   7.440  0.00  0.00     0.215 C 
ATOM     93  OE1 GLN d   1     -10.027  -3.936   8.659  0.00  0.00    -0.274 OA
ATOM     94  NE2 GLN d   1      -8.861  -4.915   6.952  0.00  0.00    -0.370 N 
ATOM     95  H22 GLN d   1      -8.354  -5.508   7.577  0.00  0.00     0.159 HD
ATOM     96  H23 GLN d   1      -8.701  -4.974   5.967  0.00  0.00     0.159 HD
ENDBRANCH  89  92
ENDBRANCH  86  89
ENDBRANCH   1  86
TORSDOF 26
