REMARK  6 active torsions:
REMARK  status: ('A' for Active; 'I' for Inactive)
REMARK    1  A    between atoms: C9_3  and  C16_4 
REMARK    2  A    between atoms: C6_6  and  C5_7 
REMARK    3  A    between atoms: C7_14  and  N4_15 
REMARK    4  A    between atoms: N5_18  and  C14_21 
REMARK    5  A    between atoms: C14_21  and  C15_22 
REMARK    6  A    between atoms: C15_22  and  O1_23 
ROOT
ATOM      1  N4  PVP d   1      -2.401  -6.721  17.210  0.00  0.00    -0.361 N 
ATOM      2  C13 PVP d   1      -2.260  -8.175  17.155  0.00  0.00     0.019 C 
ATOM      3  C12 PVP d   1      -2.224  -8.854  18.531  0.00  0.00     0.098 C 
ATOM      4  N5  PVP d   1      -2.560  -7.967  19.654  0.00  0.00    -0.066 N 
ATOM      5  C11 PVP d   1      -3.064  -6.611  19.476  0.00  0.00     0.098 C 
ATOM      6  C10 PVP d   1      -2.161  -5.955  18.444  0.00  0.00     0.019 C 
ATOM      7  H8  PVP d   1      -1.323  -8.412  16.629  0.00  0.00     0.066 H 
ATOM      8  H9  PVP d   1      -3.111  -8.583  16.590  0.00  0.00     0.066 H 
ATOM      9  H10 PVP d   1      -1.210  -9.247  18.695  0.00  0.00     0.078 H 
ATOM     10  H11 PVP d   1      -2.943  -9.687  18.523  0.00  0.00     0.078 H 
ATOM     11  H12 PVP d   1      -3.505  -8.318  19.637  0.00  0.00     0.280 HD
ATOM     12  H13 PVP d   1      -3.020  -6.060  20.427  0.00  0.00     0.078 H 
ATOM     13  H14 PVP d   1      -4.102  -6.635  19.114  0.00  0.00     0.078 H 
ATOM     14  H15 PVP d   1      -2.432  -4.898  18.305  0.00  0.00     0.066 H 
ATOM     15  H16 PVP d   1      -1.106  -6.026  18.748  0.00  0.00     0.066 H 
ENDROOT
BRANCH   1  16
ATOM     16  C7  PVP d   1      -2.599  -6.048  15.998  0.00  0.00     0.152 A 
ATOM     17  C8  PVP d   1      -3.266  -4.836  15.782  0.00  0.00     0.104 A 
ATOM     18 CL   PVP d   1      -4.066  -3.966  17.100  0.00  0.00    -0.078 Cl
ATOM     19  C9  PVP d   1      -3.348  -4.286  14.510  0.00  0.00     0.058 A 
ATOM     20  N3  PVP d   1      -2.723  -4.904  13.518  0.00  0.00    -0.230 NA
ATOM     21  C6  PVP d   1      -2.109  -6.091  13.736  0.00  0.00     0.180 A 
ATOM     22  N2  PVP d   1      -2.031  -6.644  14.951  0.00  0.00    -0.208 NA
BRANCH  19  23
ATOM     23  C16 PVP d   1      -4.026  -2.984  14.198  0.00  0.00    -0.034 C 
ATOM     24  H1  PVP d   1      -3.948  -2.779  13.120  0.00  0.00     0.035 H 
ATOM     25  H2  PVP d   1      -3.540  -2.174  14.761  0.00  0.00     0.035 H 
ATOM     26  H3  PVP d   1      -5.086  -3.045  14.484  0.00  0.00     0.035 H 
ENDBRANCH  19  23
BRANCH  21  27
ATOM     27  C5  PVP d   1      -1.440  -6.768  12.633  0.00  0.00     0.104 A 
ATOM     28  N23 PVP d   1      -1.204  -6.052  11.508  0.00  0.00    -0.257 NA
ATOM     29  C1  PVP d   1      -0.547  -6.641  10.499  0.00  0.00     0.003 A 
ATOM     30  C2  PVP d   1      -0.168  -7.984  10.563  0.00  0.00    -0.066 A 
ATOM     31  H4  PVP d   1      -0.305  -6.063   9.615  0.00  0.00     0.114 H 
ATOM     32  C3  PVP d   1      -0.434  -8.726  11.698  0.00  0.00    -0.079 A 
ATOM     33  H5  PVP d   1       0.336  -8.445   9.721  0.00  0.00     0.085 H 
ATOM     34  C4  PVP d   1      -1.055  -8.096  12.762  0.00  0.00    -0.051 A 
ATOM     35  H6  PVP d   1      -0.163  -9.774  11.753  0.00  0.00     0.083 H 
ATOM     36  H7  PVP d   1      -1.239  -8.633  13.686  0.00  0.00     0.087 H 
ENDBRANCH  21  27
ENDBRANCH   1  16
BRANCH   4  37
ATOM     37  C14 PVP d   1      -2.387  -8.450  21.025  0.00  0.00     0.103 C 
ATOM     38  H17 PVP d   1      -2.434  -7.609  21.732  0.00  0.00     0.079 H 
ATOM     39  H18 PVP d   1      -1.418  -8.961  21.127  0.00  0.00     0.079 H 
BRANCH  37  40
ATOM     40  C15 PVP d   1      -3.530  -9.429  21.294  0.00  0.00     0.039 C 
ATOM     41  H19 PVP d   1      -4.397  -9.145  20.680  0.00  0.00     0.076 H 
ATOM     42  H20 PVP d   1      -3.802  -9.378  22.358  0.00  0.00     0.076 H 
BRANCH  40  43
ATOM     43  O1  PVP d   1      -3.150 -10.778  20.972  0.00  0.00    -0.399 OA
ATOM     44  H21 PVP d   1      -3.878 -11.362  21.149  0.00  0.00     0.209 HD
ENDBRANCH  40  43
ENDBRANCH  37  40
ENDBRANCH   4  37
TORSDOF 6
