REMARK  8 active torsions:
REMARK  status: ('A' for Active; 'I' for Inactive)
REMARK    1  A    between atoms: C18_2  and  C14_5 
REMARK    2  A    between atoms: C13_10  and  N5_11 
REMARK    3  A    between atoms: N5_11  and  C11_12 
REMARK    4  A    between atoms: C11_12  and  C10_13 
REMARK    5  A    between atoms: C10_13  and  N4_14 
REMARK    6  A    between atoms: N4_14  and  C7_15 
REMARK    7  A    between atoms: C6_19  and  C5_23 
REMARK    8  A    between atoms: C9_21  and  C12_22 
ROOT
ATOM      1  N4  TFD d   1      15.857   6.959  21.199  0.00  0.00    -0.372 N 
ATOM      2  H9  TFD d   1      16.610   6.671  20.558  0.00  0.00     0.161 HD
ENDROOT
BRANCH   1   3
ATOM      3  C10 TFD d   1      16.102   8.059  22.122  0.00  0.00     0.009 C 
ATOM      4  H7  TFD d   1      15.349   8.844  21.958  0.00  0.00     0.066 H 
ATOM      5  H8  TFD d   1      16.026   7.689  23.155  0.00  0.00     0.066 H 
BRANCH   3   6
ATOM      6  C11 TFD d   1      17.497   8.645  21.899  0.00  0.00     0.009 C 
ATOM      7  H5  TFD d   1      17.731   9.326  22.731  0.00  0.00     0.066 H 
ATOM      8  H6  TFD d   1      18.227   7.822  21.883  0.00  0.00     0.066 H 
BRANCH   6   9
ATOM      9  N5  TFD d   1      17.598   9.383  20.649  0.00  0.00    -0.373 N 
ATOM     10  H4  TFD d   1      17.773  10.398  20.680  0.00  0.00     0.161 HD
BRANCH   9  11
ATOM     11  C13 TFD d   1      17.468   8.774  19.442  0.00  0.00     0.124 A 
ATOM     12  N6  TFD d   1      16.237   8.596  18.885  0.00  0.00    -0.227 NA
ATOM     13  C14 TFD d   1      16.088   7.980  17.681  0.00  0.00     0.142 A 
ATOM     14  C15 TFD d   1      17.215   7.530  16.989  0.00  0.00    -0.050 A 
ATOM     15  C16 TFD d   1      18.482   7.706  17.536  0.00  0.00    -0.077 A 
ATOM     16  H1  TFD d   1      17.102   7.044  16.027  0.00  0.00     0.087 H 
ATOM     17  C17 TFD d   1      18.609   8.333  18.771  0.00  0.00    -0.039 A 
ATOM     18  H2  TFD d   1      19.361   7.358  17.005  0.00  0.00     0.083 H 
ATOM     19  H3  TFD d   1      19.589   8.478  19.210  0.00  0.00     0.089 H 
BRANCH  13  20
ATOM     20  C18 TFD d   1      14.723   7.789  17.076  0.00  0.00     0.434 C 
ATOM     21  F1  TFD d   1      14.862   7.175  15.913  0.00  0.00    -0.165 F 
ATOM     22  F2  TFD d   1      14.160   8.968  16.888  0.00  0.00    -0.165 F 
ATOM     23  F3  TFD d   1      13.942   7.065  17.863  0.00  0.00    -0.165 F 
ENDBRANCH  13  20
ENDBRANCH   9  11
ENDBRANCH   6   9
ENDBRANCH   3   6
ENDBRANCH   1   3
BRANCH   1  24
ATOM     24  C7  TFD d   1      14.675   6.303  21.154  0.00  0.00     0.149 A 
ATOM     25  C8  TFD d   1      14.601   5.074  20.539  0.00  0.00     0.103 A 
ATOM     26 CL   TFD d   1      16.115   4.424  19.855  0.00  0.00    -0.078 Cl
ATOM     27  C9  TFD d   1      13.401   4.382  20.469  0.00  0.00     0.058 A 
ATOM     28  N2  TFD d   1      12.307   4.943  21.036  0.00  0.00    -0.230 NA
ATOM     29  C6  TFD d   1      12.404   6.162  21.614  0.00  0.00     0.180 A 
ATOM     30  N3  TFD d   1      13.571   6.838  21.682  0.00  0.00    -0.208 NA
BRANCH  27  31
ATOM     31  C12 TFD d   1      13.288   3.030  19.812  0.00  0.00    -0.034 C 
ATOM     32  H10 TFD d   1      12.248   2.677  19.876  0.00  0.00     0.035 H 
ATOM     33  H11 TFD d   1      13.950   2.317  20.325  0.00  0.00     0.035 H 
ATOM     34  H12 TFD d   1      13.584   3.110  18.756  0.00  0.00     0.035 H 
ENDBRANCH  27  31
BRANCH  29  35
ATOM     35  C5  TFD d   1      11.229   6.765  22.270  0.00  0.00     0.104 A 
ATOM     36  N1  TFD d   1      10.147   5.996  22.515  0.00  0.00    -0.257 NA
ATOM     37  C1  TFD d   1       9.083   6.522  23.146  0.00  0.00     0.003 A 
ATOM     38  C2  TFD d   1       9.088   7.850  23.569  0.00  0.00    -0.066 A 
ATOM     39  H13 TFD d   1       8.210   5.906  23.328  0.00  0.00     0.114 H 
ATOM     40  C3  TFD d   1      10.204   8.641  23.347  0.00  0.00    -0.079 A 
ATOM     41  H14 TFD d   1       8.220   8.263  24.071  0.00  0.00     0.085 H 
ATOM     42  C4  TFD d   1      11.294   8.083  22.708  0.00  0.00    -0.051 A 
ATOM     43  H15 TFD d   1      10.221   9.676  23.668  0.00  0.00     0.083 H 
ATOM     44  H16 TFD d   1      12.193   8.668  22.549  0.00  0.00     0.087 H 
ENDBRANCH  29  35
ENDBRANCH   1  24
TORSDOF 8
