REMARK  8 active torsions:
REMARK  status: ('A' for Active; 'I' for Inactive)
REMARK    1  A    between atoms: C18_2  and  C15_5 
REMARK    2  A    between atoms: C13_10  and  N5_11 
REMARK    3  A    between atoms: N5_11  and  C11_12 
REMARK    4  A    between atoms: C11_12  and  C10_13 
REMARK    5  A    between atoms: C10_13  and  N4_14 
REMARK    6  A    between atoms: N4_14  and  C7_15 
REMARK    7  A    between atoms: C9_19  and  C12_20 
REMARK    8  A    between atoms: C6_22  and  C5_23 
ROOT
ATOM      1  N4  TFV d   1      20.641  -5.644  17.255  0.00  0.00    -0.372 N 
ATOM      2  H9  TFV d   1      20.259  -4.939  17.901  0.00  0.00     0.161 HD
ENDROOT
BRANCH   1   3
ATOM      3  C10 TFV d   1      21.144  -6.882  17.812  0.00  0.00     0.009 C 
ATOM      4  H7  TFV d   1      20.637  -7.731  17.332  0.00  0.00     0.066 H 
ATOM      5  H8  TFV d   1      22.227  -6.951  17.630  0.00  0.00     0.066 H 
BRANCH   3   6
ATOM      6  C11 TFV d   1      20.878  -6.917  19.321  0.00  0.00     0.009 C 
ATOM      7  H5  TFV d   1      19.810  -6.714  19.491  0.00  0.00     0.066 H 
ATOM      8  H6  TFV d   1      21.125  -7.922  19.695  0.00  0.00     0.066 H 
BRANCH   6   9
ATOM      9  N5  TFV d   1      21.659  -5.940  20.073  0.00  0.00    -0.373 N 
ATOM     10  H4  TFV d   1      22.601  -6.215  20.384  0.00  0.00     0.161 HD
BRANCH   9  11
ATOM     11  C13 TFV d   1      21.224  -4.686  20.391  0.00  0.00     0.123 A 
ATOM     12  N6  TFV d   1      20.106  -4.154  19.822  0.00  0.00    -0.243 NA
ATOM     13  C14 TFV d   1      19.678  -2.912  20.127  0.00  0.00     0.019 A 
ATOM     14  C15 TFV d   1      20.363  -2.112  21.048  0.00  0.00     0.065 A 
ATOM     15  H1  TFV d   1      18.785  -2.526  19.649  0.00  0.00     0.116 H 
ATOM     16  C16 TFV d   1      21.524  -2.623  21.642  0.00  0.00    -0.063 A 
ATOM     17  C17 TFV d   1      21.952  -3.918  21.312  0.00  0.00    -0.038 A 
ATOM     18  H2  TFV d   1      22.086  -2.024  22.349  0.00  0.00     0.085 H 
ATOM     19  H3  TFV d   1      22.846  -4.325  21.769  0.00  0.00     0.089 H 
BRANCH  14  20
ATOM     20  C18 TFV d   1      19.866  -0.718  21.362  0.00  0.00     0.418 C 
ATOM     21  F3  TFV d   1      20.501  -0.190  22.385  0.00  0.00    -0.166 F 
ATOM     22  F1  TFV d   1      18.581  -0.745  21.669  0.00  0.00    -0.166 F 
ATOM     23  F2  TFV d   1      20.066   0.086  20.327  0.00  0.00    -0.166 F 
ENDBRANCH  14  20
ENDBRANCH   9  11
ENDBRANCH   6   9
ENDBRANCH   3   6
ENDBRANCH   1   3
BRANCH   1  24
ATOM     24  C7  TFV d   1      20.646  -5.363  15.934  0.00  0.00     0.149 A 
ATOM     25  N3  TFV d   1      21.210  -6.201  15.031  0.00  0.00    -0.208 NA
ATOM     26  C6  TFV d   1      21.167  -5.854  13.716  0.00  0.00     0.180 A 
ATOM     27  N2  TFV d   1      20.623  -4.684  13.300  0.00  0.00    -0.230 NA
ATOM     28  C9  TFV d   1      20.030  -3.836  14.174  0.00  0.00     0.058 A 
ATOM     29  C8  TFV d   1      20.051  -4.181  15.507  0.00  0.00     0.103 A 
ATOM     30 CL   TFV d   1      19.319  -3.050  16.680  0.00  0.00    -0.078 Cl
BRANCH  26  31
ATOM     31  C5  TFV d   1      21.843  -6.687  12.700  0.00  0.00     0.104 A 
ATOM     32  N1  TFV d   1      22.187  -6.045  11.556  0.00  0.00    -0.257 NA
ATOM     33  C1  TFV d   1      22.841  -6.661  10.569  0.00  0.00     0.003 A 
ATOM     34  C2  TFV d   1      23.210  -8.000  10.721  0.00  0.00    -0.066 A 
ATOM     35  H16 TFV d   1      23.084  -6.127   9.657  0.00  0.00     0.114 H 
ATOM     36  C3  TFV d   1      22.870  -8.672  11.884  0.00  0.00    -0.079 A 
ATOM     37  H15 TFV d   1      23.758  -8.509   9.936  0.00  0.00     0.085 H 
ATOM     38  C4  TFV d   1      22.207  -8.011  12.906  0.00  0.00    -0.051 A 
ATOM     39  H14 TFV d   1      23.124  -9.720  11.995  0.00  0.00     0.083 H 
ATOM     40  H13 TFV d   1      21.979  -8.513  13.839  0.00  0.00     0.087 H 
ENDBRANCH  26  31
BRANCH  28  41
ATOM     41  C12 TFV d   1      19.394  -2.545  13.727  0.00  0.00    -0.034 C 
ATOM     42  H10 TFV d   1      19.479  -2.454  12.634  0.00  0.00     0.035 H 
ATOM     43  H11 TFV d   1      19.907  -1.698  14.207  0.00  0.00     0.035 H 
ATOM     44  H12 TFV d   1      18.332  -2.541  14.014  0.00  0.00     0.035 H 
ENDBRANCH  28  41
ENDBRANCH   1  24
TORSDOF 8
