REMARK  7 active torsions:
REMARK  status: ('A' for Active; 'I' for Inactive)
REMARK    1  A    between atoms: C7_3  and  C19_4 
REMARK    2  A    between atoms: C6_6  and  C5_7 
REMARK    3  A    between atoms: C9_14  and  N4_15 
REMARK    4  A    between atoms: N4_15  and  C10_16 
REMARK    5  A    between atoms: C10_16  and  C11_17 
REMARK    6  A    between atoms: C10_16  and  C12_20 
REMARK       I    between atoms: C11_17  and  N5_18 
REMARK    7  A    between atoms: C12_20  and  C13_21 
ROOT
ATOM      1  N4  SHX d   1      20.849  -5.763  17.354  0.00  0.00    -0.360 N 
ATOM      2  H8  SHX d   1      20.594  -5.051  18.053  0.00  0.00     0.162 HD
ENDROOT
BRANCH   1   3
ATOM      3  C9  SHX d   1      20.894  -5.414  16.047  0.00  0.00     0.150 A 
ATOM      4  C8  SHX d   1      20.374  -4.202  15.648  0.00  0.00     0.103 A 
ATOM      5 CL   SHX d   1      19.708  -3.093  16.868  0.00  0.00    -0.078 Cl
ATOM      6  C7  SHX d   1      20.392  -3.815  14.333  0.00  0.00     0.058 A 
ATOM      7  N2  SHX d   1      20.928  -4.661  13.443  0.00  0.00    -0.230 NA
ATOM      8  C6  SHX d   1      21.414  -5.858  13.831  0.00  0.00     0.180 A 
ATOM      9  N3  SHX d   1      21.418  -6.244  15.132  0.00  0.00    -0.208 NA
BRANCH   6  10
ATOM     10  C19 SHX d   1      19.837  -2.493  13.886  0.00  0.00    -0.034 C 
ATOM     11  H1  SHX d   1      19.957  -2.394  12.797  0.00  0.00     0.035 H 
ATOM     12  H2  SHX d   1      20.379  -1.679  14.389  0.00  0.00     0.035 H 
ATOM     13  H3  SHX d   1      18.769  -2.437  14.144  0.00  0.00     0.035 H 
ENDBRANCH   6  10
BRANCH   8  14
ATOM     14  C5  SHX d   1      22.077  -6.705  12.827  0.00  0.00     0.104 A 
ATOM     15  C4  SHX d   1      22.458  -8.018  13.082  0.00  0.00    -0.051 A 
ATOM     16  C3  SHX d   1      23.144  -8.719  12.094  0.00  0.00    -0.079 A 
ATOM     17  H4  SHX d   1      22.225  -8.486  14.031  0.00  0.00     0.087 H 
ATOM     18  C2  SHX d   1      23.466  -8.092  10.890  0.00  0.00    -0.066 A 
ATOM     19  H5  SHX d   1      23.428  -9.752  12.260  0.00  0.00     0.083 H 
ATOM     20  C1  SHX d   1      23.100  -6.761  10.710  0.00  0.00     0.003 A 
ATOM     21  H6  SHX d   1      23.991  -8.631  10.110  0.00  0.00     0.085 H 
ATOM     22  N1  SHX d   1      22.431  -6.096  11.664  0.00  0.00    -0.257 NA
ATOM     23  H7  SHX d   1      23.359  -6.255   9.787  0.00  0.00     0.114 H 
ENDBRANCH   8  14
ENDBRANCH   1   3
BRANCH   1  24
ATOM     24  C10 SHX d   1      21.148  -7.104  17.798  0.00  0.00     0.091 C 
ATOM     25  H9  SHX d   1      21.676  -7.642  16.997  0.00  0.00     0.088 H 
BRANCH  24  26
ATOM     26  C11 SHX d   1      22.038  -7.015  19.002  0.00  0.00     0.238 C 
ATOM     27  N5  SHX d   1      22.078  -5.866  19.673  0.00  0.00    -0.368 N 
ATOM     28  H10 SHX d   1      22.663  -5.778  20.480  0.00  0.00     0.159 HD
ATOM     29  H11 SHX d   1      21.523  -5.091  19.370  0.00  0.00     0.159 HD
ATOM     30  O   SHX d   1      22.707  -7.983  19.327  0.00  0.00    -0.271 OA
ENDBRANCH  24  26
BRANCH  24  31
ATOM     31  C12 SHX d   1      19.858  -7.859  18.132  0.00  0.00    -0.014 C 
ATOM     32  H12 SHX d   1      19.290  -7.293  18.885  0.00  0.00     0.043 H 
ATOM     33  H13 SHX d   1      20.111  -8.852  18.533  0.00  0.00     0.043 H 
BRANCH  31  34
ATOM     34  C13 SHX d   1      19.013  -8.022  16.884  0.00  0.00    -0.056 A 
ATOM     35  C18 SHX d   1      17.987  -7.112  16.602  0.00  0.00    -0.077 A 
ATOM     36  C17 SHX d   1      17.222  -7.263  15.446  0.00  0.00    -0.082 A 
ATOM     37  H14 SHX d   1      17.788  -6.291  17.281  0.00  0.00     0.084 H 
ATOM     38  C16 SHX d   1      17.476  -8.324  14.574  0.00  0.00    -0.083 A 
ATOM     39  H15 SHX d   1      16.430  -6.557  15.224  0.00  0.00     0.083 H 
ATOM     40  C15 SHX d   1      18.495  -9.230  14.853  0.00  0.00    -0.082 A 
ATOM     41  H16 SHX d   1      16.878  -8.442  13.678  0.00  0.00     0.083 H 
ATOM     42  C14 SHX d   1      19.266  -9.078  16.004  0.00  0.00    -0.077 A 
ATOM     43  H17 SHX d   1      18.689 -10.053  14.175  0.00  0.00     0.083 H 
ATOM     44  H18 SHX d   1      20.064  -9.780  16.217  0.00  0.00     0.084 H 
ENDBRANCH  31  34
ENDBRANCH  24  31
ENDBRANCH   1  24
TORSDOF 7
