REMARK  11 active torsions:
REMARK  status: ('A' for Active; 'I' for Inactive)
REMARK    1  A    between atoms: CBF_4  and  CAZ_5 
REMARK       I    between atoms: CAZ_5  and  NAV_7 
REMARK    2  A    between atoms: NAV_7  and  CAI_8 
REMARK    3  A    between atoms: CAI_8  and  CAG_9 
REMARK    4  A    between atoms: CAG_9  and  CAJ_10 
REMARK    5  A    between atoms: CAJ_10  and  NAW_11 
REMARK    6  A    between atoms: NAW_11  and  C4_12 
REMARK    7  A    between atoms: C5_14  and  CBG_15 
REMARK    8  A    between atoms: C2_20  and  NAX_21 
REMARK    9  A    between atoms: NAX_21  and  CBB_22 
REMARK   10  A    between atoms: CBA_27  and  CAS_28 
REMARK   11  A    between atoms: CAS_28  and  NBH_29 
ROOT
ATOM      1  C4  1FV d   1     108.721  15.508 -29.350  0.00  0.00     0.150 A 
ATOM      2  N3  1FV d   1     109.268  16.067 -28.282  0.00  0.00    -0.045 NA
ATOM      3  C5  1FV d   1     108.943  16.006 -30.605  0.00  0.00     0.010 A 
ATOM      4  C6  1FV d   1     109.733  17.132 -30.748  0.00  0.00     0.031 A 
ATOM      5  N1  1FV d   1     110.268  17.660 -29.651  0.00  0.00    -0.074 NA
ATOM      6  C2  1FV d   1     110.058  17.146 -28.418  0.00  0.00     0.728 A 
ATOM      7  H21 1FV d   1     109.910  17.570 -31.723  0.00  0.00     0.116 H 
ENDROOT
BRANCH   6   8
ATOM      8  NAX 1FV d   1     110.640  17.741 -27.356  0.00  0.00    -0.188 N 
ATOM      9  H22 1FV d   1     111.232  18.559 -27.558  0.00  0.00     0.184 HD
BRANCH   8  10
ATOM     10  CBB 1FV d   1     110.533  17.384 -26.056  0.00  0.00     0.050 A 
ATOM     11  CAF 1FV d   1     111.274  18.109 -25.126  0.00  0.00    -0.049 A 
ATOM     12  CBA 1FV d   1     111.223  17.773 -23.778  0.00  0.00    -0.030 A 
ATOM     13  H23 1FV d   1     111.892  18.937 -25.454  0.00  0.00     0.087 H 
ATOM     14  CAC 1FV d   1     110.438  16.710 -23.344  0.00  0.00    -0.075 A 
ATOM     15  CAB 1FV d   1     109.704  15.964 -24.252  0.00  0.00    -0.080 A 
ATOM     16  H26 1FV d   1     110.400  16.464 -22.289  0.00  0.00     0.084 H 
ATOM     17  CAD 1FV d   1     109.775  16.300 -25.595  0.00  0.00    -0.057 A 
ATOM     18  H25 1FV d   1     109.088  15.136 -23.920  0.00  0.00     0.083 H 
ATOM     19  H24 1FV d   1     109.225  15.703 -26.313  0.00  0.00     0.086 H 
BRANCH  12  20
ATOM     20  CAS 1FV d   1     111.998  18.553 -22.713  0.00  0.00     0.107 C 
ATOM     21  H27 1FV d   1     111.377  18.651 -21.811  0.00  0.00     0.083 H 
ATOM     22  H28 1FV d   1     112.242  19.553 -23.101  0.00  0.00     0.083 H 
BRANCH  20  23
ATOM     23  NBH 1FV d   1     113.243  17.847 -22.371  0.00  0.00    -0.063 N 
ATOM     24  CAQ 1FV d   1     113.884  18.476 -21.213  0.00  0.00     0.103 C 
ATOM     25  CAK 1FV d   1     115.175  17.723 -20.881  0.00  0.00     0.042 C 
ATOM     26  H30 1FV d   1     113.203  18.437 -20.350  0.00  0.00     0.079 H 
ATOM     27  H31 1FV d   1     114.120  19.524 -21.448  0.00  0.00     0.079 H 
ATOM     28  OAY 1FV d   1     116.089  17.745 -22.001  0.00  0.00    -0.388 OA
ATOM     29  H32 1FV d   1     114.930  16.679 -20.637  0.00  0.00     0.076 H 
ATOM     30  H33 1FV d   1     115.657  18.199 -20.014  0.00  0.00     0.076 H 
ATOM     31  CAL 1FV d   1     115.456  17.122 -23.131  0.00  0.00     0.042 C 
ATOM     32  CAR 1FV d   1     114.173  17.858 -23.510  0.00  0.00     0.103 C 
ATOM     33  H34 1FV d   1     115.212  16.080 -22.878  0.00  0.00     0.076 H 
ATOM     34  H35 1FV d   1     116.147  17.140 -23.986  0.00  0.00     0.076 H 
ATOM     35  H36 1FV d   1     114.413  18.898 -23.777  0.00  0.00     0.079 H 
ATOM     36  H37 1FV d   1     113.704  17.357 -24.370  0.00  0.00     0.079 H 
ATOM     37  H29 1FV d   1     113.020  16.891 -22.142  0.00  0.00     0.280 HD
ENDBRANCH  20  23
ENDBRANCH  12  20
ENDBRANCH   8  10
ENDBRANCH   6   8
BRANCH   1  38
ATOM     38  NAW 1FV d   1     107.945  14.460 -29.376  0.00  0.00    -0.374 N 
ATOM     39  H15 1FV d   1     107.665  14.210 -30.335  0.00  0.00     0.161 HD
BRANCH  38  40
ATOM     40  CAJ 1FV d   1     107.377  13.558 -28.392  0.00  0.00    -0.004 C 
ATOM     41  H13 1FV d   1     107.246  12.538 -28.783  0.00  0.00     0.064 H 
ATOM     42  H14 1FV d   1     107.967  13.523 -27.464  0.00  0.00     0.064 H 
BRANCH  40  43
ATOM     43  CAG 1FV d   1     106.047  14.288 -28.210  0.00  0.00    -0.035 C 
ATOM     44  H11 1FV d   1     106.225  15.177 -27.587  0.00  0.00     0.037 H 
ATOM     45  H12 1FV d   1     105.688  14.601 -29.201  0.00  0.00     0.037 H 
BRANCH  43  46
ATOM     46  CAI 1FV d   1     104.969  13.463 -27.557  0.00  0.00    -0.003 C 
ATOM     47  H9  1FV d   1     105.344  13.056 -26.606  0.00  0.00     0.064 H 
ATOM     48  H10 1FV d   1     104.089  14.095 -27.364  0.00  0.00     0.064 H 
BRANCH  46  49
ATOM     49  NAV 1FV d   1     104.585  12.335 -28.468  0.00  0.00    -0.361 N 
ATOM     50  CAZ 1FV d   1     104.836  12.155 -29.795  0.00  0.00     0.221 C 
ATOM     51  OAA 1FV d   1     105.468  12.884 -30.564  0.00  0.00    -0.273 OA
ATOM     52  H8  1FV d   1     104.064  11.601 -28.034  0.00  0.00     0.162 HD
BRANCH  50  53
ATOM     53  CBF 1FV d   1     104.268  10.856 -30.377  0.00  0.00     0.024 C 
ATOM     54  CAM 1FV d   1     103.884   9.899 -29.255  0.00  0.00    -0.054 C 
ATOM     55  CAH 1FV d   1     105.207   9.163 -29.482  0.00  0.00    -0.064 C 
ATOM     56  H1  1FV d   1     103.791  10.372 -28.266  0.00  0.00     0.034 H 
ATOM     57  H2  1FV d   1     102.987   9.296 -29.459  0.00  0.00     0.034 H 
ATOM     58  CAN 1FV d   1     105.373   9.894 -30.815  0.00  0.00    -0.054 C 
ATOM     59  H3  1FV d   1     105.105   8.072 -29.576  0.00  0.00     0.033 H 
ATOM     60  H4  1FV d   1     105.985   9.396 -28.740  0.00  0.00     0.033 H 
ATOM     61  H5  1FV d   1     105.126   9.289 -31.700  0.00  0.00     0.034 H 
ATOM     62  H6  1FV d   1     106.357  10.365 -30.956  0.00  0.00     0.034 H 
ATOM     63  H7  1FV d   1     103.489  11.056 -31.127  0.00  0.00     0.054 H 
ENDBRANCH  50  53
ENDBRANCH  46  49
ENDBRANCH  43  46
ENDBRANCH  40  43
ENDBRANCH  38  40
ENDBRANCH   1  38
BRANCH   3  64
ATOM     64  CBG 1FV d   1     108.236  15.251 -31.738  0.00  0.00    -0.023 A 
ATOM     65  CAO 1FV d   1     108.512  15.736 -33.154  0.00  0.00    -0.057 A 
ATOM     66  CAP 1FV d   1     107.166  16.030 -32.486  0.00  0.00    -0.057 A 
ATOM     67  H17 1FV d   1     108.570  15.014 -33.982  0.00  0.00     0.034 H 
ATOM     68  H18 1FV d   1     109.231  16.551 -33.327  0.00  0.00     0.034 H 
ATOM     69  H19 1FV d   1     106.916  17.056 -32.179  0.00  0.00     0.034 H 
ATOM     70  H20 1FV d   1     106.256  15.520 -32.834  0.00  0.00     0.034 H 
ATOM     71  H16 1FV d   1     108.121  14.182 -31.506  0.00  0.00     0.047 H 
ENDBRANCH   3  64
TORSDOF 11
