REMARK  18 active torsions:
REMARK  status: ('A' for Active; 'I' for Inactive)
REMARK    1  A    between atoms: C1_1  and  O2_3 
REMARK       I    between atoms: N_11  and  C1_1 
REMARK    2  A    between atoms: O2_3  and  C2_4 
REMARK    3  A    between atoms: C2_4  and  C3_5 
REMARK    4  A    between atoms: CA_12  and  N_11 
REMARK    5  A    between atoms: C_13  and  CA_12 
REMARK    6  A    between atoms: CA_12  and  CB_15 
REMARK       I    between atoms: N_19  and  C_13 
REMARK    7  A    between atoms: CB_15  and  CG_16 
REMARK    8  A    between atoms: CG_16  and  CD1_17 
REMARK    9  A    between atoms: CG_16  and  CD2_18 
REMARK   10  A    between atoms: CA_20  and  N_19 
REMARK   11  A    between atoms: C_21  and  CA_20 
REMARK   12  A    between atoms: CA_20  and  CB_23 
REMARK       I    between atoms: N_32  and  C_21 
REMARK   13  A    between atoms: CB_23  and  CG_24 
REMARK   14  A    between atoms: CA_34  and  C_30 
REMARK   15  A    between atoms: CD_31  and  C1_36 
REMARK       I    between atoms: N1_37  and  CD_31 
REMARK   16  A    between atoms: CA_34  and  N_32 
REMARK   17  A    between atoms: CB_35  and  CA_34 
REMARK   18  A    between atoms: CB_35  and  N1_37 
ROOT
ATOM      1  C   LEU d   1     -36.899 -37.424  15.589  0.00  0.00     0.241 C 
ATOM      2  O   LEU d   1     -36.526 -36.339  15.115  0.00  0.00    -0.271 OA
ATOM      3  N   PHE d   1     -37.515 -38.357  14.838  0.00  0.00    -0.346 N 
ATOM      4  H19 PHE d   1     -37.948 -39.151  15.265  0.00  0.00     0.163 HD
ENDROOT
BRANCH   3   5
ATOM      5  CA  PHE d   1     -37.539 -38.183  13.353  0.00  0.00     0.093 C 
ATOM      6  H20 PHE d   1     -36.518 -37.913  13.046  0.00  0.00     0.088 H 
BRANCH   5   7
ATOM      7  C   PHE d   1     -38.490 -36.997  13.012  0.00  0.00     0.241 C 
ATOM      8  O   PHE d   1     -39.564 -36.720  13.565  0.00  0.00    -0.271 OA
ATOM      9  N   1HD d   1     -37.946 -36.262  12.096  0.00  0.00    -0.347 N 
ATOM     10  H29 1HD d   1     -37.047 -36.529  11.749  0.00  0.00     0.163 HD
BRANCH   9  11
ATOM     11  CA  1HD d   1     -38.564 -35.080  11.548  0.00  0.00     0.078 C 
ATOM     12  H30 1HD d   1     -39.441 -34.851  12.172  0.00  0.00     0.086 H 
BRANCH  11  13
ATOM     13  C   1HD d   1     -39.158 -35.325  10.108  0.00  0.00     0.111 C 
ATOM     14  O1  1HD d   1     -40.261 -35.827   9.842  0.00  0.00    -0.305 OA
ATOM     15  H28 1HD d   1     -38.539 -35.024   9.264  0.00  0.00     0.146 H 
ENDBRANCH  11  13
BRANCH  11  16
ATOM     16  CB  1HD d   1     -37.550 -33.907  11.794  0.00  0.00     0.020 C 
ATOM     17  H31 1HD d   1     -37.812 -33.049  11.157  0.00  0.00     0.067 H 
ATOM     18  H32 1HD d   1     -36.529 -34.242  11.557  0.00  0.00     0.067 H 
BRANCH  16  19
ATOM     19  N1  1HD d   1     -37.630 -33.519  13.209  0.00  0.00    -0.359 N 
ATOM     20  CD  1HD d   1     -37.055 -32.385  13.620  0.00  0.00     0.213 C 
ATOM     21  OE1 1HD d   1     -36.253 -31.779  12.933  0.00  0.00    -0.274 OA
ATOM     22  H36 1HD d   1     -38.113 -34.102  13.862  0.00  0.00     0.162 HD
BRANCH  20  23
ATOM     23  C1  1HD d   1     -37.164 -32.029  15.121  0.00  0.00    -0.003 C 
ATOM     24  H33 1HD d   1     -37.928 -32.663  15.594  0.00  0.00     0.040 H 
ATOM     25  H34 1HD d   1     -37.448 -30.972  15.227  0.00  0.00     0.040 H 
ATOM     26  H35 1HD d   1     -36.193 -32.199  15.610  0.00  0.00     0.040 H 
ENDBRANCH  20  23
ENDBRANCH  16  19
ENDBRANCH  11  16
ENDBRANCH   9  11
ENDBRANCH   5   7
BRANCH   5  27
ATOM     27  CB  PHE d   1     -37.952 -39.414  12.507  0.00  0.00    -0.014 C 
ATOM     28  H21 PHE d   1     -37.909 -39.124  11.447  0.00  0.00     0.043 H 
ATOM     29  H22 PHE d   1     -38.987 -39.674  12.774  0.00  0.00     0.043 H 
BRANCH  27  30
ATOM     30  CG  PHE d   1     -37.086 -40.677  12.687  0.00  0.00    -0.056 A 
ATOM     31  CD1 PHE d   1     -35.834 -40.785  12.083  0.00  0.00    -0.077 A 
ATOM     32  CE1 PHE d   1     -35.072 -41.939  12.246  0.00  0.00    -0.082 A 
ATOM     33  H23 PHE d   1     -35.452 -39.967  11.484  0.00  0.00     0.084 H 
ATOM     34  CZ  PHE d   1     -35.565 -42.994  13.005  0.00  0.00    -0.083 A 
ATOM     35  H25 PHE d   1     -34.096 -42.014  11.781  0.00  0.00     0.083 H 
ATOM     36  CE2 PHE d   1     -36.815 -42.893  13.600  0.00  0.00    -0.082 A 
ATOM     37  H27 PHE d   1     -34.974 -43.894  13.132  0.00  0.00     0.083 H 
ATOM     38  CD2 PHE d   1     -37.575 -41.741  13.436  0.00  0.00    -0.077 A 
ATOM     39  H26 PHE d   1     -37.199 -43.714  14.194  0.00  0.00     0.083 H 
ATOM     40  H24 PHE d   1     -38.555 -41.672  13.895  0.00  0.00     0.084 H 
ENDBRANCH  27  30
ENDBRANCH   5  27
ENDBRANCH   3   5
BRANCH   1  41
ATOM     41  CA  LEU d   1     -36.915 -37.676  17.130  0.00  0.00     0.092 C 
ATOM     42  H9  LEU d   1     -37.225 -38.715  17.313  0.00  0.00     0.087 H 
BRANCH  41  43
ATOM     43  N   LEU d   1     -35.657 -37.448  17.915  0.00  0.00    -0.324 N 
ATOM     44  C1  PHQ d   1     -34.873 -38.455  18.314  0.00  0.00     0.361 C 
ATOM     45  O1  PHQ d   1     -35.370 -39.565  18.462  0.00  0.00    -0.238 OA
ATOM     46  H8  LEU d   1     -35.396 -36.511  18.148  0.00  0.00     0.165 HD
BRANCH  44  47
ATOM     47  O2  PHQ d   1     -33.716 -38.307  19.028  0.00  0.00    -0.299 OA
BRANCH  47  48
ATOM     48  C2  PHQ d   1     -33.366 -37.015  19.393  0.00  0.00     0.054 C 
ATOM     49  H1  PHQ d   1     -33.713 -36.283  18.648  0.00  0.00     0.082 H 
ATOM     50  H2  PHQ d   1     -32.278 -36.919  19.523  0.00  0.00     0.082 H 
BRANCH  48  51
ATOM     51  C3  PHQ d   1     -34.039 -36.855  20.614  0.00  0.00    -0.034 A 
ATOM     52  C4  PHQ d   1     -34.938 -37.857  20.937  0.00  0.00    -0.075 A 
ATOM     53  C5  PHQ d   1     -35.643 -37.855  22.128  0.00  0.00    -0.082 A 
ATOM     54  H3  PHQ d   1     -35.095 -38.668  20.235  0.00  0.00     0.084 H 
ATOM     55  C6  PHQ d   1     -35.432 -36.847  23.054  0.00  0.00    -0.083 A 
ATOM     56  H4  PHQ d   1     -36.359 -38.642  22.336  0.00  0.00     0.083 H 
ATOM     57  C7  PHQ d   1     -34.512 -35.851  22.766  0.00  0.00    -0.082 A 
ATOM     58  H5  PHQ d   1     -35.978 -36.837  23.990  0.00  0.00     0.083 H 
ATOM     59  C8  PHQ d   1     -33.810 -35.870  21.566  0.00  0.00    -0.075 A 
ATOM     60  H6  PHQ d   1     -34.339 -35.054  23.480  0.00  0.00     0.083 H 
ATOM     61  H7  PHQ d   1     -33.071 -35.102  21.370  0.00  0.00     0.084 H 
ENDBRANCH  48  51
ENDBRANCH  47  48
ENDBRANCH  44  47
ENDBRANCH  41  43
BRANCH  41  62
ATOM     62  CB  LEU d   1     -38.014 -36.696  17.591  0.00  0.00    -0.035 C 
ATOM     63  H10 LEU d   1     -38.936 -36.937  17.041  0.00  0.00     0.037 H 
ATOM     64  H11 LEU d   1     -37.689 -35.677  17.335  0.00  0.00     0.037 H 
BRANCH  62  65
ATOM     65  CG  LEU d   1     -38.337 -36.727  19.095  0.00  0.00    -0.059 C 
ATOM     66  H12 LEU d   1     -37.420 -36.508  19.662  0.00  0.00     0.038 H 
BRANCH  65  67
ATOM     67  CD1 LEU d   1     -39.418 -35.694  19.455  0.00  0.00    -0.073 C 
ATOM     68  H13 LEU d   1     -39.626 -35.741  20.534  0.00  0.00     0.028 H 
ATOM     69  H14 LEU d   1     -40.338 -35.916  18.895  0.00  0.00     0.028 H 
ATOM     70  H15 LEU d   1     -39.063 -34.686  19.194  0.00  0.00     0.028 H 
ENDBRANCH  65  67
BRANCH  65  71
ATOM     71  CD2 LEU d   1     -38.860 -38.100  19.481  0.00  0.00    -0.073 C 
ATOM     72  H16 LEU d   1     -38.106 -38.862  19.235  0.00  0.00     0.028 H 
ATOM     73  H17 LEU d   1     -39.787 -38.309  18.927  0.00  0.00     0.028 H 
ATOM     74  H18 LEU d   1     -39.066 -38.124  20.561  0.00  0.00     0.028 H 
ENDBRANCH  65  71
ENDBRANCH  62  65
ENDBRANCH  41  62
ENDBRANCH   1  41
TORSDOF 18
