REMARK  20 active torsions:
REMARK  status: ('A' for Active; 'I' for Inactive)
REMARK    1  A    between atoms: C1_1  and  O2_3 
REMARK       I    between atoms: N_11  and  C1_1 
REMARK    2  A    between atoms: O2_3  and  C2_4 
REMARK    3  A    between atoms: C2_4  and  C3_5 
REMARK    4  A    between atoms: CA_12  and  N_11 
REMARK    5  A    between atoms: C_13  and  CA_12 
REMARK    6  A    between atoms: CA_12  and  CB_15 
REMARK       I    between atoms: N_19  and  C_13 
REMARK    7  A    between atoms: CB_15  and  CG_16 
REMARK    8  A    between atoms: CG_16  and  CD1_17 
REMARK    9  A    between atoms: CG_16  and  CD2_18 
REMARK   10  A    between atoms: CA_20  and  N_19 
REMARK   11  A    between atoms: C_21  and  CA_20 
REMARK   12  A    between atoms: CA_20  and  CB_23 
REMARK       I    between atoms: N_33  and  C_21 
REMARK   13  A    between atoms: CB_23  and  CG_24 
REMARK   14  A    between atoms: CA_38  and  C_30 
REMARK   15  A    between atoms: CG_32  and  CD_31 
REMARK       I    between atoms: CD_31  and  NE2_35 
REMARK   16  A    between atoms: CB_39  and  CG_32 
REMARK   17  A    between atoms: CA_38  and  N_33 
REMARK   18  A    between atoms: NE2_35  and  CH1_36 
REMARK   19  A    between atoms: NE2_35  and  CH2_37 
REMARK   20  A    between atoms: CA_38  and  CB_39 
ROOT
ATOM      1  CA  PHE d   1      37.876  38.413  13.230  0.00  0.00     0.093 C 
ATOM      2  H20 PHE d   1      36.854  38.414  12.823  0.00  0.00     0.088 H 
ENDROOT
BRANCH   1   3
ATOM      3  N   PHE d   1      37.811  38.502  14.695  0.00  0.00    -0.346 N 
ATOM      4  C   LEU d   1      37.177  37.595  15.410  0.00  0.00     0.241 C 
ATOM      5  O   LEU d   1      36.570  36.627  14.975  0.00  0.00    -0.271 OA
ATOM      6  H19 PHE d   1      38.257  39.267  15.159  0.00  0.00     0.163 HD
BRANCH   4   7
ATOM      7  CA  LEU d   1      37.239  37.864  16.908  0.00  0.00     0.092 C 
ATOM      8  H9  LEU d   1      37.507  38.911  17.115  0.00  0.00     0.087 H 
BRANCH   7   9
ATOM      9  N   LEU d   1      35.942  37.569  17.413  0.00  0.00    -0.324 N 
ATOM     10  C1  PHQ d   1      35.272  38.457  18.052  0.00  0.00     0.361 C 
ATOM     11  O1  PHQ d   1      35.689  39.572  18.283  0.00  0.00    -0.238 OA
ATOM     12  H8  LEU d   1      35.549  36.661  17.268  0.00  0.00     0.165 HD
BRANCH  10  13
ATOM     13  O2  PHQ d   1      34.107  38.075  18.475  0.00  0.00    -0.299 OA
BRANCH  13  14
ATOM     14  C2  PHQ d   1      33.208  39.080  18.282  0.00  0.00     0.054 C 
ATOM     15  H1  PHQ d   1      33.440  39.529  17.305  0.00  0.00     0.082 H 
ATOM     16  H2  PHQ d   1      33.386  39.820  19.076  0.00  0.00     0.082 H 
BRANCH  14  17
ATOM     17  C3  PHQ d   1      31.853  38.813  18.284  0.00  0.00    -0.034 A 
ATOM     18  C4  PHQ d   1      31.379  37.680  17.721  0.00  0.00    -0.075 A 
ATOM     19  C5  PHQ d   1      30.066  37.383  17.689  0.00  0.00    -0.082 A 
ATOM     20  H3  PHQ d   1      32.082  36.984  17.278  0.00  0.00     0.084 H 
ATOM     21  C6  PHQ d   1      29.173  38.274  18.186  0.00  0.00    -0.083 A 
ATOM     22  H4  PHQ d   1      29.727  36.442  17.271  0.00  0.00     0.083 H 
ATOM     23  C7  PHQ d   1      29.635  39.412  18.761  0.00  0.00    -0.082 A 
ATOM     24  H5  PHQ d   1      28.108  38.080  18.125  0.00  0.00     0.083 H 
ATOM     25  C8  PHQ d   1      30.952  39.703  18.803  0.00  0.00    -0.075 A 
ATOM     26  H6  PHQ d   1      28.927  40.107  19.199  0.00  0.00     0.083 H 
ATOM     27  H7  PHQ d   1      31.293  40.633  19.244  0.00  0.00     0.084 H 
ENDBRANCH  14  17
ENDBRANCH  13  14
ENDBRANCH  10  13
ENDBRANCH   7   9
BRANCH   7  28
ATOM     28  CB  LEU d   1      38.268  36.935  17.498  0.00  0.00    -0.035 C 
ATOM     29  H10 LEU d   1      39.260  37.240  17.133  0.00  0.00     0.037 H 
ATOM     30  H11 LEU d   1      38.049  35.913  17.155  0.00  0.00     0.037 H 
BRANCH  28  31
ATOM     31  CG  LEU d   1      38.296  36.935  19.016  0.00  0.00    -0.059 C 
ATOM     32  H12 LEU d   1      37.278  37.006  19.427  0.00  0.00     0.038 H 
BRANCH  31  33
ATOM     33  CD1 LEU d   1      38.938  35.654  19.452  0.00  0.00    -0.073 C 
ATOM     34  H13 LEU d   1      38.976  35.618  20.551  0.00  0.00     0.028 H 
ATOM     35  H14 LEU d   1      39.960  35.600  19.048  0.00  0.00     0.028 H 
ATOM     36  H15 LEU d   1      38.350  34.803  19.078  0.00  0.00     0.028 H 
ENDBRANCH  31  33
BRANCH  31  37
ATOM     37  CD2 LEU d   1      39.103  38.110  19.443  0.00  0.00    -0.073 C 
ATOM     38  H16 LEU d   1      38.609  39.035  19.110  0.00  0.00     0.028 H 
ATOM     39  H17 LEU d   1      40.106  38.048  18.995  0.00  0.00     0.028 H 
ATOM     40  H18 LEU d   1      39.191  38.116  20.540  0.00  0.00     0.028 H 
ENDBRANCH  31  37
ENDBRANCH  28  31
ENDBRANCH   7  28
ENDBRANCH   4   7
ENDBRANCH   1   3
BRANCH   1  41
ATOM     41  C   PHE d   1      38.557  37.099  12.883  0.00  0.00     0.241 C 
ATOM     42  O   PHE d   1      39.538  36.736  13.489  0.00  0.00    -0.271 OA
ATOM     43  N   1HB d   1      38.026  36.439  11.876  0.00  0.00    -0.348 N 
ATOM     44  H31 1HB d   1      37.247  36.815  11.374  0.00  0.00     0.163 HD
BRANCH  43  45
ATOM     45  CA  1HB d   1      38.588  35.167  11.513  0.00  0.00     0.063 C 
ATOM     46  H38 1HB d   1      39.466  34.987  12.151  0.00  0.00     0.083 H 
BRANCH  45  47
ATOM     47  C   1HB d   1      39.116  35.208  10.055  0.00  0.00     0.109 C 
ATOM     48  O   1HB d   1      39.913  36.015   9.604  0.00  0.00    -0.305 OA
ATOM     49  H28 1HB d   1      38.742  34.447   9.371  0.00  0.00     0.146 H 
ENDBRANCH  45  47
BRANCH  45  50
ATOM     50  CB  1HB d   1      37.557  34.079  11.867  0.00  0.00    -0.032 C 
ATOM     51  H39 1HB d   1      36.558  34.403  11.539  0.00  0.00     0.037 H 
ATOM     52  H40 1HB d   1      37.825  33.143  11.356  0.00  0.00     0.037 H 
BRANCH  50  53
ATOM     53  CG  1HB d   1      37.544  33.850  13.352  0.00  0.00     0.011 C 
ATOM     54  H29 1HB d   1      38.574  33.970  13.720  0.00  0.00     0.047 H 
ATOM     55  H30 1HB d   1      36.901  34.618  13.806  0.00  0.00     0.047 H 
BRANCH  53  56
ATOM     56  CD  1HB d   1      37.036  32.478  13.815  0.00  0.00     0.219 C 
ATOM     57  OE1 1HB d   1      36.372  31.793  13.087  0.00  0.00    -0.273 OA
ATOM     58  NE2 1HB d   1      37.330  32.110  15.051  0.00  0.00    -0.361 N 
BRANCH  58  59
ATOM     59  CH1 1HB d   1      38.060  32.991  15.955  0.00  0.00    -0.017 C 
ATOM     60  H32 1HB d   1      38.196  32.490  16.925  0.00  0.00     0.056 H 
ATOM     61  H33 1HB d   1      37.491  33.921  16.099  0.00  0.00     0.056 H 
ATOM     62  H34 1HB d   1      39.044  33.226  15.523  0.00  0.00     0.056 H 
ENDBRANCH  58  59
BRANCH  58  63
ATOM     63  CH2 1HB d   1      36.858  30.829  15.477  0.00  0.00    -0.017 C 
ATOM     64  H35 1HB d   1      36.338  30.334  14.644  0.00  0.00     0.056 H 
ATOM     65  H36 1HB d   1      36.163  30.956  16.320  0.00  0.00     0.056 H 
ATOM     66  H37 1HB d   1      37.711  30.211  15.795  0.00  0.00     0.056 H 
ENDBRANCH  58  63
ENDBRANCH  53  56
ENDBRANCH  50  53
ENDBRANCH  45  50
ENDBRANCH  43  45
ENDBRANCH   1  41
BRANCH   1  67
ATOM     67  CB  PHE d   1      38.646  39.593  12.621  0.00  0.00    -0.014 C 
ATOM     68  H21 PHE d   1      38.942  39.331  11.594  0.00  0.00     0.043 H 
ATOM     69  H22 PHE d   1      39.546  39.780  13.226  0.00  0.00     0.043 H 
BRANCH  67  70
ATOM     70  CG  PHE d   1      37.789  40.893  12.581  0.00  0.00    -0.056 A 
ATOM     71  CD1 PHE d   1      38.124  42.032  13.320  0.00  0.00    -0.077 A 
ATOM     72  CE1 PHE d   1      37.322  43.168  13.287  0.00  0.00    -0.082 A 
ATOM     73  H23 PHE d   1      39.022  42.030  13.927  0.00  0.00     0.084 H 
ATOM     74  CZ  PHE d   1      36.207  43.227  12.513  0.00  0.00    -0.083 A 
ATOM     75  H25 PHE d   1      37.593  44.026  13.892  0.00  0.00     0.083 H 
ATOM     76  CE2 PHE d   1      35.874  42.097  11.773  0.00  0.00    -0.082 A 
ATOM     77  H27 PHE d   1      35.598  44.123  12.473  0.00  0.00     0.083 H 
ATOM     78  CD2 PHE d   1      36.652  40.967  11.819  0.00  0.00    -0.077 A 
ATOM     79  H26 PHE d   1      34.987  42.109  11.151  0.00  0.00     0.083 H 
ATOM     80  H24 PHE d   1      36.357  40.104  11.233  0.00  0.00     0.084 H 
ENDBRANCH  67  70
ENDBRANCH   1  67
TORSDOF 20
