REMARK  8 active torsions:
REMARK  status: ('A' for Active; 'I' for Inactive)
REMARK    1  A    between atoms: C1_1  and  C25_25 
REMARK    2  A    between atoms: N7_7  and  C18_18 
REMARK    3  A    between atoms: N11_11  and  C24_24 
REMARK    4  A    between atoms: C12_12  and  N13_13 
REMARK    5  A    between atoms: N13_13  and  C14_14 
REMARK    6  A    between atoms: C14_14  and  C15_15 
REMARK    7  A    between atoms: C15_15  and  O16_16 
REMARK    8  A    between atoms: O16_16  and  C17_17 
ROOT
ATOM      1  C1  1F6 d   1      26.806  14.014  38.132  0.00  0.00     0.050 A 
ATOM      2  C2  1F6 d   1      27.378  12.746  38.338  0.00  0.00    -0.040 A 
ATOM      3  C3  1F6 d   1      26.701  11.661  39.006  0.00  0.00     0.070 A 
ATOM      4  C4  1F6 d   1      25.374  11.886  39.486  0.00  0.00     0.064 A 
ATOM      5  C5  1F6 d   1      24.783  13.197  39.266  0.00  0.00    -0.054 A 
ATOM      6  C6  1F6 d   1      25.485  14.236  38.605  0.00  0.00    -0.066 A 
ATOM      7  N7  1F6 d   1      27.429  10.410  39.151  0.00  0.00    -0.276 N 
ATOM      8  C8  1F6 d   1      26.908   9.115  38.863  0.00  0.00     0.270 C 
ATOM      9  C9  1F6 d   1      25.421   8.882  38.864  0.00  0.00     0.116 C 
ATOM     10  C10 1F6 d   1      24.524   9.503  39.890  0.00  0.00     0.265 C 
ATOM     11  N11 1F6 d   1      24.592  10.890  40.178  0.00  0.00    -0.316 N 
ATOM     12  C12 1F6 d   1      24.824   8.077  37.978  0.00  0.00    -0.007 C 
ATOM     13  O29 1F6 d   1      27.621   8.146  38.571  0.00  0.00    -0.266 OA
ATOM     14  O30 1F6 d   1      23.699   8.759  40.446  0.00  0.00    -0.267 OA
ATOM     15  H1  1F6 d   1      28.385  12.574  37.974  0.00  0.00     0.088 H 
ATOM     16  H2  1F6 d   1      23.775  13.385  39.618  0.00  0.00     0.087 H 
ATOM     17  H3  1F6 d   1      25.013  15.201  38.460  0.00  0.00     0.084 H 
ATOM     18  H4  1F6 d   1      23.745   7.991  38.098  0.00  0.00     0.112 H 
ENDROOT
BRANCH  12  19
ATOM     19  N13 1F6 d   1      25.345   7.341  36.942  0.00  0.00    -0.396 N 
ATOM     20  H5  1F6 d   1      26.343   7.468  36.723  0.00  0.00     0.158 HD
BRANCH  19  21
ATOM     21  C14 1F6 d   1      24.592   6.392  36.127  0.00  0.00     0.012 C 
ATOM     22  H6  1F6 d   1      23.762   5.986  36.725  0.00  0.00     0.067 H 
ATOM     23  H7  1F6 d   1      25.260   5.573  35.823  0.00  0.00     0.067 H 
BRANCH  21  24
ATOM     24  C15 1F6 d   1      24.021   7.063  34.871  0.00  0.00     0.033 C 
ATOM     25  H8  1F6 d   1      23.245   6.415  34.438  0.00  0.00     0.076 H 
ATOM     26  H9  1F6 d   1      24.830   7.205  34.139  0.00  0.00     0.076 H 
BRANCH  24  27
ATOM     27  O16 1F6 d   1      23.439   8.351  35.190  0.00  0.00    -0.394 OA
BRANCH  27  28
ATOM     28  C17 1F6 d   1      23.479   9.228  34.063  0.00  0.00     0.004 C 
ATOM     29  H10 1F6 d   1      23.031  10.195  34.335  0.00  0.00     0.066 H 
ATOM     30  H11 1F6 d   1      22.913   8.783  33.232  0.00  0.00     0.066 H 
ATOM     31  H12 1F6 d   1      24.524   9.381  33.755  0.00  0.00     0.066 H 
ENDBRANCH  27  28
ENDBRANCH  24  27
ENDBRANCH  21  24
ENDBRANCH  19  21
ENDBRANCH  12  19
BRANCH   7  32
ATOM     32  C18 1F6 d   1      28.834  10.527  39.588  0.00  0.00     0.043 A 
ATOM     33  C19 1F6 d   1      29.163  10.916  40.934  0.00  0.00    -0.057 A 
ATOM     34  C20 1F6 d   1      30.515  11.039  41.343  0.00  0.00    -0.081 A 
ATOM     35  H13 1F6 d   1      28.368  11.117  41.643  0.00  0.00     0.086 H 
ATOM     36  C21 1F6 d   1      31.564  10.778  40.420  0.00  0.00    -0.083 A 
ATOM     37  H14 1F6 d   1      30.749  11.332  42.360  0.00  0.00     0.083 H 
ATOM     38  C22 1F6 d   1      31.269  10.391  39.090  0.00  0.00    -0.081 A 
ATOM     39  H15 1F6 d   1      32.596  10.876  40.736  0.00  0.00     0.083 H 
ATOM     40  C23 1F6 d   1      29.922  10.267  38.675  0.00  0.00    -0.057 A 
ATOM     41  H16 1F6 d   1      32.073  10.190  38.392  0.00  0.00     0.083 H 
ATOM     42  H17 1F6 d   1      29.703   9.972  37.655  0.00  0.00     0.086 H 
ENDBRANCH   7  32
BRANCH  11  43
ATOM     43  C24 1F6 d   1      23.768  11.348  41.325  0.00  0.00    -0.011 C 
ATOM     44  H18 1F6 d   1      23.895  12.432  41.458  0.00  0.00     0.057 H 
ATOM     45  H19 1F6 d   1      24.089  10.826  42.239  0.00  0.00     0.057 H 
ATOM     46  H20 1F6 d   1      22.709  11.125  41.128  0.00  0.00     0.057 H 
ENDBRANCH  11  43
BRANCH   1  47
ATOM     47  C25 1F6 d   1      27.612  15.087  37.433  0.00  0.00     0.417 C 
ATOM     48  F26 1F6 d   1      28.962  14.852  37.454  0.00  0.00    -0.166 F 
ATOM     49  F27 1F6 d   1      27.459  16.316  38.007  0.00  0.00    -0.166 F 
ATOM     50  F28 1F6 d   1      27.292  15.233  36.124  0.00  0.00    -0.166 F 
ENDBRANCH   1  47
TORSDOF 8
