REMARK  19 active torsions:
REMARK  status: ('A' for Active; 'I' for Inactive)
REMARK    1  A    between atoms: C1_1  and  O2_3 
REMARK       I    between atoms: N_11  and  C1_1 
REMARK    2  A    between atoms: O2_3  and  C2_4 
REMARK    3  A    between atoms: C2_4  and  C3_5 
REMARK    4  A    between atoms: CA_12  and  N_11 
REMARK    5  A    between atoms: C_13  and  CA_12 
REMARK    6  A    between atoms: CA_12  and  CB_15 
REMARK       I    between atoms: N_16  and  C_13 
REMARK    7  A    between atoms: CA_17  and  N_16 
REMARK    8  A    between atoms: C_18  and  CA_17 
REMARK    9  A    between atoms: CA_17  and  CB_20 
REMARK       I    between atoms: N_27  and  C_18 
REMARK   10  A    between atoms: CB_20  and  CG_21 
REMARK   11  A    between atoms: CG_21  and  CD1_22 
REMARK   12  A    between atoms: CG_21  and  CD2_23 
REMARK   13  A    between atoms: CA_32  and  C_24 
REMARK   14  A    between atoms: CG_26  and  CD_25 
REMARK       I    between atoms: CD_25  and  NE2_29 
REMARK   15  A    between atoms: CB_33  and  CG_26 
REMARK   16  A    between atoms: CA_32  and  N_27 
REMARK   17  A    between atoms: NE2_29  and  CH1_30 
REMARK   18  A    between atoms: NE2_29  and  CH2_31 
REMARK   19  A    between atoms: CA_32  and  CB_33 
ROOT
ATOM      1  CA  LEU d   1      -9.624  57.618  87.474  0.00  0.00     0.089 C 
ATOM      2  H14 LEU d   1      -8.667  57.403  86.977  0.00  0.00     0.087 H 
ENDROOT
BRANCH   1   3
ATOM      3  N   LEU d   1      -9.622  58.948  88.117  0.00  0.00    -0.346 N 
ATOM      4  C   ALA d   1      -9.524  60.089  87.574  0.00  0.00     0.240 C 
ATOM      5  O   ALA d   1      -9.236  60.074  86.372  0.00  0.00    -0.271 OA
ATOM      6  H13 LEU d   1      -9.710  58.948  89.113  0.00  0.00     0.163 HD
BRANCH   4   7
ATOM      7  CA  ALA d   1      -9.573  61.432  88.318  0.00  0.00     0.088 C 
ATOM      8  H9  ALA d   1      -9.385  61.294  89.393  0.00  0.00     0.087 H 
BRANCH   7   9
ATOM      9  N   ALA d   1      -8.559  62.287  87.711  0.00  0.00    -0.324 N 
ATOM     10  C1  PHQ d   1      -7.533  62.774  88.405  0.00  0.00     0.361 C 
ATOM     11  O1  PHQ d   1      -7.478  62.745  89.639  0.00  0.00    -0.238 OA
ATOM     12  H8  ALA d   1      -8.637  62.515  86.740  0.00  0.00     0.165 HD
BRANCH  10  13
ATOM     13  O2  PHQ d   1      -6.669  63.556  87.702  0.00  0.00    -0.299 OA
BRANCH  13  14
ATOM     14  C2  PHQ d   1      -5.537  64.081  88.406  0.00  0.00     0.054 C 
ATOM     15  H1  PHQ d   1      -5.558  63.737  89.451  0.00  0.00     0.082 H 
ATOM     16  H2  PHQ d   1      -5.562  65.180  88.381  0.00  0.00     0.082 H 
BRANCH  14  17
ATOM     17  C3  PHQ d   1      -4.366  63.620  87.779  0.00  0.00    -0.034 A 
ATOM     18  C4  PHQ d   1      -3.183  63.299  88.443  0.00  0.00    -0.075 A 
ATOM     19  C5  PHQ d   1      -2.087  62.834  87.712  0.00  0.00    -0.082 A 
ATOM     20  H3  PHQ d   1      -3.114  63.409  89.519  0.00  0.00     0.084 H 
ATOM     21  C6  PHQ d   1      -2.162  62.678  86.329  0.00  0.00    -0.083 A 
ATOM     22  H4  PHQ d   1      -1.165  62.591  88.228  0.00  0.00     0.083 H 
ATOM     23  C7  PHQ d   1      -3.348  62.986  85.674  0.00  0.00    -0.082 A 
ATOM     24  H5  PHQ d   1      -1.304  62.320  85.771  0.00  0.00     0.083 H 
ATOM     25  C8  PHQ d   1      -4.437  63.446  86.402  0.00  0.00    -0.075 A 
ATOM     26  H6  PHQ d   1      -3.423  62.868  84.599  0.00  0.00     0.083 H 
ATOM     27  H7  PHQ d   1      -5.362  63.674  85.885  0.00  0.00     0.084 H 
ENDBRANCH  14  17
ENDBRANCH  13  14
ENDBRANCH  10  13
ENDBRANCH   7   9
BRANCH   7  28
ATOM     28  CB  ALA d   1     -10.934  62.081  88.087  0.00  0.00    -0.049 C 
ATOM     29  H10 ALA d   1     -11.720  61.455  88.536  0.00  0.00     0.030 H 
ATOM     30  H11 ALA d   1     -11.115  62.178  87.006  0.00  0.00     0.030 H 
ATOM     31  H12 ALA d   1     -10.949  63.078  88.552  0.00  0.00     0.030 H 
ENDBRANCH   7  28
ENDBRANCH   4   7
ENDBRANCH   1   3
BRANCH   1  32
ATOM     32  C   LEU d   1     -10.789  57.664  86.505  0.00  0.00     0.241 C 
ATOM     33  O   LEU d   1     -11.865  58.204  86.772  0.00  0.00    -0.271 OA
ATOM     34  N   1HB d   1     -10.577  56.998  85.466  0.00  0.00    -0.345 N 
ATOM     35  H26 1HB d   1      -9.716  56.511  85.320  0.00  0.00     0.163 HD
BRANCH  34  36
ATOM     36  CA  1HB d   1     -11.667  56.968  84.465  0.00  0.00     0.096 C 
ATOM     37  H33 1HB d   1     -12.495  57.483  84.975  0.00  0.00     0.089 H 
BRANCH  36  38
ATOM     38  C   1HB d   1     -12.241  55.558  84.131  0.00  0.00     0.196 C 
ATOM     39  O   1HB d   1     -12.428  54.681  85.016  0.00  0.00    -0.646 OA
ATOM     40  O   1HB d   1     -12.528  55.286  82.935  0.00  0.00    -0.646 OA
ENDBRANCH  36  38
BRANCH  36  41
ATOM     41  CB  1HB d   1     -11.434  57.797  83.193  0.00  0.00    -0.029 C 
ATOM     42  H34 1HB d   1     -10.501  57.469  82.712  0.00  0.00     0.037 H 
ATOM     43  H35 1HB d   1     -12.276  57.645  82.501  0.00  0.00     0.037 H 
BRANCH  41  44
ATOM     44  CG  1HB d   1     -11.327  59.303  83.545  0.00  0.00     0.012 C 
ATOM     45  H24 1HB d   1     -12.202  59.593  84.145  0.00  0.00     0.047 H 
ATOM     46  H25 1HB d   1     -10.410  59.469  84.130  0.00  0.00     0.047 H 
BRANCH  44  47
ATOM     47  CD  1HB d   1     -11.278  60.169  82.288  0.00  0.00     0.219 C 
ATOM     48  OE1 1HB d   1     -10.920  59.726  81.187  0.00  0.00    -0.273 OA
ATOM     49  NE2 1HB d   1     -11.759  61.397  82.473  0.00  0.00    -0.361 N 
BRANCH  49  50
ATOM     50  CH1 1HB d   1     -12.149  61.805  83.836  0.00  0.00    -0.017 C 
ATOM     51  H27 1HB d   1     -12.523  62.839  83.816  0.00  0.00     0.056 H 
ATOM     52  H28 1HB d   1     -11.275  61.744  84.501  0.00  0.00     0.056 H 
ATOM     53  H29 1HB d   1     -12.940  61.136  84.207  0.00  0.00     0.056 H 
ENDBRANCH  49  50
BRANCH  49  54
ATOM     54  CH2 1HB d   1     -11.777  62.345  81.349  0.00  0.00    -0.017 C 
ATOM     55  H30 1HB d   1     -11.452  61.832  80.432  0.00  0.00     0.056 H 
ATOM     56  H31 1HB d   1     -11.095  63.181  81.563  0.00  0.00     0.056 H 
ATOM     57  H32 1HB d   1     -12.798  62.731  81.211  0.00  0.00     0.056 H 
ENDBRANCH  49  54
ENDBRANCH  44  47
ENDBRANCH  41  44
ENDBRANCH  36  41
ENDBRANCH  34  36
ENDBRANCH   1  32
BRANCH   1  58
ATOM     58  CB  LEU d   1      -9.977  56.547  88.495  0.00  0.00    -0.035 C 
ATOM     59  H15 LEU d   1     -10.066  55.577  87.985  0.00  0.00     0.037 H 
ATOM     60  H16 LEU d   1     -10.936  56.802  88.969  0.00  0.00     0.037 H 
BRANCH  58  61
ATOM     61  CG  LEU d   1      -8.894  56.451  89.572  0.00  0.00    -0.059 C 
ATOM     62  H17 LEU d   1      -8.722  57.454  89.989  0.00  0.00     0.038 H 
BRANCH  61  63
ATOM     63  CD1 LEU d   1      -9.248  55.517  90.682  0.00  0.00    -0.073 C 
ATOM     64  H18 LEU d   1      -8.431  55.495  91.418  0.00  0.00     0.028 H 
ATOM     65  H19 LEU d   1      -9.402  54.507  90.276  0.00  0.00     0.028 H 
ATOM     66  H20 LEU d   1     -10.172  55.861  91.170  0.00  0.00     0.028 H 
ENDBRANCH  61  63
BRANCH  61  67
ATOM     67  CD2 LEU d   1      -7.607  55.924  88.933  0.00  0.00    -0.073 C 
ATOM     68  H21 LEU d   1      -7.310  56.587  88.107  0.00  0.00     0.028 H 
ATOM     69  H22 LEU d   1      -7.779  54.909  88.546  0.00  0.00     0.028 H 
ATOM     70  H23 LEU d   1      -6.807  55.898  89.688  0.00  0.00     0.028 H 
ENDBRANCH  61  67
ENDBRANCH  58  61
ENDBRANCH   1  58
TORSDOF 19
