REMARK  25 active torsions:
REMARK  status: ('A' for Active; 'I' for Inactive)
REMARK    1  A    between atoms: C12_1  and  C8_3 
REMARK       I    between atoms: N14_14  and  C12_1 
REMARK    2  A    between atoms: C8_3  and  N9_4 
REMARK    3  A    between atoms: C8_3  and  C7_7 
REMARK    4  A    between atoms: C7_7  and  C3_8 
REMARK    5  A    between atoms: C15_15  and  N14_14 
REMARK    6  A    between atoms: C25_16  and  C15_15 
REMARK    7  A    between atoms: C15_15  and  C16_18 
REMARK       I    between atoms: N27_22  and  C25_16 
REMARK    8  A    between atoms: C16_18  and  C17_19 
REMARK    9  A    between atoms: C17_19  and  C18_20 
REMARK   10  A    between atoms: C17_19  and  C19_21 
REMARK   11  A    between atoms: C28_23  and  N27_22 
REMARK   12  A    between atoms: C33_24  and  C28_23 
REMARK   13  A    between atoms: C28_23  and  C29_26 
REMARK       I    between atoms: N35_46  and  C33_24 
REMARK   14  A    between atoms: C29_26  and  C30_27 
REMARK   15  A    between atoms: C30_27  and  C31_28 
REMARK   16  A    between atoms: C30_27  and  C32_29 
REMARK   17  A    between atoms: S48_31  and  C51_33 
REMARK   18  A    between atoms: C47_34  and  S48_31 
REMARK   19  A    between atoms: C46_35  and  C47_34 
REMARK   20  A    between atoms: C36_36  and  C46_35 
REMARK   21  A    between atoms: C36_36  and  C37_37 
REMARK   22  A    between atoms: C36_36  and  N35_46 
REMARK   23  A    between atoms: C37_37  and  C38_38 
REMARK   24  A    between atoms: C41_41  and  C44_42 
REMARK   25  A    between atoms: C44_42  and  N45_43 
ROOT
ATOM      1  N9  1G1 d   1      58.582-135.286  32.591  0.00  0.00    -0.100 NA
ATOM      2  N10 1G1 d   1      59.249-134.904  31.676  0.00  0.00    -0.167 NA
ATOM      3  N11 1G1 d   1      59.885-134.585  30.718  0.00  0.00     0.068 N 
ENDROOT
BRANCH   1   4
ATOM      4  C8  1G1 d   1      58.598-134.667  33.902  0.00  0.00     0.145 C 
ATOM      5  H1  1G1 d   1      58.582-133.570  33.824  0.00  0.00     0.095 H 
BRANCH   4   6
ATOM      6  C12 1G1 d   1      59.925-135.134  34.439  0.00  0.00     0.246 C 
ATOM      7  O13 1G1 d   1      60.038-136.317  34.740  0.00  0.00    -0.271 OA
ATOM      8  N14 1G1 d   1      60.912-134.208  34.542  0.00  0.00    -0.346 N 
ATOM      9  H9  1G1 d   1      60.806-133.331  34.073  0.00  0.00     0.163 HD
BRANCH   8  10
ATOM     10  C15 1G1 d   1      62.128-134.455  35.320  0.00  0.00     0.089 C 
ATOM     11  H10 1G1 d   1      62.622-135.367  34.954  0.00  0.00     0.087 H 
BRANCH  10  12
ATOM     12  C25 1G1 d   1      61.759-134.657  36.758  0.00  0.00     0.241 C 
ATOM     13  O26 1G1 d   1      61.229-133.724  37.346  0.00  0.00    -0.271 OA
ATOM     14  N27 1G1 d   1      62.025-135.873  37.294  0.00  0.00    -0.346 N 
ATOM     15  H20 1G1 d   1      62.384-136.602  36.711  0.00  0.00     0.163 HD
BRANCH  14  16
ATOM     16  C28 1G1 d   1      61.795-136.131  38.707  0.00  0.00     0.089 C 
ATOM     17  H21 1G1 d   1      61.167-135.315  39.095  0.00  0.00     0.087 H 
BRANCH  16  18
ATOM     18  C33 1G1 d   1      63.083-136.143  39.496  0.00  0.00     0.240 C 
ATOM     19  O34 1G1 d   1      64.109-136.537  38.958  0.00  0.00    -0.271 OA
ATOM     20  N35 1G1 d   1      62.994-135.702  40.776  0.00  0.00    -0.354 N 
ATOM     21  H50 1G1 d   1      62.094-135.434  41.120  0.00  0.00     0.162 HD
BRANCH  20  22
ATOM     22  C36 1G1 d   1      64.136-135.595  41.682  0.00  0.00     0.017 C 
ATOM     23  H38 1G1 d   1      65.079-135.720  41.130  0.00  0.00     0.073 H 
BRANCH  22  24
ATOM     24  C46 1G1 d   1      63.969-136.702  42.788  0.00  0.00    -0.034 C 
ATOM     25  H36 1G1 d   1      64.403-137.649  42.434  0.00  0.00     0.037 H 
ATOM     26  H37 1G1 d   1      64.481-136.386  43.709  0.00  0.00     0.037 H 
BRANCH  24  27
ATOM     27  C47 1G1 d   1      62.444-136.895  43.072  0.00  0.00     0.030 C 
ATOM     28  H34 1G1 d   1      62.199-136.340  43.989  0.00  0.00     0.056 H 
ATOM     29  H35 1G1 d   1      61.886-136.469  42.225  0.00  0.00     0.056 H 
BRANCH  27  30
ATOM     30  S48 1G1 d   1      61.895-138.609  43.294  0.00  0.00     0.140 S 
ATOM     31  O50 1G1 d   1      62.724-139.496  42.499  0.00  0.00    -0.228 OA
ATOM     32  O49 1G1 d   1      61.730-138.889  44.710  0.00  0.00    -0.228 OA
BRANCH  30  33
ATOM     33  C51 1G1 d   1      60.261-138.508  42.551  0.00  0.00     0.015 C 
ATOM     34  H31 1G1 d   1      60.359-138.296  41.476  0.00  0.00     0.048 H 
ATOM     35  H32 1G1 d   1      59.688-137.702  43.033  0.00  0.00     0.048 H 
ATOM     36  H33 1G1 d   1      59.735-139.464  42.690  0.00  0.00     0.048 H 
ENDBRANCH  30  33
ENDBRANCH  27  30
ENDBRANCH  24  27
ENDBRANCH  22  24
BRANCH  22  37
ATOM     37  C37 1G1 d   1      64.109-134.225  42.428  0.00  0.00    -0.022 C 
ATOM     38  H39 1G1 d   1      64.558-134.408  43.415  0.00  0.00     0.043 H 
ATOM     39  H40 1G1 d   1      63.047-133.967  42.550  0.00  0.00     0.043 H 
BRANCH  37  40
ATOM     40  C38 1G1 d   1      64.791-132.965  41.879  0.00  0.00    -0.056 A 
ATOM     41  C43 1G1 d   1      64.490-131.764  42.545  0.00  0.00    -0.076 A 
ATOM     42  C42 1G1 d   1      65.055-130.556  42.132  0.00  0.00    -0.075 A 
ATOM     43  H41 1G1 d   1      63.811-131.776  43.390  0.00  0.00     0.084 H 
ATOM     44  C41 1G1 d   1      65.938-130.524  41.041  0.00  0.00    -0.033 A 
ATOM     45  H42 1G1 d   1      64.811-129.639  42.656  0.00  0.00     0.084 H 
ATOM     46  C40 1G1 d   1      66.244-131.724  40.373  0.00  0.00    -0.075 A 
ATOM     47  C39 1G1 d   1      65.676-132.942  40.787  0.00  0.00    -0.076 A 
ATOM     48  H48 1G1 d   1      66.925-131.709  39.530  0.00  0.00     0.084 H 
ATOM     49  H49 1G1 d   1      65.920-133.861  40.266  0.00  0.00     0.084 H 
BRANCH  44  50
ATOM     50  C44 1G1 d   1      66.516-129.151  40.652  0.00  0.00     0.103 C 
ATOM     51  H43 1G1 d   1      67.585-129.286  40.433  0.00  0.00     0.082 H 
ATOM     52  H44 1G1 d   1      66.401-128.481  41.517  0.00  0.00     0.082 H 
BRANCH  50  53
ATOM     53  N45 1G1 d   1      65.895-128.491  39.483  0.00  0.00    -0.075 N 
ATOM     54  H45 1G1 d   1      66.347-127.605  39.318  0.00  0.00     0.274 HD
ATOM     55  H46 1G1 d   1      64.915-128.340  39.664  0.00  0.00     0.274 HD
ATOM     56  H47 1G1 d   1      66.000-129.078  38.670  0.00  0.00     0.274 HD
ENDBRANCH  50  53
ENDBRANCH  44  50
ENDBRANCH  37  40
ENDBRANCH  22  37
ENDBRANCH  20  22
ENDBRANCH  16  18
BRANCH  16  57
ATOM     57  C29 1G1 d   1      61.035-137.469  38.928  0.00  0.00    -0.035 C 
ATOM     58  H22 1G1 d   1      61.046-137.688  40.006  0.00  0.00     0.037 H 
ATOM     59  H23 1G1 d   1      61.579-138.258  38.388  0.00  0.00     0.037 H 
BRANCH  57  60
ATOM     60  C30 1G1 d   1      59.546-137.500  38.449  0.00  0.00    -0.059 C 
ATOM     61  H24 1G1 d   1      59.463-136.863  37.556  0.00  0.00     0.038 H 
BRANCH  60  62
ATOM     62  C31 1G1 d   1      58.519-136.986  39.507  0.00  0.00    -0.073 C 
ATOM     63  H25 1G1 d   1      57.503-137.042  39.089  0.00  0.00     0.028 H 
ATOM     64  H26 1G1 d   1      58.751-135.943  39.767  0.00  0.00     0.028 H 
ATOM     65  H27 1G1 d   1      58.579-137.611  40.410  0.00  0.00     0.028 H 
ENDBRANCH  60  62
BRANCH  60  66
ATOM     66  C32 1G1 d   1      59.171-138.965  38.070  0.00  0.00    -0.073 C 
ATOM     67  H28 1G1 d   1      59.885-139.345  37.324  0.00  0.00     0.028 H 
ATOM     68  H29 1G1 d   1      58.155-138.986  37.649  0.00  0.00     0.028 H 
ATOM     69  H30 1G1 d   1      59.209-139.597  38.969  0.00  0.00     0.028 H 
ENDBRANCH  60  66
ENDBRANCH  57  60
ENDBRANCH  16  57
ENDBRANCH  14  16
ENDBRANCH  10  12
BRANCH  10  70
ATOM     70  C16 1G1 d   1      63.085-133.241  35.100  0.00  0.00    -0.035 C 
ATOM     71  H11 1G1 d   1      63.482-132.941  36.081  0.00  0.00     0.037 H 
ATOM     72  H12 1G1 d   1      62.494-132.416  34.676  0.00  0.00     0.037 H 
BRANCH  70  73
ATOM     73  C17 1G1 d   1      64.295-133.501  34.152  0.00  0.00    -0.059 C 
ATOM     74  H13 1G1 d   1      64.513-134.579  34.159  0.00  0.00     0.038 H 
BRANCH  73  75
ATOM     75  C18 1G1 d   1      65.536-132.717  34.680  0.00  0.00    -0.073 C 
ATOM     76  H14 1G1 d   1      66.393-132.897  34.015  0.00  0.00     0.028 H 
ATOM     77  H15 1G1 d   1      65.782-133.060  35.696  0.00  0.00     0.028 H 
ATOM     78  H16 1G1 d   1      65.308-131.641  34.702  0.00  0.00     0.028 H 
ENDBRANCH  73  75
BRANCH  73  79
ATOM     79  C19 1G1 d   1      64.039-133.056  32.676  0.00  0.00    -0.073 C 
ATOM     80  H17 1G1 d   1      63.167-133.595  32.277  0.00  0.00     0.028 H 
ATOM     81  H18 1G1 d   1      64.924-133.287  32.065  0.00  0.00     0.028 H 
ATOM     82  H19 1G1 d   1      63.846-131.973  32.648  0.00  0.00     0.028 H 
ENDBRANCH  73  79
ENDBRANCH  70  73
ENDBRANCH  10  70
ENDBRANCH   8  10
ENDBRANCH   4   6
BRANCH   4  83
ATOM     83  C7  1G1 d   1      57.368-135.121  34.734  0.00  0.00    -0.009 C 
ATOM     84  H2  1G1 d   1      57.492-134.791  35.776  0.00  0.00     0.044 H 
ATOM     85  H3  1G1 d   1      57.293-136.218  34.703  0.00  0.00     0.044 H 
BRANCH  83  86
ATOM     86  C3  1G1 d   1      56.081-134.506  34.155  0.00  0.00    -0.056 A 
ATOM     87  C2  1G1 d   1      55.386-135.133  33.104  0.00  0.00    -0.077 A 
ATOM     88  C1  1G1 d   1      54.215-134.562  32.586  0.00  0.00    -0.082 A 
ATOM     89  H4  1G1 d   1      55.759-136.064  32.692  0.00  0.00     0.084 H 
ATOM     90  C6  1G1 d   1      53.725-133.362  33.119  0.00  0.00    -0.083 A 
ATOM     91  H5  1G1 d   1      53.688-135.049  31.773  0.00  0.00     0.083 H 
ATOM     92  C5  1G1 d   1      54.408-132.731  34.169  0.00  0.00    -0.082 A 
ATOM     93  H8  1G1 d   1      52.818-132.922  32.720  0.00  0.00     0.083 H 
ATOM     94  C4  1G1 d   1      55.580-133.304  34.684  0.00  0.00    -0.077 A 
ATOM     95  H7  1G1 d   1      54.031-131.802  34.582  0.00  0.00     0.083 H 
ATOM     96  H6  1G1 d   1      56.104-132.815  35.497  0.00  0.00     0.084 H 
ENDBRANCH  83  86
ENDBRANCH   4  83
ENDBRANCH   1   4
TORSDOF 25
