REMARK  21 active torsions:
REMARK  status: ('A' for Active; 'I' for Inactive)
REMARK    1  A    between atoms: C9_8  and  C4_4 
REMARK    2  A    between atoms: C3_5  and  C7_7 
REMARK    3  A    between atoms: C2_6  and  O8_9 
REMARK       I    between atoms: N10_11  and  C9_8 
REMARK    4  A    between atoms: C11_12  and  N10_11 
REMARK    5  A    between atoms: C15_13  and  C11_12 
REMARK    6  A    between atoms: C11_12  and  C12_15 
REMARK       I    between atoms: N17_18  and  C15_13 
REMARK    7  A    between atoms: C12_15  and  C13_16 
REMARK    8  A    between atoms: C12_15  and  C14_17 
REMARK    9  A    between atoms: C18_19  and  N17_18 
REMARK   10  A    between atoms: C19_20  and  C18_19 
REMARK   11  A    between atoms: C18_19  and  C40_22 
REMARK       I    between atoms: N20_40  and  C19_20 
REMARK   12  A    between atoms: C40_22  and  O41_23 
REMARK   13  A    between atoms: S36_25  and  C39_27 
REMARK   14  A    between atoms: C35_28  and  S36_25 
REMARK   15  A    between atoms: C23_29  and  C35_28 
REMARK   16  A    between atoms: C21_30  and  C23_29 
REMARK   17  A    between atoms: C21_30  and  C22_31 
REMARK   18  A    between atoms: C21_30  and  N20_40 
REMARK   19  A    between atoms: C22_31  and  C24_32 
REMARK   20  A    between atoms: C27_35  and  C30_36 
REMARK   21  A    between atoms: C30_36  and  N31_37 
ROOT
ATOM      1  C18 1G5 d   1      61.825-136.610  39.043  0.00  0.00     0.109 C 
ATOM      2  H18 1G5 d   1      61.174-135.800  39.403  0.00  0.00     0.090 H 
ENDROOT
BRANCH   1   3
ATOM      3  N17 1G5 d   1      61.928-136.277  37.613  0.00  0.00    -0.344 N 
ATOM      4  C15 1G5 d   1      61.460-135.126  37.062  0.00  0.00     0.241 C 
ATOM      5  O16 1G5 d   1      60.826-134.280  37.674  0.00  0.00    -0.271 OA
ATOM      6  H17 1G5 d   1      62.370-136.940  37.008  0.00  0.00     0.163 HD
BRANCH   4   7
ATOM      7  C11 1G5 d   1      61.741-134.886  35.584  0.00  0.00     0.092 C 
ATOM      8  H9  1G5 d   1      62.203-135.809  35.204  0.00  0.00     0.088 H 
BRANCH   7   9
ATOM      9  N10 1G5 d   1      60.507-134.673  34.820  0.00  0.00    -0.343 N 
ATOM     10  C9  1G5 d   1      59.517-135.601  34.778  0.00  0.00     0.253 C 
ATOM     11  O32 1G5 d   1      59.746-136.777  34.537  0.00  0.00    -0.268 OA
ATOM     12  H8  1G5 d   1      60.392-133.818  34.315  0.00  0.00     0.163 HD
BRANCH  10  13
ATOM     13  C4  1G5 d   1      58.070-135.207  35.024  0.00  0.00     0.040 A 
ATOM     14  C5  1G5 d   1      57.495-135.385  36.294  0.00  0.00    -0.067 A 
ATOM     15  C6  1G5 d   1      56.164-135.026  36.536  0.00  0.00    -0.079 A 
ATOM     16  H3  1G5 d   1      58.090-135.806  37.096  0.00  0.00     0.085 H 
ATOM     17  C1  1G5 d   1      55.389-134.481  35.505  0.00  0.00    -0.050 A 
ATOM     18  H2  1G5 d   1      55.734-135.170  37.520  0.00  0.00     0.083 H 
ATOM     19  C2  1G5 d   1      55.944-134.295  34.229  0.00  0.00     0.072 A 
ATOM     20  H1  1G5 d   1      54.358-134.202  35.693  0.00  0.00     0.087 H 
ATOM     21  C3  1G5 d   1      57.286-134.657  33.986  0.00  0.00    -0.013 A 
BRANCH  19  22
ATOM     22  O8  1G5 d   1      55.163-133.749  33.201  0.00  0.00    -0.360 OA
ATOM     23  H7  1G5 d   1      54.292-133.563  33.531  0.00  0.00     0.217 HD
ENDBRANCH  19  22
BRANCH  21  24
ATOM     24  C7  1G5 d   1      57.878-134.446  32.580  0.00  0.00    -0.048 C 
ATOM     25  H4  1G5 d   1      58.926-134.780  32.570  0.00  0.00     0.033 H 
ATOM     26  H5  1G5 d   1      57.831-133.379  32.319  0.00  0.00     0.033 H 
ATOM     27  H6  1G5 d   1      57.300-135.029  31.848  0.00  0.00     0.033 H 
ENDBRANCH  21  24
ENDBRANCH  10  13
ENDBRANCH   7   9
BRANCH   7  28
ATOM     28  C12 1G5 d   1      62.753-133.725  35.299  0.00  0.00    -0.033 C 
ATOM     29  H10 1G5 d   1      62.223-132.773  35.448  0.00  0.00     0.042 H 
BRANCH  28  30
ATOM     30  C13 1G5 d   1      63.280-133.774  33.836  0.00  0.00    -0.071 C 
ATOM     31  H11 1G5 d   1      63.986-132.946  33.673  0.00  0.00     0.028 H 
ATOM     32  H12 1G5 d   1      62.435-133.678  33.138  0.00  0.00     0.028 H 
ATOM     33  H13 1G5 d   1      63.792-134.732  33.663  0.00  0.00     0.028 H 
ENDBRANCH  28  30
BRANCH  28  34
ATOM     34  C14 1G5 d   1      63.973-133.764  36.263  0.00  0.00    -0.071 C 
ATOM     35  H14 1G5 d   1      63.619-133.730  37.304  0.00  0.00     0.028 H 
ATOM     36  H15 1G5 d   1      64.622-132.898  36.068  0.00  0.00     0.028 H 
ATOM     37  H16 1G5 d   1      64.541-134.692  36.099  0.00  0.00     0.028 H 
ENDBRANCH  28  34
ENDBRANCH   7  28
ENDBRANCH   4   7
ENDBRANCH   1   3
BRANCH   1  38
ATOM     38  C19 1G5 d   1      63.122-136.339  39.815  0.00  0.00     0.242 C 
ATOM     39  O33 1G5 d   1      64.101-136.922  39.366  0.00  0.00    -0.271 OA
ATOM     40  N20 1G5 d   1      63.333-135.546  40.911  0.00  0.00    -0.354 N 
ATOM     41  H41 1G5 d   1      62.777-134.715  40.930  0.00  0.00     0.162 HD
BRANCH  40  42
ATOM     42  C21 1G5 d   1      64.234-135.699  42.069  0.00  0.00     0.017 C 
ATOM     43  H29 1G5 d   1      65.230-135.827  41.621  0.00  0.00     0.073 H 
BRANCH  42  44
ATOM     44  C23 1G5 d   1      64.079-136.947  42.999  0.00  0.00    -0.034 C 
ATOM     45  H27 1G5 d   1      64.790-137.732  42.702  0.00  0.00     0.037 H 
ATOM     46  H28 1G5 d   1      64.261-136.664  44.046  0.00  0.00     0.037 H 
BRANCH  44  47
ATOM     47  C35 1G5 d   1      62.607-137.458  42.825  0.00  0.00     0.030 C 
ATOM     48  H25 1G5 d   1      61.981-136.554  42.865  0.00  0.00     0.056 H 
ATOM     49  H26 1G5 d   1      62.568-137.887  41.813  0.00  0.00     0.056 H 
BRANCH  47  50
ATOM     50  S36 1G5 d   1      61.767-138.669  43.889  0.00  0.00     0.140 S 
ATOM     51  O38 1G5 d   1      61.380-138.056  45.143  0.00  0.00    -0.228 OA
ATOM     52  O37 1G5 d   1      62.564-139.879  43.925  0.00  0.00    -0.228 OA
BRANCH  50  53
ATOM     53  C39 1G5 d   1      60.252-139.090  43.005  0.00  0.00     0.015 C 
ATOM     54  H22 1G5 d   1      59.603-138.203  42.946  0.00  0.00     0.048 H 
ATOM     55  H23 1G5 d   1      59.726-139.894  43.541  0.00  0.00     0.048 H 
ATOM     56  H24 1G5 d   1      60.502-139.429  41.989  0.00  0.00     0.048 H 
ENDBRANCH  50  53
ENDBRANCH  47  50
ENDBRANCH  44  47
ENDBRANCH  42  44
BRANCH  42  57
ATOM     57  C22 1G5 d   1      64.305-134.368  42.876  0.00  0.00    -0.022 C 
ATOM     58  H30 1G5 d   1      64.886-134.557  43.791  0.00  0.00     0.043 H 
ATOM     59  H31 1G5 d   1      63.278-134.080  43.146  0.00  0.00     0.043 H 
BRANCH  57  60
ATOM     60  C24 1G5 d   1      64.953-133.180  42.139  0.00  0.00    -0.056 A 
ATOM     61  C25 1G5 d   1      65.766-133.345  41.003  0.00  0.00    -0.076 A 
ATOM     62  C26 1G5 d   1      66.336-132.232  40.370  0.00  0.00    -0.075 A 
ATOM     63  H32 1G5 d   1      65.953-134.340  40.615  0.00  0.00     0.084 H 
ATOM     64  C27 1G5 d   1      66.109-130.938  40.864  0.00  0.00    -0.033 A 
ATOM     65  H33 1G5 d   1      66.957-132.372  39.492  0.00  0.00     0.084 H 
ATOM     66  C28 1G5 d   1      65.302-130.768  42.000  0.00  0.00    -0.075 A 
ATOM     67  C29 1G5 d   1      64.731-131.883  42.630  0.00  0.00    -0.076 A 
ATOM     68  H39 1G5 d   1      65.120-129.773  42.391  0.00  0.00     0.084 H 
ATOM     69  H40 1G5 d   1      64.110-131.742  43.507  0.00  0.00     0.084 H 
BRANCH  64  70
ATOM     70  C30 1G5 d   1      66.751-129.741  40.148  0.00  0.00     0.103 C 
ATOM     71  H34 1G5 d   1      67.447-130.107  39.379  0.00  0.00     0.082 H 
ATOM     72  H35 1G5 d   1      67.300-129.130  40.880  0.00  0.00     0.082 H 
BRANCH  70  73
ATOM     73  N31 1G5 d   1      65.704-128.917  39.509  0.00  0.00    -0.075 N 
ATOM     74  H36 1G5 d   1      66.132-128.133  39.041  0.00  0.00     0.274 HD
ATOM     75  H37 1G5 d   1      65.065-128.580  40.212  0.00  0.00     0.274 HD
ATOM     76  H38 1G5 d   1      65.200-129.475  38.837  0.00  0.00     0.274 HD
ENDBRANCH  70  73
ENDBRANCH  64  70
ENDBRANCH  57  60
ENDBRANCH  42  57
ENDBRANCH  40  42
ENDBRANCH   1  38
BRANCH   1  77
ATOM     77  C40 1G5 d   1      61.007-137.855  39.494  0.00  0.00     0.044 C 
ATOM     78  H19 1G5 d   1      61.547-138.370  40.302  0.00  0.00     0.077 H 
ATOM     79  H20 1G5 d   1      60.886-138.538  38.640  0.00  0.00     0.077 H 
BRANCH  77  80
ATOM     80  O41 1G5 d   1      59.706-137.454  39.971  0.00  0.00    -0.398 OA
ATOM     81  H21 1G5 d   1      59.808-136.865  40.710  0.00  0.00     0.209 HD
ENDBRANCH  77  80
ENDBRANCH   1  77
TORSDOF 21
