REMARK  25 active torsions:
REMARK  status: ('A' for Active; 'I' for Inactive)
REMARK    1  A    between atoms: C12_1  and  C8_3 
REMARK       I    between atoms: N14_26  and  C12_1 
REMARK    2  A    between atoms: C8_3  and  N9_4 
REMARK    3  A    between atoms: C8_3  and  C7_7 
REMARK    4  A    between atoms: C7_7  and  C3_8 
REMARK    5  A    between atoms: C25_14  and  C15_16 
REMARK       I    between atoms: N27_27  and  C25_14 
REMARK    6  A    between atoms: C15_16  and  C16_17 
REMARK    7  A    between atoms: C15_16  and  N14_26 
REMARK    8  A    between atoms: C16_17  and  C17_18 
REMARK    9  A    between atoms: C20_21  and  C23_22 
REMARK   10  A    between atoms: C23_22  and  N24_23 
REMARK   11  A    between atoms: C28_28  and  N27_27 
REMARK   12  A    between atoms: C33_29  and  C28_28 
REMARK   13  A    between atoms: C28_28  and  C29_31 
REMARK       I    between atoms: N35_51  and  C33_29 
REMARK   14  A    between atoms: C29_31  and  C30_32 
REMARK   15  A    between atoms: C30_32  and  C31_33 
REMARK   16  A    between atoms: C30_32  and  C32_34 
REMARK   17  A    between atoms: S48_36  and  C51_38 
REMARK   18  A    between atoms: C47_39  and  S48_36 
REMARK   19  A    between atoms: C46_40  and  C47_39 
REMARK   20  A    between atoms: C36_41  and  C46_40 
REMARK   21  A    between atoms: C36_41  and  C37_42 
REMARK   22  A    between atoms: C36_41  and  N35_51 
REMARK   23  A    between atoms: C37_42  and  C38_43 
REMARK   24  A    between atoms: C41_46  and  C44_47 
REMARK   25  A    between atoms: C44_47  and  N45_48 
ROOT
ATOM      1  N9  1G6 d   1      58.620-135.360  32.723  0.00  0.00    -0.100 NA
ATOM      2  N10 1G6 d   1      58.876-134.825  31.669  0.00  0.00    -0.167 NA
ATOM      3  N11 1G6 d   1      59.105-134.356  30.634  0.00  0.00     0.068 N 
ENDROOT
BRANCH   1   4
ATOM      4  C8  1G6 d   1      58.779-134.619  33.955  0.00  0.00     0.145 C 
ATOM      5  H1  1G6 d   1      58.856-133.544  33.732  0.00  0.00     0.095 H 
BRANCH   4   6
ATOM      6  C12 1G6 d   1      60.098-135.095  34.527  0.00  0.00     0.246 C 
ATOM      7  O13 1G6 d   1      60.165-136.241  34.948  0.00  0.00    -0.271 OA
ATOM      8  N14 1G6 d   1      61.156-134.246  34.529  0.00  0.00    -0.346 N 
ATOM      9  H21 1G6 d   1      61.521-133.957  33.644  0.00  0.00     0.163 HD
BRANCH   8  10
ATOM     10  C15 1G6 d   1      61.802-133.722  35.736  0.00  0.00     0.093 C 
ATOM     11  H9  1G6 d   1      61.479-132.674  35.816  0.00  0.00     0.088 H 
BRANCH  10  12
ATOM     12  C25 1G6 d   1      61.379-134.373  37.047  0.00  0.00     0.241 C 
ATOM     13  O26 1G6 d   1      60.481-133.768  37.617  0.00  0.00    -0.271 OA
ATOM     14  N27 1G6 d   1      61.850-135.510  37.640  0.00  0.00    -0.346 N 
ATOM     15  H22 1G6 d   1      62.384-136.126  37.061  0.00  0.00     0.163 HD
BRANCH  14  16
ATOM     16  C28 1G6 d   1      61.658-135.926  39.035  0.00  0.00     0.089 C 
ATOM     17  H23 1G6 d   1      60.919-135.256  39.498  0.00  0.00     0.087 H 
BRANCH  16  18
ATOM     18  C33 1G6 d   1      62.961-135.783  39.822  0.00  0.00     0.240 C 
ATOM     19  O34 1G6 d   1      63.993-136.192  39.307  0.00  0.00    -0.271 OA
ATOM     20  N35 1G6 d   1      62.926-135.210  41.061  0.00  0.00    -0.354 N 
ATOM     21  H52 1G6 d   1      62.143-134.626  41.276  0.00  0.00     0.162 HD
BRANCH  20  22
ATOM     22  C36 1G6 d   1      63.956-135.385  42.111  0.00  0.00     0.017 C 
ATOM     23  H40 1G6 d   1      64.915-135.454  41.578  0.00  0.00     0.073 H 
BRANCH  22  24
ATOM     24  C46 1G6 d   1      63.776-136.782  42.808  0.00  0.00    -0.034 C 
ATOM     25  H38 1G6 d   1      64.705-137.350  42.654  0.00  0.00     0.037 H 
ATOM     26  H39 1G6 d   1      63.633-136.598  43.883  0.00  0.00     0.037 H 
BRANCH  24  27
ATOM     27  C47 1G6 d   1      62.590-137.681  42.323  0.00  0.00     0.030 C 
ATOM     28  H36 1G6 d   1      61.928-137.065  41.696  0.00  0.00     0.056 H 
ATOM     29  H37 1G6 d   1      63.007-138.502  41.721  0.00  0.00     0.056 H 
BRANCH  27  30
ATOM     30  S48 1G6 d   1      61.594-138.406  43.651  0.00  0.00     0.140 S 
ATOM     31  O50 1G6 d   1      62.328-139.508  44.238  0.00  0.00    -0.228 OA
ATOM     32  O49 1G6 d   1      61.108-137.343  44.511  0.00  0.00    -0.228 OA
BRANCH  30  33
ATOM     33  C51 1G6 d   1      60.191-139.097  42.754  0.00  0.00     0.015 C 
ATOM     34  H33 1G6 d   1      60.539-139.906  42.095  0.00  0.00     0.048 H 
ATOM     35  H34 1G6 d   1      59.719-138.309  42.149  0.00  0.00     0.048 H 
ATOM     36  H35 1G6 d   1      59.459-139.497  43.471  0.00  0.00     0.048 H 
ENDBRANCH  30  33
ENDBRANCH  27  30
ENDBRANCH  24  27
ENDBRANCH  22  24
BRANCH  22  37
ATOM     37  C37 1G6 d   1      64.122-134.140  43.044  0.00  0.00    -0.022 C 
ATOM     38  H41 1G6 d   1      64.811-134.424  43.853  0.00  0.00     0.043 H 
ATOM     39  H42 1G6 d   1      63.133-133.911  43.468  0.00  0.00     0.043 H 
BRANCH  37  40
ATOM     40  C38 1G6 d   1      64.665-132.840  42.409  0.00  0.00    -0.056 A 
ATOM     41  C43 1G6 d   1      64.326-131.573  42.915  0.00  0.00    -0.076 A 
ATOM     42  C42 1G6 d   1      64.832-130.405  42.322  0.00  0.00    -0.075 A 
ATOM     43  H43 1G6 d   1      63.667-131.497  43.772  0.00  0.00     0.084 H 
ATOM     44  C41 1G6 d   1      65.686-130.474  41.209  0.00  0.00    -0.033 A 
ATOM     45  H44 1G6 d   1      64.560-129.438  42.728  0.00  0.00     0.084 H 
ATOM     46  C40 1G6 d   1      66.028-131.735  40.700  0.00  0.00    -0.075 A 
ATOM     47  C39 1G6 d   1      65.522-132.900  41.294  0.00  0.00    -0.076 A 
ATOM     48  H50 1G6 d   1      66.687-131.810  39.843  0.00  0.00     0.084 H 
ATOM     49  H51 1G6 d   1      65.796-133.866  40.886  0.00  0.00     0.084 H 
BRANCH  44  50
ATOM     50  C44 1G6 d   1      66.254-129.209  40.543  0.00  0.00     0.103 C 
ATOM     51  H45 1G6 d   1      67.152-129.489  39.973  0.00  0.00     0.082 H 
ATOM     52  H46 1G6 d   1      66.528-128.493  41.332  0.00  0.00     0.082 H 
BRANCH  50  53
ATOM     53  N45 1G6 d   1      65.304-128.549  39.623  0.00  0.00    -0.075 N 
ATOM     54  H47 1G6 d   1      65.737-127.731  39.223  0.00  0.00     0.274 HD
ATOM     55  H48 1G6 d   1      64.478-128.276  40.132  0.00  0.00     0.274 HD
ATOM     56  H49 1G6 d   1      65.050-129.189  38.887  0.00  0.00     0.274 HD
ENDBRANCH  50  53
ENDBRANCH  44  50
ENDBRANCH  37  40
ENDBRANCH  22  37
ENDBRANCH  20  22
ENDBRANCH  16  18
BRANCH  16  57
ATOM     57  C29 1G6 d   1      61.067-137.369  39.052  0.00  0.00    -0.035 C 
ATOM     58  H24 1G6 d   1      61.186-137.752  40.076  0.00  0.00     0.037 H 
ATOM     59  H25 1G6 d   1      61.675-137.973  38.362  0.00  0.00     0.037 H 
BRANCH  57  60
ATOM     60  C30 1G6 d   1      59.568-137.589  38.653  0.00  0.00    -0.059 C 
ATOM     61  H26 1G6 d   1      59.345-136.813  37.906  0.00  0.00     0.038 H 
BRANCH  60  62
ATOM     62  C31 1G6 d   1      58.547-137.388  39.808  0.00  0.00    -0.073 C 
ATOM     63  H27 1G6 d   1      57.528-137.563  39.432  0.00  0.00     0.028 H 
ATOM     64  H28 1G6 d   1      58.624-136.360  40.191  0.00  0.00     0.028 H 
ATOM     65  H29 1G6 d   1      58.766-138.099  40.619  0.00  0.00     0.028 H 
ENDBRANCH  60  62
BRANCH  60  66
ATOM     66  C32 1G6 d   1      59.308-138.951  37.966  0.00  0.00    -0.073 C 
ATOM     67  H30 1G6 d   1      60.030-139.093  37.149  0.00  0.00     0.028 H 
ATOM     68  H31 1G6 d   1      58.286-138.967  37.559  0.00  0.00     0.028 H 
ATOM     69  H32 1G6 d   1      59.423-139.761  38.702  0.00  0.00     0.028 H 
ENDBRANCH  60  66
ENDBRANCH  57  60
ENDBRANCH  16  57
ENDBRANCH  14  16
ENDBRANCH  10  12
BRANCH  10  70
ATOM     70  C16 1G6 d   1      63.355-133.690  35.552  0.00  0.00    -0.014 C 
ATOM     71  H10 1G6 d   1      63.734-134.694  35.794  0.00  0.00     0.043 H 
ATOM     72  H11 1G6 d   1      63.756-132.963  36.273  0.00  0.00     0.043 H 
BRANCH  70  73
ATOM     73  C17 1G6 d   1      63.907-133.313  34.167  0.00  0.00    -0.056 A 
ATOM     74  C22 1G6 d   1      64.442-132.037  33.929  0.00  0.00    -0.076 A 
ATOM     75  C21 1G6 d   1      64.951-131.703  32.664  0.00  0.00    -0.075 A 
ATOM     76  H12 1G6 d   1      64.462-131.304  34.728  0.00  0.00     0.084 H 
ATOM     77  C20 1G6 d   1      64.934-132.647  31.627  0.00  0.00    -0.033 A 
ATOM     78  H13 1G6 d   1      65.358-130.714  32.489  0.00  0.00     0.084 H 
ATOM     79  C19 1G6 d   1      64.405-133.924  31.861  0.00  0.00    -0.075 A 
ATOM     80  C18 1G6 d   1      63.899-134.255  33.124  0.00  0.00    -0.076 A 
ATOM     81  H19 1G6 d   1      64.388-134.657  31.062  0.00  0.00     0.084 H 
ATOM     82  H20 1G6 d   1      63.498-135.247  33.299  0.00  0.00     0.084 H 
BRANCH  77  83
ATOM     83  C23 1G6 d   1      65.495-132.269  30.251  0.00  0.00     0.103 C 
ATOM     84  H14 1G6 d   1      65.315-131.200  30.067  0.00  0.00     0.082 H 
ATOM     85  H15 1G6 d   1      64.989-132.864  29.477  0.00  0.00     0.082 H 
BRANCH  83  86
ATOM     86  N24 1G6 d   1      66.946-132.535  30.199  0.00  0.00    -0.075 N 
ATOM     87  H16 1G6 d   1      67.302-132.282  29.290  0.00  0.00     0.274 HD
ATOM     88  H17 1G6 d   1      67.114-133.515  30.365  0.00  0.00     0.274 HD
ATOM     89  H18 1G6 d   1      67.413-131.989  30.906  0.00  0.00     0.274 HD
ENDBRANCH  83  86
ENDBRANCH  77  83
ENDBRANCH  70  73
ENDBRANCH  10  70
ENDBRANCH   8  10
ENDBRANCH   4   6
BRANCH   4  90
ATOM     90  C7  1G6 d   1      57.548-134.821  34.891  0.00  0.00    -0.009 C 
ATOM     91  H2  1G6 d   1      57.729-134.287  35.836  0.00  0.00     0.044 H 
ATOM     92  H3  1G6 d   1      57.429-135.895  35.094  0.00  0.00     0.044 H 
BRANCH  90  93
ATOM     93  C3  1G6 d   1      56.249-134.288  34.259  0.00  0.00    -0.056 A 
ATOM     94  C2  1G6 d   1      55.447-135.100  33.433  0.00  0.00    -0.077 A 
ATOM     95  C1  1G6 d   1      54.268-134.605  32.860  0.00  0.00    -0.082 A 
ATOM     96  H4  1G6 d   1      55.747-136.123  33.238  0.00  0.00     0.084 H 
ATOM     97  C6  1G6 d   1      53.873-133.286  33.111  0.00  0.00    -0.083 A 
ATOM     98  H5  1G6 d   1      53.664-135.242  32.224  0.00  0.00     0.083 H 
ATOM     99  C5  1G6 d   1      54.662-132.469  33.931  0.00  0.00    -0.082 A 
ATOM    100  H8  1G6 d   1      52.961-132.898  32.673  0.00  0.00     0.083 H 
ATOM    101  C4  1G6 d   1      55.840-132.967  34.501  0.00  0.00    -0.077 A 
ATOM    102  H7  1G6 d   1      54.359-131.446  34.125  0.00  0.00     0.083 H 
ATOM    103  H6  1G6 d   1      56.442-132.326  35.135  0.00  0.00     0.084 H 
ENDBRANCH  90  93
ENDBRANCH   4  90
ENDBRANCH   1   4
TORSDOF 25
