REMARK  11 active torsions:
REMARK  status: ('A' for Active; 'I' for Inactive)
REMARK    1  A    between atoms: C13_7  and  C12_8 
REMARK    2  A    between atoms: C12_8  and  N11_9 
REMARK    3  A    between atoms: N11_9  and  C6_10 
REMARK    4  A    between atoms: C4_13  and  N10_14 
REMARK    5  A    between atoms: N5_19  and  C21_20 
REMARK    6  A    between atoms: C24_22  and  O26_23 
REMARK    7  A    between atoms: C25_24  and  O27_25 
REMARK    8  A    between atoms: C23_26  and  C28_27 
REMARK    9  A    between atoms: C28_27  and  O29_28 
REMARK   10  A    between atoms: O29_28  and  C30_29 
REMARK   11  A    between atoms: C30_29  and  C31_30 
ROOT
ATOM      1  C31 3FD d   1       3.928   3.746  11.775  0.00  0.00    -0.035 A 
ATOM      2  C32 3FD d   1       4.163   4.985  11.181  0.00  0.00    -0.073 A 
ATOM      3  C33 3FD d   1       3.456   5.358  10.036  0.00  0.00    -0.062 A 
ATOM      4  C34 3FD d   1       2.536   4.454   9.454  0.00  0.00     0.044 A 
ATOM      5  C37 3FD d   1       1.802   4.821   8.266  0.00  0.00     0.099 C 
ATOM      6  N38 3FD d   1       1.228   5.122   7.325  0.00  0.00    -0.191 NA
ATOM      7  C35 3FD d   1       2.312   3.201  10.043  0.00  0.00    -0.062 A 
ATOM      8  C36 3FD d   1       2.997   2.870  11.210  0.00  0.00    -0.073 A 
ATOM      9  H20 3FD d   1       4.896   5.660  11.608  0.00  0.00     0.084 H 
ATOM     10  H21 3FD d   1       3.611   6.336   9.595  0.00  0.00     0.085 H 
ATOM     11  H22 3FD d   1       1.616   2.500   9.597  0.00  0.00     0.085 H 
ATOM     12  H23 3FD d   1       2.805   1.916  11.688  0.00  0.00     0.084 H 
ENDROOT
BRANCH   1  13
ATOM     13  C30 3FD d   1       4.673   3.352  13.027  0.00  0.00     0.043 C 
ATOM     14  H18 3FD d   1       5.355   2.520  12.796  0.00  0.00     0.081 H 
ATOM     15  H19 3FD d   1       5.254   4.213  13.388  0.00  0.00     0.081 H 
BRANCH  13  16
ATOM     16  O29 3FD d   1       3.753   2.938  14.054  0.00  0.00    -0.384 OA
BRANCH  16  17
ATOM     17  C28 3FD d   1       4.364   2.331  15.203  0.00  0.00     0.046 C 
ATOM     18  H16 3FD d   1       4.615   1.288  14.958  0.00  0.00     0.078 H 
ATOM     19  H17 3FD d   1       5.285   2.883  15.444  0.00  0.00     0.078 H 
BRANCH  17  20
ATOM     20  C23 3FD d   1       3.452   2.339  16.434  0.00  0.00     0.089 C 
ATOM     21  O22 3FD d   1       3.020   3.682  16.706  0.00  0.00    -0.353 OA
ATOM     22  C21 3FD d   1       1.594   3.660  16.986  0.00  0.00     0.156 C 
ATOM     23  C24 3FD d   1       1.081   2.550  16.025  0.00  0.00     0.105 C 
ATOM     24  H10 3FD d   1       1.423   3.368  18.033  0.00  0.00     0.123 H 
ATOM     25  C25 3FD d   1       2.191   1.487  16.212  0.00  0.00     0.091 C 
ATOM     26  H11 3FD d   1       1.050   2.912  14.987  0.00  0.00     0.093 H 
ATOM     27  H13 3FD d   1       2.292   0.847  15.323  0.00  0.00     0.091 H 
ATOM     28  H15 3FD d   1       4.011   1.946  17.296  0.00  0.00     0.090 H 
BRANCH  22  29
ATOM     29  N5  3FD d   1       0.910   4.950  16.754  0.00  0.00    -0.132 N 
ATOM     30  C6  3FD d   1       0.963   5.778  15.644  0.00  0.00     0.707 A 
ATOM     31  N7  3FD d   1       0.172   6.804  15.816  0.00  0.00    -0.057 NA
ATOM     32  C8  3FD d   1      -0.424   6.712  17.025  0.00  0.00     0.168 A 
ATOM     33  C4  3FD d   1      -1.362   7.509  17.709  0.00  0.00     0.156 A 
ATOM     34  C9  3FD d   1       0.043   5.538  17.648  0.00  0.00     0.182 A 
ATOM     35  N1  3FD d   1      -1.761   7.108  18.927  0.00  0.00    -0.222 NA
ATOM     36  C2  3FD d   1      -1.264   6.021  19.497  0.00  0.00     0.091 A 
ATOM     37  N3  3FD d   1      -0.400   5.237  18.868  0.00  0.00    -0.221 NA
ATOM     38  H9  3FD d   1      -1.572   5.766  20.505  0.00  0.00     0.146 H 
BRANCH  30  39
ATOM     39  N11 3FD d   1       1.744   5.612  14.516  0.00  0.00    -0.220 N 
ATOM     40  H6  3FD d   1       2.224   4.714  14.359  0.00  0.00     0.178 HD
BRANCH  39  41
ATOM     41  C12 3FD d   1       1.901   6.699  13.536  0.00  0.00     0.033 C 
ATOM     42  H4  3FD d   1       1.649   7.657  14.014  0.00  0.00     0.072 H 
ATOM     43  H5  3FD d   1       2.944   6.726  13.189  0.00  0.00     0.072 H 
BRANCH  41  44
ATOM     44  C13 3FD d   1       0.996   6.479  12.363  0.00  0.00    -0.038 A 
ATOM     45  C18 3FD d   1       0.710   7.501  11.463  0.00  0.00    -0.074 A 
ATOM     46  C17 3FD d   1      -0.158   7.268  10.394  0.00  0.00    -0.060 A 
ATOM     47  H1  3FD d   1       1.161   8.478  11.592  0.00  0.00     0.084 H 
ATOM     48  C16 3FD d   1      -0.709   5.991  10.239  0.00  0.00     0.055 A 
ATOM     49  H2  3FD d   1      -0.401   8.062   9.697  0.00  0.00     0.086 H 
ATOM     50 CL20 3FD d   1      -1.775   5.623   8.916  0.00  0.00    -0.083 Cl
ATOM     51  C15 3FD d   1      -0.418   4.990  11.160  0.00  0.00     0.056 A 
ATOM     52  C14 3FD d   1       0.431   5.226  12.212  0.00  0.00    -0.053 A 
ATOM     53 CL21 3FD d   1      -1.062   3.401  11.008  0.00  0.00    -0.083 Cl
ATOM     54  H3  3FD d   1       0.657   4.436  12.919  0.00  0.00     0.087 H 
ENDBRANCH  41  44
ENDBRANCH  39  41
ENDBRANCH  30  39
BRANCH  33  55
ATOM     55  N10 3FD d   1      -1.873   8.653  17.094  0.00  0.00    -0.382 N 
ATOM     56  H7  3FD d   1      -2.559   9.241  17.588  0.00  0.00     0.157 HD
ATOM     57  H8  3FD d   1      -1.564   8.910  16.146  0.00  0.00     0.157 HD
ENDBRANCH  33  55
ENDBRANCH  22  29
BRANCH  23  58
ATOM     58  O26 3FD d   1      -0.216   2.054  16.375  0.00  0.00    -0.388 OA
ATOM     59  H12 3FD d   1      -0.475   1.382  15.755  0.00  0.00     0.210 HD
ENDBRANCH  23  58
BRANCH  25  60
ATOM     60  O27 3FD d   1       1.908   0.685  17.362  0.00  0.00    -0.390 OA
ATOM     61  H14 3FD d   1       1.072   0.249  17.245  0.00  0.00     0.210 HD
ENDBRANCH  25  60
ENDBRANCH  17  20
ENDBRANCH  16  17
ENDBRANCH  13  16
ENDBRANCH   1  13
TORSDOF 11
