REMARK  17 active torsions:
REMARK  status: ('A' for Active; 'I' for Inactive)
REMARK       I    between atoms: C10_23  and  N1_1 
REMARK    1  A    between atoms: C5_2  and  C57_3 
REMARK    2  A    between atoms: C5_2  and  C51_4 
REMARK    3  A    between atoms: C4_5  and  C47_6 
REMARK    4  A    between atoms: C4_5  and  C41_7 
REMARK    5  A    between atoms: C2_9  and  C21_10 
REMARK       I    between atoms: N10_25  and  C10_23 
REMARK    6  A    between atoms: C15_49  and  N12_28 
REMARK    7  A    between atoms: C24_33  and  C30_34 
REMARK    8  A    between atoms: C30_34  and  C33_35 
REMARK    9  A    between atoms: C30_34  and  C31_36 
REMARK   10  A    between atoms: C30_34  and  C32_42 
REMARK   11  A    between atoms: C26_38  and  O27_39 
REMARK   12  A    between atoms: O27_39  and  C28_40 
REMARK   13  A    between atoms: C28_40  and  C29_41 
REMARK   14  A    between atoms: C16_43  and  C17_44 
REMARK   15  A    between atoms: C16_43  and  C15_49 
REMARK   16  A    between atoms: C17_44  and  S17_45 
REMARK   17  A    between atoms: S17_45  and  C19_46 
ROOT
ATOM      1  N1  1F0 d   1      12.593   8.448  35.680  0.00  0.00    -0.266 N 
ATOM      2  C5  1F0 d   1      11.693   9.088  34.737  0.00  0.00     0.098 C 
ATOM      3  C4  1F0 d   1      11.040  10.162  35.660  0.00  0.00     0.109 C 
ATOM      4  N3  1F0 d   1      11.997  10.317  36.772  0.00  0.00    -0.253 NA
ATOM      5  C2  1F0 d   1      12.817   9.323  36.800  0.00  0.00     0.144 C 
ATOM      6  C10 1F0 d   1      13.066   7.097  35.478  0.00  0.00     0.327 C 
ATOM      7  O10 1F0 d   1      13.331   6.708  34.334  0.00  0.00    -0.247 OA
ATOM      8  N10 1F0 d   1      13.241   6.247  36.580  0.00  0.00    -0.331 N 
ATOM      9  C14 1F0 d   1      13.894   4.961  36.360  0.00  0.00     0.022 C 
ATOM     10  C13 1F0 d   1      14.773   4.636  37.554  0.00  0.00     0.098 C 
ATOM     11  N12 1F0 d   1      13.986   4.650  38.811  0.00  0.00    -0.068 N 
ATOM     12  C12 1F0 d   1      13.338   5.980  39.031  0.00  0.00     0.098 C 
ATOM     13  C11 1F0 d   1      12.468   6.395  37.819  0.00  0.00     0.022 C 
ATOM     14  H15 1F0 d   1      14.512   5.013  35.452  0.00  0.00     0.067 H 
ATOM     15  H16 1F0 d   1      13.132   4.177  36.240  0.00  0.00     0.067 H 
ATOM     16  H17 1F0 d   1      15.576   5.384  37.624  0.00  0.00     0.078 H 
ATOM     17  H18 1F0 d   1      15.213   3.637  37.416  0.00  0.00     0.078 H 
ATOM     18  H19 1F0 d   1      13.246   3.972  38.718  0.00  0.00     0.280 HD
ATOM     19  H20 1F0 d   1      14.120   6.738  39.185  0.00  0.00     0.078 H 
ATOM     20  H21 1F0 d   1      12.701   5.923  39.926  0.00  0.00     0.078 H 
ATOM     21  H22 1F0 d   1      11.576   5.753  37.772  0.00  0.00     0.067 H 
ATOM     22  H23 1F0 d   1      12.159   7.444  37.934  0.00  0.00     0.067 H 
ENDROOT
BRANCH   2  23
ATOM     23  C57 1F0 d   1      10.648   8.109  34.173  0.00  0.00    -0.046 C 
ATOM     24  H1  1F0 d   1       9.993   8.639  33.467  0.00  0.00     0.031 H 
ATOM     25  H2  1F0 d   1      10.045   7.702  34.998  0.00  0.00     0.031 H 
ATOM     26  H3  1F0 d   1      11.160   7.287  33.652  0.00  0.00     0.031 H 
ENDBRANCH   2  23
BRANCH   2  27
ATOM     27  C51 1F0 d   1      12.519   9.725  33.633  0.00  0.00    -0.027 A 
ATOM     28  C56 1F0 d   1      13.895   9.911  33.814  0.00  0.00    -0.073 A 
ATOM     29  C55 1F0 d   1      14.651  10.585  32.847  0.00  0.00    -0.061 A 
ATOM     30  H7  1F0 d   1      14.377   9.531  34.707  0.00  0.00     0.084 H 
ATOM     31  C54 1F0 d   1      14.023  11.069  31.699  0.00  0.00     0.034 A 
ATOM     32  H8  1F0 d   1      15.716  10.730  32.989  0.00  0.00     0.086 H 
ATOM     33 CL5  1F0 d   1      14.949  12.020  30.533  0.00  0.00    -0.084 Cl
ATOM     34  C53 1F0 d   1      12.664  10.823  31.476  0.00  0.00    -0.061 A 
ATOM     35  C52 1F0 d   1      11.913  10.151  32.443  0.00  0.00    -0.073 A 
ATOM     36  H9  1F0 d   1      12.195  11.153  30.556  0.00  0.00     0.086 H 
ATOM     37  H10 1F0 d   1      10.860   9.959  32.273  0.00  0.00     0.084 H 
ENDBRANCH   2  27
BRANCH   5  38
ATOM     38  C21 1F0 d   1      13.848   9.094  37.832  0.00  0.00     0.043 A 
ATOM     39  C22 1F0 d   1      13.564   9.406  39.163  0.00  0.00    -0.066 A 
ATOM     40  C23 1F0 d   1      14.532   9.237  40.156  0.00  0.00    -0.075 A 
ATOM     41  H24 1F0 d   1      12.583   9.783  39.428  0.00  0.00     0.085 H 
ATOM     42  C24 1F0 d   1      15.800   8.743  39.831  0.00  0.00    -0.048 A 
ATOM     43  H25 1F0 d   1      14.299   9.490  41.184  0.00  0.00     0.084 H 
ATOM     44  C25 1F0 d   1      16.109   8.427  38.504  0.00  0.00    -0.043 A 
ATOM     45  C26 1F0 d   1      15.127   8.612  37.519  0.00  0.00     0.083 A 
ATOM     46  H32 1F0 d   1      17.089   8.046  38.241  0.00  0.00     0.088 H 
BRANCH  42  47
ATOM     47  C30 1F0 d   1      16.824   8.563  40.922  0.00  0.00    -0.024 C 
BRANCH  47  48
ATOM     48  C33 1F0 d   1      17.797   9.747  40.911  0.00  0.00    -0.066 C 
ATOM     49  H26 1F0 d   1      18.544   9.615  41.708  0.00  0.00     0.028 H 
ATOM     50  H27 1F0 d   1      17.241  10.681  41.081  0.00  0.00     0.028 H 
ATOM     51  H28 1F0 d   1      18.305   9.795  39.936  0.00  0.00     0.028 H 
ENDBRANCH  47  48
BRANCH  47  52
ATOM     52  C31 1F0 d   1      17.604   7.264  40.697  0.00  0.00    -0.066 C 
ATOM     53  H29 1F0 d   1      16.908   6.412  40.704  0.00  0.00     0.028 H 
ATOM     54  H30 1F0 d   1      18.346   7.138  41.499  0.00  0.00     0.028 H 
ATOM     55  H31 1F0 d   1      18.118   7.309  39.726  0.00  0.00     0.028 H 
ENDBRANCH  47  52
BRANCH  47  56
ATOM     56  C32 1F0 d   1      16.117   8.501  42.279  0.00  0.00    -0.066 C 
ATOM     57  H38 1F0 d   1      15.556   9.433  42.443  0.00  0.00     0.028 H 
ATOM     58  H39 1F0 d   1      16.864   8.378  43.077  0.00  0.00     0.028 H 
ATOM     59  H40 1F0 d   1      15.423   7.648  42.292  0.00  0.00     0.028 H 
ENDBRANCH  47  56
ENDBRANCH  42  47
BRANCH  45  60
ATOM     60  O27 1F0 d   1      15.422   8.340  36.211  0.00  0.00    -0.350 OA
BRANCH  60  61
ATOM     61  C28 1F0 d   1      16.739   7.881  35.949  0.00  0.00     0.023 C 
ATOM     62  H33 1F0 d   1      16.939   6.981  36.549  0.00  0.00     0.074 H 
ATOM     63  H34 1F0 d   1      17.460   8.668  36.216  0.00  0.00     0.074 H 
BRANCH  61  64
ATOM     64  C29 1F0 d   1      16.882   7.542  34.459  0.00  0.00    -0.056 C 
ATOM     65  H35 1F0 d   1      17.904   7.187  34.260  0.00  0.00     0.030 H 
ATOM     66  H36 1F0 d   1      16.683   8.441  33.858  0.00  0.00     0.030 H 
ATOM     67  H37 1F0 d   1      16.162   6.755  34.191  0.00  0.00     0.030 H 
ENDBRANCH  61  64
ENDBRANCH  60  61
ENDBRANCH  45  60
ENDBRANCH   5  38
BRANCH   3  68
ATOM     68  C47 1F0 d   1       9.715   9.646  36.222  0.00  0.00    -0.044 C 
ATOM     69  H4  1F0 d   1       9.268  10.414  36.870  0.00  0.00     0.031 H 
ATOM     70  H5  1F0 d   1       9.896   8.732  36.807  0.00  0.00     0.031 H 
ATOM     71  H6  1F0 d   1       9.028   9.420  35.393  0.00  0.00     0.031 H 
ENDBRANCH   3  68
BRANCH   3  72
ATOM     72  C41 1F0 d   1      10.803  11.463  34.943  0.00  0.00    -0.025 A 
ATOM     73  C42 1F0 d   1       9.543  11.722  34.394  0.00  0.00    -0.073 A 
ATOM     74  C43 1F0 d   1       9.314  12.907  33.701  0.00  0.00    -0.061 A 
ATOM     75  H11 1F0 d   1       8.744  10.999  34.508  0.00  0.00     0.084 H 
ATOM     76  C44 1F0 d   1      10.353  13.825  33.559  0.00  0.00     0.034 A 
ATOM     77  H12 1F0 d   1       8.338  13.114  33.276  0.00  0.00     0.086 H 
ATOM     78 CL4  1F0 d   1      10.088  15.305  32.647  0.00  0.00    -0.084 Cl
ATOM     79  C45 1F0 d   1      11.608  13.583  34.122  0.00  0.00    -0.061 A 
ATOM     80  C46 1F0 d   1      11.828  12.400  34.819  0.00  0.00    -0.073 A 
ATOM     81  H13 1F0 d   1      12.404  14.311  34.017  0.00  0.00     0.086 H 
ATOM     82  H14 1F0 d   1      12.796  12.206  35.266  0.00  0.00     0.084 H 
ENDBRANCH   3  72
BRANCH  11  83
ATOM     83  C15 1F0 d   1      14.837   4.223  39.942  0.00  0.00     0.084 C 
ATOM     84  H48 1F0 d   1      15.710   4.890  39.996  0.00  0.00     0.076 H 
ATOM     85  H49 1F0 d   1      15.174   3.192  39.758  0.00  0.00     0.076 H 
BRANCH  83  86
ATOM     86  C16 1F0 d   1      14.105   4.266  41.285  0.00  0.00    -0.030 C 
ATOM     87  H41 1F0 d   1      13.783   5.296  41.499  0.00  0.00     0.036 H 
ATOM     88  H42 1F0 d   1      13.225   3.607  41.249  0.00  0.00     0.036 H 
BRANCH  86  89
ATOM     89  C17 1F0 d   1      15.068   3.786  42.382  0.00  0.00     0.030 C 
ATOM     90  H43 1F0 d   1      16.051   4.255  42.227  0.00  0.00     0.056 H 
ATOM     91  H44 1F0 d   1      15.169   2.693  42.317  0.00  0.00     0.056 H 
BRANCH  89  92
ATOM     92  S17 1F0 d   1      14.470   4.217  43.996  0.00  0.00     0.140 S 
ATOM     93  O17 1F0 d   1      13.138   3.656  44.163  0.00  0.00    -0.228 OA
ATOM     94  O18 1F0 d   1      14.594   5.666  44.158  0.00  0.00    -0.228 OA
BRANCH  92  95
ATOM     95  C19 1F0 d   1      15.569   3.418  45.143  0.00  0.00     0.015 C 
ATOM     96  H45 1F0 d   1      15.253   3.645  46.172  0.00  0.00     0.048 H 
ATOM     97  H46 1F0 d   1      16.594   3.784  44.985  0.00  0.00     0.048 H 
ATOM     98  H47 1F0 d   1      15.539   2.330  44.982  0.00  0.00     0.048 H 
ENDBRANCH  92  95
ENDBRANCH  89  92
ENDBRANCH  86  89
ENDBRANCH  83  86
ENDBRANCH  11  83
TORSDOF 17
