REMARK  3 active torsions:
REMARK  status: ('A' for Active; 'I' for Inactive)
REMARK    1  A    between atoms: C8_8  and  C9_9 
REMARK    2  A    between atoms: N22_22  and  C11_11 
REMARK    3  A    between atoms: C18_18  and  N22_22 
ROOT
ATOM      1  C3  IQ6 d   1      37.452  -8.054 -34.228  0.00  0.00    -0.028 A 
ATOM      2  C4  IQ6 d   1      37.272 -10.223 -35.132  0.00  0.00    -0.033 A 
ATOM      3  C8  IQ6 d   1      37.882  -8.987 -35.138  0.00  0.00    -0.017 A 
ATOM      4  C11 IQ6 d   1      36.481  -8.329 -33.290  0.00  0.00     0.126 A 
ATOM      5  C12 IQ6 d   1      36.294 -10.434 -34.180  0.00  0.00     0.129 A 
ATOM      6  N20 IQ6 d   1      35.877  -9.534 -33.271  0.00  0.00    -0.220 NA
ATOM      7 CL1  IQ6 d   1      35.499 -11.960 -34.157  0.00  0.00    -0.062 Cl
ATOM      8  H3  IQ6 d   1      37.893  -7.064 -34.248  0.00  0.00     0.090 H 
ATOM      9  H4  IQ6 d   1      37.547 -10.994 -35.842  0.00  0.00     0.089 H 
ENDROOT
BRANCH   4  10
ATOM     10  N22 IQ6 d   1      36.105  -7.260 -32.434  0.00  0.00    -0.370 N 
ATOM     11  H19 IQ6 d   1      35.197  -6.783 -32.532  0.00  0.00     0.161 HD
BRANCH  10  12
ATOM     12  C18 IQ6 d   1      37.073  -6.869 -31.404  0.00  0.00     0.011 C 
ATOM     13  C16 IQ6 d   1      38.241  -6.053 -31.959  0.00  0.00    -0.046 C 
ATOM     14  C14 IQ6 d   1      39.210  -5.673 -30.855  0.00  0.00    -0.063 C 
ATOM     15  H13 IQ6 d   1      38.772  -6.652 -32.714  0.00  0.00     0.035 H 
ATOM     16  H14 IQ6 d   1      37.850  -5.137 -32.426  0.00  0.00     0.035 H 
ATOM     17  C13 IQ6 d   1      38.519  -4.850 -29.781  0.00  0.00    -0.065 C 
ATOM     18  H9  IQ6 d   1      39.615  -6.590 -30.401  0.00  0.00     0.033 H 
ATOM     19  H10 IQ6 d   1      40.032  -5.083 -31.286  0.00  0.00     0.033 H 
ATOM     20  C15 IQ6 d   1      37.268  -5.542 -29.249  0.00  0.00    -0.063 C 
ATOM     21  H7  IQ6 d   1      38.233  -3.877 -30.208  0.00  0.00     0.033 H 
ATOM     22  H8  IQ6 d   1      39.220  -4.693 -28.948  0.00  0.00     0.033 H 
ATOM     23  C17 IQ6 d   1      36.337  -6.041 -30.352  0.00  0.00    -0.046 C 
ATOM     24  H11 IQ6 d   1      36.714  -4.828 -28.622  0.00  0.00     0.033 H 
ATOM     25  H12 IQ6 d   1      37.578  -6.403 -28.638  0.00  0.00     0.033 H 
ATOM     26  H15 IQ6 d   1      35.876  -5.173 -30.845  0.00  0.00     0.035 H 
ATOM     27  H16 IQ6 d   1      35.553  -6.664 -29.897  0.00  0.00     0.035 H 
ATOM     28  H17 IQ6 d   1      37.476  -7.779 -30.937  0.00  0.00     0.072 H 
ENDBRANCH  10  12
ENDBRANCH   4  10
BRANCH   3  29
ATOM     29  C9  IQ6 d   1      38.844  -8.562 -36.120  0.00  0.00     0.004 A 
ATOM     30  C6  IQ6 d   1      38.951  -9.160 -37.354  0.00  0.00    -0.010 A 
ATOM     31  N21 IQ6 d   1      39.858  -8.445 -38.079  0.00  0.00    -0.349 N 
ATOM     32  H6  IQ6 d   1      38.410 -10.043 -37.691  0.00  0.00     0.112 H 
ATOM     33  C10 IQ6 d   1      40.294  -7.367 -37.367  0.00  0.00     0.138 A 
ATOM     34  H18 IQ6 d   1      40.170  -8.685 -39.031  0.00  0.00     0.167 HD
ATOM     35  C7  IQ6 d   1      39.701  -7.425 -36.116  0.00  0.00     0.022 A 
ATOM     36  N19 IQ6 d   1      41.164  -6.455 -37.817  0.00  0.00    -0.242 NA
ATOM     37  C2  IQ6 d   1      40.009  -6.427 -35.199  0.00  0.00    -0.067 A 
ATOM     38  C1  IQ6 d   1      40.895  -5.457 -35.621  0.00  0.00    -0.065 A 
ATOM     39  H2  IQ6 d   1      39.576  -6.412 -34.205  0.00  0.00     0.085 H 
ATOM     40  C5  IQ6 d   1      41.428  -5.523 -36.891  0.00  0.00     0.004 A 
ATOM     41  H1  IQ6 d   1      41.171  -4.646 -34.957  0.00  0.00     0.085 H 
ATOM     42  H5  IQ6 d   1      42.130  -4.744 -37.168  0.00  0.00     0.114 H 
ENDBRANCH   3  29
TORSDOF 3
