REMARK  9 active torsions:
REMARK  status: ('A' for Active; 'I' for Inactive)
REMARK    1  A    between atoms: CAS_19  and  OAE_5 
REMARK    2  A    between atoms: CAH_8  and  CAG_7 
REMARK    3  A    between atoms: CAG_7  and  CAQ_17 
REMARK    4  A    between atoms: CAV_22  and  CAH_8 
REMARK    5  A    between atoms: CAQ_17  and  CAI_9 
REMARK    6  A    between atoms: CAI_9  and  CAS_19 
REMARK    7  A    between atoms: CAS_19  and  CAR_18 
REMARK    8  A    between atoms: CAT_20  and  CAW_23 
REMARK    9  A    between atoms: CAT_20  and  CAX_24 
ROOT
ATOM      1  CAM 1FO d   1      16.244   6.406  20.521  0.00  0.00    -0.009 C 
ATOM      2  CAO 1FO d   1      17.556   8.149  20.495  0.00  0.00    -0.046 C 
ATOM      3  NAP 1FO d   1      16.457   6.753  19.244  0.00  0.00    -0.368 N 
ATOM      4  CAV 1FO d   1      17.276   7.800  19.201  0.00  0.00     0.010 C 
ATOM      5  CAX 1FO d   1      16.793   7.330  21.323  0.00  0.00     0.032 C 
ATOM      6  H11 1FO d   1      15.711   5.517  20.854  0.00  0.00     0.112 H 
ATOM      7  H13 1FO d   1      18.249   8.925  20.817  0.00  0.00     0.088 H 
ATOM      8  H14 1FO d   1      16.050   6.282  18.424  0.00  0.00     0.165 HD
ENDROOT
BRANCH   4   9
ATOM      9  CAH 1FO d   1      17.651   8.301  18.016  0.00  0.00    -0.021 C 
ATOM     10  H4  1FO d   1      17.624   7.458  17.310  0.00  0.00     0.042 H 
ATOM     11  H5  1FO d   1      16.880   9.035  17.741  0.00  0.00     0.042 H 
BRANCH   9  12
ATOM     12  CAG 1FO d   1      19.013   9.007  17.784  0.00  0.00    -0.005 C 
ATOM     13  H2  1FO d   1      19.775   8.540  18.425  0.00  0.00     0.044 H 
ATOM     14  H3  1FO d   1      18.917  10.071  18.045  0.00  0.00     0.044 H 
BRANCH  12  15
ATOM     15  CAQ 1FO d   1      19.444   8.886  16.321  0.00  0.00     0.130 C 
ATOM     16  OAA 1FO d   1      20.198   7.991  15.930  0.00  0.00    -0.298 OA
BRANCH  15  17
ATOM     17  CAI 1FO d   1      18.889   9.927  15.350  0.00  0.00     0.024 C 
ATOM     18  H6  1FO d   1      19.238  10.910  15.699  0.00  0.00     0.049 H 
ATOM     19  H7  1FO d   1      17.792   9.881  15.421  0.00  0.00     0.049 H 
BRANCH  17  20
ATOM     20  CAS 1FO d   1      19.253   9.825  13.832  0.00  0.00     0.125 C 
ATOM     21  H15 1FO d   1      20.348   9.813  13.937  0.00  0.00     0.100 H 
BRANCH  20  22
ATOM     22  OAE 1FO d   1      19.085   8.527  13.325  0.00  0.00    -0.384 OA
ATOM     23  H1  1FO d   1      19.646   7.927  13.802  0.00  0.00     0.210 HD
ENDBRANCH  20  22
BRANCH  20  24
ATOM     24  CAR 1FO d   1      19.178  11.102  12.857  0.00  0.00     0.203 C 
ATOM     25  OAB 1FO d   1      19.462  11.092  11.609  0.00  0.00    -0.646 OA
ATOM     26  OAD 1FO d   1      18.837  12.214  13.289  0.00  0.00    -0.646 OA
ENDBRANCH  20  24
ENDBRANCH  17  20
ENDBRANCH  15  17
ENDBRANCH  12  15
ENDBRANCH   9  12
ENDBRANCH   4   9
BRANCH   5  27
ATOM     27  CAT 1FO d   1      16.544   7.397  22.723  0.00  0.00     0.193 C 
ATOM     28  OAC 1FO d   1      15.610   8.050  23.179  0.00  0.00    -0.287 OA
BRANCH  27  29
ATOM     29  CAW 1FO d   1      17.268   6.649  23.673  0.00  0.00     0.018 A 
ATOM     30  CAL 1FO d   1      18.697   6.790  23.767  0.00  0.00    -0.069 A 
ATOM     31  CAJ 1FO d   1      19.476   6.046  24.709  0.00  0.00    -0.079 A 
ATOM     32  H10 1FO d   1      19.200   7.483  23.102  0.00  0.00     0.085 H 
ATOM     33  CAK 1FO d   1      18.783   5.123  25.560  0.00  0.00    -0.046 A 
ATOM     34  H8  1FO d   1      20.550   6.175  24.777  0.00  0.00     0.083 H 
ATOM     35  CAU 1FO d   1      17.370   4.896  25.547  0.00  0.00     0.117 A 
ATOM     36  H9  1FO d   1      19.375   4.553  26.267  0.00  0.00     0.088 H 
ATOM     37  FAF 1FO d   1      16.729   3.950  26.402  0.00  0.00    -0.206 F 
ATOM     38  CAN 1FO d   1      16.639   5.696  24.580  0.00  0.00    -0.032 A 
ATOM     39  H12 1FO d   1      15.563   5.578  24.529  0.00  0.00     0.089 H 
ENDBRANCH  27  29
ENDBRANCH   5  27
TORSDOF 9
