REMARK  7 active torsions:
REMARK  status: ('A' for Active; 'I' for Inactive)
REMARK    1  A    between atoms: C01_1  and  C02_2 
REMARK    2  A    between atoms: C02_2  and  C03_4 
REMARK    3  A    between atoms: C05_6  and  C06_7 
REMARK    4  A    between atoms: C11_12  and  C12_13 
REMARK    5  A    between atoms: C12_13  and  O02_14 
REMARK    6  A    between atoms: C15_17  and  O1_18 
REMARK    7  A    between atoms: O1_18  and  C16_19 
ROOT
ATOM      1  C03 IR5 d   1      26.962   9.313   0.819  0.00  0.00     0.085 A 
ATOM      2  C04 IR5 d   1      27.944  10.209   0.534  0.00  0.00    -0.040 A 
ATOM      3  C05 IR5 d   1      29.187   9.525   0.517  0.00  0.00     0.004 A 
ATOM      4  C13 IR5 d   1      28.913   8.221   0.873  0.00  0.00     0.053 A 
ATOM      5  C14 IR5 d   1      29.729   7.079   1.047  0.00  0.00    -0.023 A 
ATOM      6  C15 IR5 d   1      29.149   5.924   1.414  0.00  0.00     0.079 A 
ATOM      7  C22 IR5 d   1      27.796   5.780   1.569  0.00  0.00    -0.035 A 
ATOM      8  C1  IR5 d   1      26.989   6.856   1.384  0.00  0.00    -0.012 A 
ATOM      9  N1  IR5 d   1      27.527   8.065   1.042  0.00  0.00    -0.318 N 
ATOM     10  H4  IR5 d   1      27.801  11.273   0.350  0.00  0.00     0.088 H 
ATOM     11  H12 IR5 d   1      30.805   7.135   0.887  0.00  0.00     0.091 H 
ATOM     12  H18 IR5 d   1      27.372   4.814   1.838  0.00  0.00     0.089 H 
ATOM     13  H19 IR5 d   1      25.912   6.756   1.508  0.00  0.00     0.112 H 
ENDROOT
BRANCH   3  14
ATOM     14  C06 IR5 d   1      30.483  10.151   0.274  0.00  0.00    -0.015 A 
ATOM     15  C07 IR5 d   1      30.904  11.154   1.147  0.00  0.00    -0.072 A 
ATOM     16  C08 IR5 d   1      32.140  11.764   0.952  0.00  0.00    -0.082 A 
ATOM     17  H5  IR5 d   1      30.272  11.457   1.974  0.00  0.00     0.084 H 
ATOM     18  C09 IR5 d   1      32.948  11.388  -0.100  0.00  0.00    -0.082 A 
ATOM     19  H6  IR5 d   1      32.470  12.541   1.633  0.00  0.00     0.083 H 
ATOM     20  C10 IR5 d   1      32.536  10.408  -0.982  0.00  0.00    -0.074 A 
ATOM     21  H7  IR5 d   1      33.912  11.864  -0.236  0.00  0.00     0.083 H 
ATOM     22  C11 IR5 d   1      31.308   9.757  -0.808  0.00  0.00    -0.024 A 
ATOM     23  H8  IR5 d   1      33.171  10.139  -1.819  0.00  0.00     0.084 H 
BRANCH  22  24
ATOM     24  C12 IR5 d   1      30.899   8.682  -1.791  0.00  0.00     0.041 C 
ATOM     25  H9  IR5 d   1      29.928   8.268  -1.480  0.00  0.00     0.081 H 
ATOM     26  H10 IR5 d   1      31.657   7.885  -1.781  0.00  0.00     0.081 H 
BRANCH  24  27
ATOM     27  O02 IR5 d   1      30.781   9.181  -3.106  0.00  0.00    -0.396 OA
ATOM     28  H11 IR5 d   1      30.524   8.476  -3.689  0.00  0.00     0.209 HD
ENDBRANCH  24  27
ENDBRANCH  22  24
ENDBRANCH   3  14
BRANCH   1  29
ATOM     29  C02 IR5 d   1      25.550   9.559   0.912  0.00  0.00     0.172 C 
ATOM     30  O01 IR5 d   1      24.769   8.630   1.120  0.00  0.00    -0.291 OA
BRANCH  29  31
ATOM     31  C01 IR5 d   1      25.062  10.970   0.656  0.00  0.00    -0.015 C 
ATOM     32  H1  IR5 d   1      25.925  11.633   0.497  0.00  0.00     0.038 H 
ATOM     33  H2  IR5 d   1      24.485  11.322   1.524  0.00  0.00     0.038 H 
ATOM     34  H3  IR5 d   1      24.422  10.980  -0.238  0.00  0.00     0.038 H 
ENDBRANCH  29  31
ENDBRANCH   1  29
BRANCH   6  35
ATOM     35  O1  IR5 d   1      29.869   4.756   1.601  0.00  0.00    -0.311 OA
BRANCH  35  36
ATOM     36  C16 IR5 d   1      31.240   4.793   1.811  0.00  0.00     0.076 A 
ATOM     37  C17 IR5 d   1      32.090   4.470   0.772  0.00  0.00    -0.050 A 
ATOM     38  C18 IR5 d   1      33.464   4.486   0.999  0.00  0.00    -0.080 A 
ATOM     39  H13 IR5 d   1      31.695   4.209  -0.203  0.00  0.00     0.087 H 
ATOM     40  C19 IR5 d   1      33.965   4.789   2.247  0.00  0.00    -0.083 A 
ATOM     41  H14 IR5 d   1      34.145   4.258   0.187  0.00  0.00     0.083 H 
ATOM     42  C20 IR5 d   1      33.107   5.070   3.290  0.00  0.00    -0.080 A 
ATOM     43  H15 IR5 d   1      35.037   4.806   2.409  0.00  0.00     0.083 H 
ATOM     44  C21 IR5 d   1      31.729   5.096   3.077  0.00  0.00    -0.050 A 
ATOM     45  H16 IR5 d   1      33.505   5.271   4.278  0.00  0.00     0.083 H 
ATOM     46  H17 IR5 d   1      31.051   5.348   3.884  0.00  0.00     0.087 H 
ENDBRANCH  35  36
ENDBRANCH   6  35
TORSDOF 7
