REMARK  7 active torsions:
REMARK  status: ('A' for Active; 'I' for Inactive)
REMARK    1  A    between atoms: C01_1  and  C02_2 
REMARK    2  A    between atoms: C02_2  and  C03_4 
REMARK    3  A    between atoms: C05_6  and  C06_7 
REMARK    4  A    between atoms: C11_12  and  S_13 
REMARK    5  A    between atoms: S_13  and  C12_14 
REMARK    6  A    between atoms: C15_19  and  O1_20 
REMARK    7  A    between atoms: O1_20  and  C16_21 
ROOT
ATOM      1  C03 IR6 d   1      26.481   9.242   0.772  0.00  0.00     0.085 A 
ATOM      2  C04 IR6 d   1      27.416  10.280   0.567  0.00  0.00    -0.040 A 
ATOM      3  C05 IR6 d   1      28.714   9.646   0.479  0.00  0.00     0.005 A 
ATOM      4  C13 IR6 d   1      28.506   8.267   0.703  0.00  0.00     0.053 A 
ATOM      5  C14 IR6 d   1      29.404   7.167   0.763  0.00  0.00    -0.023 A 
ATOM      6  C15 IR6 d   1      28.887   5.938   0.973  0.00  0.00     0.079 A 
ATOM      7  C22 IR6 d   1      27.532   5.718   1.134  0.00  0.00    -0.035 A 
ATOM      8  C1  IR6 d   1      26.662   6.776   1.061  0.00  0.00    -0.012 A 
ATOM      9  N1  IR6 d   1      27.134   8.040   0.821  0.00  0.00    -0.318 N 
ATOM     10  H4  IR6 d   1      27.203  11.345   0.490  0.00  0.00     0.088 H 
ATOM     11  H12 IR6 d   1      30.477   7.311   0.643  0.00  0.00     0.091 H 
ATOM     12  H18 IR6 d   1      27.158   4.712   1.317  0.00  0.00     0.089 H 
ATOM     13  H19 IR6 d   1      25.594   6.611   1.194  0.00  0.00     0.112 H 
ENDROOT
BRANCH   3  14
ATOM     14  C06 IR6 d   1      29.987  10.354   0.380  0.00  0.00    -0.002 A 
ATOM     15  C07 IR6 d   1      30.561  10.605   1.615  0.00  0.00    -0.071 A 
ATOM     16  C08 IR6 d   1      31.777  11.238   1.699  0.00  0.00    -0.082 A 
ATOM     17  H5  IR6 d   1      30.048  10.300   2.520  0.00  0.00     0.084 H 
ATOM     18  C09 IR6 d   1      32.390  11.733   0.573  0.00  0.00    -0.082 A 
ATOM     19  H6  IR6 d   1      32.258  11.348   2.664  0.00  0.00     0.083 H 
ATOM     20  C10 IR6 d   1      31.840  11.520  -0.664  0.00  0.00    -0.061 A 
ATOM     21  H7  IR6 d   1      33.313  12.294   0.664  0.00  0.00     0.083 H 
ATOM     22  C11 IR6 d   1      30.625  10.859  -0.752  0.00  0.00     0.070 A 
ATOM     23  H8  IR6 d   1      32.347  11.863  -1.559  0.00  0.00     0.085 H 
BRANCH  22  24
ATOM     24  S   IR6 d   1      29.980  10.645  -2.377  0.00  0.00     0.172 S 
ATOM     25  O02 IR6 d   1      31.021  10.997  -3.310  0.00  0.00    -0.223 OA
ATOM     26  O03 IR6 d   1      29.423   9.324  -2.467  0.00  0.00    -0.223 OA
BRANCH  24  27
ATOM     27  C12 IR6 d   1      28.667  11.808  -2.565  0.00  0.00     0.020 C 
ATOM     28  H9  IR6 d   1      28.232  11.710  -3.571  0.00  0.00     0.049 H 
ATOM     29  H10 IR6 d   1      29.058  12.827  -2.432  0.00  0.00     0.049 H 
ATOM     30  H11 IR6 d   1      27.892  11.611  -1.809  0.00  0.00     0.049 H 
ENDBRANCH  24  27
ENDBRANCH  22  24
ENDBRANCH   3  14
BRANCH   1  31
ATOM     31  C02 IR6 d   1      25.113   9.422   0.907  0.00  0.00     0.172 C 
ATOM     32  O01 IR6 d   1      24.353   8.496   1.162  0.00  0.00    -0.291 OA
BRANCH  31  33
ATOM     33  C01 IR6 d   1      24.589  10.872   0.734  0.00  0.00    -0.015 C 
ATOM     34  H1  IR6 d   1      25.432  11.542   0.511  0.00  0.00     0.038 H 
ATOM     35  H2  IR6 d   1      24.098  11.198   1.663  0.00  0.00     0.038 H 
ATOM     36  H3  IR6 d   1      23.866  10.904  -0.094  0.00  0.00     0.038 H 
ENDBRANCH  31  33
ENDBRANCH   1  31
BRANCH   6  37
ATOM     37  O1  IR6 d   1      29.665   4.771   1.038  0.00  0.00    -0.311 OA
BRANCH  37  38
ATOM     38  C16 IR6 d   1      31.047   4.809   1.225  0.00  0.00     0.076 A 
ATOM     39  C17 IR6 d   1      31.873   4.393   0.192  0.00  0.00    -0.050 A 
ATOM     40  C18 IR6 d   1      33.248   4.403   0.372  0.00  0.00    -0.080 A 
ATOM     41  H13 IR6 d   1      31.447   4.063  -0.749  0.00  0.00     0.087 H 
ATOM     42  C19 IR6 d   1      33.795   4.810   1.574  0.00  0.00    -0.083 A 
ATOM     43  H14 IR6 d   1      33.899   4.089  -0.436  0.00  0.00     0.083 H 
ATOM     44  C20 IR6 d   1      32.970   5.204   2.605  0.00  0.00    -0.080 A 
ATOM     45  H15 IR6 d   1      34.871   4.819   1.706  0.00  0.00     0.083 H 
ATOM     46  C21 IR6 d   1      31.583   5.216   2.437  0.00  0.00    -0.050 A 
ATOM     47  H16 IR6 d   1      33.400   5.507   3.553  0.00  0.00     0.083 H 
ATOM     48  H17 IR6 d   1      30.935   5.539   3.244  0.00  0.00     0.087 H 
ENDBRANCH  37  38
ENDBRANCH   6  37
TORSDOF 7
