REMARK  6 active torsions:
REMARK  status: ('A' for Active; 'I' for Inactive)
REMARK    1  A    between atoms: C1_1  and  O1_7 
REMARK    2  A    between atoms: C2_2  and  O2_8 
REMARK    3  A    between atoms: C3_3  and  O3_9 
REMARK    4  A    between atoms: C4_4  and  O4_10 
REMARK    5  A    between atoms: C5_5  and  O5_11 
REMARK    6  A    between atoms: C6_6  and  O6_12 
ROOT
ATOM      1  C1  INS d   1       0.918  30.440  66.593  0.00  0.00     0.090 C 
ATOM      2  C2  INS d   1       1.398  31.347  65.509  0.00  0.00     0.090 C 
ATOM      3  C3  INS d   1       1.956  32.597  66.139  0.00  0.00     0.090 C 
ATOM      4  C4  INS d   1       3.108  32.258  67.030  0.00  0.00     0.090 C 
ATOM      5  C5  INS d   1       2.654  31.393  68.145  0.00  0.00     0.090 C 
ATOM      6  C6  INS d   1       1.995  30.140  67.617  0.00  0.00     0.090 C 
ATOM      7  H1  INS d   1       0.093  30.948  67.114  0.00  0.00     0.091 H 
ATOM      8  H2  INS d   1       0.552  31.620  64.862  0.00  0.00     0.091 H 
ATOM      9  H3  INS d   1       1.168  33.056  66.753  0.00  0.00     0.091 H 
ATOM     10  H4  INS d   1       3.850  31.701  66.440  0.00  0.00     0.091 H 
ATOM     11  H5  INS d   1       1.912  31.947  68.739  0.00  0.00     0.091 H 
ATOM     12  H6  INS d   1       2.776  29.589  67.073  0.00  0.00     0.091 H 
ENDROOT
BRANCH   1  13
ATOM     13  O1  INS d   1       0.419  29.247  66.042  0.00  0.00    -0.390 OA
ATOM     14  H7  INS d   1       0.049  28.711  66.733  0.00  0.00     0.210 HD
ENDBRANCH   1  13
BRANCH   2  15
ATOM     15  O2  INS d   1       2.358  30.690  64.738  0.00  0.00    -0.390 OA
ATOM     16  H8  INS d   1       2.657  31.268  64.046  0.00  0.00     0.210 HD
ENDBRANCH   2  15
BRANCH   6  17
ATOM     17  O6  INS d   1       1.584  29.292  68.658  0.00  0.00    -0.390 OA
ATOM     18  H12 INS d   1       2.339  29.038  69.175  0.00  0.00     0.210 HD
ENDBRANCH   6  17
BRANCH   3  19
ATOM     19  O3  INS d   1       2.340  33.523  65.152  0.00  0.00    -0.390 OA
ATOM     20  H9  INS d   1       2.649  34.319  65.569  0.00  0.00     0.210 HD
ENDBRANCH   3  19
BRANCH   5  21
ATOM     21  O5  INS d   1       3.739  31.092  68.963  0.00  0.00    -0.390 OA
ATOM     22  H11 INS d   1       4.130  31.898  69.278  0.00  0.00     0.210 HD
ENDBRANCH   5  21
BRANCH   4  23
ATOM     23  O4  INS d   1       3.716  33.413  67.514  0.00  0.00    -0.390 OA
ATOM     24  H10 INS d   1       4.468  33.175  68.043  0.00  0.00     0.210 HD
ENDBRANCH   4  23
TORSDOF 6
