REMARK WARNING: 32 MAX_TORS EXCEEDED!!!
REMARK  62 active torsions:
REMARK  status: ('A' for Active; 'I' for Inactive)
REMARK    1  A    between atoms: N_1  and  CA_2 
REMARK    2  A    between atoms: CA_2  and  C_3 
REMARK    3  A    between atoms: CA_2  and  CB_5 
REMARK       I    between atoms: C_3  and  N_12 
REMARK    4  A    between atoms: CB_5  and  CG_6 
REMARK    5  A    between atoms: CG_6  and  CD_7 
REMARK    6  A    between atoms: CD_7  and  NE_8 
REMARK       I    between atoms: NE_8  and  CZ_9 
REMARK       I    between atoms: CZ_9  and  NH1_10 
REMARK       I    between atoms: CZ_9  and  NH2_11 
REMARK    7  A    between atoms: N_12  and  CA_13 
REMARK    8  A    between atoms: CA_13  and  C_14 
REMARK    9  A    between atoms: CA_13  and  CB_16 
REMARK       I    between atoms: C_14  and  N_21 
REMARK   10  A    between atoms: CB_16  and  CG_17 
REMARK   11  A    between atoms: CG_17  and  CD_18 
REMARK       I    between atoms: CD_18  and  NE2_20 
REMARK   12  A    between atoms: N_21  and  CA_22 
REMARK   13  A    between atoms: CA_22  and  C_23 
REMARK   14  A    between atoms: CA_22  and  CB_25 
REMARK       I    between atoms: C_23  and  N_29 
REMARK   15  A    between atoms: CB_25  and  CG_26 
REMARK   16  A    between atoms: CG_26  and  CD1_27 
REMARK   17  A    between atoms: CG_26  and  CD2_28 
REMARK   18  A    between atoms: N_29  and  CA_30 
REMARK   19  A    between atoms: CA_30  and  C_31 
REMARK   20  A    between atoms: CA_30  and  CB_33 
REMARK       I    between atoms: C_31  and  N_41 
REMARK   21  A    between atoms: CB_33  and  CG_34 
REMARK   22  A    between atoms: CZ_39  and  OH_40 
REMARK   23  A    between atoms: CA_42  and  C_43 
REMARK       I    between atoms: C_43  and  N_48 
REMARK   24  A    between atoms: N_48  and  CA_49 
REMARK   25  A    between atoms: CA_49  and  C_50 
REMARK   26  A    between atoms: CA_49  and  CB_52 
REMARK       I    between atoms: C_50  and  N_57 
REMARK   27  A    between atoms: CB_52  and  CG_53 
REMARK   28  A    between atoms: CG_53  and  CD_54 
REMARK   29  A    between atoms: N_57  and  CA_58 
REMARK   30  A    between atoms: CA_58  and  C_59 
REMARK   31  A    between atoms: CA_58  and  CB_61 
REMARK       I    between atoms: C_59  and  N_71 
REMARK   32  A    between atoms: CB_61  and  CG_62 
REMARK   33  A    between atoms: N_71  and  CA_72 
REMARK   34  A    between atoms: CA_72  and  C_73 
REMARK   35  A    between atoms: CA_72  and  CB_75 
REMARK       I    between atoms: C_73  and  N_78 
REMARK   36  A    between atoms: CB_75  and  OG1_76 
REMARK   37  A    between atoms: CB_75  and  CG2_77 
REMARK   38  A    between atoms: N_78  and  CA_79 
REMARK   39  A    between atoms: CA_79  and  C_80 
REMARK   40  A    between atoms: CA_79  and  CB_82 
REMARK       I    between atoms: C_80  and  N_87 
REMARK   41  A    between atoms: CB_82  and  CG_83 
REMARK   42  A    between atoms: CG_83  and  CD_84 
REMARK   43  A    between atoms: N_87  and  CA_88 
REMARK   44  A    between atoms: CA_88  and  C_89 
REMARK   45  A    between atoms: CA_88  and  CB_91 
REMARK       I    between atoms: C_89  and  N_92 
REMARK   46  A    between atoms: N_92  and  CA_93 
REMARK   47  A    between atoms: CA_93  and  C_94 
REMARK   48  A    between atoms: CA_93  and  CB_96 
REMARK       I    between atoms: C_94  and  N_101 
REMARK   49  A    between atoms: CB_96  and  CG_97 
REMARK   50  A    between atoms: CG_97  and  CD_98 
REMARK       I    between atoms: CD_98  and  NE2_100 
REMARK   51  A    between atoms: N_101  and  CA_102 
REMARK   52  A    between atoms: CA_102  and  C_103 
REMARK   53  A    between atoms: CA_102  and  CB_105 
REMARK       I    between atoms: C_103  and  N_112 
REMARK   54  A    between atoms: CB_105  and  CG_106 
REMARK   55  A    between atoms: CG_106  and  CD_107 
REMARK   56  A    between atoms: CD_107  and  NE_108 
REMARK       I    between atoms: NE_108  and  CZ_109 
REMARK       I    between atoms: CZ_109  and  NH1_110 
REMARK   57  A    between atoms: N_112  and  CA_113 
REMARK   58  A    between atoms: CA_113  and  C_114 
REMARK   59  A    between atoms: CA_113  and  CB_116 
REMARK   60  A    between atoms: CB_116  and  CG_117 
REMARK   61  A    between atoms: CG_117  and  CD1_118 
REMARK   62  A    between atoms: CG_117  and  CD2_119 
ROOT
ATOM      1  CA  TRP d   1       9.536  41.087  16.018  0.00  0.00     0.093 C 
ATOM      2  H   TRP d   1       9.243  40.640  16.979  0.00  0.00     0.088 H 
ENDROOT
BRANCH   1   3
ATOM      3  N   TRP d   1      10.975  40.881  15.869  0.00  0.00    -0.346 N 
ATOM      4  C   GLU d   1      11.524  39.677  16.023  0.00  0.00     0.241 C 
ATOM      5  O   GLU d   1      10.863  38.661  16.263  0.00  0.00    -0.271 OA
ATOM      6  H   TRP d   1      11.560  41.661  15.647  0.00  0.00     0.163 HD
BRANCH   4   7
ATOM      7  CA  GLU d   1      13.041  39.591  15.897  0.00  0.00     0.090 C 
ATOM      8  H   GLU d   1      13.498  40.590  15.959  0.00  0.00     0.087 H 
BRANCH   7   9
ATOM      9  N   GLU d   1      13.443  38.767  17.033  0.00  0.00    -0.346 N 
ATOM     10  C   PRO d   1      13.713  39.321  18.208  0.00  0.00     0.241 C 
ATOM     11  O   PRO d   1      13.726  40.532  18.375  0.00  0.00    -0.271 OA
ATOM     12  H   GLU d   1      13.516  37.776  16.925  0.00  0.00     0.163 HD
BRANCH  10  13
ATOM     13  CA  PRO d   1      14.068  38.390  19.361  0.00  0.00     0.091 C 
ATOM     14  N   PRO d   1      15.111  39.031  20.158  0.00  0.00    -0.337 N 
ATOM     15  C   TYR d   1      16.372  38.977  19.702  0.00  0.00     0.243 C 
ATOM     16  CD  PRO d   1      14.557  39.601  21.402  0.00  0.00    -0.001 C 
ATOM     17  O   TYR d   1      16.656  38.392  18.652  0.00  0.00    -0.271 OA
ATOM     18  CG  PRO d   1      13.062  39.511  21.171  0.00  0.00    -0.048 C 
ATOM     19  H   PRO d   1      14.876  40.645  21.537  0.00  0.00     0.064 H 
ATOM     20  H   PRO d   1      14.859  39.010  22.279  0.00  0.00     0.064 H 
ATOM     21  CB  PRO d   1      12.928  38.247  20.359  0.00  0.00    -0.036 C 
ATOM     22  H   PRO d   1      12.518  39.430  22.123  0.00  0.00     0.035 H 
ATOM     23  H   PRO d   1      12.694  40.383  20.611  0.00  0.00     0.035 H 
ATOM     24  H   PRO d   1      13.056  37.353  20.987  0.00  0.00     0.036 H 
ATOM     25  H   PRO d   1      11.954  38.201  19.850  0.00  0.00     0.036 H 
ATOM     26  H   PRO d   1      14.385  37.410  18.974  0.00  0.00     0.087 H 
BRANCH  15  27
ATOM     27  CA  TYR d   1      17.460  39.663  20.546  0.00  0.00     0.093 C 
ATOM     28  H   TYR d   1      17.020  39.999  21.496  0.00  0.00     0.088 H 
BRANCH  27  29
ATOM     29  N   TYR d   1      18.545  38.727  20.836  0.00  0.00    -0.346 N 
ATOM     30  C   LEU d   1      18.655  38.123  22.015  0.00  0.00     0.241 C 
ATOM     31  O   LEU d   1      17.877  38.325  22.949  0.00  0.00    -0.271 OA
ATOM     32  H   TYR d   1      19.224  38.536  20.127  0.00  0.00     0.163 HD
BRANCH  30  33
ATOM     33  CA  LEU d   1      19.831  37.163  22.163  0.00  0.00     0.089 C 
ATOM     34  H   LEU d   1      20.581  37.396  21.393  0.00  0.00     0.087 H 
BRANCH  33  35
ATOM     35  N   LEU d   1      20.429  37.336  23.466  0.00  0.00    -0.346 N 
ATOM     36  C   GLN d   1      21.260  38.346  23.689  0.00  0.00     0.241 C 
ATOM     37  O   GLN d   1      21.559  39.172  22.819  0.00  0.00    -0.271 OA
ATOM     38  H   LEU d   1      20.216  36.693  24.202  0.00  0.00     0.163 HD
BRANCH  36  39
ATOM     39  CA  GLN d   1      21.827  38.444  25.100  0.00  0.00     0.090 C 
ATOM     40  H   GLN d   1      21.981  37.427  25.489  0.00  0.00     0.087 H 
BRANCH  39  41
ATOM     41  N   GLN d   1      23.101  39.142  25.121  0.00  0.00    -0.346 N 
ATOM     42  C   ARG d   1      24.142  38.642  25.770  0.00  0.00     0.248 C 
ATOM     43  O   ARG d   1      24.094  37.571  26.374  0.00  0.00    -0.271 OA
ATOM     44  H   GLN d   1      23.194  40.013  24.638  0.00  0.00     0.163 HD
BRANCH  42  45
ATOM     45  CA  ARG d   1      25.423  39.473  25.743  0.00  0.00     0.176 C 
ATOM     46  H   ARG d   1      25.211  40.452  26.198  0.00  0.00     0.099 H 
BRANCH  45  47
ATOM     47  N   ARG d   1      26.500  38.808  26.535  0.00  0.00    -0.067 N 
ATOM     48  H   ARG d   1      27.336  39.371  26.505  0.00  0.00     0.275 HD
ATOM     49  H   ARG d   1      26.693  37.899  26.143  0.00  0.00     0.275 HD
ATOM     50  H   ARG d   1      26.199  38.705  27.491  0.00  0.00     0.275 HD
ENDBRANCH  45  47
BRANCH  45  51
ATOM     51  CB  ARG d   1      25.891  39.700  24.295  0.00  0.00    -0.029 C 
ATOM     52  H   ARG d   1      25.002  39.840  23.663  0.00  0.00     0.036 H 
ATOM     53  H   ARG d   1      26.439  38.805  23.965  0.00  0.00     0.036 H 
BRANCH  51  54
ATOM     54  CG  ARG d   1      26.805  40.917  24.116  0.00  0.00    -0.047 C 
ATOM     55  H   ARG d   1      27.493  40.966  24.973  0.00  0.00     0.035 H 
ATOM     56  H   ARG d   1      26.181  41.822  24.095  0.00  0.00     0.035 H 
BRANCH  54  57
ATOM     57  CD  ARG d   1      27.637  40.867  22.824  0.00  0.00     0.009 C 
ATOM     58  H   ARG d   1      26.957  40.823  21.961  0.00  0.00     0.064 H 
ATOM     59  H   ARG d   1      28.269  39.967  22.839  0.00  0.00     0.064 H 
BRANCH  57  60
ATOM     60  NE  ARG d   1      28.494  42.051  22.697  0.00  0.00    -0.227 N 
ATOM     61  CZ  ARG d   1      29.483  42.192  21.813  0.00  0.00     0.665 C 
ATOM     62  NH1 ARG d   1      29.763  41.218  20.954  0.00  0.00    -0.235 N 
ATOM     63  NH2 ARG d   1      30.195  43.313  21.788  0.00  0.00    -0.235 N 
ATOM     64  H   ARG d   1      30.528  41.335  20.275  0.00  0.00     0.174 HD
ATOM     65  H   ARG d   1      29.215  40.346  20.967  0.00  0.00     0.174 HD
ATOM     66  H   ARG d   1      29.983  44.072  22.451  0.00  0.00     0.174 HD
ATOM     67  H   ARG d   1      30.959  43.423  21.106  0.00  0.00     0.174 HD
ATOM     68  H   ARG d   1      28.318  42.835  23.341  0.00  0.00     0.177 HD
ENDBRANCH  57  60
ENDBRANCH  54  57
ENDBRANCH  51  54
ENDBRANCH  45  51
ENDBRANCH  42  45
ENDBRANCH  39  41
BRANCH  39  69
ATOM     69  CB  GLN d   1      20.816  39.169  25.989  0.00  0.00    -0.030 C 
ATOM     70  H   GLN d   1      21.337  39.519  26.892  0.00  0.00     0.037 H 
ATOM     71  H   GLN d   1      20.030  38.454  26.273  0.00  0.00     0.037 H 
BRANCH  69  72
ATOM     72  CG  GLN d   1      20.158  40.364  25.324  0.00  0.00     0.011 C 
ATOM     73  H   GLN d   1      19.732  40.043  24.362  0.00  0.00     0.047 H 
ATOM     74  H   GLN d   1      20.922  41.136  25.148  0.00  0.00     0.047 H 
BRANCH  72  75
ATOM     75  CD  GLN d   1      19.056  40.955  26.170  0.00  0.00     0.215 C 
ATOM     76  OE1 GLN d   1      19.304  41.463  27.261  0.00  0.00    -0.274 OA
ATOM     77  NE2 GLN d   1      17.823  40.887  25.674  0.00  0.00    -0.370 N 
ATOM     78  H   GLN d   1      17.054  41.263  26.192  0.00  0.00     0.159 HD
ATOM     79  H   GLN d   1      17.665  40.460  24.784  0.00  0.00     0.159 HD
ENDBRANCH  72  75
ENDBRANCH  69  72
ENDBRANCH  39  69
ENDBRANCH  36  39
ENDBRANCH  33  35
BRANCH  33  80
ATOM     80  CB  LEU d   1      19.367  35.714  21.974  0.00  0.00    -0.035 C 
ATOM     81  H   LEU d   1      18.853  35.660  21.003  0.00  0.00     0.037 H 
ATOM     82  H   LEU d   1      18.652  35.492  22.780  0.00  0.00     0.037 H 
BRANCH  80  83
ATOM     83  CG  LEU d   1      20.426  34.609  21.990  0.00  0.00    -0.059 C 
ATOM     84  H   LEU d   1      20.012  33.710  21.510  0.00  0.00     0.038 H 
BRANCH  83  85
ATOM     85  CD1 LEU d   1      21.660  35.052  21.222  0.00  0.00    -0.073 C 
ATOM     86  H   LEU d   1      22.412  34.249  21.242  0.00  0.00     0.028 H 
ATOM     87  H   LEU d   1      22.077  35.957  21.689  0.00  0.00     0.028 H 
ATOM     88  H   LEU d   1      21.384  35.271  20.180  0.00  0.00     0.028 H 
ENDBRANCH  83  85
BRANCH  83  89
ATOM     89  CD2 LEU d   1      20.795  34.278  23.418  0.00  0.00    -0.073 C 
ATOM     90  H   LEU d   1      19.895  33.959  23.965  0.00  0.00     0.028 H 
ATOM     91  H   LEU d   1      21.221  35.169  23.902  0.00  0.00     0.028 H 
ATOM     92  H   LEU d   1      21.537  33.466  23.426  0.00  0.00     0.028 H 
ENDBRANCH  83  89
ENDBRANCH  80  83
ENDBRANCH  33  80
ENDBRANCH  30  33
ENDBRANCH  27  29
BRANCH  27  93
ATOM     93  CB  TYR d   1      17.990  40.890  19.775  0.00  0.00    -0.014 C 
ATOM     94  H   TYR d   1      17.121  41.446  19.393  0.00  0.00     0.043 H 
ATOM     95  H   TYR d   1      18.589  40.520  18.930  0.00  0.00     0.043 H 
BRANCH  93  96
ATOM     96  CG  TYR d   1      18.854  41.867  20.560  0.00  0.00    -0.056 A 
ATOM     97  CD1 TYR d   1      19.609  42.839  19.893  0.00  0.00    -0.074 A 
ATOM     98  CE1 TYR d   1      20.387  43.763  20.595  0.00  0.00    -0.051 A 
ATOM     99  H   TYR d   1      19.590  42.876  18.810  0.00  0.00     0.084 H 
ATOM    100  CZ  TYR d   1      20.416  43.722  21.989  0.00  0.00     0.065 A 
ATOM    101  H   TYR d   1      20.965  44.508  20.059  0.00  0.00     0.087 H 
ATOM    102  CE2 TYR d   1      19.677  42.770  22.680  0.00  0.00    -0.051 A 
ATOM    103  CD2 TYR d   1      18.900  41.845  21.962  0.00  0.00    -0.074 A 
ATOM    104  H   TYR d   1      19.700  42.741  23.763  0.00  0.00     0.087 H 
ATOM    105  H   TYR d   1      18.326  41.101  22.502  0.00  0.00     0.084 H 
BRANCH 100 106
ATOM    106  OH  TYR d   1      21.185  44.631  22.680  0.00  0.00    -0.361 OA
ATOM    107  H   TYR d   1      21.623  45.207  22.064  0.00  0.00     0.217 HD
ENDBRANCH 100 106
ENDBRANCH  93  96
ENDBRANCH  27  93
ENDBRANCH  15  27
ENDBRANCH  10  13
ENDBRANCH   7   9
BRANCH   7 108
ATOM    108  CB  GLU d   1      13.429  38.935  14.571  0.00  0.00    -0.029 C 
ATOM    109  H   GLU d   1      13.027  37.911  14.563  0.00  0.00     0.037 H 
ATOM    110  H   GLU d   1      14.527  38.899  14.514  0.00  0.00     0.037 H 
BRANCH 108 111
ATOM    111  CG  GLU d   1      12.911  39.659  13.334  0.00  0.00     0.018 C 
ATOM    112  H   GLU d   1      11.812  39.670  13.372  0.00  0.00     0.049 H 
ATOM    113  H   GLU d   1      13.242  39.105  12.443  0.00  0.00     0.049 H 
BRANCH 111 114
ATOM    114  CD  GLU d   1      13.403  41.095  13.219  0.00  0.00     0.172 C 
ATOM    115  OE1 GLU d   1      13.008  41.769  12.241  0.00  0.00    -0.648 OA
ATOM    116  OE2 GLU d   1      14.176  41.552  14.095  0.00  0.00    -0.648 OA
ENDBRANCH 111 114
ENDBRANCH 108 111
ENDBRANCH   7 108
ENDBRANCH   4   7
ENDBRANCH   1   3
BRANCH   1 117
ATOM    117  C   TRP d   1       8.690  40.445  14.943  0.00  0.00     0.241 C 
ATOM    118  O   TRP d   1       9.108  40.341  13.787  0.00  0.00    -0.271 OA
ATOM    119  N   THR d   1       7.496  40.013  15.348  0.00  0.00    -0.344 N 
ATOM    120  H   THR d   1       7.250  40.105  16.313  0.00  0.00     0.163 HD
BRANCH 119 121
ATOM    121  CA  THR d   1       6.539  39.412  14.432  0.00  0.00     0.113 C 
ATOM    122  H   THR d   1       7.055  39.110  13.508  0.00  0.00     0.091 H 
BRANCH 121 123
ATOM    123  C   THR d   1       5.520  40.486  14.129  0.00  0.00     0.243 C 
ATOM    124  O   THR d   1       4.778  40.922  15.004  0.00  0.00    -0.271 OA
ATOM    125  N   GLU d   1       5.502  40.911  12.871  0.00  0.00    -0.346 N 
ATOM    126  H   GLU d   1       6.119  40.494  12.204  0.00  0.00     0.163 HD
BRANCH 125 127
ATOM    127  CA  GLU d   1       4.609  41.964  12.448  0.00  0.00     0.090 C 
ATOM    128  H   GLU d   1       4.681  42.772  13.191  0.00  0.00     0.087 H 
BRANCH 127 129
ATOM    129  C   GLU d   1       3.154  41.536  12.410  0.00  0.00     0.241 C 
ATOM    130  O   GLU d   1       2.847  40.402  12.058  0.00  0.00    -0.271 OA
ATOM    131  N   ALA d   1       2.266  42.447  12.804  0.00  0.00    -0.346 N 
ATOM    132  H   ALA d   1       2.586  43.351  13.086  0.00  0.00     0.163 HD
BRANCH 131 133
ATOM    133  CA  ALA d   1       0.842  42.157  12.833  0.00  0.00     0.086 C 
ATOM    134  H   ALA d   1       0.724  41.076  13.001  0.00  0.00     0.086 H 
BRANCH 133 135
ATOM    135  C   ALA d   1       0.137  42.502  11.527  0.00  0.00     0.240 C 
ATOM    136  O   ALA d   1       0.407  43.523  10.894  0.00  0.00    -0.271 OA
ATOM    137  N   GLN d   1      -0.779  41.632  11.134  0.00  0.00    -0.346 N 
ATOM    138  H   GLN d   1      -0.950  40.822  11.695  0.00  0.00     0.163 HD
BRANCH 137 139
ATOM    139  CA  GLN d   1      -1.545  41.817   9.911  0.00  0.00     0.090 C 
ATOM    140  H   GLN d   1      -0.943  42.385   9.187  0.00  0.00     0.087 H 
BRANCH 139 141
ATOM    141  C   GLN d   1      -2.823  42.601  10.219  0.00  0.00     0.241 C 
ATOM    142  O   GLN d   1      -3.164  42.808  11.392  0.00  0.00    -0.271 OA
ATOM    143  N   ARG d   1      -3.514  43.025   9.158  0.00  0.00    -0.346 N 
ATOM    144  H   ARG d   1      -3.167  42.794   8.249  0.00  0.00     0.163 HD
BRANCH 143 145
ATOM    145  CA  ARG d   1      -4.752  43.809   9.243  0.00  0.00     0.089 C 
ATOM    146  H   ARG d   1      -4.882  44.162  10.277  0.00  0.00     0.087 H 
BRANCH 145 147
ATOM    147  C   ARG d   1      -5.969  42.976   8.838  0.00  0.00     0.241 C 
ATOM    148  O   ARG d   1      -5.881  42.166   7.920  0.00  0.00    -0.271 OA
ATOM    149  N   LEU d   1      -7.103  43.164   9.506  0.00  0.00    -0.345 N 
ATOM    150  H   LEU d   1      -7.136  43.817  10.263  0.00  0.00     0.163 HD
BRANCH 149 151
ATOM    151  CA  LEU d   1      -8.305  42.414   9.132  0.00  0.00     0.096 C 
ATOM    152  H   LEU d   1      -8.046  41.751   8.293  0.00  0.00     0.089 H 
BRANCH 151 153
ATOM    153  C   LEU d   1      -9.417  43.353   8.679  0.00  0.00     0.196 C 
ATOM    154  O   LEU d   1      -9.223  44.584   8.786  0.00  0.00    -0.646 OA
ATOM    155  O1  LEU d   1     -10.497  42.903   8.212  0.00  0.00    -0.646 OA
ENDBRANCH 151 153
BRANCH 151 156
ATOM    156  CB  LEU d   1      -8.811  41.545  10.301  0.00  0.00    -0.034 C 
ATOM    157  H   LEU d   1      -9.022  42.217  11.146  0.00  0.00     0.037 H 
ATOM    158  H   LEU d   1      -8.000  40.855  10.575  0.00  0.00     0.037 H 
BRANCH 156 159
ATOM    159  CG  LEU d   1     -10.081  40.696  10.054  0.00  0.00    -0.059 C 
ATOM    160  H   LEU d   1     -10.509  40.980   9.081  0.00  0.00     0.038 H 
BRANCH 159 161
ATOM    161  CD1 LEU d   1      -9.763  39.183  10.020  0.00  0.00    -0.073 C 
ATOM    162  H   LEU d   1     -10.690  38.617   9.843  0.00  0.00     0.028 H 
ATOM    163  H   LEU d   1      -9.326  38.878  10.982  0.00  0.00     0.028 H 
ATOM    164  H   LEU d   1      -9.047  38.977   9.211  0.00  0.00     0.028 H 
ENDBRANCH 159 161
BRANCH 159 165
ATOM    165  CD2 LEU d   1     -11.100  41.008  11.153  0.00  0.00    -0.073 C 
ATOM    166  H   LEU d   1     -11.312  42.087  11.161  0.00  0.00     0.028 H 
ATOM    167  H   LEU d   1     -10.690  40.708  12.129  0.00  0.00     0.028 H 
ATOM    168  H   LEU d   1     -12.030  40.453  10.959  0.00  0.00     0.028 H 
ENDBRANCH 159 165
ENDBRANCH 156 159
ENDBRANCH 151 156
ENDBRANCH 149 151
ENDBRANCH 145 147
BRANCH 145 169
ATOM    169  CB  ARG d   1      -4.662  45.012   8.294  0.00  0.00    -0.036 C 
ATOM    170  H   ARG d   1      -4.665  44.632   7.262  0.00  0.00     0.036 H 
ATOM    171  H   ARG d   1      -3.712  45.530   8.491  0.00  0.00     0.036 H 
BRANCH 169 172
ATOM    172  CG  ARG d   1      -5.793  46.034   8.425  0.00  0.00    -0.048 C 
ATOM    173  H   ARG d   1      -5.968  46.238   9.492  0.00  0.00     0.035 H 
ATOM    174  H   ARG d   1      -6.706  45.615   7.977  0.00  0.00     0.035 H 
BRANCH 172 175
ATOM    175  CD  ARG d   1      -5.455  47.336   7.725  0.00  0.00     0.009 C 
ATOM    176  H   ARG d   1      -4.635  47.830   8.267  0.00  0.00     0.064 H 
ATOM    177  H   ARG d   1      -6.343  47.986   7.732  0.00  0.00     0.064 H 
BRANCH 175 178
ATOM    178  NE  ARG d   1      -5.043  47.113   6.345  0.00  0.00    -0.227 N 
ATOM    179  CZ  ARG d   1      -4.467  48.040   5.590  0.00  0.00     0.665 C 
ATOM    180  NH1 ARG d   1      -4.238  49.249   6.095  0.00  0.00    -0.235 N 
ATOM    181  NH2 ARG d   1      -4.119  47.760   4.337  0.00  0.00    -0.235 N 
ATOM    182  H   ARG d   1      -3.791  49.973   5.515  0.00  0.00     0.174 HD
ATOM    183  H   ARG d   1      -4.507  49.461   7.066  0.00  0.00     0.174 HD
ATOM    184  H   ARG d   1      -4.298  46.822   3.950  0.00  0.00     0.174 HD
ATOM    185  H   ARG d   1      -3.670  48.481   3.754  0.00  0.00     0.174 HD
ATOM    186  H   ARG d   1      -5.208  46.184   5.933  0.00  0.00     0.177 HD
ENDBRANCH 175 178
ENDBRANCH 172 175
ENDBRANCH 169 172
ENDBRANCH 145 169
ENDBRANCH 143 145
ENDBRANCH 139 141
BRANCH 139 187
ATOM    187  CB  GLN d   1      -1.879  40.449   9.320  0.00  0.00    -0.030 C 
ATOM    188  H   GLN d   1      -2.393  40.600   8.360  0.00  0.00     0.037 H 
ATOM    189  H   GLN d   1      -2.549  39.922  10.016  0.00  0.00     0.037 H 
BRANCH 187 190
ATOM    190  CG  GLN d   1      -0.647  39.575   9.078  0.00  0.00     0.011 C 
ATOM    191  H   GLN d   1       0.063  39.737   9.902  0.00  0.00     0.047 H 
ATOM    192  H   GLN d   1      -0.183  39.881   8.129  0.00  0.00     0.047 H 
BRANCH 190 193
ATOM    193  CD  GLN d   1      -0.967  38.091   9.002  0.00  0.00     0.215 C 
ATOM    194  OE1 GLN d   1      -1.845  37.671   8.254  0.00  0.00    -0.274 OA
ATOM    195  NE2 GLN d   1      -0.246  37.291   9.773  0.00  0.00    -0.370 N 
ATOM    196  H   GLN d   1      -0.412  36.305   9.764  0.00  0.00     0.159 HD
ATOM    197  H   GLN d   1       0.465  37.673  10.364  0.00  0.00     0.159 HD
ENDBRANCH 190 193
ENDBRANCH 187 190
ENDBRANCH 139 187
ENDBRANCH 137 139
ENDBRANCH 133 135
BRANCH 133 198
ATOM    198  CB  ALA d   1       0.189  42.890  13.986  0.00  0.00    -0.049 C 
ATOM    199  H   ALA d   1      -0.888  42.665  14.001  0.00  0.00     0.030 H 
ATOM    200  H   ALA d   1       0.336  43.973  13.862  0.00  0.00     0.030 H 
ATOM    201  H   ALA d   1       0.644  42.564  14.933  0.00  0.00     0.030 H 
ENDBRANCH 133 198
ENDBRANCH 131 133
ENDBRANCH 127 129
BRANCH 127 202
ATOM    202  CB  GLU d   1       5.094  42.528  11.107  0.00  0.00    -0.029 C 
ATOM    203  H   GLU d   1       4.229  42.611  10.433  0.00  0.00     0.037 H 
ATOM    204  H   GLU d   1       5.825  41.825  10.680  0.00  0.00     0.037 H 
BRANCH 202 205
ATOM    205  CG  GLU d   1       5.761  43.917  11.215  0.00  0.00     0.018 C 
ATOM    206  H   GLU d   1       4.992  44.644  11.516  0.00  0.00     0.049 H 
ATOM    207  H   GLU d   1       6.152  44.187  10.223  0.00  0.00     0.049 H 
BRANCH 205 208
ATOM    208  CD  GLU d   1       6.915  43.998  12.222  0.00  0.00     0.172 C 
ATOM    209  OE1 GLU d   1       7.805  43.109  12.207  0.00  0.00    -0.648 OA
ATOM    210  OE2 GLU d   1       6.932  44.978  13.010  0.00  0.00    -0.648 OA
ENDBRANCH 205 208
ENDBRANCH 202 205
ENDBRANCH 127 202
ENDBRANCH 125 127
ENDBRANCH 121 123
BRANCH 121 211
ATOM    211  CB  THR d   1       5.839  38.179  15.033  0.00  0.00     0.060 C 
ATOM    212  H   THR d   1       5.551  38.396  16.072  0.00  0.00     0.086 H 
BRANCH 211 213
ATOM    213  OG1 THR d   1       6.736  37.063  15.006  0.00  0.00    -0.393 OA
ATOM    214  H   THR d   1       6.304  36.302  15.377  0.00  0.00     0.210 HD
ENDBRANCH 211 213
BRANCH 211 215
ATOM    215  CG2 THR d   1       4.596  37.826  14.227  0.00  0.00    -0.050 C 
ATOM    216  H   THR d   1       4.110  36.944  14.670  0.00  0.00     0.031 H 
ATOM    217  H   THR d   1       4.883  37.603  13.189  0.00  0.00     0.031 H 
ATOM    218  H   THR d   1       3.897  38.675  14.240  0.00  0.00     0.031 H 
ENDBRANCH 211 215
ENDBRANCH 121 211
ENDBRANCH 119 121
ENDBRANCH   1 117
BRANCH   1 219
ATOM    219  CB  TRP d   1       9.213  42.583  16.064  0.00  0.00    -0.012 C 
ATOM    220  H   TRP d   1       8.129  42.700  16.206  0.00  0.00     0.044 H 
ATOM    221  H   TRP d   1       9.507  43.031  15.104  0.00  0.00     0.044 H 
BRANCH 219 222
ATOM    222  CG  TRP d   1       9.915  43.317  17.162  0.00  0.00    -0.028 A 
ATOM    223  CD1 TRP d   1      10.544  44.528  17.062  0.00  0.00    -0.015 A 
ATOM    224  NE1 TRP d   1      11.097  44.877  18.274  0.00  0.00    -0.365 N 
ATOM    225  H   TRP d   1      10.599  45.129  16.155  0.00  0.00     0.112 H 
ATOM    226  CE2 TRP d   1      10.831  43.890  19.188  0.00  0.00     0.042 A 
ATOM    227  H   TRP d   1      11.625  45.741  18.463  0.00  0.00     0.165 HD
ATOM    228  CD2 TRP d   1      10.082  42.889  18.524  0.00  0.00    -0.002 A 
ATOM    229  CZ2 TRP d   1      11.184  43.795  20.539  0.00  0.00    -0.056 A 
ATOM    230  CE3 TRP d   1       9.675  41.758  19.245  0.00  0.00    -0.070 A 
ATOM    231  CZ3 TRP d   1      10.026  41.663  20.589  0.00  0.00    -0.082 A 
ATOM    232  H   TRP d   1       9.099  40.974  18.766  0.00  0.00     0.084 H 
ATOM    233  CH2 TRP d   1      10.776  42.679  21.220  0.00  0.00    -0.081 A 
ATOM    234  H   TRP d   1       9.718  40.795  21.160  0.00  0.00     0.083 H 
ATOM    235  H   TRP d   1      11.035  42.573  22.267  0.00  0.00     0.083 H 
ATOM    236  H   TRP d   1      11.758  44.574  21.027  0.00  0.00     0.086 H 
ENDBRANCH 219 222
ENDBRANCH   1 219
TORSDOF 62
