REMARK  3 active torsions:
REMARK  status: ('A' for Active; 'I' for Inactive)
REMARK    1  A    between atoms: N3_3  and  C17_4 
REMARK    2  A    between atoms: C11_8  and  C10_9 
REMARK    3  A    between atoms: C10_9  and  C7_10 
ROOT
ATOM      1  C10 RCM d   1     -29.059   3.903  12.860  0.00  0.00    -0.012 C 
ATOM      2  H6  RCM d   1     -29.978   4.497  12.746  0.00  0.00     0.043 H 
ATOM      3  H7  RCM d   1     -28.949   3.596  13.911  0.00  0.00     0.043 H 
ENDROOT
BRANCH   1   4
ATOM      4  C11 RCM d   1     -27.895   4.771  12.503  0.00  0.00     0.090 C 
ATOM      5  C12 RCM d   1     -27.997   5.214  11.105  0.00  0.00     0.230 C 
ATOM      6  N3  RCM d   1     -26.712   5.127  10.380  0.00  0.00    -0.172 NA
ATOM      7  O1  RCM d   1     -29.113   5.680  10.644  0.00  0.00    -0.277 OA
ATOM      8  C14 RCM d   1     -25.947   4.255  11.302  0.00  0.00     0.303 C 
ATOM      9  O2  RCM d   1     -24.802   3.724  11.011  0.00  0.00    -0.254 OA
ATOM     10  N2  RCM d   1     -26.589   4.036  12.617  0.00  0.00    -0.334 N 
ATOM     11  H4  RCM d   1     -26.237   3.520  13.398  0.00  0.00     0.164 HD
ATOM     12  H5  RCM d   1     -27.886   5.644  13.173  0.00  0.00     0.087 H 
BRANCH   6  13
ATOM     13  C17 RCM d   1     -26.752   4.613   8.967  0.00  0.00    -0.017 C 
ATOM     14  H1  RCM d   1     -25.733   4.601   8.552  0.00  0.00     0.049 H 
ATOM     15  H2  RCM d   1     -27.389   5.269   8.356  0.00  0.00     0.049 H 
ATOM     16  H3  RCM d   1     -27.162   3.592   8.960  0.00  0.00     0.049 H 
ENDBRANCH   6  13
ENDBRANCH   1   4
BRANCH   1  17
ATOM     17  C7  RCM d   1     -29.193   2.668  12.023  0.00  0.00    -0.028 A 
ATOM     18  C2  RCM d   1     -28.506   1.498  12.220  0.00  0.00    -0.000 A 
ATOM     19  C3  RCM d   1     -28.957   0.629  11.263  0.00  0.00     0.065 A 
ATOM     20  C1  RCM d   1     -27.542   1.195  13.149  0.00  0.00    -0.070 A 
ATOM     21  N1  RCM d   1     -29.950   1.238  10.455  0.00  0.00    -0.363 N 
ATOM     22  C4  RCM d   1     -28.408  -0.635  11.229  0.00  0.00     0.061 A 
ATOM     23  C8  RCM d   1     -30.074   2.490  10.960  0.00  0.00    -0.015 A 
ATOM     24  H9  RCM d   1     -30.462   0.823   9.663  0.00  0.00     0.165 HD
ATOM     25  H8  RCM d   1     -30.763   3.247  10.588  0.00  0.00     0.112 H 
ATOM     26 CL1  RCM d   1     -28.839  -1.630  10.223  0.00  0.00    -0.082 Cl
ATOM     27  C5  RCM d   1     -27.429  -0.973  12.154  0.00  0.00    -0.060 A 
ATOM     28  C6  RCM d   1     -27.008  -0.063  13.104  0.00  0.00    -0.080 A 
ATOM     29  H10 RCM d   1     -26.990  -1.964  12.130  0.00  0.00     0.086 H 
ATOM     30  H11 RCM d   1     -26.247  -0.349  13.821  0.00  0.00     0.083 H 
ATOM     31  H12 RCM d   1     -27.218   1.921  13.886  0.00  0.00     0.084 H 
ENDBRANCH   1  17
TORSDOF 3
