REMARK  7 active torsions:
REMARK  status: ('A' for Active; 'I' for Inactive)
REMARK    1  A    between atoms: C5_5  and  O24_30 
REMARK    2  A    between atoms: C14_22  and  C11_7 
REMARK    3  A    between atoms: O27_15  and  C28_12 
REMARK    4  A    between atoms: C17_16  and  O27_15 
REMARK       I    between atoms: N12_24  and  C20_25 
REMARK    5  A    between atoms: C20_25  and  C21_27 
REMARK    6  A    between atoms: C21_27  and  O22_28 
REMARK    7  A    between atoms: O24_30  and  C25_31 
ROOT
ATOM      1  C1  1HW d   1     -22.500   6.333 -23.473  0.00  0.00    -0.073 A 
ATOM      2  C2  1HW d   1     -22.709   7.405 -22.620  0.00  0.00    -0.046 A 
ATOM      3  C3  1HW d   1     -21.646   7.757 -21.650  0.00  0.00    -0.000 A 
ATOM      4  C4  1HW d   1     -20.475   7.016 -21.607  0.00  0.00    -0.038 A 
ATOM      5  C5  1HW d   1     -20.314   5.948 -22.484  0.00  0.00     0.069 A 
ATOM      6  C10 1HW d   1     -21.899   8.914 -20.742  0.00  0.00     0.072 C 
ATOM      7  C11 1HW d   1     -23.252  10.513 -19.615  0.00  0.00     0.072 C 
ATOM      8  C6  1HW d   1     -21.309   5.614 -23.400  0.00  0.00    -0.050 A 
ATOM      9  C7  1HW d   1     -23.992   8.211 -22.672  0.00  0.00    -0.039 C 
ATOM     10  C9  1HW d   1     -23.069   9.816 -20.962  0.00  0.00     0.017 C 
ATOM     11  C8  1HW d   1     -24.252   8.936 -21.351  0.00  0.00    -0.051 C 
ATOM     12  N12 1HW d   1     -21.957  10.204 -19.021  0.00  0.00    -0.226 N 
ATOM     13  C20 1HW d   1     -21.485  10.798 -17.931  0.00  0.00     0.264 C 
ATOM     14  O23 1HW d   1     -22.072  11.700 -17.357  0.00  0.00    -0.269 OA
ATOM     15  N13 1HW d   1     -21.236   9.227 -19.725  0.00  0.00    -0.172 NA
ATOM     16  H1  1HW d   1     -23.260   6.055 -24.194  0.00  0.00     0.084 H 
ATOM     17  H2  1HW d   1     -19.694   7.266 -20.898  0.00  0.00     0.089 H 
ATOM     18  H3  1HW d   1     -23.447  11.592 -19.699  0.00  0.00     0.085 H 
ATOM     19  H4  1HW d   1     -21.153   4.777 -24.070  0.00  0.00     0.087 H 
ATOM     20  H5  1HW d   1     -24.832   7.532 -22.879  0.00  0.00     0.040 H 
ATOM     21  H6  1HW d   1     -23.915   8.955 -23.479  0.00  0.00     0.040 H 
ATOM     22  H7  1HW d   1     -22.874  10.553 -21.755  0.00  0.00     0.053 H 
ATOM     23  H11 1HW d   1     -24.420   8.191 -20.560  0.00  0.00     0.034 H 
ATOM     24  H12 1HW d   1     -25.148   9.566 -21.458  0.00  0.00     0.034 H 
ENDROOT
BRANCH   7  25
ATOM     25  C14 1HW d   1     -24.329   9.825 -18.871  0.00  0.00    -0.029 A 
ATOM     26  C15 1HW d   1     -25.623  10.331 -18.926  0.00  0.00    -0.035 A 
ATOM     27  C16 1HW d   1     -26.647   9.701 -18.237  0.00  0.00     0.150 A 
ATOM     28  H8  1HW d   1     -25.831  11.221 -19.509  0.00  0.00     0.089 H 
ATOM     29  C17 1HW d   1     -26.341   8.485 -17.446  0.00  0.00     0.116 A 
ATOM     30  F26 1HW d   1     -27.899  10.181 -18.284  0.00  0.00    -0.203 F 
ATOM     31  C18 1HW d   1     -25.035   8.013 -17.418  0.00  0.00    -0.047 A 
ATOM     32  C19 1HW d   1     -24.042   8.682 -18.127  0.00  0.00    -0.072 A 
ATOM     33  H9  1HW d   1     -24.790   7.126 -16.845  0.00  0.00     0.087 H 
ATOM     34  H10 1HW d   1     -23.025   8.307 -18.100  0.00  0.00     0.084 H 
BRANCH  29  35
ATOM     35  O27 1HW d   1     -27.335   7.847 -16.758  0.00  0.00    -0.252 OA
BRANCH  35  36
ATOM     36  C28 1HW d   1     -27.014   6.830 -15.814  0.00  0.00     0.530 C 
ATOM     37  F31 1HW d   1     -27.309   5.649 -16.323  0.00  0.00    -0.144 F 
ATOM     38  F29 1HW d   1     -25.727   6.884 -15.538  0.00  0.00    -0.144 F 
ATOM     39  F30 1HW d   1     -27.709   7.020 -14.711  0.00  0.00    -0.144 F 
ENDBRANCH  35  36
ENDBRANCH  29  35
ENDBRANCH   7  25
BRANCH  13  40
ATOM     40  C21 1HW d   1     -20.154  10.307 -17.418  0.00  0.00     0.092 C 
ATOM     41  H13 1HW d   1     -19.454  10.197 -18.259  0.00  0.00     0.088 H 
ATOM     42  H14 1HW d   1     -20.287   9.334 -16.922  0.00  0.00     0.088 H 
BRANCH  40  43
ATOM     43  O22 1HW d   1     -19.631  11.254 -16.481  0.00  0.00    -0.392 OA
ATOM     44  H15 1HW d   1     -20.237  11.348 -15.756  0.00  0.00     0.210 HD
ENDBRANCH  40  43
ENDBRANCH  13  40
BRANCH   5  45
ATOM     45  O24 1HW d   1     -19.160   5.216 -22.445  0.00  0.00    -0.356 OA
BRANCH  45  46
ATOM     46  C25 1HW d   1     -18.094   5.620 -21.587  0.00  0.00     0.010 C 
ATOM     47  H16 1HW d   1     -17.255   4.916 -21.689  0.00  0.00     0.066 H 
ATOM     48  H17 1HW d   1     -18.444   5.624 -20.544  0.00  0.00     0.066 H 
ATOM     49  H18 1HW d   1     -17.761   6.630 -21.866  0.00  0.00     0.066 H 
ENDBRANCH  45  46
ENDBRANCH   5  45
TORSDOF 7
