REMARK  5 active torsions:
REMARK  status: ('A' for Active; 'I' for Inactive)
REMARK    1  A    between atoms: C4_1  and  C7_7 
REMARK    2  A    between atoms: C7_7  and  C10_11 
REMARK    3  A    between atoms: C7_7  and  N8_12 
REMARK       I    between atoms: N8_12  and  C9_8 
REMARK    4  A    between atoms: C9_8  and  C12_14 
REMARK    5  A    between atoms: N13_20  and  C17_21 
ROOT
ATOM      1  C12 1HX d   1      20.571  -5.063  53.745  0.00  0.00     0.103 A 
ATOM      2  C16 1HX d   1      20.217  -6.191  52.976  0.00  0.00    -0.049 A 
ATOM      3  C15 1HX d   1      20.737  -7.321  53.584  0.00  0.00    -0.044 A 
ATOM      4  C14 1HX d   1      21.365  -6.789  54.700  0.00  0.00     0.116 A 
ATOM      5  C18 1HX d   1      22.041  -7.510  55.605  0.00  0.00     0.117 C 
ATOM      6  N19 1HX d   1      22.671  -8.150  56.350  0.00  0.00    -0.190 NA
ATOM      7  N13 1HX d   1      21.297  -5.466  54.806  0.00  0.00    -0.338 N 
ATOM      8  H9  1HX d   1      19.632  -6.176  52.057  0.00  0.00     0.087 H 
ATOM      9  H10 1HX d   1      20.670  -8.361  53.267  0.00  0.00     0.088 H 
ENDROOT
BRANCH   7  10
ATOM     10  C17 1HX d   1      21.893  -4.662  55.918  0.00  0.00    -0.013 C 
ATOM     11  H11 1HX d   1      21.685  -3.595  55.751  0.00  0.00     0.057 H 
ATOM     12  H12 1HX d   1      22.981  -4.823  55.945  0.00  0.00     0.057 H 
ATOM     13  H13 1HX d   1      21.452  -4.976  56.875  0.00  0.00     0.057 H 
ENDBRANCH   7  10
BRANCH   1  14
ATOM     14  C9  1HX d   1      20.224  -3.645  53.415  0.00  0.00     0.269 C 
ATOM     15  N8  1HX d   1      19.154  -3.366  52.679  0.00  0.00    -0.347 N 
ATOM     16  H8  1HX d   1      18.461  -4.071  52.524  0.00  0.00     0.163 HD
ATOM     17  O11 1HX d   1      20.958  -2.757  53.823  0.00  0.00    -0.266 OA
BRANCH  15  18
ATOM     18  C7  1HX d   1      18.982  -2.050  52.099  0.00  0.00     0.039 C 
ATOM     19  H4  1HX d   1      19.961  -1.657  51.788  0.00  0.00     0.080 H 
BRANCH  18  20
ATOM     20  C4  1HX d   1      18.360  -1.121  53.089  0.00  0.00     0.024 A 
ATOM     21  C3  1HX d   1      17.243  -1.524  53.802  0.00  0.00     0.126 A 
ATOM     22  C2  1HX d   1      16.652  -0.652  54.708  0.00  0.00    -0.045 A 
ATOM     23  F20 1HX d   1      16.717  -2.750  53.606  0.00  0.00    -0.205 F 
ATOM     24  C1  1HX d   1      17.155   0.619  54.948  0.00  0.00    -0.078 A 
ATOM     25  H3  1HX d   1      15.768  -0.975  55.246  0.00  0.00     0.088 H 
ATOM     26  C6  1HX d   1      18.278   1.023  54.250  0.00  0.00    -0.061 A 
ATOM     27  H2  1HX d   1      16.679   1.278  55.665  0.00  0.00     0.083 H 
ATOM     28  C5  1HX d   1      18.854   0.155  53.323  0.00  0.00     0.045 A 
ATOM     29  H1  1HX d   1      18.706   2.004  54.422  0.00  0.00     0.086 H 
ATOM     30 CL2  1HX d   1      20.299   0.727  52.463  0.00  0.00    -0.084 Cl
ENDBRANCH  18  20
BRANCH  18  31
ATOM     31  C10 1HX d   1      18.053  -2.147  50.886  0.00  0.00    -0.053 C 
ATOM     32  H5  1HX d   1      18.492  -2.828  50.142  0.00  0.00     0.030 H 
ATOM     33  H6  1HX d   1      17.926  -1.149  50.441  0.00  0.00     0.030 H 
ATOM     34  H7  1HX d   1      17.074  -2.534  51.204  0.00  0.00     0.030 H 
ENDBRANCH  18  31
ENDBRANCH  15  18
ENDBRANCH   1  14
TORSDOF 5
