REMARK  10 active torsions:
REMARK  status: ('A' for Active; 'I' for Inactive)
REMARK    1  A    between atoms: N_1  and  CA_2 
REMARK    2  A    between atoms: CA_2  and  C_3 
REMARK    3  A    between atoms: CA_2  and  CB_6 
REMARK    4  A    between atoms: CB_6  and  CG_7 
REMARK    5  A    between atoms: CG_7  and  CD_8 
REMARK    6  A    between atoms: CD_8  and  CE_9 
REMARK    7  A    between atoms: CE_9  and  B_10 
REMARK    8  A    between atoms: B_10  and  O2_11 
REMARK    9  A    between atoms: B_10  and  O1_12 
REMARK   10  A    between atoms: B_10  and  O3_13 
ROOT
ATOM      1  CG  ABH d   1      10.342 -22.079   7.918  0.00  0.00    -0.063 C 
ATOM      2  H7  ABH d   1      10.500 -23.126   8.216  0.00  0.00     0.033 H 
ATOM      3  H8  ABH d   1      10.443 -21.989   6.826  0.00  0.00     0.033 H 
ENDROOT
BRANCH   1   4
ATOM      4  CB  ABH d   1      11.401 -21.186   8.605  0.00  0.00    -0.029 C 
ATOM      5  H5  ABH d   1      11.217 -20.138   8.327  0.00  0.00     0.036 H 
ATOM      6  H6  ABH d   1      11.307 -21.298   9.695  0.00  0.00     0.036 H 
BRANCH   4   7
ATOM      7  CA  ABH d   1      12.840 -21.570   8.184  0.00  0.00     0.182 C 
ATOM      8  H4  ABH d   1      13.533 -20.864   8.665  0.00  0.00     0.101 H 
BRANCH   7   9
ATOM      9  N   ABH d   1      13.011 -21.460   6.725  0.00  0.00    -0.065 N 
ATOM     10  H1  ABH d   1      12.771 -20.527   6.428  0.00  0.00     0.275 HD
ATOM     11  H2  ABH d   1      12.409 -22.125   6.265  0.00  0.00     0.275 HD
ATOM     12  H3  ABH d   1      13.970 -21.653   6.484  0.00  0.00     0.275 HD
ENDBRANCH   7   9
BRANCH   7  13
ATOM     13  C   ABH d   1      13.199 -22.974   8.649  0.00  0.00     0.204 C 
ATOM     14  O   ABH d   1      13.487 -23.835   7.841  0.00  0.00    -0.646 OA
ATOM     15  OT  ABH d   1      13.205 -23.264   9.957  0.00  0.00    -0.646 OA
ENDBRANCH   7  13
ENDBRANCH   4   7
ENDBRANCH   1   4
BRANCH   1  16
ATOM     16  CD  ABH d   1       8.932 -21.639   8.336  0.00  0.00    -0.071 C 
ATOM     17  H9  ABH d   1       8.686 -20.687   7.843  0.00  0.00     0.032 H 
ATOM     18  H10 ABH d   1       8.901 -21.505   9.427  0.00  0.00     0.032 H 
BRANCH  16  19
ATOM     19  CE  ABH d   1       7.901 -22.710   7.923  0.00  0.00    -0.069 C 
ATOM     20  H11 ABH d   1       7.836 -22.753   6.826  0.00  0.00     0.023 H 
ATOM     21  H13 ABH d   1       8.216 -23.690   8.310  0.00  0.00     0.023 H 
BRANCH  19  22
ATOM     22  B   ABH d   1       6.479 -22.046   7.537  0.00  0.00     0.318 B 
BRANCH  22  23
ATOM     23  O2  ABH d   1       5.530 -23.034   7.437  0.00  0.00     0.000 OA
ATOM     24  H14 ABH d   1       4.694 -22.647   7.204  0.00  0.00     0.000 HD
ATOM     25  H15 ABH d   1       4.695 -22.647   7.204  0.00  0.00     0.000 HD
ENDBRANCH  22  23
BRANCH  22  26
ATOM     26  O1  ABH d   1       6.589 -21.403   6.328  0.00  0.00     0.000 OA
ATOM     27  H16 ABH d   1       6.847 -22.028   5.661  0.00  0.00     0.000 HD
ATOM     28  H17 ABH d   1       6.847 -22.028   5.661  0.00  0.00     0.000 HD
ENDBRANCH  22  26
BRANCH  22  29
ATOM     29  O3  ABH d   1       6.085 -21.142   8.500  0.00  0.00    -0.467 OA
ATOM     30  H18 ABH d   1       5.369 -21.146   7.802  0.00  0.00     0.181 HD
ENDBRANCH  22  29
ENDBRANCH  19  22
ENDBRANCH  16  19
ENDBRANCH   1  16
TORSDOF 10
