REMARK  5 active torsions:
REMARK  status: ('A' for Active; 'I' for Inactive)
REMARK    1  A    between atoms: N_1  and  CA_2 
REMARK    2  A    between atoms: CA_2  and  C_3 
REMARK    3  A    between atoms: CA_2  and  CB_5 
REMARK    4  A    between atoms: CB_5  and  CG_6 
REMARK    5  A    between atoms: CG_6  and  ND_7 
REMARK       I    between atoms: ND_7  and  CE_8 
REMARK       I    between atoms: CE_8  and  NH1_9 
ROOT
ATOM      1  CB  NNH d   1      12.768 -20.857  29.133  0.00  0.00    -0.014 C 
ATOM      2  H5  NNH d   1      11.800 -20.345  29.240  0.00  0.00     0.039 H 
ATOM      3  H6  NNH d   1      13.020 -20.946  28.066  0.00  0.00     0.039 H 
ENDROOT
BRANCH   1   4
ATOM      4  CA  NNH d   1      12.609 -22.288  29.700  0.00  0.00     0.184 C 
ATOM      5  H4  NNH d   1      11.764 -22.751  29.170  0.00  0.00     0.101 H 
BRANCH   4   6
ATOM      6  N   NNH d   1      12.270 -22.217  31.138  0.00  0.00    -0.065 N 
ATOM      7  H1  NNH d   1      11.475 -21.611  31.266  0.00  0.00     0.275 HD
ATOM      8  H2  NNH d   1      13.057 -21.852  31.651  0.00  0.00     0.275 HD
ATOM      9  H3  NNH d   1      12.047 -23.140  31.477  0.00  0.00     0.275 HD
ENDBRANCH   4   6
BRANCH   4  10
ATOM     10  C   NNH d   1      13.821 -23.212  29.508  0.00  0.00     0.204 C 
ATOM     11  O   NNH d   1      14.435 -22.986  28.320  0.00  0.00    -0.646 OA
ATOM     12  OXT NNH d   1      14.194 -24.053  30.302  0.00  0.00    -0.646 OA
ENDBRANCH   4  10
ENDBRANCH   1   4
BRANCH   1  13
ATOM     13  CG  NNH d   1      13.844 -19.970  29.797  0.00  0.00     0.012 C 
ATOM     14  H7  NNH d   1      14.831 -20.445  29.698  0.00  0.00     0.065 H 
ATOM     15  H8  NNH d   1      13.608 -19.834  30.863  0.00  0.00     0.065 H 
BRANCH  13  16
ATOM     16  ND  NNH d   1      13.851 -18.654  29.114  0.00  0.00    -0.223 N 
ATOM     17  CE  NNH d   1      14.589 -17.642  29.365  0.00  0.00     0.718 C 
ATOM     18  NH1 NNH d   1      15.040 -17.457  30.533  0.00  0.00     0.095 NA
ATOM     19  NH2 NNH d   1      14.861 -16.808  28.435  0.00  0.00    -0.231 N 
ATOM     20  OH1 NNH d   1      15.789 -16.418  30.812  0.00  0.00    -0.044 OA
ATOM     21  H10 NNH d   1      15.456 -15.991  28.634  0.00  0.00     0.174 HD
ATOM     22  H11 NNH d   1      14.485 -16.953  27.487  0.00  0.00     0.174 HD
ATOM     23  H9  NNH d   1      13.178 -18.542  28.342  0.00  0.00     0.177 HD
ENDBRANCH  13  16
ENDBRANCH   1  13
TORSDOF 5
