REMARK  10 active torsions:
REMARK  status: ('A' for Active; 'I' for Inactive)
REMARK    1  A    between atoms: CA_3  and  N_2 
REMARK    2  A    between atoms: CA_3  and  C_4 
REMARK    3  A    between atoms: CA_3  and  CB_6 
REMARK    4  A    between atoms: CB_6  and  SG_7 
REMARK    5  A    between atoms: SG_7  and  CD_8 
REMARK    6  A    between atoms: CD_8  and  CE_9 
REMARK    7  A    between atoms: CE_9  and  B_10 
REMARK    8  A    between atoms: B_10  and  O2_12 
REMARK    9  A    between atoms: B_10  and  O3_13 
REMARK   10  A    between atoms: B_10  and  O1_11 
ROOT
ATOM      1  CD  S2C d   1      14.242 -18.639  -7.466  0.00  0.00    -0.029 C 
ATOM      2  H7  S2C d   1      14.132 -18.599  -6.372  0.00  0.00     0.047 H 
ATOM      3  H8  S2C d   1      13.433 -18.061  -7.937  0.00  0.00     0.047 H 
ENDROOT
BRANCH   1   4
ATOM      4  SG  S2C d   1      14.127 -20.373  -8.011  0.00  0.00    -0.167 SA
BRANCH   4   5
ATOM      5  CB  S2C d   1      12.469 -20.796  -7.372  0.00  0.00     0.013 C 
ATOM      6  H5  S2C d   1      12.460 -20.618  -6.287  0.00  0.00     0.052 H 
ATOM      7  H6  S2C d   1      11.732 -20.139  -7.857  0.00  0.00     0.052 H 
BRANCH   5   8
ATOM      8  CA  S2C d   1      12.058 -22.256  -7.627  0.00  0.00     0.190 C 
ATOM      9  H4  S2C d   1      11.317 -22.253  -8.440  0.00  0.00     0.102 H 
BRANCH   8  10
ATOM     10  N   S2C d   1      11.433 -22.731  -6.415  0.00  0.00    -0.065 N 
ATOM     11  H1  S2C d   1      10.704 -22.092  -6.140  0.00  0.00     0.275 HD
ATOM     12  H2  S2C d   1      12.122 -22.789  -5.682  0.00  0.00     0.275 HD
ATOM     13  H3  S2C d   1      11.037 -23.643  -6.577  0.00  0.00     0.275 HD
ENDBRANCH   8  10
BRANCH   8  14
ATOM     14  C   S2C d   1      13.160 -23.240  -8.025  0.00  0.00     0.205 C 
ATOM     15  OXT S2C d   1      13.771 -23.947  -7.262  0.00  0.00    -0.646 OA
ATOM     16  O   S2C d   1      13.386 -23.246  -9.362  0.00  0.00    -0.646 OA
ENDBRANCH   8  14
ENDBRANCH   5   8
ENDBRANCH   4   5
ENDBRANCH   1   4
BRANCH   1  17
ATOM     17  CE  S2C d   1      15.584 -18.023  -7.853  0.00  0.00    -0.061 C 
ATOM     18  H9  S2C d   1      16.383 -18.766  -7.712  0.00  0.00     0.024 H 
ATOM     19  H11 S2C d   1      15.554 -17.712  -8.908  0.00  0.00     0.024 H 
BRANCH  17  20
ATOM     20  B   S2C d   1      15.679 -16.514  -7.368  0.00  0.00     0.319 B 
BRANCH  20  21
ATOM     21  O2  S2C d   1      17.268 -16.017  -7.282  0.00  0.00     0.000 OA
ATOM     22  H13 S2C d   1      17.657 -16.053  -8.148  0.00  0.00     0.000 HD
ATOM     23  H14 S2C d   1      17.657 -16.053  -8.148  0.00  0.00     0.000 HD
ENDBRANCH  20  21
BRANCH  20  24
ATOM     24  O3  S2C d   1      14.832 -15.508  -8.402  0.00  0.00     0.000 OA
ATOM     25  H15 S2C d   1      13.927 -15.793  -8.449  0.00  0.00     0.000 HD
ATOM     26  H16 S2C d   1      13.927 -15.793  -8.449  0.00  0.00     0.000 HD
ENDBRANCH  20  24
BRANCH  20  27
ATOM     27  O1  S2C d   1      15.013 -16.366  -5.833  0.00  0.00    -0.467 OA
ATOM     28  H12 S2C d   1      15.360 -15.503  -6.200  0.00  0.00     0.181 HD
ENDBRANCH  20  27
ENDBRANCH  17  20
ENDBRANCH   1  17
TORSDOF 10
