REMARK WARNING: 32 MAX_TORS EXCEEDED!!!
REMARK  45 active torsions:
REMARK  status: ('A' for Active; 'I' for Inactive)
REMARK    1  A    between atoms: N_1  and  CA_2 
REMARK    2  A    between atoms: CA_2  and  C_3 
REMARK    3  A    between atoms: CA_2  and  CB_5 
REMARK       I    between atoms: C_3  and  N_8 
REMARK    4  A    between atoms: CB_5  and  OG1_6 
REMARK    5  A    between atoms: CB_5  and  CG2_7 
REMARK    6  A    between atoms: N_8  and  CA_9 
REMARK    7  A    between atoms: CA_9  and  C_10 
REMARK    8  A    between atoms: CA_9  and  CB_12 
REMARK       I    between atoms: C_10  and  N_17 
REMARK    9  A    between atoms: CB_12  and  CG_13 
REMARK   10  A    between atoms: CG_13  and  CD_14 
REMARK   11  A    between atoms: CD_14  and  CE_15 
REMARK   12  A    between atoms: CE_15  and  NZ_16 
REMARK   13  A    between atoms: N_17  and  CA_18 
REMARK   14  A    between atoms: CA_18  and  C_19 
REMARK   15  A    between atoms: CA_18  and  CB_21 
REMARK       I    between atoms: C_19  and  N_26 
REMARK   16  A    between atoms: CB_21  and  CG_22 
REMARK   17  A    between atoms: CG_22  and  CD_23 
REMARK       I    between atoms: CD_23  and  NE2_25 
REMARK   18  A    between atoms: N_26  and  CA_27 
REMARK   19  A    between atoms: CA_27  and  C_28 
REMARK   20  A    between atoms: CA_27  and  CB_30 
REMARK       I    between atoms: C_28  and  N_33 
REMARK   21  A    between atoms: CB_30  and  OG1_31 
REMARK   22  A    between atoms: CB_30  and  CG2_32 
REMARK   23  A    between atoms: N_33  and  CA_34 
REMARK   24  A    between atoms: CA_34  and  C_35 
REMARK   25  A    between atoms: CA_34  and  CB_37 
REMARK       I    between atoms: C_35  and  N_38 
REMARK   26  A    between atoms: N_38  and  CA_39 
REMARK   27  A    between atoms: CA_39  and  C_40 
REMARK   28  A    between atoms: CA_39  and  CB_42 
REMARK       I    between atoms: C_40  and  N_49 
REMARK   29  A    between atoms: CB_42  and  CG_43 
REMARK   30  A    between atoms: CG_43  and  CD_44 
REMARK   31  A    between atoms: CD_44  and  NE_45 
REMARK       I    between atoms: NE_45  and  CZ_46 
REMARK       I    between atoms: CZ_46  and  NH1_47 
REMARK   32  A    between atoms: N_49  and  CA_50 
REMARK   33  A    between atoms: CA_50  and  CB_51 
REMARK   34  A    between atoms: CA_50  and  C_56 
REMARK   35  A    between atoms: CB_51  and  CG_52 
REMARK   36  A    between atoms: CG_52  and  CD_53 
REMARK   37  A    between atoms: CD_53  and  CE_54 
REMARK   38  A    between atoms: CE_54  and  NZ_55 
REMARK   39  A    between atoms: NZ_55  and  CM1_58 
REMARK   40  A    between atoms: NZ_55  and  CM2_59 
REMARK   41  A    between atoms: NZ_55  and  CM3_60 
REMARK       I    between atoms: C_56  and  N_61 
REMARK   42  A    between atoms: N_61  and  CA_62 
REMARK   43  A    between atoms: CA_62  and  C_63 
REMARK   44  A    between atoms: CA_62  and  CB_65 
REMARK   45  A    between atoms: CB_65  and  OG_66 
ROOT
ATOM      1  CA  ALA d   1     -28.404  -7.289  -5.976  0.00  0.00     0.086 C 
ATOM      2  H39 ALA d   1     -27.584  -6.973  -5.314  0.00  0.00     0.086 H 
ENDROOT
BRANCH   1   3
ATOM      3  N   ALA d   1     -27.953  -8.426  -6.760  0.00  0.00    -0.346 N 
ATOM      4  C   THR d   1     -27.326  -9.446  -6.191  0.00  0.00     0.243 C 
ATOM      5  O   THR d   1     -27.101  -9.493  -4.984  0.00  0.00    -0.271 OA
ATOM      6  H38 ALA d   1     -28.119  -8.439  -7.746  0.00  0.00     0.163 HD
BRANCH   4   7
ATOM      7  CA  THR d   1     -26.870 -10.560  -7.125  0.00  0.00     0.113 C 
ATOM      8  H32 THR d   1     -27.314 -10.404  -8.119  0.00  0.00     0.091 H 
BRANCH   7   9
ATOM      9  N   THR d   1     -25.422 -10.488  -7.242  0.00  0.00    -0.344 N 
ATOM     10  C   GLN d   1     -24.858  -9.527  -7.946  0.00  0.00     0.241 C 
ATOM     11  O   GLN d   1     -25.504  -8.680  -8.529  0.00  0.00    -0.271 OA
ATOM     12  H31 THR d   1     -24.852 -11.171  -6.786  0.00  0.00     0.163 HD
BRANCH  10  13
ATOM     13  CA  GLN d   1     -23.353  -9.497  -7.973  0.00  0.00     0.090 C 
ATOM     14  H24 GLN d   1     -22.954 -10.485  -7.700  0.00  0.00     0.087 H 
BRANCH  13  15
ATOM     15  N   GLN d   1     -22.889  -9.144  -9.300  0.00  0.00    -0.346 N 
ATOM     16  C   LYS d   1     -23.089  -9.936 -10.341  0.00  0.00     0.241 C 
ATOM     17  O   LYS d   1     -23.590 -11.046 -10.246  0.00  0.00    -0.271 OA
ATOM     18  H23 GLN d   1     -22.405  -8.279  -9.432  0.00  0.00     0.163 HD
BRANCH  16  19
ATOM     19  CA  LYS d   1     -22.689  -9.366 -11.688  0.00  0.00     0.089 C 
ATOM     20  H11 LYS d   1     -21.715  -8.866 -11.585  0.00  0.00     0.087 H 
BRANCH  19  21
ATOM     21  N   LYS d   1     -22.573 -10.384 -12.709  0.00  0.00    -0.346 N 
ATOM     22  C   THR d   1     -21.493 -11.137 -12.812  0.00  0.00     0.251 C 
ATOM     23  O   THR d   1     -20.556 -11.048 -12.052  0.00  0.00    -0.271 OA
ATOM     24  H10 LYS d   1     -23.327 -10.521 -13.351  0.00  0.00     0.163 HD
BRANCH  22  25
ATOM     25  CA  THR d   1     -21.491 -12.156 -13.914  0.00  0.00     0.199 C 
ATOM     26  H4  THR d   1     -22.096 -11.791 -14.758  0.00  0.00     0.103 H 
BRANCH  25  27
ATOM     27  N   THR d   1     -20.146 -12.434 -14.395  0.00  0.00    -0.064 N 
ATOM     28  H1  THR d   1     -19.748 -11.594 -14.784  0.00  0.00     0.275 HD
ATOM     29  H2  THR d   1     -20.184 -13.148 -15.106  0.00  0.00     0.275 HD
ATOM     30  H3  THR d   1     -19.574 -12.753 -13.629  0.00  0.00     0.275 HD
ENDBRANCH  25  27
BRANCH  25  31
ATOM     31  CB  THR d   1     -22.128 -13.385 -13.323  0.00  0.00     0.068 C 
ATOM     32  H5  THR d   1     -23.180 -13.172 -13.085  0.00  0.00     0.086 H 
BRANCH  31  33
ATOM     33  OG1 THR d   1     -21.431 -13.731 -12.130  0.00  0.00    -0.393 OA
ATOM     34  H6  THR d   1     -21.484 -13.011 -11.513  0.00  0.00     0.210 HD
ENDBRANCH  31  33
BRANCH  31  35
ATOM     35  CG2 THR d   1     -22.065 -14.528 -14.299  0.00  0.00    -0.050 C 
ATOM     36  H7  THR d   1     -22.534 -15.417 -13.853  0.00  0.00     0.031 H 
ATOM     37  H8  THR d   1     -21.014 -14.748 -14.538  0.00  0.00     0.031 H 
ATOM     38  H9  THR d   1     -22.601 -14.254 -15.220  0.00  0.00     0.031 H 
ENDBRANCH  31  35
ENDBRANCH  25  31
ENDBRANCH  22  25
ENDBRANCH  19  21
BRANCH  19  39
ATOM     39  CB  LYS d   1     -23.737  -8.345 -12.094  0.00  0.00    -0.038 C 
ATOM     40  H12 LYS d   1     -23.689  -7.511 -11.378  0.00  0.00     0.036 H 
ATOM     41  H13 LYS d   1     -24.722  -8.830 -12.027  0.00  0.00     0.036 H 
BRANCH  39  42
ATOM     42  CG  LYS d   1     -23.601  -7.779 -13.460  0.00  0.00    -0.061 C 
ATOM     43  H14 LYS d   1     -23.977  -8.503 -14.198  0.00  0.00     0.033 H 
ATOM     44  H15 LYS d   1     -22.542  -7.562 -13.665  0.00  0.00     0.033 H 
BRANCH  42  45
ATOM     45  CD  LYS d   1     -24.402  -6.508 -13.548  0.00  0.00    -0.043 C 
ATOM     46  H16 LYS d   1     -24.023  -5.799 -12.798  0.00  0.00     0.035 H 
ATOM     47  H17 LYS d   1     -25.456  -6.739 -13.334  0.00  0.00     0.035 H 
BRANCH  45  48
ATOM     48  CE  LYS d   1     -24.314  -5.870 -14.901  0.00  0.00     0.080 C 
ATOM     49  H18 LYS d   1     -24.669  -6.584 -15.659  0.00  0.00     0.075 H 
ATOM     50  H19 LYS d   1     -23.266  -5.607 -15.107  0.00  0.00     0.075 H 
BRANCH  48  51
ATOM     51  NZ  LYS d   1     -25.135  -4.656 -14.963  0.00  0.00    -0.079 N 
ATOM     52  H20 LYS d   1     -25.059  -4.246 -15.881  0.00  0.00     0.274 HD
ATOM     53  H21 LYS d   1     -24.812  -3.996 -14.273  0.00  0.00     0.274 HD
ATOM     54  H22 LYS d   1     -26.098  -4.891 -14.778  0.00  0.00     0.274 HD
ENDBRANCH  48  51
ENDBRANCH  45  48
ENDBRANCH  42  45
ENDBRANCH  39  42
ENDBRANCH  19  39
ENDBRANCH  16  19
ENDBRANCH  13  15
BRANCH  13  55
ATOM     55  CB  GLN d   1     -22.902  -8.463  -6.958  0.00  0.00    -0.030 C 
ATOM     56  H25 GLN d   1     -23.129  -8.848  -5.953  0.00  0.00     0.037 H 
ATOM     57  H26 GLN d   1     -23.472  -7.539  -7.134  0.00  0.00     0.037 H 
BRANCH  55  58
ATOM     58  CG  GLN d   1     -21.446  -8.130  -7.011  0.00  0.00     0.011 C 
ATOM     59  H27 GLN d   1     -21.311  -7.073  -6.738  0.00  0.00     0.047 H 
ATOM     60  H28 GLN d   1     -21.079  -8.294  -8.035  0.00  0.00     0.047 H 
BRANCH  58  61
ATOM     61  CD  GLN d   1     -20.657  -8.975  -6.075  0.00  0.00     0.215 C 
ATOM     62  OE1 GLN d   1     -21.183  -9.489  -5.099  0.00  0.00    -0.274 OA
ATOM     63  NE2 GLN d   1     -19.383  -9.143  -6.373  0.00  0.00    -0.370 N 
ATOM     64  H29 GLN d   1     -18.801  -9.701  -5.782  0.00  0.00     0.159 HD
ATOM     65  H30 GLN d   1     -19.000  -8.713  -7.190  0.00  0.00     0.159 HD
ENDBRANCH  58  61
ENDBRANCH  55  58
ENDBRANCH  13  55
ENDBRANCH  10  13
ENDBRANCH   7   9
BRANCH   7  66
ATOM     66  CB  THR d   1     -27.342 -11.913  -6.593  0.00  0.00     0.060 C 
ATOM     67  H33 THR d   1     -27.045 -12.010  -5.538  0.00  0.00     0.086 H 
BRANCH  66  68
ATOM     68  OG1 THR d   1     -26.733 -12.958  -7.357  0.00  0.00    -0.393 OA
ATOM     69  H34 THR d   1     -27.025 -13.800  -7.028  0.00  0.00     0.210 HD
ENDBRANCH  66  68
BRANCH  66  70
ATOM     70  CG2 THR d   1     -28.858 -12.031  -6.699  0.00  0.00    -0.050 C 
ATOM     71  H35 THR d   1     -29.177 -13.010  -6.312  0.00  0.00     0.031 H 
ATOM     72  H36 THR d   1     -29.160 -11.937  -7.752  0.00  0.00     0.031 H 
ATOM     73  H37 THR d   1     -29.330 -11.232  -6.109  0.00  0.00     0.031 H 
ENDBRANCH  66  70
ENDBRANCH   7  66
ENDBRANCH   4   7
ENDBRANCH   1   3
BRANCH   1  74
ATOM     74  C   ALA d   1     -29.590  -7.691  -5.115  0.00  0.00     0.240 C 
ATOM     75  O   ALA d   1     -30.382  -8.540  -5.510  0.00  0.00    -0.271 OA
ATOM     76  N   ARG d   1     -29.760  -6.980  -4.010  0.00  0.00    -0.346 N 
ATOM     77  H43 ARG d   1     -29.083  -6.281  -3.780  0.00  0.00     0.163 HD
BRANCH  76  78
ATOM     78  CA  ARG d   1     -30.888  -7.175  -3.122  0.00  0.00     0.089 C 
ATOM     79  H44 ARG d   1     -31.624  -7.814  -3.631  0.00  0.00     0.087 H 
BRANCH  78  80
ATOM     80  C   ARG d   1     -31.552  -5.846  -2.801  0.00  0.00     0.241 C 
ATOM     81  O   ARG d   1     -30.930  -4.953  -2.277  0.00  0.00    -0.271 OA
ATOM     82  N   M3L d   1     -32.826  -5.719  -3.140  0.00  0.00    -0.346 N 
ATOM     83  H56 M3L d   1     -33.333  -6.523  -3.451  0.00  0.00     0.163 HD
BRANCH  82  84
ATOM     84  CA  M3L d   1     -33.518  -4.406  -3.067  0.00  0.00     0.089 C 
ATOM     85  H57 M3L d   1     -32.811  -3.646  -3.432  0.00  0.00     0.087 H 
BRANCH  84  86
ATOM     86  CB  M3L d   1     -34.730  -4.394  -3.992  0.00  0.00    -0.038 C 
ATOM     87  H58 M3L d   1     -35.440  -3.629  -3.644  0.00  0.00     0.036 H 
ATOM     88  H59 M3L d   1     -35.213  -5.382  -3.964  0.00  0.00     0.036 H 
BRANCH  86  89
ATOM     89  CG  M3L d   1     -34.326  -4.080  -5.425  0.00  0.00    -0.061 C 
ATOM     90  H60 M3L d   1     -34.103  -5.030  -5.933  0.00  0.00     0.033 H 
ATOM     91  H61 M3L d   1     -33.419  -3.458  -5.396  0.00  0.00     0.033 H 
BRANCH  89  92
ATOM     92  CD  M3L d   1     -35.379  -3.342  -6.244  0.00  0.00    -0.042 C 
ATOM     93  H62 M3L d   1     -35.173  -2.262  -6.226  0.00  0.00     0.035 H 
ATOM     94  H63 M3L d   1     -36.377  -3.532  -5.822  0.00  0.00     0.035 H 
BRANCH  92  95
ATOM     95  CE  M3L d   1     -35.323  -3.850  -7.676  0.00  0.00     0.084 C 
ATOM     96  H64 M3L d   1     -35.549  -4.926  -7.676  0.00  0.00     0.076 H 
ATOM     97  H65 M3L d   1     -34.308  -3.688  -8.067  0.00  0.00     0.076 H 
BRANCH  95  98
ATOM     98  NZ  M3L d   1     -36.273  -3.174  -8.552  0.00  0.00    -0.079 N 
BRANCH  98  99
ATOM     99  CM1 M3L d   1     -36.281  -1.754  -8.246  0.00  0.00     0.067 C 
ATOM    100  H66 M3L d   1     -36.997  -1.241  -8.905  0.00  0.00     0.068 H 
ATOM    101  H67 M3L d   1     -35.275  -1.339  -8.404  0.00  0.00     0.068 H 
ATOM    102  H68 M3L d   1     -36.578  -1.607  -7.197  0.00  0.00     0.068 H 
ENDBRANCH  98  99
BRANCH  98 103
ATOM    103  CM2 M3L d   1     -37.612  -3.735  -8.376  0.00  0.00     0.067 C 
ATOM    104  H69 M3L d   1     -37.593  -4.810  -8.610  0.00  0.00     0.068 H 
ATOM    105  H70 M3L d   1     -38.315  -3.225  -9.051  0.00  0.00     0.068 H 
ATOM    106  H71 M3L d   1     -37.935  -3.593  -7.334  0.00  0.00     0.068 H 
ENDBRANCH  98 103
BRANCH  98 107
ATOM    107  CM3 M3L d   1     -35.864  -3.384  -9.933  0.00  0.00     0.067 C 
ATOM    108  H72 M3L d   1     -34.857  -2.968 -10.085  0.00  0.00     0.068 H 
ATOM    109  H73 M3L d   1     -36.574  -2.881 -10.606  0.00  0.00     0.068 H 
ATOM    110  H74 M3L d   1     -35.852  -4.462 -10.152  0.00  0.00     0.068 H 
ENDBRANCH  98 107
ENDBRANCH  95  98
ENDBRANCH  92  95
ENDBRANCH  89  92
ENDBRANCH  86  89
ENDBRANCH  84  86
BRANCH  84 111
ATOM    111  C   M3L d   1     -33.906  -4.013  -1.684  0.00  0.00     0.241 C 
ATOM    112  O   M3L d   1     -34.242  -4.843  -0.862  0.00  0.00    -0.271 OA
ATOM    113  N   SER d   1     -33.852  -2.720  -1.415  0.00  0.00    -0.343 N 
ATOM    114  H75 SER d   1     -33.532  -2.085  -2.118  0.00  0.00     0.163 HD
BRANCH 113 115
ATOM    115  CA  SER d   1     -34.247  -2.209  -0.123  0.00  0.00     0.116 C 
ATOM    116  H76 SER d   1     -33.348  -1.986   0.471  0.00  0.00     0.093 H 
BRANCH 115 117
ATOM    117  C   SER d   1     -35.071  -3.261   0.585  0.00  0.00     0.198 C 
ATOM    118  O   SER d   1     -36.286  -3.052   0.846  0.00  0.00    -0.646 OA
ATOM    119  O   SER d   1     -34.539  -4.354   0.916  0.00  0.00    -0.646 OA
ENDBRANCH 115 117
BRANCH 115 120
ATOM    120  CB  SER d   1     -35.069  -0.935  -0.282  0.00  0.00     0.045 C 
ATOM    121  H77 SER d   1     -36.127  -1.210  -0.404  0.00  0.00     0.077 H 
ATOM    122  H78 SER d   1     -34.723  -0.401  -1.179  0.00  0.00     0.077 H 
BRANCH 120 123
ATOM    123  OG  SER d   1     -34.948  -0.080   0.829  0.00  0.00    -0.398 OA
ATOM    124  H79 SER d   1     -35.474   0.698   0.687  0.00  0.00     0.209 HD
ENDBRANCH 120 123
ENDBRANCH 115 120
ENDBRANCH 113 115
ENDBRANCH  84 111
ENDBRANCH  82  84
ENDBRANCH  78  80
BRANCH  78 125
ATOM    125  CB  ARG d   1     -30.439  -7.879  -1.851  0.00  0.00    -0.036 C 
ATOM    126  H45 ARG d   1     -29.779  -8.711  -2.136  0.00  0.00     0.036 H 
ATOM    127  H46 ARG d   1     -31.332  -8.275  -1.346  0.00  0.00     0.036 H 
BRANCH 125 128
ATOM    128  CG  ARG d   1     -29.693  -7.001  -0.869  0.00  0.00    -0.048 C 
ATOM    129  H47 ARG d   1     -30.236  -6.051  -0.759  0.00  0.00     0.035 H 
ATOM    130  H48 ARG d   1     -28.686  -6.804  -1.264  0.00  0.00     0.035 H 
BRANCH 128 131
ATOM    131  CD  ARG d   1     -29.562  -7.659   0.514  0.00  0.00     0.009 C 
ATOM    132  H49 ARG d   1     -29.476  -8.748   0.383  0.00  0.00     0.064 H 
ATOM    133  H50 ARG d   1     -30.462  -7.431   1.103  0.00  0.00     0.064 H 
BRANCH 131 134
ATOM    134  NE  ARG d   1     -28.391  -7.177   1.237  0.00  0.00    -0.227 N 
ATOM    135  CZ  ARG d   1     -28.274  -5.961   1.758  0.00  0.00     0.665 C 
ATOM    136  NH1 ARG d   1     -29.262  -5.082   1.639  0.00  0.00    -0.235 N 
ATOM    137  NH2 ARG d   1     -27.163  -5.623   2.401  0.00  0.00    -0.235 N 
ATOM    138  H52 ARG d   1     -29.165  -4.140   2.045  0.00  0.00     0.174 HD
ATOM    139  H53 ARG d   1     -30.125  -5.342   1.141  0.00  0.00     0.174 HD
ATOM    140  H54 ARG d   1     -26.395  -6.303   2.495  0.00  0.00     0.174 HD
ATOM    141  H55 ARG d   1     -27.069  -4.681   2.806  0.00  0.00     0.174 HD
ATOM    142  H51 ARG d   1     -27.599  -7.825   1.352  0.00  0.00     0.177 HD
ENDBRANCH 131 134
ENDBRANCH 128 131
ENDBRANCH 125 128
ENDBRANCH  78 125
ENDBRANCH  76  78
ENDBRANCH   1  74
BRANCH   1 143
ATOM    143  CB  ALA d   1     -28.765  -6.112  -6.896  0.00  0.00    -0.049 C 
ATOM    144  H40 ALA d   1     -29.104  -5.261  -6.287  0.00  0.00     0.030 H 
ATOM    145  H41 ALA d   1     -29.570  -6.416  -7.581  0.00  0.00     0.030 H 
ATOM    146  H42 ALA d   1     -27.880  -5.817  -7.478  0.00  0.00     0.030 H 
ENDBRANCH   1 143
TORSDOF 45
