REMARK WARNING: 32 MAX_TORS EXCEEDED!!!
REMARK  44 active torsions:
REMARK  status: ('A' for Active; 'I' for Inactive)
REMARK    1  A    between atoms: N_1  and  CA_2 
REMARK    2  A    between atoms: CA_2  and  C_3 
REMARK    3  A    between atoms: CA_2  and  CB_5 
REMARK       I    between atoms: C_3  and  N_8 
REMARK    4  A    between atoms: CB_5  and  OG1_6 
REMARK    5  A    between atoms: CB_5  and  CG2_7 
REMARK    6  A    between atoms: N_8  and  CA_9 
REMARK    7  A    between atoms: CA_9  and  C_10 
REMARK    8  A    between atoms: CA_9  and  CB_12 
REMARK       I    between atoms: C_10  and  N_17 
REMARK    9  A    between atoms: CB_12  and  CG_13 
REMARK   10  A    between atoms: CG_13  and  CD_14 
REMARK   11  A    between atoms: CD_14  and  CE_15 
REMARK   12  A    between atoms: CE_15  and  NZ_16 
REMARK   13  A    between atoms: N_17  and  CA_18 
REMARK   14  A    between atoms: CA_18  and  C_19 
REMARK   15  A    between atoms: CA_18  and  CB_21 
REMARK       I    between atoms: C_19  and  N_26 
REMARK   16  A    between atoms: CB_21  and  CG_22 
REMARK   17  A    between atoms: CG_22  and  CD_23 
REMARK       I    between atoms: CD_23  and  NE2_25 
REMARK   18  A    between atoms: N_26  and  CA_27 
REMARK   19  A    between atoms: CA_27  and  C_28 
REMARK   20  A    between atoms: CA_27  and  CB_30 
REMARK       I    between atoms: C_28  and  N_33 
REMARK   21  A    between atoms: CB_30  and  OG1_31 
REMARK   22  A    between atoms: CB_30  and  CG2_32 
REMARK   23  A    between atoms: N_33  and  CA_34 
REMARK   24  A    between atoms: CA_34  and  C_35 
REMARK   25  A    between atoms: CA_34  and  CB_37 
REMARK       I    between atoms: C_35  and  N_38 
REMARK   26  A    between atoms: N_38  and  CA_39 
REMARK   27  A    between atoms: CA_39  and  C_40 
REMARK   28  A    between atoms: CA_39  and  CB_42 
REMARK       I    between atoms: C_40  and  N_49 
REMARK   29  A    between atoms: CB_42  and  CG_43 
REMARK   30  A    between atoms: CG_43  and  CD_44 
REMARK   31  A    between atoms: CD_44  and  NE_45 
REMARK       I    between atoms: NE_45  and  CZ_46 
REMARK       I    between atoms: CZ_46  and  NH1_47 
REMARK   32  A    between atoms: N_49  and  CA_50 
REMARK   33  A    between atoms: CA_50  and  CB_51 
REMARK   34  A    between atoms: CA_50  and  C_58 
REMARK   35  A    between atoms: CB_51  and  CG_52 
REMARK   36  A    between atoms: CG_52  and  CD_53 
REMARK   37  A    between atoms: CD_53  and  CE_54 
REMARK   38  A    between atoms: CE_54  and  NZ_55 
REMARK   39  A    between atoms: NZ_55  and  CH1_56 
REMARK   40  A    between atoms: NZ_55  and  CH2_57 
REMARK       I    between atoms: C_58  and  N_60 
REMARK   41  A    between atoms: N_60  and  CA_61 
REMARK   42  A    between atoms: CA_61  and  C_62 
REMARK   43  A    between atoms: CA_61  and  CB_64 
REMARK   44  A    between atoms: CB_64  and  OG_65 
ROOT
ATOM      1  CA  NON d   1      29.005 -35.941   5.992  0.00  0.00     0.086 C 
ATOM      2  H39 NON d   1      28.148 -35.435   5.524  0.00  0.00     0.086 H 
ENDROOT
BRANCH   1   3
ATOM      3  N   NON d   1      28.510 -37.122   6.681  0.00  0.00    -0.346 N 
ATOM      4  C   NON d   1      27.631 -37.937   6.112  0.00  0.00     0.243 C 
ATOM      5  O   NON d   1      27.196 -37.769   4.971  0.00  0.00    -0.271 OA
ATOM      6  H38 NON d   1      28.839 -37.324   7.603  0.00  0.00     0.163 HD
BRANCH   4   7
ATOM      7  CA  NON d   1      27.172 -39.112   6.960  0.00  0.00     0.113 C 
ATOM      8  H32 NON d   1      27.594 -38.995   7.969  0.00  0.00     0.091 H 
BRANCH   7   9
ATOM      9  N   NON d   1      25.721 -39.125   7.082  0.00  0.00    -0.344 N 
ATOM     10  C   NON d   1      25.119 -38.617   8.150  0.00  0.00     0.241 C 
ATOM     11  O   NON d   1      25.738 -38.162   9.112  0.00  0.00    -0.271 OA
ATOM     12  H31 NON d   1      25.169 -39.523   6.349  0.00  0.00     0.163 HD
BRANCH  10  13
ATOM     13  CA  NON d   1      23.598 -38.619   8.136  0.00  0.00     0.090 C 
ATOM     14  H24 NON d   1      23.234 -39.634   7.920  0.00  0.00     0.087 H 
BRANCH  13  15
ATOM     15  N   NON d   1      23.113 -38.199   9.441  0.00  0.00    -0.346 N 
ATOM     16  C   NON d   1      23.186 -38.989  10.507  0.00  0.00     0.241 C 
ATOM     17  O   NON d   1      23.600 -40.147  10.461  0.00  0.00    -0.271 OA
ATOM     18  H23 NON d   1      22.712 -37.288   9.539  0.00  0.00     0.163 HD
BRANCH  16  19
ATOM     19  CA  NON d   1      22.728 -38.368  11.821  0.00  0.00     0.089 C 
ATOM     20  H11 NON d   1      21.825 -37.774  11.620  0.00  0.00     0.087 H 
BRANCH  19  21
ATOM     21  N   NON d   1      22.384 -39.370  12.824  0.00  0.00    -0.346 N 
ATOM     22  C   NON d   1      21.260 -40.076  12.744  0.00  0.00     0.251 C 
ATOM     23  O   NON d   1      20.451 -39.943  11.825  0.00  0.00    -0.271 OA
ATOM     24  H10 NON d   1      23.008 -39.529  13.589  0.00  0.00     0.163 HD
BRANCH  22  25
ATOM     25  CA  NON d   1      21.007 -41.077  13.869  0.00  0.00     0.199 C 
ATOM     26  H4  NON d   1      21.617 -40.785  14.736  0.00  0.00     0.103 H 
BRANCH  25  27
ATOM     27  N   NON d   1      19.607 -41.064  14.278  0.00  0.00    -0.064 N 
ATOM     28  H1  NON d   1      19.350 -40.133  14.567  0.00  0.00     0.275 HD
ATOM     29  H2  NON d   1      19.476 -41.702  15.047  0.00  0.00     0.275 HD
ATOM     30  H3  NON d   1      19.028 -41.347  13.503  0.00  0.00     0.275 HD
ENDBRANCH  25  27
BRANCH  25  31
ATOM     31  CB  NON d   1      21.450 -42.484  13.417  0.00  0.00     0.068 C 
ATOM     32  H5  NON d   1      21.327 -43.184  14.257  0.00  0.00     0.086 H 
BRANCH  31  33
ATOM     33  OG1 NON d   1      22.829 -42.454  13.028  0.00  0.00    -0.393 OA
ATOM     34  H6  NON d   1      22.941 -41.842  12.310  0.00  0.00     0.210 HD
ENDBRANCH  31  33
BRANCH  31  35
ATOM     35  CG2 NON d   1      20.604 -42.963  12.246  0.00  0.00    -0.050 C 
ATOM     36  H7  NON d   1      20.936 -43.966  11.940  0.00  0.00     0.031 H 
ATOM     37  H8  NON d   1      20.717 -42.266  11.402  0.00  0.00     0.031 H 
ATOM     38  H9  NON d   1      19.547 -43.003  12.549  0.00  0.00     0.031 H 
ENDBRANCH  31  35
ENDBRANCH  25  31
ENDBRANCH  22  25
ENDBRANCH  19  21
BRANCH  19  39
ATOM     39  CB  NON d   1      23.817 -37.427  12.339  0.00  0.00    -0.038 C 
ATOM     40  H12 NON d   1      24.257 -36.906  11.476  0.00  0.00     0.036 H 
ATOM     41  H13 NON d   1      24.589 -38.036  12.832  0.00  0.00     0.036 H 
BRANCH  39  42
ATOM     42  CG  NON d   1      23.341 -36.381  13.327  0.00  0.00    -0.061 C 
ATOM     43  H14 NON d   1      23.107 -36.866  14.286  0.00  0.00     0.033 H 
ATOM     44  H15 NON d   1      22.438 -35.893  12.933  0.00  0.00     0.033 H 
BRANCH  42  45
ATOM     45  CD  NON d   1      24.422 -35.336  13.544  0.00  0.00    -0.043 C 
ATOM     46  H16 NON d   1      24.510 -34.721  12.636  0.00  0.00     0.035 H 
ATOM     47  H17 NON d   1      25.377 -35.847  13.735  0.00  0.00     0.035 H 
BRANCH  45  48
ATOM     48  CE  NON d   1      24.107 -34.431  14.720  0.00  0.00     0.080 C 
ATOM     49  H18 NON d   1      23.915 -35.050  15.609  0.00  0.00     0.075 H 
ATOM     50  H19 NON d   1      23.211 -33.837  14.487  0.00  0.00     0.075 H 
BRANCH  48  51
ATOM     51  NZ  NON d   1      25.242 -33.510  15.004  0.00  0.00    -0.079 N 
ATOM     52  H20 NON d   1      25.008 -32.921  15.788  0.00  0.00     0.274 HD
ATOM     53  H21 NON d   1      25.421 -32.937  14.194  0.00  0.00     0.274 HD
ATOM     54  H22 NON d   1      26.065 -34.049  15.223  0.00  0.00     0.274 HD
ENDBRANCH  48  51
ENDBRANCH  45  48
ENDBRANCH  42  45
ENDBRANCH  39  42
ENDBRANCH  19  39
ENDBRANCH  16  19
ENDBRANCH  13  15
BRANCH  13  55
ATOM     55  CB  NON d   1      23.096 -37.662   7.055  0.00  0.00    -0.030 C 
ATOM     56  H25 NON d   1      23.139 -38.181   6.086  0.00  0.00     0.037 H 
ATOM     57  H26 NON d   1      23.762 -36.786   7.032  0.00  0.00     0.037 H 
BRANCH  55  58
ATOM     58  CG  NON d   1      21.675 -37.176   7.274  0.00  0.00     0.011 C 
ATOM     59  H27 NON d   1      21.662 -36.079   7.189  0.00  0.00     0.047 H 
ATOM     60  H28 NON d   1      21.355 -37.469   8.285  0.00  0.00     0.047 H 
BRANCH  58  61
ATOM     61  CD  NON d   1      20.698 -37.749   6.274  0.00  0.00     0.215 C 
ATOM     62  OE1 NON d   1      20.913 -37.668   5.065  0.00  0.00    -0.274 OA
ATOM     63  NE2 NON d   1      19.623 -38.345   6.772  0.00  0.00    -0.370 N 
ATOM     64  H29 NON d   1      18.942 -38.743   6.157  0.00  0.00     0.159 HD
ATOM     65  H30 NON d   1      19.494 -38.397   7.762  0.00  0.00     0.159 HD
ENDBRANCH  58  61
ENDBRANCH  55  58
ENDBRANCH  13  55
ENDBRANCH  10  13
ENDBRANCH   7   9
BRANCH   7  66
ATOM     66  CB  NON d   1      27.713 -40.422   6.368  0.00  0.00     0.060 C 
ATOM     67  H33 NON d   1      27.095 -40.713   5.506  0.00  0.00     0.086 H 
BRANCH  66  68
ATOM     68  OG1 NON d   1      27.662 -41.450   7.363  0.00  0.00    -0.393 OA
ATOM     69  H34 NON d   1      27.997 -42.260   6.997  0.00  0.00     0.210 HD
ENDBRANCH  66  68
BRANCH  66  70
ATOM     70  CG2 NON d   1      29.154 -40.242   5.916  0.00  0.00    -0.050 C 
ATOM     71  H35 NON d   1      29.527 -41.187   5.495  0.00  0.00     0.031 H 
ATOM     72  H36 NON d   1      29.775 -39.954   6.777  0.00  0.00     0.031 H 
ATOM     73  H37 NON d   1      29.202 -39.455   5.149  0.00  0.00     0.031 H 
ENDBRANCH  66  70
ENDBRANCH   7  66
ENDBRANCH   4   7
ENDBRANCH   1   3
BRANCH   1  74
ATOM     74  C   NON d   1      29.990 -36.311   4.894  0.00  0.00     0.240 C 
ATOM     75  O   NON d   1      30.649 -37.349   4.947  0.00  0.00    -0.271 OA
ATOM     76  N   NON d   1      30.065 -35.445   3.894  0.00  0.00    -0.346 N 
ATOM     77  H43 NON d   1      29.418 -34.683   3.877  0.00  0.00     0.163 HD
BRANCH  76  78
ATOM     78  CA  NON d   1      31.036 -35.546   2.826  0.00  0.00     0.089 C 
ATOM     79  H44 NON d   1      31.687 -36.424   2.949  0.00  0.00     0.087 H 
BRANCH  78  80
ATOM     80  C   NON d   1      31.821 -34.245   2.902  0.00  0.00     0.241 C 
ATOM     81  O   NON d   1      31.337 -33.227   2.415  0.00  0.00    -0.271 OA
ATOM     82  N   NON d   1      32.986 -34.232   3.525  0.00  0.00    -0.346 N 
ATOM     83  H56 NON d   1      33.335 -35.052   3.978  0.00  0.00     0.163 HD
BRANCH  82  84
ATOM     84  CA  NON d   1      33.756 -32.978   3.534  0.00  0.00     0.089 C 
ATOM     85  H57 NON d   1      33.063 -32.178   3.834  0.00  0.00     0.087 H 
BRANCH  84  86
ATOM     86  CB  NON d   1      34.894 -32.960   4.547  0.00  0.00    -0.038 C 
ATOM     87  H58 NON d   1      35.480 -32.040   4.407  0.00  0.00     0.036 H 
ATOM     88  H59 NON d   1      35.538 -33.835   4.375  0.00  0.00     0.036 H 
BRANCH  86  89
ATOM     89  CG  NON d   1      34.386 -33.002   5.955  0.00  0.00    -0.061 C 
ATOM     90  H60 NON d   1      33.946 -33.987   6.172  0.00  0.00     0.033 H 
ATOM     91  H61 NON d   1      33.628 -32.220   6.110  0.00  0.00     0.033 H 
BRANCH  89  92
ATOM     92  CD  NON d   1      35.575 -32.757   6.838  0.00  0.00    -0.042 C 
ATOM     93  H62 NON d   1      36.059 -31.816   6.538  0.00  0.00     0.035 H 
ATOM     94  H63 NON d   1      36.286 -33.588   6.724  0.00  0.00     0.035 H 
BRANCH  92  95
ATOM     95  CE  NON d   1      35.160 -32.660   8.271  0.00  0.00     0.083 C 
ATOM     96  H64 NON d   1      34.970 -33.666   8.673  0.00  0.00     0.075 H 
ATOM     97  H65 NON d   1      34.247 -32.053   8.355  0.00  0.00     0.075 H 
BRANCH  95  98
ATOM     98  NZ  NON d   1      36.252 -32.023   9.018  0.00  0.00    -0.079 N 
ATOM     99  H66 NON d   1      36.472 -31.124   8.619  0.00  0.00     0.278 HD
BRANCH  98 100
ATOM    100  CH1 NON d   1      35.865 -31.879  10.436  0.00  0.00     0.066 C 
ATOM    101  H67 NON d   1      36.685 -31.402  10.993  0.00  0.00     0.068 H 
ATOM    102  H68 NON d   1      35.661 -32.872  10.863  0.00  0.00     0.068 H 
ATOM    103  H69 NON d   1      34.961 -31.256  10.508  0.00  0.00     0.068 H 
ENDBRANCH  98 100
BRANCH  98 104
ATOM    104  CH2 NON d   1      37.400 -32.898   8.974  0.00  0.00     0.066 C 
ATOM    105  H70 NON d   1      37.720 -33.031   7.930  0.00  0.00     0.068 H 
ATOM    106  H71 NON d   1      37.133 -33.875   9.403  0.00  0.00     0.068 H 
ATOM    107  H72 NON d   1      38.222 -32.455   9.556  0.00  0.00     0.068 H 
ENDBRANCH  98 104
ENDBRANCH  95  98
ENDBRANCH  92  95
ENDBRANCH  89  92
ENDBRANCH  86  89
ENDBRANCH  84  86
BRANCH  84 108
ATOM    108  C   NON d   1      34.221 -32.662   2.128  0.00  0.00     0.241 C 
ATOM    109  O   NON d   1      34.593 -33.585   1.369  0.00  0.00    -0.271 OA
ATOM    110  N   NON d   1      34.184 -31.380   1.800  0.00  0.00    -0.343 N 
ATOM    111  H73 NON d   1      33.828 -30.727   2.469  0.00  0.00     0.163 HD
BRANCH 110 112
ATOM    112  CA  NON d   1      34.633 -30.878   0.521  0.00  0.00     0.116 C 
ATOM    113  H74 NON d   1      33.874 -31.107  -0.242  0.00  0.00     0.093 H 
BRANCH 112 114
ATOM    114  C   NON d   1      35.947 -31.536   0.120  0.00  0.00     0.198 C 
ATOM    115  O   NON d   1      36.942 -31.512   0.892  0.00  0.00    -0.646 OA
ATOM    116  O   NON d   1      36.040 -32.111  -0.997  0.00  0.00    -0.646 OA
ENDBRANCH 112 114
BRANCH 112 117
ATOM    117  CB  NON d   1      34.805 -29.365   0.618  0.00  0.00     0.045 C 
ATOM    118  H75 NON d   1      35.668 -29.142   1.263  0.00  0.00     0.077 H 
ATOM    119  H76 NON d   1      33.896 -28.927   1.057  0.00  0.00     0.077 H 
BRANCH 117 120
ATOM    120  OG  NON d   1      35.022 -28.796  -0.655  0.00  0.00    -0.398 OA
ATOM    121  H77 NON d   1      35.126 -27.856  -0.567  0.00  0.00     0.209 HD
ENDBRANCH 117 120
ENDBRANCH 112 117
ENDBRANCH 110 112
ENDBRANCH  84 108
ENDBRANCH  82  84
ENDBRANCH  78  80
BRANCH  78 122
ATOM    122  CB  NON d   1      30.298 -35.597   1.488  0.00  0.00    -0.036 C 
ATOM    123  H45 NON d   1      30.138 -34.561   1.154  0.00  0.00     0.036 H 
ATOM    124  H46 NON d   1      29.325 -36.081   1.660  0.00  0.00     0.036 H 
BRANCH 122 125
ATOM    125  CG  NON d   1      30.994 -36.344   0.363  0.00  0.00    -0.048 C 
ATOM    126  H47 NON d   1      30.777 -37.418   0.455  0.00  0.00     0.035 H 
ATOM    127  H48 NON d   1      32.079 -36.182   0.440  0.00  0.00     0.035 H 
BRANCH 125 128
ATOM    128  CD  NON d   1      30.509 -35.850  -1.000  0.00  0.00     0.009 C 
ATOM    129  H49 NON d   1      30.805 -36.583  -1.765  0.00  0.00     0.064 H 
ATOM    130  H50 NON d   1      30.988 -34.883  -1.214  0.00  0.00     0.064 H 
BRANCH 128 131
ATOM    131  NE  NON d   1      29.058 -35.675  -1.057  0.00  0.00    -0.227 N 
ATOM    132  CZ  NON d   1      28.415 -35.111  -2.076  0.00  0.00     0.665 C 
ATOM    133  NH1 NON d   1      27.094 -34.989  -2.049  0.00  0.00    -0.235 N 
ATOM    134  NH2 NON d   1      29.095 -34.666  -3.123  0.00  0.00    -0.235 N 
ATOM    135  H52 NON d   1      26.601 -34.552  -2.841  0.00  0.00     0.174 HD
ATOM    136  H53 NON d   1      26.562 -35.332  -1.237  0.00  0.00     0.174 HD
ATOM    137  H54 NON d   1      30.120 -34.759  -3.148  0.00  0.00     0.174 HD
ATOM    138  H55 NON d   1      28.598 -34.228  -3.911  0.00  0.00     0.174 HD
ATOM    139  H51 NON d   1      28.499 -36.009  -0.259  0.00  0.00     0.177 HD
ENDBRANCH 128 131
ENDBRANCH 125 128
ENDBRANCH 122 125
ENDBRANCH  78 122
ENDBRANCH  76  78
ENDBRANCH   1  74
BRANCH   1 140
ATOM    140  CB  NON d   1      29.644 -34.979   6.980  0.00  0.00    -0.049 C 
ATOM    141  H40 NON d   1      30.012 -34.093   6.443  0.00  0.00     0.030 H 
ATOM    142  H41 NON d   1      30.485 -35.477   7.485  0.00  0.00     0.030 H 
ATOM    143  H42 NON d   1      28.898 -34.671   7.727  0.00  0.00     0.030 H 
ENDBRANCH   1 140
TORSDOF 44
