REMARK WARNING: 32 MAX_TORS EXCEEDED!!!
REMARK  43 active torsions:
REMARK  status: ('A' for Active; 'I' for Inactive)
REMARK    1  A    between atoms: N_1  and  CA_2 
REMARK    2  A    between atoms: CA_2  and  C_3 
REMARK    3  A    between atoms: CA_2  and  CB_5 
REMARK       I    between atoms: C_3  and  N_8 
REMARK    4  A    between atoms: CB_5  and  OG1_6 
REMARK    5  A    between atoms: CB_5  and  CG2_7 
REMARK    6  A    between atoms: N_8  and  CA_9 
REMARK    7  A    between atoms: CA_9  and  C_10 
REMARK    8  A    between atoms: CA_9  and  CB_12 
REMARK       I    between atoms: C_10  and  N_17 
REMARK    9  A    between atoms: CB_12  and  CG_13 
REMARK   10  A    between atoms: CG_13  and  CD_14 
REMARK   11  A    between atoms: CD_14  and  CE_15 
REMARK   12  A    between atoms: CE_15  and  NZ_16 
REMARK   13  A    between atoms: N_17  and  CA_18 
REMARK   14  A    between atoms: CA_18  and  C_19 
REMARK   15  A    between atoms: CA_18  and  CB_21 
REMARK       I    between atoms: C_19  and  N_26 
REMARK   16  A    between atoms: CB_21  and  CG_22 
REMARK   17  A    between atoms: CG_22  and  CD_23 
REMARK       I    between atoms: CD_23  and  NE2_25 
REMARK   18  A    between atoms: N_26  and  CA_27 
REMARK   19  A    between atoms: CA_27  and  C_28 
REMARK   20  A    between atoms: CA_27  and  CB_30 
REMARK       I    between atoms: C_28  and  N_33 
REMARK   21  A    between atoms: CB_30  and  OG1_31 
REMARK   22  A    between atoms: CB_30  and  CG2_32 
REMARK   23  A    between atoms: N_33  and  CA_34 
REMARK   24  A    between atoms: CA_34  and  C_35 
REMARK   25  A    between atoms: CA_34  and  CB_37 
REMARK       I    between atoms: C_35  and  N_38 
REMARK   26  A    between atoms: N_38  and  CA_39 
REMARK   27  A    between atoms: CA_39  and  C_40 
REMARK   28  A    between atoms: CA_39  and  CB_42 
REMARK       I    between atoms: C_40  and  N_49 
REMARK   29  A    between atoms: CB_42  and  CG_43 
REMARK   30  A    between atoms: CG_43  and  CD_44 
REMARK   31  A    between atoms: CD_44  and  NE_45 
REMARK       I    between atoms: NE_45  and  CZ_46 
REMARK       I    between atoms: CZ_46  and  NH1_47 
REMARK   32  A    between atoms: N_49  and  CA_50 
REMARK   33  A    between atoms: CA_50  and  CB_51 
REMARK   34  A    between atoms: CA_50  and  C_57 
REMARK   35  A    between atoms: CB_51  and  CG_52 
REMARK   36  A    between atoms: CG_52  and  CD_53 
REMARK   37  A    between atoms: CD_53  and  CE_54 
REMARK   38  A    between atoms: CE_54  and  NZ_55 
REMARK   39  A    between atoms: NZ_55  and  CM_56 
REMARK       I    between atoms: C_57  and  N_59 
REMARK   40  A    between atoms: N_59  and  CA_60 
REMARK   41  A    between atoms: CA_60  and  C_61 
REMARK   42  A    between atoms: CA_60  and  CB_63 
REMARK   43  A    between atoms: CB_63  and  OG_64 
ROOT
ATOM      1  C   NON d   1      -4.432  -6.961  29.624  0.00  0.00     0.243 C 
ATOM      2  O   NON d   1      -4.407  -5.801  29.219  0.00  0.00    -0.271 OA
ATOM      3  N   NON d   1      -5.405  -7.438  30.392  0.00  0.00    -0.346 N 
ATOM      4  H38 NON d   1      -5.356  -8.386  30.706  0.00  0.00     0.163 HD
ENDROOT
BRANCH   3   5
ATOM      5  CA  NON d   1      -6.541  -6.618  30.789  0.00  0.00     0.086 C 
ATOM      6  H39 NON d   1      -6.771  -5.933  29.960  0.00  0.00     0.086 H 
BRANCH   5   7
ATOM      7  C   NON d   1      -6.231  -5.777  32.021  0.00  0.00     0.240 C 
ATOM      8  O   NON d   1      -5.583  -6.243  32.956  0.00  0.00    -0.271 OA
ATOM      9  N   NON d   1      -6.705  -4.536  32.015  0.00  0.00    -0.346 N 
ATOM     10  H43 NON d   1      -7.192  -4.205  31.207  0.00  0.00     0.163 HD
BRANCH   9  11
ATOM     11  CA  NON d   1      -6.533  -3.646  33.154  0.00  0.00     0.089 C 
ATOM     12  H44 NON d   1      -5.964  -4.181  33.928  0.00  0.00     0.087 H 
BRANCH  11  13
ATOM     13  C   NON d   1      -7.886  -3.256  33.735  0.00  0.00     0.241 C 
ATOM     14  O   NON d   1      -8.676  -2.574  33.085  0.00  0.00    -0.271 OA
ATOM     15  N   NON d   1      -8.148  -3.698  34.959  0.00  0.00    -0.346 N 
ATOM     16  H56 NON d   1      -7.461  -4.247  35.435  0.00  0.00     0.163 HD
BRANCH  15  17
ATOM     17  CA  NON d   1      -9.437  -3.399  35.643  0.00  0.00     0.089 C 
ATOM     18  H57 NON d   1     -10.253  -3.520  34.916  0.00  0.00     0.087 H 
BRANCH  17  19
ATOM     19  CB  NON d   1      -9.652  -4.376  36.792  0.00  0.00    -0.038 C 
ATOM     20  H58 NON d   1     -10.704  -4.330  37.111  0.00  0.00     0.036 H 
ATOM     21  H59 NON d   1      -9.002  -4.092  37.632  0.00  0.00     0.036 H 
BRANCH  19  22
ATOM     22  CG  NON d   1      -9.322  -5.801  36.367  0.00  0.00    -0.061 C 
ATOM     23  H60 NON d   1      -8.310  -5.822  35.937  0.00  0.00     0.033 H 
ATOM     24  H61 NON d   1     -10.049  -6.127  35.609  0.00  0.00     0.033 H 
BRANCH  22  25
ATOM     25  CD  NON d   1      -9.379  -6.756  37.554  0.00  0.00    -0.043 C 
ATOM     26  H62 NON d   1      -9.623  -6.186  38.463  0.00  0.00     0.035 H 
ATOM     27  H63 NON d   1      -8.398  -7.238  37.675  0.00  0.00     0.035 H 
BRANCH  25  28
ATOM     28  CE  NON d   1     -10.438  -7.830  37.341  0.00  0.00     0.081 C 
ATOM     29  H64 NON d   1     -10.450  -8.110  36.277  0.00  0.00     0.075 H 
ATOM     30  H65 NON d   1     -11.419  -7.422  37.624  0.00  0.00     0.075 H 
BRANCH  28  31
ATOM     31  NZ  NON d   1     -10.179  -9.016  38.133  0.00  0.00    -0.079 N 
ATOM     32  H66 NON d   1     -10.663  -8.893  39.009  0.00  0.00     0.276 HD
ATOM     33  H67 NON d   1      -9.185  -9.044  38.299  0.00  0.00     0.276 HD
BRANCH  31  34
ATOM     34  CM  NON d   1     -10.556 -10.320  37.626  0.00  0.00     0.065 C 
ATOM     35  H68 NON d   1     -10.282 -11.092  38.360  0.00  0.00     0.067 H 
ATOM     36  H69 NON d   1     -10.030 -10.511  36.679  0.00  0.00     0.067 H 
ATOM     37  H70 NON d   1     -11.642 -10.347  37.454  0.00  0.00     0.067 H 
ENDBRANCH  31  34
ENDBRANCH  28  31
ENDBRANCH  25  28
ENDBRANCH  22  25
ENDBRANCH  19  22
ENDBRANCH  17  19
BRANCH  17  38
ATOM     38  C   NON d   1      -9.470  -1.994  36.168  0.00  0.00     0.241 C 
ATOM     39  O   NON d   1      -8.430  -1.386  36.410  0.00  0.00    -0.271 OA
ATOM     40  N   NON d   1     -10.675  -1.464  36.349  0.00  0.00    -0.343 N 
ATOM     41  H71 NON d   1     -11.485  -2.010  36.135  0.00  0.00     0.163 HD
BRANCH  40  42
ATOM     42  CA  NON d   1     -10.845  -0.107  36.852  0.00  0.00     0.116 C 
ATOM     43  H72 NON d   1     -10.092   0.534  36.370  0.00  0.00     0.093 H 
BRANCH  42  44
ATOM     44  C   NON d   1     -10.629  -0.045  38.359  0.00  0.00     0.198 C 
ATOM     45  O   NON d   1     -10.160   0.992  38.899  0.00  0.00    -0.646 OA
ATOM     46  O   NON d   1     -10.923  -1.041  39.072  0.00  0.00    -0.646 OA
ENDBRANCH  42  44
BRANCH  42  47
ATOM     47  CB  NON d   1     -12.234   0.429  36.496  0.00  0.00     0.045 C 
ATOM     48  H73 NON d   1     -12.249   0.708  35.432  0.00  0.00     0.077 H 
ATOM     49  H74 NON d   1     -12.445   1.316  37.111  0.00  0.00     0.077 H 
BRANCH  47  50
ATOM     50  OG  NON d   1     -13.234  -0.547  36.733  0.00  0.00    -0.398 OA
ATOM     51  H75 NON d   1     -13.058  -1.314  36.201  0.00  0.00     0.209 HD
ENDBRANCH  47  50
ENDBRANCH  42  47
ENDBRANCH  40  42
ENDBRANCH  17  38
ENDBRANCH  15  17
ENDBRANCH  11  13
BRANCH  11  52
ATOM     52  CB  NON d   1      -5.743  -2.398  32.753  0.00  0.00    -0.036 C 
ATOM     53  H45 NON d   1      -4.756  -2.718  32.387  0.00  0.00     0.036 H 
ATOM     54  H46 NON d   1      -5.616  -1.769  33.647  0.00  0.00     0.036 H 
BRANCH  52  55
ATOM     55  CG  NON d   1      -6.402  -1.560  31.672  0.00  0.00    -0.048 C 
ATOM     56  H47 NON d   1      -7.362  -1.179  32.050  0.00  0.00     0.035 H 
ATOM     57  H48 NON d   1      -6.579  -2.190  30.788  0.00  0.00     0.035 H 
BRANCH  55  58
ATOM     58  CD  NON d   1      -5.525  -0.383  31.273  0.00  0.00     0.009 C 
ATOM     59  H49 NON d   1      -4.495  -0.740  31.130  0.00  0.00     0.064 H 
ATOM     60  H50 NON d   1      -5.545   0.365  32.080  0.00  0.00     0.064 H 
BRANCH  58  61
ATOM     61  NE  NON d   1      -5.983   0.245  30.036  0.00  0.00    -0.227 N 
ATOM     62  CZ  NON d   1      -6.835   1.264  29.985  0.00  0.00     0.665 C 
ATOM     63  NH1 NON d   1      -7.197   1.770  28.814  0.00  0.00    -0.235 N 
ATOM     64  NH2 NON d   1      -7.326   1.777  31.104  0.00  0.00    -0.235 N 
ATOM     65  H52 NON d   1      -7.857   2.560  28.776  0.00  0.00     0.174 HD
ATOM     66  H53 NON d   1      -6.818   1.373  27.942  0.00  0.00     0.174 HD
ATOM     67  H54 NON d   1      -7.047   1.387  32.015  0.00  0.00     0.174 HD
ATOM     68  H55 NON d   1      -7.987   2.566  31.062  0.00  0.00     0.174 HD
ATOM     69  H51 NON d   1      -5.622  -0.126  29.145  0.00  0.00     0.177 HD
ENDBRANCH  58  61
ENDBRANCH  55  58
ENDBRANCH  52  55
ENDBRANCH  11  52
ENDBRANCH   9  11
ENDBRANCH   5   7
BRANCH   5  70
ATOM     70  CB  NON d   1      -7.760  -7.490  31.039  0.00  0.00    -0.049 C 
ATOM     71  H40 NON d   1      -8.609  -6.857  31.338  0.00  0.00     0.030 H 
ATOM     72  H41 NON d   1      -7.538  -8.209  31.842  0.00  0.00     0.030 H 
ATOM     73  H42 NON d   1      -8.016  -8.036  30.119  0.00  0.00     0.030 H 
ENDBRANCH   5  70
ENDBRANCH   3   5
BRANCH   1  74
ATOM     74  CA  NON d   1      -3.324  -7.940  29.257  0.00  0.00     0.113 C 
ATOM     75  H32 NON d   1      -3.561  -8.918  29.701  0.00  0.00     0.091 H 
BRANCH  74  76
ATOM     76  N   NON d   1      -3.239  -8.108  27.813  0.00  0.00    -0.344 N 
ATOM     77  C   NON d   1      -4.105  -8.866  27.151  0.00  0.00     0.241 C 
ATOM     78  O   NON d   1      -5.021  -9.474  27.703  0.00  0.00    -0.271 OA
ATOM     79  H31 NON d   1      -2.512  -7.642  27.309  0.00  0.00     0.163 HD
BRANCH  77  80
ATOM     80  CA  NON d   1      -3.908  -8.955  25.644  0.00  0.00     0.090 C 
ATOM     81  H24 NON d   1      -2.829  -9.002  25.436  0.00  0.00     0.087 H 
BRANCH  80  82
ATOM     82  N   NON d   1      -4.532 -10.160  25.113  0.00  0.00    -0.346 N 
ATOM     83  C   NON d   1      -3.818 -11.236  24.805  0.00  0.00     0.241 C 
ATOM     84  O   NON d   1      -2.596 -11.286  24.928  0.00  0.00    -0.271 OA
ATOM     85  H23 NON d   1      -5.523 -10.177  24.977  0.00  0.00     0.163 HD
BRANCH  83  86
ATOM     86  CA  NON d   1      -4.599 -12.433  24.278  0.00  0.00     0.089 C 
ATOM     87  H11 NON d   1      -5.218 -12.100  23.432  0.00  0.00     0.087 H 
BRANCH  86  88
ATOM     88  N   NON d   1      -3.696 -13.474  23.805  0.00  0.00    -0.346 N 
ATOM     89  C   NON d   1      -2.909 -13.289  22.751  0.00  0.00     0.251 C 
ATOM     90  O   NON d   1      -2.889 -12.243  22.106  0.00  0.00    -0.271 OA
ATOM     91  H10 NON d   1      -3.668 -14.350  24.286  0.00  0.00     0.163 HD
BRANCH  89  92
ATOM     92  CA  NON d   1      -2.009 -14.458  22.369  0.00  0.00     0.199 C 
ATOM     93  H4  NON d   1      -2.591 -15.388  22.444  0.00  0.00     0.103 H 
BRANCH  92  94
ATOM     94  N   NON d   1      -1.534 -14.331  20.997  0.00  0.00    -0.064 N 
ATOM     95  H1  NON d   1      -2.323 -14.287  20.371  0.00  0.00     0.275 HD
ATOM     96  H2  NON d   1      -0.964 -15.129  20.763  0.00  0.00     0.275 HD
ATOM     97  H3  NON d   1      -0.986 -13.489  20.908  0.00  0.00     0.275 HD
ENDBRANCH  92  94
BRANCH  92  98
ATOM     98  CB  NON d   1      -0.840 -14.530  23.365  0.00  0.00     0.068 C 
ATOM     99  H5  NON d   1      -1.187 -15.008  24.293  0.00  0.00     0.086 H 
BRANCH  98 100
ATOM    100  OG1 NON d   1      -0.379 -13.205  23.657  0.00  0.00    -0.393 OA
ATOM    101  H6  NON d   1      -1.089 -12.700  24.037  0.00  0.00     0.210 HD
ENDBRANCH  98 100
BRANCH  98 102
ATOM    102  CG2 NON d   1       0.303 -15.344  22.784  0.00  0.00    -0.050 C 
ATOM    103  H7  NON d   1       1.129 -15.385  23.509  0.00  0.00     0.031 H 
ATOM    104  H8  NON d   1       0.654 -14.872  21.854  0.00  0.00     0.031 H 
ATOM    105  H9  NON d   1      -0.046 -16.364  22.568  0.00  0.00     0.031 H 
ENDBRANCH  98 102
ENDBRANCH  92  98
ENDBRANCH  89  92
ENDBRANCH  86  88
BRANCH  86 106
ATOM    106  CB  NON d   1      -5.520 -12.978  25.370  0.00  0.00    -0.038 C 
ATOM    107  H12 NON d   1      -5.546 -12.250  26.195  0.00  0.00     0.036 H 
ATOM    108  H13 NON d   1      -5.101 -13.928  25.732  0.00  0.00     0.036 H 
BRANCH 106 109
ATOM    109  CG  NON d   1      -6.946 -13.230  24.912  0.00  0.00    -0.061 C 
ATOM    110  H14 NON d   1      -6.941 -14.014  24.141  0.00  0.00     0.033 H 
ATOM    111  H15 NON d   1      -7.356 -12.301  24.488  0.00  0.00     0.033 H 
BRANCH 109 112
ATOM    112  CD  NON d   1      -7.826 -13.677  26.067  0.00  0.00    -0.043 C 
ATOM    113  H16 NON d   1      -8.390 -12.811  26.443  0.00  0.00     0.035 H 
ATOM    114  H17 NON d   1      -7.188 -14.076  26.870  0.00  0.00     0.035 H 
BRANCH 112 115
ATOM    115  CE  NON d   1      -8.806 -14.755  25.632  0.00  0.00     0.080 C 
ATOM    116  H18 NON d   1      -8.255 -15.541  25.095  0.00  0.00     0.075 H 
ATOM    117  H19 NON d   1      -9.553 -14.306  24.960  0.00  0.00     0.075 H 
BRANCH 115 118
ATOM    118  NZ  NON d   1      -9.509 -15.368  26.791  0.00  0.00    -0.079 N 
ATOM    119  H20 NON d   1     -10.147 -16.075  26.461  0.00  0.00     0.274 HD
ATOM    120  H21 NON d   1     -10.023 -14.657  27.287  0.00  0.00     0.274 HD
ATOM    121  H22 NON d   1      -8.833 -15.788  27.410  0.00  0.00     0.274 HD
ENDBRANCH 115 118
ENDBRANCH 112 115
ENDBRANCH 109 112
ENDBRANCH 106 109
ENDBRANCH  86 106
ENDBRANCH  83  86
ENDBRANCH  80  82
BRANCH  80 122
ATOM    122  CB  NON d   1      -4.480  -7.710  24.964  0.00  0.00    -0.030 C 
ATOM    123  H25 NON d   1      -3.861  -6.846  25.247  0.00  0.00     0.037 H 
ATOM    124  H26 NON d   1      -5.507  -7.559  25.327  0.00  0.00     0.037 H 
BRANCH 122 125
ATOM    125  CG  NON d   1      -4.517  -7.795  23.448  0.00  0.00     0.011 C 
ATOM    126  H27 NON d   1      -5.492  -8.201  23.142  0.00  0.00     0.047 H 
ATOM    127  H28 NON d   1      -3.717  -8.472  23.113  0.00  0.00     0.047 H 
BRANCH 125 128
ATOM    128  CD  NON d   1      -4.322  -6.448  22.785  0.00  0.00     0.215 C 
ATOM    129  OE1 NON d   1      -4.241  -5.420  23.455  0.00  0.00    -0.274 OA
ATOM    130  NE2 NON d   1      -4.247  -6.446  21.460  0.00  0.00    -0.370 N 
ATOM    131  H29 NON d   1      -4.119  -5.585  20.968  0.00  0.00     0.159 HD
ATOM    132  H30 NON d   1      -4.319  -7.305  20.954  0.00  0.00     0.159 HD
ENDBRANCH 125 128
ENDBRANCH 122 125
ENDBRANCH  80 122
ENDBRANCH  77  80
ENDBRANCH  74  76
BRANCH  74 133
ATOM    133  CB  NON d   1      -1.993  -7.450  29.847  0.00  0.00     0.060 C 
ATOM    134  H33 NON d   1      -1.965  -6.351  29.811  0.00  0.00     0.086 H 
BRANCH 133 135
ATOM    135  OG1 NON d   1      -0.907  -7.979  29.077  0.00  0.00    -0.393 OA
ATOM    136  H34 NON d   1      -0.084  -7.676  29.442  0.00  0.00     0.210 HD
ENDBRANCH 133 135
BRANCH 133 137
ATOM    137  CG2 NON d   1      -1.852  -7.905  31.289  0.00  0.00    -0.050 C 
ATOM    138  H35 NON d   1      -0.895  -7.546  31.695  0.00  0.00     0.031 H 
ATOM    139  H36 NON d   1      -1.879  -9.004  31.331  0.00  0.00     0.031 H 
ATOM    140  H37 NON d   1      -2.680  -7.495  31.886  0.00  0.00     0.031 H 
ENDBRANCH 133 137
ENDBRANCH  74 133
ENDBRANCH   1  74
TORSDOF 43
