REMARK WARNING: 32 MAX_TORS EXCEEDED!!!
REMARK  49 active torsions:
REMARK  status: ('A' for Active; 'I' for Inactive)
REMARK    1  A    between atoms: N_1  and  CA_2 
REMARK    2  A    between atoms: CA_2  and  C_3 
REMARK    3  A    between atoms: CA_2  and  CB_5 
REMARK       I    between atoms: C_3  and  N_8 
REMARK    4  A    between atoms: CB_5  and  OG1_6 
REMARK    5  A    between atoms: CB_5  and  CG2_7 
REMARK    6  A    between atoms: N_8  and  CA_9 
REMARK    7  A    between atoms: CA_9  and  CB_10 
REMARK    8  A    between atoms: CA_9  and  C_16 
REMARK    9  A    between atoms: CB_10  and  CG_11 
REMARK   10  A    between atoms: CG_11  and  CD_12 
REMARK   11  A    between atoms: CD_12  and  CE_13 
REMARK   12  A    between atoms: CE_13  and  NZ_14 
REMARK   13  A    between atoms: NZ_14  and  CM_15 
REMARK       I    between atoms: C_16  and  N_18 
REMARK   14  A    between atoms: N_18  and  CA_19 
REMARK   15  A    between atoms: CA_19  and  C_20 
REMARK   16  A    between atoms: CA_19  and  CB_22 
REMARK       I    between atoms: C_20  and  N_27 
REMARK   17  A    between atoms: CB_22  and  CG_23 
REMARK   18  A    between atoms: CG_23  and  CD_24 
REMARK       I    between atoms: CD_24  and  NE2_26 
REMARK   19  A    between atoms: N_27  and  CA_28 
REMARK   20  A    between atoms: CA_28  and  C_29 
REMARK   21  A    between atoms: CA_28  and  CB_31 
REMARK       I    between atoms: C_29  and  N_34 
REMARK   22  A    between atoms: CB_31  and  OG1_32 
REMARK   23  A    between atoms: CB_31  and  CG2_33 
REMARK   24  A    between atoms: N_34  and  CA_35 
REMARK   25  A    between atoms: CA_35  and  C_36 
REMARK   26  A    between atoms: CA_35  and  CB_38 
REMARK       I    between atoms: C_36  and  N_39 
REMARK   27  A    between atoms: N_39  and  CA_40 
REMARK   28  A    between atoms: CA_40  and  C_41 
REMARK   29  A    between atoms: CA_40  and  CB_43 
REMARK       I    between atoms: C_41  and  N_50 
REMARK   30  A    between atoms: CB_43  and  CG_44 
REMARK   31  A    between atoms: CG_44  and  CD_45 
REMARK   32  A    between atoms: CD_45  and  NE_46 
REMARK       I    between atoms: NE_46  and  CZ_47 
REMARK       I    between atoms: CZ_47  and  NH1_48 
REMARK   33  A    between atoms: N_50  and  CA_51 
REMARK   34  A    between atoms: CA_51  and  CB_52 
REMARK   35  A    between atoms: CA_51  and  C_58 
REMARK   36  A    between atoms: CB_52  and  CG_53 
REMARK   37  A    between atoms: CG_53  and  CD_54 
REMARK   38  A    between atoms: CD_54  and  CE_55 
REMARK   39  A    between atoms: CE_55  and  NZ_56 
REMARK   40  A    between atoms: NZ_56  and  CM_57 
REMARK       I    between atoms: C_58  and  N_60 
REMARK   41  A    between atoms: N_60  and  CA_61 
REMARK   42  A    between atoms: CA_61  and  C_62 
REMARK   43  A    between atoms: CA_61  and  CB_64 
REMARK       I    between atoms: C_62  and  N_66 
REMARK   44  A    between atoms: CB_64  and  OG_65 
REMARK   45  A    between atoms: N_66  and  CA_67 
REMARK   46  A    between atoms: CA_67  and  C_68 
REMARK   47  A    between atoms: CA_67  and  CB_70 
REMARK   48  A    between atoms: CB_70  and  OG1_71 
REMARK   49  A    between atoms: CB_70  and  CG2_72 
ROOT
ATOM      1  CA  NON d   1      -6.529 -47.967  30.619  0.00  0.00     0.086 C 
ATOM      2  H41 NON d   1      -5.834 -47.712  29.805  0.00  0.00     0.086 H 
ENDROOT
BRANCH   1   3
ATOM      3  N   NON d   1      -7.428 -48.994  30.129  0.00  0.00    -0.346 N 
ATOM      4  C   NON d   1      -6.964 -50.033  29.457  0.00  0.00     0.243 C 
ATOM      5  O   NON d   1      -5.782 -50.167  29.195  0.00  0.00    -0.271 OA
ATOM      6  H40 NON d   1      -8.410 -48.915  30.302  0.00  0.00     0.163 HD
BRANCH   4   7
ATOM      7  CA  NON d   1      -7.970 -51.083  29.048  0.00  0.00     0.113 C 
ATOM      8  H34 NON d   1      -8.979 -50.732  29.310  0.00  0.00     0.091 H 
BRANCH   7   9
ATOM      9  N   NON d   1      -7.928 -51.338  27.627  0.00  0.00    -0.344 N 
ATOM     10  C   NON d   1      -8.719 -50.651  26.828  0.00  0.00     0.241 C 
ATOM     11  O   NON d   1      -9.507 -49.832  27.261  0.00  0.00    -0.271 OA
ATOM     12  H33 NON d   1      -7.306 -52.027  27.254  0.00  0.00     0.163 HD
BRANCH  10  13
ATOM     13  CA  NON d   1      -8.620 -50.916  25.338  0.00  0.00     0.090 C 
ATOM     14  H26 NON d   1      -8.540 -51.999  25.163  0.00  0.00     0.087 H 
BRANCH  13  15
ATOM     15  N   NON d   1      -9.820 -50.411  24.699  0.00  0.00    -0.346 N 
ATOM     16  C   NON d   1     -11.006 -50.936  24.953  0.00  0.00     0.241 C 
ATOM     17  O   NON d   1     -11.154 -51.897  25.685  0.00  0.00    -0.271 OA
ATOM     18  H25 NON d   1      -9.749 -49.651  24.053  0.00  0.00     0.163 HD
BRANCH  16  19
ATOM     19  CA  NON d   1     -12.176 -50.292  24.304  0.00  0.00     0.089 C 
ATOM     20  H11 NON d   1     -11.843 -49.638  23.484  0.00  0.00     0.087 H 
BRANCH  19  21
ATOM     21  N   NON d   1     -13.124 -51.315  23.791  0.00  0.00    -0.346 N 
ATOM     22  C   NON d   1     -13.395 -51.468  22.501  0.00  0.00     0.251 C 
ATOM     23  O   NON d   1     -12.825 -50.849  21.616  0.00  0.00    -0.271 OA
ATOM     24  H10 NON d   1     -13.579 -51.916  24.448  0.00  0.00     0.163 HD
BRANCH  22  25
ATOM     25  CA  NON d   1     -14.477 -52.477  22.173  0.00  0.00     0.199 C 
ATOM     26  H4  NON d   1     -15.452 -52.052  22.455  0.00  0.00     0.103 H 
BRANCH  25  27
ATOM     27  N   NON d   1     -14.529 -52.812  20.754  0.00  0.00    -0.064 N 
ATOM     28  H1  NON d   1     -14.706 -51.977  20.218  0.00  0.00     0.275 HD
ATOM     29  H2  NON d   1     -15.269 -53.477  20.593  0.00  0.00     0.275 HD
ATOM     30  H3  NON d   1     -13.649 -53.213  20.471  0.00  0.00     0.275 HD
ENDBRANCH  25  27
BRANCH  25  31
ATOM     31  CB  NON d   1     -14.215 -53.696  23.013  0.00  0.00     0.068 C 
ATOM     32  H5  NON d   1     -14.593 -53.534  24.033  0.00  0.00     0.086 H 
BRANCH  31  33
ATOM     33  OG1 NON d   1     -12.811 -53.933  23.046  0.00  0.00    -0.393 OA
ATOM     34  H6  NON d   1     -12.633 -54.702  23.575  0.00  0.00     0.210 HD
ENDBRANCH  31  33
BRANCH  31  35
ATOM     35  CG2 NON d   1     -14.891 -54.878  22.408  0.00  0.00    -0.050 C 
ATOM     36  H7  NON d   1     -14.697 -55.767  23.026  0.00  0.00     0.031 H 
ATOM     37  H8  NON d   1     -14.501 -55.044  21.393  0.00  0.00     0.031 H 
ATOM     38  H9  NON d   1     -15.975 -54.695  22.359  0.00  0.00     0.031 H 
ENDBRANCH  31  35
ENDBRANCH  25  31
ENDBRANCH  22  25
ENDBRANCH  19  21
BRANCH  19  39
ATOM     39  CB  NON d   1     -12.901 -49.494  25.371  0.00  0.00    -0.038 C 
ATOM     40  H12 NON d   1     -12.402 -49.680  26.333  0.00  0.00     0.036 H 
ATOM     41  H13 NON d   1     -13.939 -49.855  25.420  0.00  0.00     0.036 H 
BRANCH  39  42
ATOM     42  CG  NON d   1     -12.936 -47.995  25.143  0.00  0.00    -0.061 C 
ATOM     43  H14 NON d   1     -13.447 -47.780  24.193  0.00  0.00     0.033 H 
ATOM     44  H15 NON d   1     -11.908 -47.605  25.103  0.00  0.00     0.033 H 
BRANCH  42  45
ATOM     45  CD  NON d   1     -13.688 -47.329  26.287  0.00  0.00    -0.043 C 
ATOM     46  H16 NON d   1     -13.087 -47.412  27.205  0.00  0.00     0.035 H 
ATOM     47  H17 NON d   1     -14.649 -47.845  26.430  0.00  0.00     0.035 H 
BRANCH  45  48
ATOM     48  CE  NON d   1     -13.955 -45.859  26.004  0.00  0.00     0.081 C 
ATOM     49  H18 NON d   1     -14.893 -45.779  25.435  0.00  0.00     0.075 H 
ATOM     50  H19 NON d   1     -13.125 -45.465  25.399  0.00  0.00     0.075 H 
BRANCH  48  51
ATOM     51  NZ  NON d   1     -14.074 -45.053  27.199  0.00  0.00    -0.079 N 
ATOM     52  H20 NON d   1     -13.218 -44.530  27.294  0.00  0.00     0.276 HD
ATOM     53  H21 NON d   1     -14.169 -45.685  27.978  0.00  0.00     0.276 HD
BRANCH  51  54
ATOM     54  CM  NON d   1     -15.161 -44.112  27.277  0.00  0.00     0.065 C 
ATOM     55  H22 NON d   1     -15.116 -43.579  28.238  0.00  0.00     0.067 H 
ATOM     56  H23 NON d   1     -16.118 -44.650  27.200  0.00  0.00     0.067 H 
ATOM     57  H24 NON d   1     -15.079 -43.388  26.453  0.00  0.00     0.067 H 
ENDBRANCH  51  54
ENDBRANCH  48  51
ENDBRANCH  45  48
ENDBRANCH  42  45
ENDBRANCH  39  42
ENDBRANCH  19  39
ENDBRANCH  16  19
ENDBRANCH  13  15
BRANCH  13  58
ATOM     58  CB  NON d   1      -7.387 -50.224  24.765  0.00  0.00    -0.030 C 
ATOM     59  H27 NON d   1      -6.543 -50.928  24.812  0.00  0.00     0.037 H 
ATOM     60  H28 NON d   1      -7.165 -49.343  25.386  0.00  0.00     0.037 H 
BRANCH  58  61
ATOM     61  CG  NON d   1      -7.545 -49.770  23.339  0.00  0.00     0.011 C 
ATOM     62  H29 NON d   1      -7.386 -48.682  23.294  0.00  0.00     0.047 H 
ATOM     63  H30 NON d   1      -8.566 -50.005  23.004  0.00  0.00     0.047 H 
BRANCH  61  64
ATOM     64  CD  NON d   1      -6.569 -50.438  22.417  0.00  0.00     0.215 C 
ATOM     65  OE1 NON d   1      -6.846 -51.493  21.861  0.00  0.00    -0.274 OA
ATOM     66  NE2 NON d   1      -5.415 -49.831  22.246  0.00  0.00    -0.370 N 
ATOM     67  H31 NON d   1      -4.725 -50.230  21.642  0.00  0.00     0.159 HD
ATOM     68  H32 NON d   1      -5.228 -48.970  22.720  0.00  0.00     0.159 HD
ENDBRANCH  61  64
ENDBRANCH  58  61
ENDBRANCH  13  58
ENDBRANCH  10  13
ENDBRANCH   7   9
BRANCH   7  69
ATOM     69  CB  NON d   1      -7.669 -52.341  29.815  0.00  0.00     0.060 C 
ATOM     70  H35 NON d   1      -6.581 -52.448  29.940  0.00  0.00     0.086 H 
BRANCH  69  71
ATOM     71  OG1 NON d   1      -8.183 -53.449  29.080  0.00  0.00    -0.393 OA
ATOM     72  H36 NON d   1      -8.001 -54.253  29.552  0.00  0.00     0.210 HD
ENDBRANCH  69  71
BRANCH  69  73
ATOM     73  CG2 NON d   1      -8.325 -52.291  31.162  0.00  0.00    -0.050 C 
ATOM     74  H37 NON d   1      -8.099 -53.215  31.715  0.00  0.00     0.031 H 
ATOM     75  H38 NON d   1      -9.414 -52.196  31.036  0.00  0.00     0.031 H 
ATOM     76  H39 NON d   1      -7.944 -51.425  31.724  0.00  0.00     0.031 H 
ENDBRANCH  69  73
ENDBRANCH   7  69
ENDBRANCH   4   7
ENDBRANCH   1   3
BRANCH   1  77
ATOM     77  C   NON d   1      -5.703 -48.420  31.811  0.00  0.00     0.240 C 
ATOM     78  O   NON d   1      -6.141 -49.223  32.618  0.00  0.00    -0.271 OA
ATOM     79  N   NON d   1      -4.497 -47.887  31.910  0.00  0.00    -0.346 N 
ATOM     80  H45 NON d   1      -4.101 -47.427  31.115  0.00  0.00     0.163 HD
BRANCH  79  81
ATOM     81  CA  NON d   1      -3.738 -47.952  33.136  0.00  0.00     0.089 C 
ATOM     82  H46 NON d   1      -4.383 -48.394  33.909  0.00  0.00     0.087 H 
BRANCH  81  83
ATOM     83  C   NON d   1      -3.362 -46.556  33.575  0.00  0.00     0.241 C 
ATOM     84  O   NON d   1      -2.845 -45.785  32.793  0.00  0.00    -0.271 OA
ATOM     85  N   NON d   1      -3.630 -46.240  34.834  0.00  0.00    -0.346 N 
ATOM     86  H58 NON d   1      -4.066 -46.917  35.427  0.00  0.00     0.163 HD
BRANCH  85  87
ATOM     87  CA  NON d   1      -3.298 -44.910  35.378  0.00  0.00     0.089 C 
ATOM     88  H59 NON d   1      -3.313 -44.195  34.542  0.00  0.00     0.087 H 
BRANCH  87  89
ATOM     89  CB  NON d   1      -4.352 -44.488  36.386  0.00  0.00    -0.038 C 
ATOM     90  H60 NON d   1      -4.621 -43.439  36.195  0.00  0.00     0.036 H 
ATOM     91  H61 NON d   1      -3.928 -44.580  37.397  0.00  0.00     0.036 H 
BRANCH  89  92
ATOM     92  CG  NON d   1      -5.605 -45.328  36.311  0.00  0.00    -0.061 C 
ATOM     93  H62 NON d   1      -5.344 -46.390  36.432  0.00  0.00     0.033 H 
ATOM     94  H63 NON d   1      -6.090 -45.179  35.335  0.00  0.00     0.033 H 
BRANCH  92  95
ATOM     95  CD  NON d   1      -6.555 -44.909  37.419  0.00  0.00    -0.043 C 
ATOM     96  H64 NON d   1      -6.020 -44.246  38.115  0.00  0.00     0.035 H 
ATOM     97  H65 NON d   1      -6.895 -45.807  37.956  0.00  0.00     0.035 H 
BRANCH  95  98
ATOM     98  CE  NON d   1      -7.763 -44.177  36.875  0.00  0.00     0.081 C 
ATOM     99  H66 NON d   1      -8.062 -44.654  35.930  0.00  0.00     0.075 H 
ATOM    100  H67 NON d   1      -7.479 -43.131  36.684  0.00  0.00     0.075 H 
BRANCH  98 101
ATOM    101  NZ  NON d   1      -8.891 -44.187  37.767  0.00  0.00    -0.079 N 
ATOM    102  H68 NON d   1      -8.694 -43.518  38.495  0.00  0.00     0.276 HD
ATOM    103  H69 NON d   1      -8.941 -45.112  38.165  0.00  0.00     0.276 HD
BRANCH 101 104
ATOM    104  CM  NON d   1     -10.203 -43.878  37.259  0.00  0.00     0.065 C 
ATOM    105  H70 NON d   1     -10.936 -43.934  38.078  0.00  0.00     0.067 H 
ATOM    106  H71 NON d   1     -10.473 -44.601  36.475  0.00  0.00     0.067 H 
ATOM    107  H72 NON d   1     -10.203 -42.862  36.836  0.00  0.00     0.067 H 
ENDBRANCH 101 104
ENDBRANCH  98 101
ENDBRANCH  95  98
ENDBRANCH  92  95
ENDBRANCH  89  92
ENDBRANCH  87  89
BRANCH  87 108
ATOM    108  C   NON d   1      -1.936 -44.848  36.005  0.00  0.00     0.241 C 
ATOM    109  O   NON d   1      -1.274 -45.844  36.160  0.00  0.00    -0.271 OA
ATOM    110  N   NON d   1      -1.527 -43.647  36.382  0.00  0.00    -0.344 N 
ATOM    111  H73 NON d   1      -2.187 -42.897  36.335  0.00  0.00     0.163 HD
BRANCH 110 112
ATOM    112  CA  NON d   1      -0.187 -43.337  36.860  0.00  0.00     0.109 C 
ATOM    113  H74 NON d   1       0.519 -43.736  36.117  0.00  0.00     0.090 H 
BRANCH 112 114
ATOM    114  C   NON d   1       0.231 -43.911  38.219  0.00  0.00     0.243 C 
ATOM    115  O   NON d   1       0.905 -44.925  38.298  0.00  0.00    -0.271 OA
ATOM    116  N   NON d   1      -0.138 -43.202  39.277  0.00  0.00    -0.342 N 
ATOM    117  H78 NON d   1      -0.670 -42.373  39.106  0.00  0.00     0.163 HD
BRANCH 116 118
ATOM    118  CA  NON d   1       0.162 -43.522  40.668  0.00  0.00     0.120 C 
ATOM    119  H79 NON d   1      -0.383 -44.441  40.929  0.00  0.00     0.093 H 
BRANCH 118 120
ATOM    120  C   NON d   1      -0.340 -42.385  41.558  0.00  0.00     0.199 C 
ATOM    121  O   NON d   1      -0.585 -41.242  41.088  0.00  0.00    -0.646 OA
ATOM    122  O   NON d   1      -0.513 -42.596  42.788  0.00  0.00    -0.646 OA
ENDBRANCH 118 120
BRANCH 118 123
ATOM    123  CB  NON d   1       1.681 -43.773  40.942  0.00  0.00     0.061 C 
ATOM    124  H80 NON d   1       1.885 -43.512  41.991  0.00  0.00     0.086 H 
BRANCH 123 125
ATOM    125  OG1 NON d   1       2.482 -42.930  40.104  0.00  0.00    -0.393 OA
ATOM    126  H81 NON d   1       2.294 -43.121  39.193  0.00  0.00     0.210 HD
ENDBRANCH 123 125
BRANCH 123 127
ATOM    127  CG2 NON d   1       2.066 -45.252  40.735  0.00  0.00    -0.050 C 
ATOM    128  H82 NON d   1       3.139 -45.383  40.938  0.00  0.00     0.031 H 
ATOM    129  H83 NON d   1       1.850 -45.545  39.697  0.00  0.00     0.031 H 
ATOM    130  H84 NON d   1       1.483 -45.882  41.423  0.00  0.00     0.031 H 
ENDBRANCH 123 127
ENDBRANCH 118 123
ENDBRANCH 116 118
ENDBRANCH 112 114
BRANCH 112 131
ATOM    131  CB  NON d   1      -0.047 -41.818  36.902  0.00  0.00     0.044 C 
ATOM    132  H75 NON d   1      -0.114 -41.485  37.948  0.00  0.00     0.077 H 
ATOM    133  H76 NON d   1      -0.867 -41.370  36.321  0.00  0.00     0.077 H 
BRANCH 131 134
ATOM    134  OG  NON d   1       1.183 -41.382  36.364  0.00  0.00    -0.398 OA
ATOM    135  H77 NON d   1       1.248 -41.660  35.458  0.00  0.00     0.209 HD
ENDBRANCH 131 134
ENDBRANCH 112 131
ENDBRANCH 110 112
ENDBRANCH  87 108
ENDBRANCH  85  87
ENDBRANCH  81  83
BRANCH  81 136
ATOM    136  CB  NON d   1      -2.497 -48.829  33.013  0.00  0.00    -0.036 C 
ATOM    137  H47 NON d   1      -2.804 -49.872  33.179  0.00  0.00     0.036 H 
ATOM    138  H48 NON d   1      -1.791 -48.525  33.800  0.00  0.00     0.036 H 
BRANCH 136 139
ATOM    139  CG  NON d   1      -1.779 -48.768  31.709  0.00  0.00    -0.048 C 
ATOM    140  H49 NON d   1      -1.841 -47.745  31.309  0.00  0.00     0.035 H 
ATOM    141  H50 NON d   1      -2.251 -49.467  31.003  0.00  0.00     0.035 H 
BRANCH 139 142
ATOM    142  CD  NON d   1      -0.326 -49.145  31.887  0.00  0.00     0.009 C 
ATOM    143  H51 NON d   1      -0.245 -50.240  31.958  0.00  0.00     0.064 H 
ATOM    144  H52 NON d   1       0.052 -48.689  32.814  0.00  0.00     0.064 H 
BRANCH 142 145
ATOM    145  NE  NON d   1       0.477 -48.682  30.769  0.00  0.00    -0.227 N 
ATOM    146  CZ  NON d   1       1.244 -47.605  30.808  0.00  0.00     0.665 C 
ATOM    147  NH1 NON d   1       1.932 -47.246  29.742  0.00  0.00    -0.235 N 
ATOM    148  NH2 NON d   1       1.321 -46.891  31.914  0.00  0.00    -0.235 N 
ATOM    149  H54 NON d   1       2.529 -46.407  29.773  0.00  0.00     0.174 HD
ATOM    150  H55 NON d   1       1.872 -47.804  28.878  0.00  0.00     0.174 HD
ATOM    151  H56 NON d   1       0.783 -47.172  32.747  0.00  0.00     0.174 HD
ATOM    152  H57 NON d   1       1.919 -46.053  31.945  0.00  0.00     0.174 HD
ATOM    153  H53 NON d   1       0.448 -49.224  29.894  0.00  0.00     0.177 HD
ENDBRANCH 142 145
ENDBRANCH 139 142
ENDBRANCH 136 139
ENDBRANCH  81 136
ENDBRANCH  79  81
ENDBRANCH   1  77
BRANCH   1 154
ATOM    154  CB  NON d   1      -7.307 -46.739  30.979  0.00  0.00    -0.049 C 
ATOM    155  H42 NON d   1      -6.619 -45.965  31.350  0.00  0.00     0.030 H 
ATOM    156  H43 NON d   1      -8.039 -46.985  31.763  0.00  0.00     0.030 H 
ATOM    157  H44 NON d   1      -7.835 -46.365  30.089  0.00  0.00     0.030 H 
ENDBRANCH   1 154
TORSDOF 49
