REMARK  7 active torsions:
REMARK  status: ('A' for Active; 'I' for Inactive)
REMARK    1  A    between atoms: C3_3  and  C3'_4 
REMARK    2  A    between atoms: C4_5  and  C4'_6 
REMARK    3  A    between atoms: C6_10  and  C7_11 
REMARK    4  A    between atoms: C7_11  and  C8_12 
REMARK    5  A    between atoms: C7_11  and  N10_14 
REMARK       I    between atoms: N10_14  and  C11_15 
REMARK    6  A    between atoms: C11_15  and  C13_17 
REMARK    7  A    between atoms: C13_17  and  C14_18 
ROOT
ATOM      1  C7  CEP d   1     -28.167 -16.480 -24.477  0.00  0.00     0.090 C 
ATOM      2  H8  CEP d   1     -28.508 -15.491 -24.136  0.00  0.00     0.088 H 
ENDROOT
BRANCH   1   3
ATOM      3  C6  CEP d   1     -26.773 -16.786 -23.916  0.00  0.00     0.080 C 
ATOM      4  S1  CEP d   1     -26.716 -16.884 -22.160  0.00  0.00    -0.137 SA
ATOM      5  C2  CEP d   1     -24.965 -17.088 -22.038  0.00  0.00     0.001 C 
ATOM      6  C3  CEP d   1     -24.313 -17.944 -23.112  0.00  0.00    -0.041 C 
ATOM      7  H1  CEP d   1     -24.748 -17.549 -21.063  0.00  0.00     0.055 H 
ATOM      8  H2  CEP d   1     -24.507 -16.089 -22.081  0.00  0.00     0.055 H 
ATOM      9  C4  CEP d   1     -24.934 -18.329 -24.253  0.00  0.00     0.109 C 
ATOM     10  N5  CEP d   1     -26.173 -17.951 -24.536  0.00  0.00    -0.368 N 
ATOM     11  H6  CEP d   1     -26.723 -18.499 -25.213  0.00  0.00     0.161 HD
ATOM     12  H7  CEP d   1     -26.142 -15.929 -24.193  0.00  0.00     0.093 H 
BRANCH   6  13
ATOM     13  C3' CEP d   1     -22.894 -18.383 -22.805  0.00  0.00    -0.051 C 
ATOM     14  H3  CEP d   1     -22.511 -18.994 -23.636  0.00  0.00     0.033 H 
ATOM     15  H4  CEP d   1     -22.886 -18.977 -21.880  0.00  0.00     0.033 H 
ATOM     16  H5  CEP d   1     -22.256 -17.497 -22.677  0.00  0.00     0.033 H 
ENDBRANCH   6  13
BRANCH   9  17
ATOM     17  C4' CEP d   1     -24.264 -19.114 -25.306  0.00  0.00     0.226 C 
ATOM     18  O4A CEP d   1     -24.563 -18.964 -26.520  0.00  0.00    -0.643 OA
ATOM     19  O4B CEP d   1     -23.399 -19.947 -24.981  0.00  0.00    -0.643 OA
ENDBRANCH   9  17
ENDBRANCH   1   3
BRANCH   1  20
ATOM     20  C8  CEP d   1     -27.901 -16.438 -25.968  0.00  0.00     0.112 C 
ATOM     21  O9  CEP d   1     -28.188 -17.407 -26.650  0.00  0.00    -0.305 OA
ATOM     22  H9  CEP d   1     -27.459 -15.554 -26.425  0.00  0.00     0.146 H 
ENDBRANCH   1  20
BRANCH   1  23
ATOM     23  N10 CEP d   1     -29.155 -17.465 -24.040  0.00  0.00    -0.347 N 
ATOM     24  C11 CEP d   1     -30.442 -17.404 -24.402  0.00  0.00     0.223 C 
ATOM     25  O12 CEP d   1     -30.867 -16.518 -25.121  0.00  0.00    -0.273 OA
ATOM     26  H10 CEP d   1     -28.858 -18.214 -23.447  0.00  0.00     0.163 HD
BRANCH  24  27
ATOM     27  C13 CEP d   1     -31.378 -18.492 -23.893  0.00  0.00     0.039 C 
ATOM     28  H11 CEP d   1     -30.778 -19.263 -23.387  0.00  0.00     0.055 H 
ATOM     29  H12 CEP d   1     -31.899 -18.938 -24.753  0.00  0.00     0.055 H 
BRANCH  27  30
ATOM     30  C14 CEP d   1     -32.415 -17.967 -22.918  0.00  0.00    -0.009 A 
ATOM     31  C15 CEP d   1     -32.473 -16.757 -22.253  0.00  0.00    -0.069 A 
ATOM     32  C16 CEP d   1     -33.585 -16.666 -21.429  0.00  0.00    -0.076 A 
ATOM     33  H13 CEP d   1     -31.732 -15.967 -22.363  0.00  0.00     0.085 H 
ATOM     34  C17 CEP d   1     -34.359 -17.808 -21.483  0.00  0.00    -0.045 A 
ATOM     35  H14 CEP d   1     -33.819 -15.799 -20.814  0.00  0.00     0.084 H 
ATOM     36  S19 CEP d   1     -33.747 -19.039 -22.546  0.00  0.00    -0.106 SA
ATOM     37  H15 CEP d   1     -35.276 -17.927 -20.908  0.00  0.00     0.095 H 
ENDBRANCH  27  30
ENDBRANCH  24  27
ENDBRANCH   1  23
TORSDOF 7
