REMARK  6 active torsions:
REMARK  status: ('A' for Active; 'I' for Inactive)
REMARK    1  A    between atoms: CBB_1  and  CBA_2 
REMARK       I    between atoms: CBA_2  and  NAZ_4 
REMARK    2  A    between atoms: NAZ_4  and  CAU_5 
REMARK    3  A    between atoms: CAR_12  and  CAQ_13 
REMARK    4  A    between atoms: CAQ_13  and  NAO_14 
REMARK       I    between atoms: NAO_14  and  CAN_15 
REMARK       I    between atoms: CAN_15  and  NAL_17 
REMARK       I    between atoms: NAL_17  and  C_18 
REMARK    5  A    between atoms: C_18  and  CA_20 
REMARK    6  A    between atoms: CA_20  and  N_21 
ROOT
ATOM      1  N   VSI d   1      24.630 -26.430   0.712  0.00  0.00    -0.347 N 
ATOM      2  CAD VSI d   1      25.796 -26.719   1.358  0.00  0.00     0.046 A 
ATOM      3  CAC VSI d   1      26.966 -25.982   1.698  0.00  0.00    -0.036 A 
ATOM      4  CAB VSI d   1      28.029 -26.589   2.396  0.00  0.00     0.046 A 
ATOM      5  CBD VSI d   1      29.298 -25.861   2.807  0.00  0.00     0.099 C 
ATOM      6  NBE VSI d   1      30.267 -25.356   3.133  0.00  0.00    -0.191 NA
ATOM      7  CAA VSI d   1      27.931 -27.930   2.751  0.00  0.00    -0.062 A 
ATOM      8  CAF VSI d   1      26.797 -28.671   2.417  0.00  0.00    -0.069 A 
ATOM      9  CAE VSI d   1      25.740 -28.071   1.728  0.00  0.00    -0.008 A 
ATOM     10  CAI VSI d   1      24.522 -28.598   1.289  0.00  0.00    -0.056 A 
ATOM     11  CAH VSI d   1      23.875 -27.553   0.667  0.00  0.00    -0.019 A 
ATOM     12  H15 VSI d   1      27.040 -24.938   1.416  0.00  0.00     0.089 H 
ATOM     13  H16 VSI d   1      28.742 -28.404   3.292  0.00  0.00     0.085 H 
ATOM     14  H17 VSI d   1      26.736 -29.717   2.693  0.00  0.00     0.085 H 
ATOM     15  H18 VSI d   1      24.161 -29.618   1.413  0.00  0.00     0.086 H 
ATOM     16  H19 VSI d   1      22.892 -27.621   0.203  0.00  0.00     0.111 H 
ENDROOT
BRANCH   1  17
ATOM     17  CA  VSI d   1      24.184 -25.189   0.117  0.00  0.00     0.074 C 
ATOM     18  H13 VSI d   1      24.099 -24.407   0.886  0.00  0.00     0.079 H 
ATOM     19  H14 VSI d   1      24.891 -24.864  -0.660  0.00  0.00     0.079 H 
BRANCH  17  20
ATOM     20  C   VSI d   1      22.833 -25.472  -0.492  0.00  0.00     0.254 C 
ATOM     21  NAL VSI d   1      22.704 -25.641  -1.945  0.00  0.00    -0.159 N 
ATOM     22  CAN VSI d   1      21.620 -25.936  -2.890  0.00  0.00     0.674 C 
ATOM     23  H12 VSI d   1      23.581 -25.525  -2.411  0.00  0.00     0.187 HD
ATOM     24  NAO VSI d   1      20.213 -26.147  -2.575  0.00  0.00    -0.222 N 
ATOM     25  NAP VSI d   1      21.906 -26.006  -4.172  0.00  0.00    -0.235 N 
ATOM     26  H9  VSI d   1      19.613 -26.306  -3.397  0.00  0.00     0.178 HD
ATOM     27  H10 VSI d   1      22.876 -25.870  -4.492  0.00  0.00     0.174 HD
ATOM     28  H11 VSI d   1      21.160 -26.197  -4.856  0.00  0.00     0.174 HD
ATOM     29  O   VSI d   1      21.914 -25.563   0.306  0.00  0.00    -0.271 OA
BRANCH  24  30
ATOM     30  CAQ VSI d   1      19.510 -26.172  -1.311  0.00  0.00     0.033 C 
ATOM     31  H7  VSI d   1      18.635 -26.828  -1.430  0.00  0.00     0.072 H 
ATOM     32  H8  VSI d   1      20.190 -26.600  -0.560  0.00  0.00     0.072 H 
BRANCH  30  33
ATOM     33  CAR VSI d   1      19.021 -24.854  -0.782  0.00  0.00    -0.037 A 
ATOM     34  CAW VSI d   1      18.543 -23.840  -1.591  0.00  0.00    -0.052 A 
ATOM     35  CAV VSI d   1      18.092 -22.658  -0.993  0.00  0.00     0.063 A 
ATOM     36  H5  VSI d   1      18.518 -23.958  -2.668  0.00  0.00     0.087 H 
ATOM     37  CAU VSI d   1      18.124 -22.495   0.395  0.00  0.00     0.078 A 
ATOM     38 CLX  VSI d   1      17.516 -21.361  -1.973  0.00  0.00    -0.082 Cl
ATOM     39  CAT VSI d   1      18.592 -23.524   1.201  0.00  0.00     0.063 A 
ATOM     40 CLY  VSI d   1      18.636 -23.370   2.943  0.00  0.00    -0.082 Cl
ATOM     41  CAS VSI d   1      19.038 -24.691   0.607  0.00  0.00    -0.052 A 
ATOM     42  H6  VSI d   1      19.409 -25.496   1.231  0.00  0.00     0.087 H 
BRANCH  37  43
ATOM     43  NAZ VSI d   1      17.635 -21.286   1.039  0.00  0.00    -0.325 N 
ATOM     44  CBA VSI d   1      18.465 -20.245   1.586  0.00  0.00     0.218 C 
ATOM     45  OBC VSI d   1      19.678 -20.301   1.499  0.00  0.00    -0.274 OA
ATOM     46  H4  VSI d   1      16.644 -21.169   1.107  0.00  0.00     0.169 HD
BRANCH  44  47
ATOM     47  CBB VSI d   1      17.790 -19.085   2.250  0.00  0.00    -0.003 C 
ATOM     48  H1  VSI d   1      16.700 -19.230   2.222  0.00  0.00     0.040 H 
ATOM     49  H2  VSI d   1      18.050 -18.157   1.720  0.00  0.00     0.040 H 
ATOM     50  H3  VSI d   1      18.124 -19.016   3.296  0.00  0.00     0.040 H 
ENDBRANCH  44  47
ENDBRANCH  37  43
ENDBRANCH  30  33
ENDBRANCH  24  30
ENDBRANCH  17  20
ENDBRANCH   1  17
TORSDOF 6
