REMARK  6 active torsions:
REMARK  status: ('A' for Active; 'I' for Inactive)
REMARK    1  A    between atoms: CAA_1  and  CAT_2 
REMARK       I    between atoms: CAT_2  and  NAS_4 
REMARK    2  A    between atoms: NAS_4  and  CAZ_5 
REMARK    3  A    between atoms: CAW_12  and  CAO_13 
REMARK    4  A    between atoms: CAO_13  and  NAQ_14 
REMARK       I    between atoms: NAQ_14  and  CAU_15 
REMARK       I    between atoms: CAU_15  and  NAR_17 
REMARK       I    between atoms: NAR_17  and  C_18 
REMARK    5  A    between atoms: C_18  and  CA_20 
REMARK    6  A    between atoms: CA_20  and  N_21 
ROOT
ATOM      1  NAQ VTI d   1      21.040  25.983   1.961  0.00  0.00    -0.222 N 
ATOM      2  CAU VTI d   1      21.828  26.057   3.131  0.00  0.00     0.674 C 
ATOM      3  NAB VTI d   1      21.325  26.343   4.304  0.00  0.00    -0.235 N 
ATOM      4  NAR VTI d   1      23.243  25.825   3.063  0.00  0.00    -0.159 N 
ATOM      5  C   VTI d   1      23.907  25.505   1.852  0.00  0.00     0.254 C 
ATOM      6  O   VTI d   1      23.308  25.416   0.803  0.00  0.00    -0.271 OA
ATOM      7  H9  VTI d   1      21.506  25.782   1.065  0.00  0.00     0.178 HD
ATOM      8  H10 VTI d   1      21.938  26.386   5.131  0.00  0.00     0.174 HD
ATOM      9  H11 VTI d   1      20.316  26.525   4.401  0.00  0.00     0.174 HD
ATOM     10  H12 VTI d   1      23.782  25.892   3.903  0.00  0.00     0.187 HD
ENDROOT
BRANCH   1  11
ATOM     11  CAO VTI d   1      19.608  26.177   1.966  0.00  0.00     0.033 C 
ATOM     12  H7  VTI d   1      19.233  26.242   2.998  0.00  0.00     0.072 H 
ATOM     13  H8  VTI d   1      19.343  27.095   1.421  0.00  0.00     0.072 H 
BRANCH  11  14
ATOM     14  CAW VTI d   1      19.011  24.922   1.245  0.00  0.00    -0.037 A 
ATOM     15  CAN VTI d   1      18.494  23.839   1.941  0.00  0.00    -0.052 A 
ATOM     16  CAY VTI d   1      18.015  22.749   1.239  0.00  0.00     0.063 A 
ATOM     17  H5  VTI d   1      18.466  23.848   3.025  0.00  0.00     0.087 H 
ATOM     18  CAZ VTI d   1      18.073  22.729  -0.151  0.00  0.00     0.078 A 
ATOM     19 CLF  VTI d   1      17.394  21.419   2.015  0.00  0.00    -0.082 Cl
ATOM     20  CAX VTI d   1      18.602  23.803  -0.809  0.00  0.00     0.063 A 
ATOM     21 CLE  VTI d   1      18.687  23.779  -2.558  0.00  0.00    -0.082 Cl
ATOM     22  CAM VTI d   1      19.083  24.888  -0.143  0.00  0.00    -0.052 A 
ATOM     23  H6  VTI d   1      19.518  25.717  -0.689  0.00  0.00     0.087 H 
BRANCH  18  24
ATOM     24  NAS VTI d   1      17.545  21.588  -0.914  0.00  0.00    -0.325 N 
ATOM     25  CAT VTI d   1      18.392  20.543  -1.418  0.00  0.00     0.218 C 
ATOM     26  OAC VTI d   1      19.579  20.593  -1.195  0.00  0.00    -0.274 OA
ATOM     27  H4  VTI d   1      16.561  21.538  -1.088  0.00  0.00     0.169 HD
BRANCH  25  28
ATOM     28  CAA VTI d   1      17.749  19.399  -2.212  0.00  0.00    -0.003 C 
ATOM     29  H1  VTI d   1      16.665  19.568  -2.286  0.00  0.00     0.040 H 
ATOM     30  H2  VTI d   1      17.937  18.445  -1.698  0.00  0.00     0.040 H 
ATOM     31  H3  VTI d   1      18.184  19.363  -3.221  0.00  0.00     0.040 H 
ENDBRANCH  25  28
ENDBRANCH  18  24
ENDBRANCH  11  14
ENDBRANCH   1  11
BRANCH   5  32
ATOM     32  CA  VTI d   1      25.412  25.288   1.969  0.00  0.00     0.074 C 
ATOM     33  H13 VTI d   1      25.575  24.337   2.498  0.00  0.00     0.079 H 
ATOM     34  H14 VTI d   1      25.826  26.115   2.564  0.00  0.00     0.079 H 
BRANCH  32  35
ATOM     35  N   VTI d   1      26.109  25.234   0.779  0.00  0.00    -0.347 N 
ATOM     36  CBB VTI d   1      26.146  24.116  -0.045  0.00  0.00     0.044 A 
ATOM     37  CAJ VTI d   1      25.544  22.836   0.090  0.00  0.00    -0.056 A 
ATOM     38  CBA VTI d   1      26.910  24.415  -1.129  0.00  0.00    -0.008 A 
ATOM     39  CAH VTI d   1      25.756  21.843  -0.930  0.00  0.00    -0.081 A 
ATOM     40  H15 VTI d   1      24.930  22.609   0.954  0.00  0.00     0.087 H 
ATOM     41  CAG VTI d   1      26.529  22.147  -2.025  0.00  0.00    -0.082 A 
ATOM     42  H16 VTI d   1      25.308  20.860  -0.835  0.00  0.00     0.083 H 
ATOM     43  CAI VTI d   1      27.119  23.421  -2.152  0.00  0.00    -0.071 A 
ATOM     44  H17 VTI d   1      26.686  21.402  -2.796  0.00  0.00     0.083 H 
ATOM     45  H18 VTI d   1      27.729  23.653  -3.018  0.00  0.00     0.084 H 
ATOM     46  CAK VTI d   1      27.358  25.787  -0.954  0.00  0.00    -0.056 A 
ATOM     47  CAL VTI d   1      26.822  26.234   0.253  0.00  0.00    -0.019 A 
ATOM     48  H19 VTI d   1      27.990  26.356  -1.634  0.00  0.00     0.086 H 
ATOM     49  H20 VTI d   1      26.960  27.222   0.689  0.00  0.00     0.111 H 
ENDBRANCH  32  35
ENDBRANCH   5  32
TORSDOF 6
