REMARK  6 active torsions:
REMARK  status: ('A' for Active; 'I' for Inactive)
REMARK    1  A    between atoms: C13_2  and  C14_3 
REMARK       I    between atoms: C13_2  and  N3_16 
REMARK    2  A    between atoms: C14_3  and  C15_4 
REMARK    3  A    between atoms: C14_3  and  O3_5 
REMARK    4  A    between atoms: O3_5  and  C16_6 
REMARK    5  A    between atoms: N3_16  and  C10_17 
REMARK    6  A    between atoms: C1_24  and  C2_26 
ROOT
ATOM      1  O2  Q21 d   1      18.073 -24.832  12.725  0.00  0.00    -0.270 OA
ATOM      2  C13 Q21 d   1      18.176 -24.228  11.670  0.00  0.00     0.251 C 
ATOM      3  N3  Q21 d   1      19.183 -23.406  11.335  0.00  0.00    -0.325 N 
ATOM      4  H12 Q21 d   1      19.128 -22.978  10.433  0.00  0.00     0.169 HD
ENDROOT
BRANCH   2   5
ATOM      5  C14 Q21 d   1      17.099 -24.399  10.638  0.00  0.00     0.118 C 
ATOM      6  H1  Q21 d   1      17.486 -24.118   9.648  0.00  0.00     0.098 H 
BRANCH   5   7
ATOM      7  C15 Q21 d   1      15.915 -23.514  11.003  0.00  0.00    -0.044 C 
ATOM      8  H2  Q21 d   1      15.122 -23.634  10.251  0.00  0.00     0.031 H 
ATOM      9  H3  Q21 d   1      16.238 -22.463  11.031  0.00  0.00     0.031 H 
ATOM     10  H4  Q21 d   1      15.530 -23.805  11.991  0.00  0.00     0.031 H 
ENDBRANCH   5   7
BRANCH   5  11
ATOM     11  O3  Q21 d   1      16.662 -25.759  10.619  0.00  0.00    -0.336 OA
BRANCH  11  12
ATOM     12  C16 Q21 d   1      17.413 -26.734  10.013  0.00  0.00     0.081 A 
ATOM     13  C17 Q21 d   1      18.489 -26.405   9.194  0.00  0.00    -0.050 A 
ATOM     14  C18 Q21 d   1      19.246 -27.408   8.600  0.00  0.00    -0.080 A 
ATOM     15  H5  Q21 d   1      18.737 -25.364   9.019  0.00  0.00     0.087 H 
ATOM     16  C19 Q21 d   1      18.929 -28.745   8.829  0.00  0.00    -0.072 A 
ATOM     17  H6  Q21 d   1      20.082 -27.150   7.960  0.00  0.00     0.083 H 
ATOM     18  C20 Q21 d   1      17.850 -29.075   9.641  0.00  0.00    -0.023 A 
ATOM     19  H7  Q21 d   1      19.524 -29.529   8.374  0.00  0.00     0.084 H 
ATOM     20  C21 Q21 d   1      17.096 -28.065  10.235  0.00  0.00     0.007 A 
ATOM     21  C43 Q21 d   1      17.532 -30.411   9.864  0.00  0.00    -0.072 A 
ATOM     22  C46 Q21 d   1      16.019 -28.384  11.055  0.00  0.00    -0.070 A 
ATOM     23  C45 Q21 d   1      15.703 -29.721  11.275  0.00  0.00    -0.082 A 
ATOM     24  H8  Q21 d   1      15.432 -27.599  11.518  0.00  0.00     0.085 H 
ATOM     25  C44 Q21 d   1      16.454 -30.729  10.679  0.00  0.00    -0.082 A 
ATOM     26  H9  Q21 d   1      14.867 -29.979  11.915  0.00  0.00     0.083 H 
ATOM     27  H10 Q21 d   1      16.196 -31.768  10.852  0.00  0.00     0.083 H 
ATOM     28  H11 Q21 d   1      18.121 -31.197   9.405  0.00  0.00     0.084 H 
ENDBRANCH  11  12
ENDBRANCH   5  11
ENDBRANCH   2   5
BRANCH   3  29
ATOM     29  C10 Q21 d   1      20.272 -23.092  12.091  0.00  0.00     0.037 A 
ATOM     30  C11 Q21 d   1      21.236 -22.283  11.494  0.00  0.00    -0.054 A 
ATOM     31  C12 Q21 d   1      22.391 -21.898  12.172  0.00  0.00    -0.046 A 
ATOM     32  H13 Q21 d   1      21.084 -21.944  10.476  0.00  0.00     0.087 H 
ATOM     33  C7  Q21 d   1      22.556 -22.346  13.472  0.00  0.00     0.106 A 
ATOM     34  H14 Q21 d   1      23.136 -21.269  11.698  0.00  0.00     0.087 H 
ATOM     35  C8  Q21 d   1      21.621 -23.151  14.087  0.00  0.00     0.095 A 
ATOM     36  O1  Q21 d   1      23.575 -22.088  14.265  0.00  0.00    -0.289 OA
ATOM     37  C9  Q21 d   1      20.467 -23.535  13.411  0.00  0.00    -0.027 A 
ATOM     38  N1  Q21 d   1      22.138 -23.370  15.326  0.00  0.00    -0.221 NA
ATOM     39  H15 Q21 d   1      19.730 -24.166  13.895  0.00  0.00     0.090 H 
ATOM     40  C1  Q21 d   1      23.339 -22.726  15.459  0.00  0.00     0.181 A 
BRANCH  40  41
ATOM     41  C2  Q21 d   1      24.145 -22.729  16.595  0.00  0.00     0.020 A 
ATOM     42  C3  Q21 d   1      23.742 -23.444  17.725  0.00  0.00    -0.052 A 
ATOM     43  C4  Q21 d   1      24.551 -23.446  18.858  0.00  0.00     0.003 A 
ATOM     44  H16 Q21 d   1      22.807 -23.993  17.720  0.00  0.00     0.087 H 
ATOM     45  N2  Q21 d   1      25.706 -22.767  18.864  0.00  0.00    -0.273 NA
ATOM     46  H17 Q21 d   1      24.245 -23.999  19.739  0.00  0.00     0.114 H 
ATOM     47  C5  Q21 d   1      26.114 -22.074  17.786  0.00  0.00     0.003 A 
ATOM     48  C6  Q21 d   1      25.352 -22.036  16.621  0.00  0.00    -0.052 A 
ATOM     49  H18 Q21 d   1      27.054 -21.535  17.825  0.00  0.00     0.114 H 
ATOM     50  H19 Q21 d   1      25.691 -21.480  15.755  0.00  0.00     0.087 H 
ENDBRANCH  40  41
ENDBRANCH   3  29
TORSDOF 6
