REMARK  13 active torsions:
REMARK  status: ('A' for Active; 'I' for Inactive)
REMARK    1  A    between atoms: C22_8  and  C21_9 
REMARK    2  A    between atoms: C21_9  and  N16_10 
REMARK    3  A    between atoms: C7_17  and  C4_18 
REMARK    4  A    between atoms: C4_18  and  C1_19 
REMARK    5  A    between atoms: C4_18  and  N6_22 
REMARK    6  A    between atoms: C4_18  and  C5_23 
REMARK    7  A    between atoms: C5_23  and  C8_24 
REMARK    8  A    between atoms: C8_24  and  C9_25 
REMARK    9  A    between atoms: C9_25  and  C10_26 
REMARK   10  A    between atoms: C10_26  and  B11_27 
REMARK   11  A    between atoms: B11_27  and  O13_29 
REMARK   12  A    between atoms: B11_27  and  O12_30 
REMARK   13  A    between atoms: B11_27  and  O30_28 
ROOT
ATOM      1  N16 38I d   1      33.036  83.979  74.847  0.00  0.00    -0.059 N 
ATOM      2  C17 38I d   1      33.961  83.657  73.769  0.00  0.00     0.105 C 
ATOM      3  C19 38I d   1      35.277  84.178  74.331  0.00  0.00    -0.036 C 
ATOM      4  C20 38I d   1      34.878  85.203  75.393  0.00  0.00    -0.036 C 
ATOM      5  C15 38I d   1      33.380  85.367  75.224  0.00  0.00     0.105 C 
ATOM      6  C14 38I d   1      33.222  86.431  74.132  0.00  0.00    -0.032 C 
ATOM      7  C18 38I d   1      33.605  84.444  72.516  0.00  0.00    -0.032 C 
ATOM      8  C7  38I d   1      33.066  85.874  72.715  0.00  0.00    -0.008 C 
ATOM      9  H6  38I d   1      33.279  83.397  75.634  0.00  0.00     0.281 HD
ATOM     10  H7  38I d   1      33.992  82.578  73.555  0.00  0.00     0.084 H 
ATOM     11  H8  38I d   1      35.873  84.655  73.539  0.00  0.00     0.036 H 
ATOM     12  H9  38I d   1      35.855  83.359  74.783  0.00  0.00     0.036 H 
ATOM     13  H10 38I d   1      35.395  86.159  75.223  0.00  0.00     0.036 H 
ATOM     14  H11 38I d   1      35.117  84.831  76.400  0.00  0.00     0.036 H 
ATOM     15  H12 38I d   1      32.857  85.677  76.141  0.00  0.00     0.084 H 
ATOM     16  H13 38I d   1      34.113  87.076  74.150  0.00  0.00     0.036 H 
ATOM     17  H14 38I d   1      32.330  87.031  74.365  0.00  0.00     0.036 H 
ATOM     18  H15 38I d   1      32.837  83.873  71.973  0.00  0.00     0.036 H 
ATOM     19  H16 38I d   1      34.514  84.515  71.900  0.00  0.00     0.036 H 
ATOM     20  H17 38I d   1      31.976  85.773  72.608  0.00  0.00     0.044 H 
ENDROOT
BRANCH   8  21
ATOM     21  C4  38I d   1      33.467  86.770  71.537  0.00  0.00     0.214 C 
BRANCH  21  22
ATOM     22  C1  38I d   1      33.864  88.202  71.848  0.00  0.00     0.210 C 
ATOM     23  O3  38I d   1      34.941  88.458  72.446  0.00  0.00    -0.646 OA
ATOM     24  O2  38I d   1      33.094  89.113  71.453  0.00  0.00    -0.646 OA
ENDBRANCH  21  22
BRANCH  21  25
ATOM     25  N6  38I d   1      32.193  86.818  70.809  0.00  0.00    -0.060 N 
ATOM     26  H18 38I d   1      32.299  87.387  69.984  0.00  0.00     0.275 HD
ATOM     27  H19 38I d   1      31.482  87.215  71.402  0.00  0.00     0.275 HD
ATOM     28  H20 38I d   1      31.924  85.884  70.541  0.00  0.00     0.275 HD
ENDBRANCH  21  25
BRANCH  21  29
ATOM     29  C5  38I d   1      34.573  86.077  70.731  0.00  0.00    -0.024 C 
ATOM     30  H21 38I d   1      34.199  85.092  70.414  0.00  0.00     0.037 H 
ATOM     31  H22 38I d   1      35.444  85.944  71.390  0.00  0.00     0.037 H 
BRANCH  29  32
ATOM     32  C8  38I d   1      35.026  86.827  69.499  0.00  0.00    -0.063 C 
ATOM     33  H23 38I d   1      35.346  87.836  69.799  0.00  0.00     0.033 H 
ATOM     34  H24 38I d   1      34.179  86.903  68.802  0.00  0.00     0.033 H 
BRANCH  32  35
ATOM     35  C9  38I d   1      36.192  86.136  68.781  0.00  0.00    -0.071 C 
ATOM     36  H25 38I d   1      35.869  85.155  68.403  0.00  0.00     0.032 H 
ATOM     37  H26 38I d   1      37.033  86.002  69.478  0.00  0.00     0.032 H 
BRANCH  35  38
ATOM     38  C10 38I d   1      36.622  87.027  67.612  0.00  0.00    -0.069 C 
ATOM     39  H28 38I d   1      37.156  87.907  67.999  0.00  0.00     0.023 H 
ATOM     40  H29 38I d   1      35.732  87.354  67.054  0.00  0.00     0.023 H 
BRANCH  38  41
ATOM     41  B11 38I d   1      37.140  86.144  66.403  0.00  0.00     0.318 B 
BRANCH  41  42
ATOM     42  O13 38I d   1      38.358  85.311  66.692  0.00  0.00     0.000 OA
ATOM     43  H31 38I d   1      38.947  85.798  67.256  0.00  0.00     0.000 HD
ATOM     44  H32 38I d   1      38.947  85.798  67.256  0.00  0.00     0.000 HD
ENDBRANCH  41  42
BRANCH  41  45
ATOM     45  O12 38I d   1      36.094  85.530  65.521  0.00  0.00     0.000 OA
ATOM     46  H33 38I d   1      35.377  86.143  65.409  0.00  0.00     0.000 HD
ATOM     47  H34 38I d   1      35.377  86.142  65.409  0.00  0.00     0.000 HD
ENDBRANCH  41  45
BRANCH  41  48
ATOM     48  O30 38I d   1      37.697  87.197  65.415  0.00  0.00    -0.467 OA
ATOM     49  H30 38I d   1      38.062  86.761  64.592  0.00  0.00     0.181 HD
ENDBRANCH  41  48
ENDBRANCH  38  41
ENDBRANCH  35  38
ENDBRANCH  32  35
ENDBRANCH  29  32
ENDBRANCH  21  29
ENDBRANCH   8  21
BRANCH   1  50
ATOM     50  C21 38I d   1      31.625  83.664  74.574  0.00  0.00     0.108 C 
ATOM     51  H4  38I d   1      31.241  84.269  73.740  0.00  0.00     0.083 H 
ATOM     52  H5  38I d   1      31.498  82.596  74.341  0.00  0.00     0.083 H 
BRANCH  50  53
ATOM     53  C22 38I d   1      30.936  84.018  75.852  0.00  0.00    -0.031 A 
ATOM     54  C23 38I d   1      31.311  83.363  77.015  0.00  0.00    -0.073 A 
ATOM     55  C24 38I d   1      30.694  83.690  78.207  0.00  0.00    -0.060 A 
ATOM     56  H2  38I d   1      32.082  82.601  76.989  0.00  0.00     0.084 H 
ATOM     57  C25 38I d   1      29.709  84.668  78.226  0.00  0.00     0.055 A 
ATOM     58  H1  38I d   1      30.978  83.185  79.123  0.00  0.00     0.086 H 
ATOM     59  C26 38I d   1      29.340  85.320  77.054  0.00  0.00     0.056 A 
ATOM     60 CL1  38I d   1      28.947  85.034  79.806  0.00  0.00    -0.083 Cl
ATOM     61 CL2  38I d   1      28.074  86.584  77.006  0.00  0.00    -0.083 Cl
ATOM     62  C27 38I d   1      29.959  84.995  75.863  0.00  0.00    -0.053 A 
ATOM     63  H3  38I d   1      29.681  85.501  74.946  0.00  0.00     0.087 H 
ENDBRANCH  50  53
ENDBRANCH   1  50
TORSDOF 13
