REMARK  4 active torsions:
REMARK  status: ('A' for Active; 'I' for Inactive)
REMARK    1  A    between atoms: C1_1  and  S7_7 
REMARK    2  A    between atoms: S7_7  and  N10_10 
REMARK    3  A    between atoms: N10_10  and  C11_11 
REMARK    4  A    between atoms: C14_14  and  C16_16 
ROOT
ATOM      1  S7  2BI d   1     -27.925  53.670  56.722  0.00  0.00     0.266 S 
ATOM      2  O8  2BI d   1     -28.777  54.428  55.824  0.00  0.00    -0.200 OA
ATOM      3  O9  2BI d   1     -27.983  53.947  58.150  0.00  0.00    -0.200 OA
ENDROOT
BRANCH   1   4
ATOM      4  C1  2BI d   1     -26.252  53.874  56.197  0.00  0.00     0.103 A 
ATOM      5  C2  2BI d   1     -25.593  55.102  56.304  0.00  0.00     0.059 A 
ATOM      6  C3  2BI d   1     -24.256  55.209  55.891  0.00  0.00    -0.038 A 
ATOM      7 CL7  2BI d   1     -26.327  56.548  56.898  0.00  0.00    -0.083 Cl
ATOM      8  C4  2BI d   1     -23.581  54.097  55.378  0.00  0.00     0.057 A 
ATOM      9  H1  2BI d   1     -23.743  56.161  55.970  0.00  0.00     0.088 H 
ATOM     10  C5  2BI d   1     -24.242  52.869  55.273  0.00  0.00     0.057 A 
ATOM     11 CL8  2BI d   1     -21.938  54.307  54.891  0.00  0.00    -0.082 Cl
ATOM     12  C6  2BI d   1     -25.573  52.757  55.684  0.00  0.00    -0.036 A 
ATOM     13 CL9  2BI d   1     -23.470  51.456  54.649  0.00  0.00    -0.083 Cl
ATOM     14  H2  2BI d   1     -26.083  51.804  55.606  0.00  0.00     0.088 H 
ENDBRANCH   1   4
BRANCH   1  15
ATOM     15  N10 2BI d   1     -28.198  52.054  56.526  0.00  0.00    -0.262 N 
ATOM     16  H3  2BI d   1     -28.141  51.473  57.338  0.00  0.00     0.180 HD
BRANCH  15  17
ATOM     17  C11 2BI d   1     -28.498  51.447  55.327  0.00  0.00     0.167 A 
ATOM     18  N12 2BI d   1     -28.352  50.122  55.179  0.00  0.00    -0.109 NA
ATOM     19  O13 2BI d   1     -28.733  49.845  53.868  0.00  0.00    -0.216 OA
ATOM     20  C14 2BI d   1     -29.099  51.002  53.254  0.00  0.00     0.079 A 
ATOM     21  C15 2BI d   1     -28.967  52.042  54.136  0.00  0.00    -0.006 A 
ATOM     22  H4  2BI d   1     -29.177  53.096  53.958  0.00  0.00     0.093 H 
BRANCH  20  23
ATOM     23  C16 2BI d   1     -29.532  50.891  51.850  0.00  0.00    -0.029 C 
ATOM     24  H5  2BI d   1     -29.800  51.888  51.469  0.00  0.00     0.036 H 
ATOM     25  H6  2BI d   1     -30.407  50.227  51.788  0.00  0.00     0.036 H 
ATOM     26  H7  2BI d   1     -28.712  50.475  51.245  0.00  0.00     0.036 H 
ENDBRANCH  20  23
ENDBRANCH  15  17
ENDBRANCH   1  15
TORSDOF 4
