REMARK  4 active torsions:
REMARK  status: ('A' for Active; 'I' for Inactive)
REMARK    1  A    between atoms: N_1  and  CA_2 
REMARK    2  A    between atoms: CA_2  and  C_3 
REMARK    3  A    between atoms: CA_2  and  CB_5 
REMARK    4  A    between atoms: CB_5  and  CG_6 
ROOT
ATOM      1  CA  ASP d   1       7.329  -8.159   7.450  0.00  0.00     0.191 C 
ATOM      2  H4  ASP d   1       6.295  -8.406   7.732  0.00  0.00     0.102 H 
ENDROOT
BRANCH   1   3
ATOM      3  N   ASP d   1       7.305  -6.860   6.719  0.00  0.00    -0.065 N 
ATOM      4  H1  ASP d   1       6.750  -6.955   5.883  0.00  0.00     0.275 HD
ATOM      5  H2  ASP d   1       8.246  -6.597   6.470  0.00  0.00     0.275 HD
ATOM      6  H3  ASP d   1       6.903  -6.149   7.310  0.00  0.00     0.275 HD
ENDBRANCH   1   3
BRANCH   1   7
ATOM      7  C   ASP d   1       8.157  -8.081   8.731  0.00  0.00     0.205 C 
ATOM      8  O   ASP d   1       8.029  -8.920   9.628  0.00  0.00    -0.646 OA
ATOM      9  OXT ASP d   1       8.965  -7.169   8.911  0.00  0.00    -0.646 OA
ENDBRANCH   1   7
BRANCH   1  10
ATOM     10  CB  ASP d   1       7.855  -9.274   6.544  0.00  0.00     0.051 C 
ATOM     11  H5  ASP d   1       8.126 -10.138   7.169  0.00  0.00     0.053 H 
ATOM     12  H6  ASP d   1       8.748  -8.908   6.016  0.00  0.00     0.053 H 
BRANCH  10  13
ATOM     13  CG  ASP d   1       6.834  -9.718   5.519  0.00  0.00     0.175 C 
ATOM     14  OD1 ASP d   1       6.876  -9.209   4.381  0.00  0.00    -0.648 OA
ATOM     15  OD2 ASP d   1       5.963 -10.546   5.859  0.00  0.00    -0.648 OA
ENDBRANCH  10  13
ENDBRANCH   1  10
TORSDOF 4
