REMARK  7 active torsions:
REMARK  status: ('A' for Active; 'I' for Inactive)
REMARK    1  A    between atoms: C2_2  and  N17_17 
REMARK    2  A    between atoms: C4_4  and  N7_7 
REMARK    3  A    between atoms: C15_15  and  N16_16 
REMARK    4  A    between atoms: N17_17  and  C18_18 
REMARK    5  A    between atoms: C21_21  and  O24_24 
REMARK    6  A    between atoms: C27_27  and  S30_30 
REMARK    7  A    between atoms: S30_30  and  C33_33 
ROOT
ATOM      1  N7  1J2 d   1     -13.862   7.482 -19.835  0.00  0.00    -0.305 N 
ATOM      2  C8  1J2 d   1     -14.766   5.449 -19.927  0.00  0.00    -0.053 A 
ATOM      3  C9  1J2 d   1     -14.644   6.557 -19.184  0.00  0.00    -0.012 A 
ATOM      4  C10 1J2 d   1     -13.996   5.658 -21.160  0.00  0.00     0.019 A 
ATOM      5  C11 1J2 d   1     -13.445   6.955 -21.049  0.00  0.00     0.053 A 
ATOM      6  C12 1J2 d   1     -12.652   7.441 -22.092  0.00  0.00    -0.056 A 
ATOM      7  C13 1J2 d   1     -12.414   6.656 -23.205  0.00  0.00    -0.079 A 
ATOM      8  C14 1J2 d   1     -12.952   5.371 -23.310  0.00  0.00    -0.056 A 
ATOM      9  C15 1J2 d   1     -13.750   4.852 -22.296  0.00  0.00     0.042 A 
ATOM     10  H3  1J2 d   1     -15.332   4.557 -19.665  0.00  0.00     0.087 H 
ATOM     11  H4  1J2 d   1     -15.099   6.704 -18.205  0.00  0.00     0.112 H 
ATOM     12  H5  1J2 d   1     -12.223   8.434 -22.028  0.00  0.00     0.087 H 
ATOM     13  H6  1J2 d   1     -11.800   7.044 -24.009  0.00  0.00     0.083 H 
ATOM     14  H7  1J2 d   1     -12.745   4.773 -24.190  0.00  0.00     0.086 H 
ENDROOT
BRANCH   1  15
ATOM     15  C4  1J2 d   1     -13.541   8.736 -19.295  0.00  0.00     0.154 A 
ATOM     16  N3  1J2 d   1     -12.518   9.457 -19.774  0.00  0.00    -0.045 NA
ATOM     17  C2  1J2 d   1     -12.186  10.639 -19.258  0.00  0.00     0.724 A 
ATOM     18  N1  1J2 d   1     -12.853  11.145 -18.232  0.00  0.00    -0.075 NA
ATOM     19  C6  1J2 d   1     -13.880  10.477 -17.693  0.00  0.00     0.025 A 
ATOM     20  C5  1J2 d   1     -14.252   9.241 -18.198  0.00  0.00    -0.020 A 
ATOM     21  H2  1J2 d   1     -14.423  10.905 -16.858  0.00  0.00     0.115 H 
ATOM     22  H1  1J2 d   1     -15.069   8.681 -17.757  0.00  0.00     0.091 H 
BRANCH  17  23
ATOM     23  N17 1J2 d   1     -11.127  11.354 -19.794  0.00  0.00    -0.218 N 
ATOM     24  H8  1J2 d   1     -10.921  12.303 -19.452  0.00  0.00     0.178 HD
BRANCH  23  25
ATOM     25  C18 1J2 d   1     -10.297  10.757 -20.852  0.00  0.00     0.026 C 
ATOM     26  C19 1J2 d   1      -9.229   9.842 -20.229  0.00  0.00    -0.043 C 
ATOM     27  C20 1J2 d   1      -8.315   9.256 -21.314  0.00  0.00    -0.039 C 
ATOM     28  H10 1J2 d   1      -9.726   9.020 -19.693  0.00  0.00     0.036 H 
ATOM     29  H11 1J2 d   1      -8.621  10.426 -19.522  0.00  0.00     0.036 H 
ATOM     30  C21 1J2 d   1      -7.674  10.374 -22.146  0.00  0.00     0.035 C 
ATOM     31  H12 1J2 d   1      -8.909   8.609 -21.976  0.00  0.00     0.036 H 
ATOM     32  H13 1J2 d   1      -7.522   8.662 -20.836  0.00  0.00     0.036 H 
ATOM     33  C22 1J2 d   1      -8.760  11.255 -22.769  0.00  0.00    -0.039 C 
ATOM     34  H14 1J2 d   1      -7.011  10.985 -21.515  0.00  0.00     0.082 H 
ATOM     35  C23 1J2 d   1      -9.642  11.873 -21.677  0.00  0.00    -0.043 C 
ATOM     36  H15 1J2 d   1      -9.385  10.643 -23.436  0.00  0.00     0.036 H 
ATOM     37  H16 1J2 d   1      -8.285  12.060 -23.349  0.00  0.00     0.036 H 
ATOM     38  H17 1J2 d   1      -9.024  12.500 -21.018  0.00  0.00     0.036 H 
ATOM     39  H18 1J2 d   1     -10.424  12.490 -22.144  0.00  0.00     0.036 H 
ATOM     40  H9  1J2 d   1     -10.937  10.155 -21.513  0.00  0.00     0.073 H 
BRANCH  30  41
ATOM     41  O24 1J2 d   1      -6.933   9.752 -23.192  0.00  0.00    -0.396 OA
ATOM     42  H19 1J2 d   1      -6.256   9.203 -22.815  0.00  0.00     0.210 HD
ENDBRANCH  30  41
ENDBRANCH  23  25
ENDBRANCH  17  23
ENDBRANCH   1  15
BRANCH   9  43
ATOM     43  N16 1J2 d   1     -14.310   3.550 -22.391  0.00  0.00    -0.380 N 
ATOM     44  C25 1J2 d   1     -14.377   2.951 -23.746  0.00  0.00    -0.004 C 
ATOM     45  C26 1J2 d   1     -15.456   1.860 -23.738  0.00  0.00    -0.034 C 
ATOM     46  H20 1J2 d   1     -13.404   2.509 -24.006  0.00  0.00     0.064 H 
ATOM     47  H21 1J2 d   1     -14.637   3.725 -24.483  0.00  0.00     0.064 H 
ATOM     48  C27 1J2 d   1     -15.105   0.798 -22.675  0.00  0.00     0.047 C 
ATOM     49  H22 1J2 d   1     -15.505   1.385 -24.729  0.00  0.00     0.037 H 
ATOM     50  H23 1J2 d   1     -16.431   2.310 -23.499  0.00  0.00     0.037 H 
ATOM     51  C28 1J2 d   1     -14.924   1.465 -21.293  0.00  0.00    -0.034 C 
ATOM     52  H24 1J2 d   1     -14.148   0.334 -22.956  0.00  0.00     0.064 H 
ATOM     53  C29 1J2 d   1     -13.861   2.577 -21.376  0.00  0.00    -0.004 C 
ATOM     54  H25 1J2 d   1     -14.602   0.708 -20.563  0.00  0.00     0.037 H 
ATOM     55  H26 1J2 d   1     -15.882   1.901 -20.971  0.00  0.00     0.037 H 
ATOM     56  H27 1J2 d   1     -13.761   3.073 -20.399  0.00  0.00     0.064 H 
ATOM     57  H28 1J2 d   1     -12.892   2.148 -21.671  0.00  0.00     0.064 H 
BRANCH  48  58
ATOM     58  S30 1J2 d   1     -16.377  -0.516 -22.633  0.00  0.00     0.144 S 
ATOM     59  O31 1J2 d   1     -17.543  -0.082 -21.932  0.00  0.00    -0.228 OA
ATOM     60  O32 1J2 d   1     -16.533  -1.026 -23.956  0.00  0.00    -0.228 OA
BRANCH  58  61
ATOM     61  C33 1J2 d   1     -15.540  -1.790 -21.632  0.00  0.00     0.016 C 
ATOM     62  H29 1J2 d   1     -16.202  -2.662 -21.520  0.00  0.00     0.048 H 
ATOM     63  H30 1J2 d   1     -15.303  -1.379 -20.639  0.00  0.00     0.048 H 
ATOM     64  H31 1J2 d   1     -14.610  -2.098 -22.133  0.00  0.00     0.048 H 
ENDBRANCH  58  61
ENDBRANCH  48  58
ENDBRANCH   9  43
TORSDOF 7
