REMARK  19 active torsions:
REMARK  status: ('A' for Active; 'I' for Inactive)
REMARK    1  A    between atoms: CBM_2  and  CBO_5 
REMARK    2  A    between atoms: CBO_5  and  CBA_8 
REMARK    3  A    between atoms: CBA_8  and  CAT_9 
REMARK    4  A    between atoms: CAT_9  and  CAY_10 
REMARK    5  A    between atoms: CAY_10  and  SBI_11 
REMARK    6  A    between atoms: SBI_11  and  OAB_12 
REMARK    7  A    between atoms: SBI_11  and  CAX_13 
REMARK    8  A    between atoms: CAX_13  and  CAS_14 
REMARK    9  A    between atoms: CAS_14  and  CAQ_15 
REMARK   10  A    between atoms: CAQ_15  and  CAO_16 
REMARK   11  A    between atoms: CAO_16  and  CAM_17 
REMARK   12  A    between atoms: CAM_17  and  CAN_18 
REMARK   13  A    between atoms: CAN_18  and  CAP_19 
REMARK   14  A    between atoms: CAP_19  and  CAR_20 
REMARK   15  A    between atoms: CAR_20  and  CAU_21 
REMARK   16  A    between atoms: CAU_21  and  CBH_22 
REMARK   17  A    between atoms: CBG_27  and  OAD_28 
REMARK   18  A    between atoms: CBL_29  and  CAA_30 
REMARK   19  A    between atoms: CBD_37  and  OAC_38 
ROOT
ATOM      1  CAU FVS d   1      11.495   8.497  22.532  0.00  0.00    -0.061 C 
ATOM      2  H24 FVS d   1      12.557   8.771  22.447  0.00  0.00     0.033 H 
ATOM      3  H25 FVS d   1      11.397   7.401  22.523  0.00  0.00     0.033 H 
ENDROOT
BRANCH   1   4
ATOM      4  CAR FVS d   1      10.695   9.111  21.386  0.00  0.00    -0.065 C 
ATOM      5  H22 FVS d   1      10.435   8.348  20.638  0.00  0.00     0.033 H 
ATOM      6  H23 FVS d   1       9.776   9.585  21.761  0.00  0.00     0.033 H 
BRANCH   4   7
ATOM      7  CAP FVS d   1      11.637  10.152  20.793  0.00  0.00    -0.065 C 
ATOM      8  H20 FVS d   1      11.517  11.116  21.308  0.00  0.00     0.033 H 
ATOM      9  H21 FVS d   1      12.681   9.818  20.879  0.00  0.00     0.033 H 
BRANCH   7  10
ATOM     10  CAN FVS d   1      11.243  10.277  19.345  0.00  0.00    -0.065 C 
ATOM     11  H18 FVS d   1      10.906   9.308  18.948  0.00  0.00     0.033 H 
ATOM     12  H19 FVS d   1      10.443  11.022  19.222  0.00  0.00     0.033 H 
BRANCH  10  13
ATOM     13  CAM FVS d   1      12.517  10.733  18.647  0.00  0.00    -0.065 C 
ATOM     14  H16 FVS d   1      13.349  10.077  18.944  0.00  0.00     0.033 H 
ATOM     15  H17 FVS d   1      12.375  10.675  17.558  0.00  0.00     0.033 H 
BRANCH  13  16
ATOM     16  CAO FVS d   1      12.847  12.180  19.039  0.00  0.00    -0.065 C 
ATOM     17  H14 FVS d   1      12.707  12.846  18.175  0.00  0.00     0.033 H 
ATOM     18  H15 FVS d   1      12.195  12.506  19.863  0.00  0.00     0.033 H 
BRANCH  16  19
ATOM     19  CAQ FVS d   1      14.298  12.202  19.484  0.00  0.00    -0.064 C 
ATOM     20  H12 FVS d   1      14.461  13.091  20.111  0.00  0.00     0.033 H 
ATOM     21  H13 FVS d   1      14.500  11.295  20.073  0.00  0.00     0.033 H 
BRANCH  19  22
ATOM     22  CAS FVS d   1      15.274  12.248  18.301  0.00  0.00    -0.056 C 
ATOM     23  H10 FVS d   1      15.415  13.300  18.013  0.00  0.00     0.034 H 
ATOM     24  H11 FVS d   1      16.235  11.827  18.632  0.00  0.00     0.034 H 
BRANCH  22  25
ATOM     25  CAX FVS d   1      14.813  11.472  17.065  0.00  0.00    -0.009 C 
ATOM     26  H8  FVS d   1      14.356  10.502  17.309  0.00  0.00     0.050 H 
ATOM     27  H9  FVS d   1      14.130  12.048  16.423  0.00  0.00     0.050 H 
BRANCH  25  28
ATOM     28  SBI FVS d   1      16.591  11.309  16.328  0.00  0.00    -0.092 S 
BRANCH  28  29
ATOM     29  CAY FVS d   1      16.272  10.833  14.466  0.00  0.00    -0.009 C 
ATOM     30  H5  FVS d   1      15.739   9.873  14.406  0.00  0.00     0.050 H 
ATOM     31  H6  FVS d   1      15.676  11.614  13.972  0.00  0.00     0.050 H 
BRANCH  29  32
ATOM     32  CAT FVS d   1      17.663  10.715  13.793  0.00  0.00    -0.050 C 
ATOM     33  H3  FVS d   1      17.973  11.687  13.382  0.00  0.00     0.034 H 
ATOM     34  H4  FVS d   1      18.412  10.368  14.520  0.00  0.00     0.034 H 
BRANCH  32  35
ATOM     35  CBA FVS d   1      17.496   9.694  12.675  0.00  0.00     0.006 C 
ATOM     36  H1  FVS d   1      17.135   8.737  13.080  0.00  0.00     0.042 H 
ATOM     37  H2  FVS d   1      16.786  10.064  11.921  0.00  0.00     0.042 H 
BRANCH  35  38
ATOM     38  CBO FVS d   1      18.875   9.523  12.065  0.00  0.00     0.339 C 
ATOM     39  FAH FVS d   1      18.734   9.483  10.749  0.00  0.00    -0.196 F 
ATOM     40  FAI FVS d   1      19.654  10.543  12.423  0.00  0.00    -0.196 F 
BRANCH  38  41
ATOM     41  CBM FVS d   1      19.547   8.210  12.508  0.00  0.00     0.454 C 
ATOM     42  FAE FVS d   1      20.695   8.101  11.925  0.00  0.00    -0.165 F 
ATOM     43  FAF FVS d   1      19.741   8.232  13.795  0.00  0.00    -0.165 F 
ATOM     44  FAG FVS d   1      18.770   7.123  12.155  0.00  0.00    -0.165 F 
ENDBRANCH  38  41
ENDBRANCH  35  38
ENDBRANCH  32  35
ENDBRANCH  29  32
ENDBRANCH  28  29
BRANCH  28  45
ATOM     45  OAB FVS d   1      17.126  10.016  16.930  0.00  0.00    -0.341 OA
ATOM     46  H7  FVS d   1      16.475   9.331  16.835  0.00  0.00     0.226 HD
ENDBRANCH  28  45
ENDBRANCH  25  28
ENDBRANCH  22  25
ENDBRANCH  19  22
ENDBRANCH  16  19
ENDBRANCH  13  16
ENDBRANCH  10  13
ENDBRANCH   7  10
ENDBRANCH   4   7
ENDBRANCH   1   4
BRANCH   1  47
ATOM     47  CBH FVS d   1      10.896   9.075  23.820  0.00  0.00    -0.046 C 
ATOM     48  CBN FVS d   1       9.432   8.643  24.291  0.00  0.00    -0.039 C 
ATOM     49  CBK FVS d   1       8.790   7.298  23.806  0.00  0.00    -0.040 C 
ATOM     50  CBJ FVS d   1       9.393   8.530  25.847  0.00  0.00    -0.024 C 
ATOM     51  H27 FVS d   1       8.761   9.453  23.968  0.00  0.00     0.042 H 
ATOM     52  CAZ FVS d   1       8.707   6.970  22.300  0.00  0.00    -0.058 C 
ATOM     53  CBL FVS d   1       7.289   7.325  24.177  0.00  0.00    -0.014 C 
ATOM     54  H28 FVS d   1       9.316   6.479  24.318  0.00  0.00     0.042 H 
ATOM     55  CAV FVS d   1       7.562   5.956  22.193  0.00  0.00    -0.040 C 
ATOM     56  H29 FVS d   1       9.651   6.530  21.945  0.00  0.00     0.033 H 
ATOM     57  H30 FVS d   1       8.481   7.875  21.716  0.00  0.00     0.033 H 
ATOM     58  CBG FVS d   1       6.852   5.989  23.553  0.00  0.00     0.043 C 
ATOM     59  H31 FVS d   1       7.958   4.950  21.991  0.00  0.00     0.036 H 
ATOM     60  H32 FVS d   1       6.867   6.245  21.390  0.00  0.00     0.036 H 
ATOM     61  H33 FVS d   1       7.176   5.149  24.184  0.00  0.00     0.084 H 
ATOM     62  CBC FVS d   1       7.098   7.310  25.669  0.00  0.00    -0.055 C 
ATOM     63  CBB FVS d   1       7.920   8.472  26.329  0.00  0.00    -0.057 C 
ATOM     64  H38 FVS d   1       7.444   6.346  26.070  0.00  0.00     0.034 H 
ATOM     65  H39 FVS d   1       6.031   7.442  25.901  0.00  0.00     0.034 H 
ATOM     66  H40 FVS d   1       7.915   8.328  27.419  0.00  0.00     0.034 H 
ATOM     67  H41 FVS d   1       7.434   9.428  26.083  0.00  0.00     0.034 H 
ATOM     68  CBF FVS d   1      10.174   9.571  26.415  0.00  0.00    -0.047 A 
ATOM     69  H42 FVS d   1       9.864   7.579  26.134  0.00  0.00     0.048 H 
ATOM     70  CAK FVS d   1       9.734  10.448  27.411  0.00  0.00    -0.073 A 
ATOM     71  CBE FVS d   1      11.484   9.701  25.944  0.00  0.00    -0.048 A 
ATOM     72  CAJ FVS d   1      10.601  11.431  27.889  0.00  0.00    -0.051 A 
ATOM     73  H43 FVS d   1       8.729  10.365  27.808  0.00  0.00     0.084 H 
ATOM     74  CBD FVS d   1      11.898  11.552  27.389  0.00  0.00     0.066 A 
ATOM     75  H44 FVS d   1      10.261  12.112  28.661  0.00  0.00     0.087 H 
ATOM     76  CAL FVS d   1      12.344  10.690  26.405  0.00  0.00    -0.044 A 
ATOM     77  H46 FVS d   1      13.345  10.784  26.001  0.00  0.00     0.088 H 
ATOM     78  CAW FVS d   1      11.894   8.841  24.949  0.00  0.00    -0.037 C 
ATOM     79  H47 FVS d   1      12.916   9.081  24.622  0.00  0.00     0.040 H 
ATOM     80  H48 FVS d   1      11.855   7.797  25.294  0.00  0.00     0.040 H 
ATOM     81  H26 FVS d   1      10.834  10.160  23.653  0.00  0.00     0.041 H 
BRANCH  58  82
ATOM     82  OAD FVS d   1       5.427   5.916  23.360  0.00  0.00    -0.395 OA
ATOM     83  H34 FVS d   1       4.993   5.937  24.205  0.00  0.00     0.210 HD
ENDBRANCH  58  82
BRANCH  53  84
ATOM     84  CAA FVS d   1       6.493   8.494  23.539  0.00  0.00    -0.066 C 
ATOM     85  H35 FVS d   1       6.812   9.445  23.991  0.00  0.00     0.028 H 
ATOM     86  H36 FVS d   1       5.418   8.346  23.717  0.00  0.00     0.028 H 
ATOM     87  H37 FVS d   1       6.685   8.520  22.456  0.00  0.00     0.028 H 
ENDBRANCH  53  84
BRANCH  74  88
ATOM     88  OAC FVS d   1      12.737  12.509  27.849  0.00  0.00    -0.361 OA
ATOM     89  H45 FVS d   1      13.570  12.441  27.398  0.00  0.00     0.217 HD
ENDBRANCH  74  88
ENDBRANCH   1  47
TORSDOF 19
