REMARK  4 active torsions:
REMARK  status: ('A' for Active; 'I' for Inactive)
REMARK    1  A    between atoms: C1_1  and  S7_7 
REMARK    2  A    between atoms: S7_7  and  N10_10 
REMARK    3  A    between atoms: N10_10  and  C11_11 
REMARK    4  A    between atoms: C12_12  and  C20_20 
ROOT
ATOM      1  N10 1JF d   1     -27.927  51.954  56.720  0.00  0.00    -0.279 N 
ATOM      2  H3  1JF d   1     -27.642  51.546  57.587  0.00  0.00     0.179 HD
ENDROOT
BRANCH   1   3
ATOM      3  S7  1JF d   1     -27.721  53.634  56.555  0.00  0.00     0.265 S 
ATOM      4  O8  1JF d   1     -28.609  54.203  55.563  0.00  0.00    -0.200 OA
ATOM      5  O9  1JF d   1     -27.837  54.194  57.899  0.00  0.00    -0.200 OA
BRANCH   3   6
ATOM      6  C1  1JF d   1     -26.008  53.870  56.097  0.00  0.00     0.103 A 
ATOM      7  C2  1JF d   1     -25.309  55.121  56.169  0.00  0.00     0.059 A 
ATOM      8  C3  1JF d   1     -23.933  55.185  55.776  0.00  0.00    -0.038 A 
ATOM      9 CL1  1JF d   1     -25.979  56.623  56.705  0.00  0.00    -0.083 Cl
ATOM     10  C4  1JF d   1     -23.244  54.025  55.310  0.00  0.00     0.057 A 
ATOM     11  H1  1JF d   1     -23.406  56.130  55.834  0.00  0.00     0.088 H 
ATOM     12  C5  1JF d   1     -23.944  52.774  55.236  0.00  0.00     0.057 A 
ATOM     13 CL2  1JF d   1     -21.579  54.218  54.862  0.00  0.00    -0.082 Cl
ATOM     14  C6  1JF d   1     -25.304  52.710  55.626  0.00  0.00    -0.036 A 
ATOM     15 CL3  1JF d   1     -23.231  51.294  54.691  0.00  0.00    -0.083 Cl
ATOM     16  H2  1JF d   1     -25.827  51.762  55.568  0.00  0.00     0.088 H 
ENDBRANCH   3   6
ENDBRANCH   1   3
BRANCH   1  17
ATOM     17  C11 1JF d   1     -28.478  51.054  55.719  0.00  0.00     0.061 A 
ATOM     18  C12 1JF d   1     -29.050  49.789  56.088  0.00  0.00     0.068 A 
ATOM     19  C13 1JF d   1     -29.573  48.927  55.076  0.00  0.00    -0.063 A 
ATOM     20  C14 1JF d   1     -29.538  49.305  53.711  0.00  0.00    -0.061 A 
ATOM     21  H4  1JF d   1     -30.002  47.972  55.356  0.00  0.00     0.085 H 
ATOM     22  C15 1JF d   1     -28.981  50.548  53.339  0.00  0.00     0.036 A 
ATOM     23  H5  1JF d   1     -29.938  48.641  52.953  0.00  0.00     0.086 H 
ATOM     24  C16 1JF d   1     -28.449  51.427  54.327  0.00  0.00    -0.035 A 
ATOM     25 CL4  1JF d   1     -28.959  50.990  51.679  0.00  0.00    -0.084 Cl
ATOM     26  H6  1JF d   1     -28.022  52.378  54.031  0.00  0.00     0.089 H 
BRANCH  18  27
ATOM     27  C20 1JF d   1     -29.118  49.349  57.486  0.00  0.00     0.211 C 
ATOM     28  O21 1JF d   1     -30.147  49.190  58.128  0.00  0.00    -0.644 OA
ATOM     29  O22 1JF d   1     -27.894  49.134  58.001  0.00  0.00    -0.644 OA
ENDBRANCH  18  27
ENDBRANCH   1  17
TORSDOF 4
