REMARK  4 active torsions:
REMARK  status: ('A' for Active; 'I' for Inactive)
REMARK    1  A    between atoms: C6_6  and  S7_7 
REMARK    2  A    between atoms: S7_7  and  N10_10 
REMARK    3  A    between atoms: N10_10  and  C11_11 
REMARK    4  A    between atoms: C12_12  and  C17_17 
ROOT
ATOM      1  C11 1JG d   1     -25.323  51.025  56.789  0.00  0.00     0.061 A 
ATOM      2  C12 1JG d   1     -24.474  50.163  55.987  0.00  0.00     0.068 A 
ATOM      3  C13 1JG d   1     -23.582  50.782  55.037  0.00  0.00    -0.063 A 
ATOM      4  C14 1JG d   1     -23.534  52.200  54.893  0.00  0.00    -0.061 A 
ATOM      5  C15 1JG d   1     -24.372  53.017  55.693  0.00  0.00     0.036 A 
ATOM      6  C16 1JG d   1     -25.254  52.440  56.626  0.00  0.00    -0.035 A 
ATOM      7 CL1  1JG d   1     -24.321  54.726  55.537  0.00  0.00    -0.084 Cl
ATOM      8  H4  1JG d   1     -22.939  50.160  54.424  0.00  0.00     0.085 H 
ATOM      9  H5  1JG d   1     -22.859  52.651  54.175  0.00  0.00     0.086 H 
ATOM     10  H6  1JG d   1     -25.889  53.080  57.228  0.00  0.00     0.089 H 
ENDROOT
BRANCH   1  11
ATOM     11  N10 1JG d   1     -26.262  50.545  57.772  0.00  0.00    -0.279 N 
ATOM     12  H3  1JG d   1     -25.942  50.087  58.602  0.00  0.00     0.179 HD
BRANCH  11  13
ATOM     13  S7  1JG d   1     -27.930  50.773  57.492  0.00  0.00     0.269 S 
ATOM     14  O8  1JG d   1     -28.645  49.851  58.369  0.00  0.00    -0.200 OA
ATOM     15  O9  1JG d   1     -28.278  52.197  57.575  0.00  0.00    -0.200 OA
BRANCH  13  16
ATOM     16  C6  1JG d   1     -28.406  50.289  55.849  0.00  0.00     0.121 A 
ATOM     17  S2  1JG d   1     -28.356  51.515  54.623  0.00  0.00    -0.069 SA
ATOM     18  C3  1JG d   1     -28.873  50.376  53.472  0.00  0.00     0.052 A 
ATOM     19 BR1  1JG d   1     -29.122  50.810  51.665  0.00  0.00    -0.043 Br
ATOM     20  C4  1JG d   1     -29.087  49.126  53.956  0.00  0.00    -0.058 A 
ATOM     21  C5  1JG d   1     -28.816  49.068  55.340  0.00  0.00    -0.052 A 
ATOM     22  H1  1JG d   1     -29.423  48.281  53.357  0.00  0.00     0.086 H 
ATOM     23  H2  1JG d   1     -28.918  48.165  55.940  0.00  0.00     0.086 H 
ENDBRANCH  13  16
ENDBRANCH  11  13
ENDBRANCH   1  11
BRANCH   2  24
ATOM     24  C17 1JG d   1     -24.508  48.679  56.127  0.00  0.00     0.211 C 
ATOM     25  O18 1JG d   1     -25.339  48.048  56.764  0.00  0.00    -0.644 OA
ATOM     26  O19 1JG d   1     -23.500  48.054  55.480  0.00  0.00    -0.644 OA
ENDBRANCH   2  24
TORSDOF 4
