REMARK  7 active torsions:
REMARK  status: ('A' for Active; 'I' for Inactive)
REMARK    1  A    between atoms: C3_3  and  C28_27 
REMARK    2  A    between atoms: C6_6  and  S7_7 
REMARK    3  A    between atoms: S7_7  and  N10_10 
REMARK    4  A    between atoms: N10_10  and  C11_11 
REMARK    5  A    between atoms: C12_12  and  C17_17 
REMARK    6  A    between atoms: C14_14  and  O20_20 
REMARK    7  A    between atoms: O20_20  and  C21_21 
ROOT
ATOM      1  C11 1JH d   1     -23.840  49.733  57.579  0.00  0.00     0.059 A 
ATOM      2  C12 1JH d   1     -22.988  48.927  56.723  0.00  0.00     0.070 A 
ATOM      3  C13 1JH d   1     -21.825  49.505  56.142  0.00  0.00    -0.032 A 
ATOM      4  C14 1JH d   1     -21.473  50.857  56.386  0.00  0.00     0.077 A 
ATOM      5  C15 1JH d   1     -22.308  51.647  57.237  0.00  0.00    -0.048 A 
ATOM      6  C16 1JH d   1     -23.476  51.089  57.824  0.00  0.00    -0.053 A 
ATOM      7  H6  1JH d   1     -21.195  48.900  55.500  0.00  0.00     0.089 H 
ATOM      8  H7  1JH d   1     -22.048  52.680  57.436  0.00  0.00     0.087 H 
ATOM      9  H8  1JH d   1     -24.098  51.702  58.466  0.00  0.00     0.087 H 
ENDROOT
BRANCH   1  10
ATOM     10  N10 1JH d   1     -25.057  49.176  58.196  0.00  0.00    -0.280 N 
ATOM     11  H5  1JH d   1     -25.005  48.295  58.667  0.00  0.00     0.179 HD
BRANCH  10  12
ATOM     12  S7  1JH d   1     -26.585  50.012  58.127  0.00  0.00     0.263 S 
ATOM     13  O8  1JH d   1     -26.491  51.405  58.556  0.00  0.00    -0.200 OA
ATOM     14  O9  1JH d   1     -27.578  49.163  58.785  0.00  0.00    -0.200 OA
BRANCH  12  15
ATOM     15  C6  1JH d   1     -27.077  50.033  56.403  0.00  0.00     0.079 A 
ATOM     16  C1  1JH d   1     -27.658  48.868  55.832  0.00  0.00    -0.060 A 
ATOM     17  C2  1JH d   1     -28.059  48.881  54.467  0.00  0.00    -0.076 A 
ATOM     18  H1  1JH d   1     -27.795  47.976  56.432  0.00  0.00     0.085 H 
ATOM     19  C3  1JH d   1     -27.893  50.051  53.666  0.00  0.00    -0.062 A 
ATOM     20  H2  1JH d   1     -28.496  47.991  54.029  0.00  0.00     0.084 H 
ATOM     21  C4  1JH d   1     -27.306  51.221  54.250  0.00  0.00    -0.076 A 
ATOM     22  C5  1JH d   1     -26.900  51.218  55.619  0.00  0.00    -0.060 A 
ATOM     23  H3  1JH d   1     -27.170  52.113  53.649  0.00  0.00     0.084 H 
ATOM     24  H4  1JH d   1     -26.462  52.105  56.061  0.00  0.00     0.085 H 
BRANCH  19  25
ATOM     25  C28 1JH d   1     -28.326  50.047  52.225  0.00  0.00    -0.051 C 
ATOM     26  H14 1JH d   1     -28.748  49.063  51.972  0.00  0.00     0.033 H 
ATOM     27  H15 1JH d   1     -27.458  50.250  51.581  0.00  0.00     0.033 H 
ATOM     28  H16 1JH d   1     -29.088  50.824  52.069  0.00  0.00     0.033 H 
ENDBRANCH  19  25
ENDBRANCH  12  15
ENDBRANCH  10  12
ENDBRANCH   1  10
BRANCH   2  29
ATOM     29  C17 1JH d   1     -23.325  47.532  56.460  0.00  0.00     0.211 C 
ATOM     30  O18 1JH d   1     -22.327  46.826  55.874  0.00  0.00    -0.644 OA
ATOM     31  O19 1JH d   1     -24.400  47.027  56.747  0.00  0.00    -0.644 OA
ENDBRANCH   2  29
BRANCH   4  32
ATOM     32  O20 1JH d   1     -20.308  51.241  55.741  0.00  0.00    -0.311 OA
BRANCH  32  33
ATOM     33  C21 1JH d   1     -20.449  52.352  54.795  0.00  0.00     0.076 A 
ATOM     34  C22 1JH d   1     -21.642  52.533  53.986  0.00  0.00    -0.050 A 
ATOM     35  C23 1JH d   1     -21.728  53.632  53.070  0.00  0.00    -0.080 A 
ATOM     36  H9  1JH d   1     -22.468  51.836  54.075  0.00  0.00     0.087 H 
ATOM     37  C24 1JH d   1     -20.626  54.559  52.950  0.00  0.00    -0.083 A 
ATOM     38  H10 1JH d   1     -22.619  53.768  52.468  0.00  0.00     0.083 H 
ATOM     39  C25 1JH d   1     -19.441  54.386  53.748  0.00  0.00    -0.080 A 
ATOM     40  H11 1JH d   1     -20.692  55.389  52.255  0.00  0.00     0.083 H 
ATOM     41  C26 1JH d   1     -19.353  53.287  54.667  0.00  0.00    -0.050 A 
ATOM     42  H12 1JH d   1     -18.617  55.084  53.655  0.00  0.00     0.083 H 
ATOM     43  H13 1JH d   1     -18.460  53.157  55.268  0.00  0.00     0.087 H 
ENDBRANCH  32  33
ENDBRANCH   4  32
TORSDOF 7
