REMARK  32 active torsions:
REMARK  status: ('A' for Active; 'I' for Inactive)
REMARK    1  A    between atoms: N_1  and  CA_2 
REMARK    2  A    between atoms: CA_2  and  C_3 
REMARK    3  A    between atoms: CA_2  and  CB_5 
REMARK       I    between atoms: C_3  and  N_8 
REMARK    4  A    between atoms: CB_5  and  OG1_6 
REMARK    5  A    between atoms: CB_5  and  CG2_7 
REMARK    6  A    between atoms: N_8  and  CA_9 
REMARK    7  A    between atoms: CA_9  and  C_10 
REMARK    8  A    between atoms: CA_9  and  CB_12 
REMARK       I    between atoms: C_10  and  N_16 
REMARK    9  A    between atoms: CB_12  and  CG_13 
REMARK       I    between atoms: CG_13  and  ND2_15 
REMARK   10  A    between atoms: N_16  and  CA_17 
REMARK   11  A    between atoms: CA_17  and  C_18 
REMARK   12  A    between atoms: CA_17  and  CB_20 
REMARK       I    between atoms: C_18  and  N_24 
REMARK   13  A    between atoms: CB_20  and  CG_21 
REMARK   14  A    between atoms: CG_21  and  CD1_22 
REMARK   15  A    between atoms: CG_21  and  CD2_23 
REMARK   16  A    between atoms: N_24  and  CA_25 
REMARK   17  A    between atoms: CA_25  and  C_26 
REMARK   18  A    between atoms: CA_25  and  CB_28 
REMARK       I    between atoms: C_26  and  N_36 
REMARK   19  A    between atoms: CB_28  and  CG_29 
REMARK   20  A    between atoms: CZ_34  and  OH_35 
REMARK   21  A    between atoms: N_36  and  CA_37 
REMARK   22  A    between atoms: CA_37  and  C_38 
REMARK   23  A    between atoms: CA_37  and  CB_40 
REMARK       I    between atoms: C_38  and  N_44 
REMARK   24  A    between atoms: CB_40  and  CG_41 
REMARK   25  A    between atoms: CG_41  and  SD_42 
REMARK   26  A    between atoms: SD_42  and  CE_43 
REMARK   27  A    between atoms: N_44  and  CA_45 
REMARK   28  A    between atoms: CA_45  and  C_46 
REMARK   29  A    between atoms: CA_45  and  CB_48 
REMARK   30  A    between atoms: CB_48  and  CG_49 
REMARK   31  A    between atoms: CG_49  and  CD1_50 
REMARK   32  A    between atoms: CG_49  and  CD2_51 
ROOT
ATOM      1  CA  TYR d   1       1.212  19.666  15.849  0.00  0.00     0.093 C 
ATOM      2  H   TYR d   1       0.565  20.552  15.933  0.00  0.00     0.088 H 
ENDROOT
BRANCH   1   3
ATOM      3  N   TYR d   1       1.118  19.180  14.470  0.00  0.00    -0.346 N 
ATOM      4  C   LEU d   1       1.875  18.198  13.901  0.00  0.00     0.241 C 
ATOM      5  O   LEU d   1       2.777  17.577  14.496  0.00  0.00    -0.271 OA
ATOM      6  H   TYR d   1       0.429  19.612  13.887  0.00  0.00     0.163 HD
BRANCH   4   7
ATOM      7  CA  LEU d   1       1.524  17.822  12.460  0.00  0.00     0.089 C 
ATOM      8  H   LEU d   1       1.233  16.761  12.456  0.00  0.00     0.087 H 
BRANCH   7   9
ATOM      9  N   LEU d   1       0.390  18.593  11.961  0.00  0.00    -0.346 N 
ATOM     10  C   ASN d   1      -0.867  18.125  12.077  0.00  0.00     0.241 C 
ATOM     11  O   ASN d   1      -1.129  17.024  12.577  0.00  0.00    -0.271 OA
ATOM     12  H   LEU d   1       0.548  19.480  11.527  0.00  0.00     0.163 HD
BRANCH  10  13
ATOM     13  CA  ASN d   1      -1.993  18.972  11.477  0.00  0.00     0.097 C 
ATOM     14  H   ASN d   1      -1.566  19.896  11.059  0.00  0.00     0.088 H 
BRANCH  13  15
ATOM     15  N   ASN d   1      -2.577  18.179  10.401  0.00  0.00    -0.345 N 
ATOM     16  C   THR d   1      -2.593  18.513   9.106  0.00  0.00     0.251 C 
ATOM     17  O   THR d   1      -2.222  19.618   8.664  0.00  0.00    -0.271 OA
ATOM     18  H   ASN d   1      -3.002  17.310  10.654  0.00  0.00     0.163 HD
BRANCH  16  19
ATOM     19  CA  THR d   1      -3.129  17.427   8.206  0.00  0.00     0.199 C 
ATOM     20  H   THR d   1      -3.318  16.540   8.829  0.00  0.00     0.103 H 
BRANCH  19  21
ATOM     21  N   THR d   1      -4.399  17.811   7.597  0.00  0.00    -0.064 N 
ATOM     22  H   THR d   1      -5.057  18.057   8.320  0.00  0.00     0.275 HD
ATOM     23  H   THR d   1      -4.762  17.038   7.061  0.00  0.00     0.275 HD
ATOM     24  H   THR d   1      -4.255  18.603   6.990  0.00  0.00     0.275 HD
ENDBRANCH  19  21
BRANCH  19  25
ATOM     25  CB  THR d   1      -2.080  17.039   7.152  0.00  0.00     0.068 C 
ATOM     26  H   THR d   1      -1.825  17.942   6.578  0.00  0.00     0.086 H 
BRANCH  25  27
ATOM     27  OG1 THR d   1      -2.654  16.082   6.261  0.00  0.00    -0.393 OA
ATOM     28  H   THR d   1      -2.012  15.836   5.606  0.00  0.00     0.210 HD
ENDBRANCH  25  27
BRANCH  25  29
ATOM     29  CG2 THR d   1      -0.760  16.483   7.771  0.00  0.00    -0.050 C 
ATOM     30  H   THR d   1      -0.057  16.226   6.965  0.00  0.00     0.031 H 
ATOM     31  H   THR d   1      -0.983  15.583   8.363  0.00  0.00     0.031 H 
ATOM     32  H   THR d   1      -0.309  17.247   8.421  0.00  0.00     0.031 H 
ENDBRANCH  25  29
ENDBRANCH  19  25
ENDBRANCH  16  19
ENDBRANCH  13  15
BRANCH  13  33
ATOM     33  CB  ASN d   1      -3.053  19.363  12.523  0.00  0.00     0.036 C 
ATOM     34  H   ASN d   1      -3.249  18.489  13.162  0.00  0.00     0.051 H 
ATOM     35  H   ASN d   1      -3.975  19.645  11.994  0.00  0.00     0.051 H 
BRANCH  33  36
ATOM     36  CG  ASN d   1      -2.636  20.520  13.409  0.00  0.00     0.217 C 
ATOM     37  OD1 ASN d   1      -1.448  20.804  13.600  0.00  0.00    -0.274 OA
ATOM     38  ND2 ASN d   1      -3.607  21.200  14.000  0.00  0.00    -0.370 N 
ATOM     39  H   ASN d   1      -3.386  21.973  14.595  0.00  0.00     0.159 HD
ATOM     40  H   ASN d   1      -4.561  20.941  13.851  0.00  0.00     0.159 HD
ENDBRANCH  33  36
ENDBRANCH  13  33
ENDBRANCH  10  13
ENDBRANCH   7   9
BRANCH   7  41
ATOM     41  CB  LEU d   1       2.743  17.977  11.528  0.00  0.00    -0.035 C 
ATOM     42  H   LEU d   1       3.578  17.405  11.960  0.00  0.00     0.037 H 
ATOM     43  H   LEU d   1       3.010  19.043  11.490  0.00  0.00     0.037 H 
BRANCH  41  44
ATOM     44  CG  LEU d   1       2.525  17.488  10.086  0.00  0.00    -0.059 C 
ATOM     45  H   LEU d   1       1.645  18.014   9.688  0.00  0.00     0.038 H 
BRANCH  44  46
ATOM     46  CD1 LEU d   1       3.729  17.871   9.194  0.00  0.00    -0.073 C 
ATOM     47  H   LEU d   1       3.554  17.513   8.169  0.00  0.00     0.028 H 
ATOM     48  H   LEU d   1       4.643  17.407   9.593  0.00  0.00     0.028 H 
ATOM     49  H   LEU d   1       3.846  18.965   9.186  0.00  0.00     0.028 H 
ENDBRANCH  44  46
BRANCH  44  50
ATOM     50  CD2 LEU d   1       2.204  15.972  10.049  0.00  0.00    -0.073 C 
ATOM     51  H   LEU d   1       1.342  15.764  10.700  0.00  0.00     0.028 H 
ATOM     52  H   LEU d   1       3.077  15.404  10.403  0.00  0.00     0.028 H 
ATOM     53  H   LEU d   1       1.965  15.673   9.018  0.00  0.00     0.028 H 
ENDBRANCH  44  50
ENDBRANCH  41  44
ENDBRANCH   7  41
ENDBRANCH   4   7
ENDBRANCH   1   3
BRANCH   1  54
ATOM     54  C   TYR d   1       2.631  20.106  16.192  0.00  0.00     0.241 C 
ATOM     55  O   TYR d   1       3.184  19.751  17.236  0.00  0.00    -0.271 OA
ATOM     56  N   MET d   1       3.210  20.905  15.302  0.00  0.00    -0.346 N 
ATOM     57  H   MET d   1       2.728  21.130  14.455  0.00  0.00     0.163 HD
BRANCH  56  58
ATOM     58  CA  MET d   1       4.531  21.457  15.539  0.00  0.00     0.090 C 
ATOM     59  H   MET d   1       5.134  20.726  16.098  0.00  0.00     0.087 H 
BRANCH  58  60
ATOM     60  C   MET d   1       4.330  22.684  16.404  0.00  0.00     0.241 C 
ATOM     61  O   MET d   1       3.361  23.416  16.197  0.00  0.00    -0.271 OA
ATOM     62  N   LEU d   1       5.158  22.843  17.443  0.00  0.00    -0.345 N 
ATOM     63  H   LEU d   1       5.906  22.192  17.569  0.00  0.00     0.163 HD
BRANCH  62  64
ATOM     64  CA  LEU d   1       5.006  23.937  18.401  0.00  0.00     0.096 C 
ATOM     65  H   LEU d   1       4.030  24.413  18.227  0.00  0.00     0.089 H 
BRANCH  64  66
ATOM     66  C   LEU d   1       6.089  24.997  18.210  0.00  0.00     0.196 C 
ATOM     67  O   LEU d   1       7.198  24.867  18.726  0.00  0.00    -0.646 OA
ATOM     68  O1  LEU d   1       5.843  26.018  17.514  0.00  0.00    -0.646 OA
ENDBRANCH  64  66
BRANCH  64  69
ATOM     69  CB  LEU d   1       5.022  23.382  19.839  0.00  0.00    -0.034 C 
ATOM     70  H   LEU d   1       4.867  24.225  20.529  0.00  0.00     0.037 H 
ATOM     71  H   LEU d   1       6.012  22.938  20.019  0.00  0.00     0.037 H 
BRANCH  69  72
ATOM     72  CG  LEU d   1       3.967  22.321  20.149  0.00  0.00    -0.059 C 
ATOM     73  H   LEU d   1       3.756  21.783  19.213  0.00  0.00     0.038 H 
BRANCH  72  74
ATOM     74  CD1 LEU d   1       4.485  21.305  21.141  0.00  0.00    -0.073 C 
ATOM     75  H   LEU d   1       3.704  20.557  21.342  0.00  0.00     0.028 H 
ATOM     76  H   LEU d   1       4.756  21.813  22.078  0.00  0.00     0.028 H 
ATOM     77  H   LEU d   1       5.372  20.805  20.725  0.00  0.00     0.028 H 
ENDBRANCH  72  74
BRANCH  72  78
ATOM     78  CD2 LEU d   1       2.673  22.953  20.602  0.00  0.00    -0.073 C 
ATOM     79  H   LEU d   1       2.338  23.682  19.850  0.00  0.00     0.028 H 
ATOM     80  H   LEU d   1       2.831  23.464  21.563  0.00  0.00     0.028 H 
ATOM     81  H   LEU d   1       1.907  22.173  20.723  0.00  0.00     0.028 H 
ENDBRANCH  72  78
ENDBRANCH  69  72
ENDBRANCH  64  69
ENDBRANCH  62  64
ENDBRANCH  58  60
BRANCH  58  82
ATOM     82  CB  MET d   1       5.250  21.747  14.222  0.00  0.00    -0.030 C 
ATOM     83  H   MET d   1       6.187  22.279  14.442  0.00  0.00     0.037 H 
ATOM     84  H   MET d   1       4.604  22.384  13.600  0.00  0.00     0.037 H 
BRANCH  82  85
ATOM     85  CG  MET d   1       5.580  20.476  13.443  0.00  0.00    -0.021 C 
ATOM     86  H   MET d   1       4.671  19.860  13.375  0.00  0.00     0.049 H 
ATOM     87  H   MET d   1       6.359  19.922  13.988  0.00  0.00     0.049 H 
BRANCH  85  88
ATOM     88  SD  MET d   1       6.173  20.811  11.776  0.00  0.00    -0.173 SA
BRANCH  88  89
ATOM     89  CE  MET d   1       7.644  21.738  12.152  0.00  0.00    -0.035 C 
ATOM     90  H   MET d   1       8.143  22.030  11.216  0.00  0.00     0.041 H 
ATOM     91  H   MET d   1       8.325  21.117  12.752  0.00  0.00     0.041 H 
ATOM     92  H   MET d   1       7.374  22.640  12.720  0.00  0.00     0.041 H 
ENDBRANCH  88  89
ENDBRANCH  85  88
ENDBRANCH  82  85
ENDBRANCH  58  82
ENDBRANCH  56  58
ENDBRANCH   1  54
BRANCH   1  93
ATOM     93  CB  TYR d   1       0.682  18.609  16.840  0.00  0.00    -0.014 C 
ATOM     94  H   TYR d   1       0.842  18.964  17.869  0.00  0.00     0.043 H 
ATOM     95  H   TYR d   1       1.227  17.666  16.689  0.00  0.00     0.043 H 
BRANCH  93  96
ATOM     96  CG  TYR d   1      -0.790  18.372  16.621  0.00  0.00    -0.056 A 
ATOM     97  CD1 TYR d   1      -1.739  19.233  17.170  0.00  0.00    -0.074 A 
ATOM     98  CE1 TYR d   1      -3.094  19.065  16.914  0.00  0.00    -0.051 A 
ATOM     99  H   TYR d   1      -1.414  20.047  17.807  0.00  0.00     0.084 H 
ATOM    100  CZ  TYR d   1      -3.517  18.034  16.090  0.00  0.00     0.065 A 
ATOM    101  H   TYR d   1      -3.818  19.738  17.358  0.00  0.00     0.087 H 
ATOM    102  CE2 TYR d   1      -2.594  17.166  15.530  0.00  0.00    -0.051 A 
ATOM    103  CD2 TYR d   1      -1.240  17.352  15.783  0.00  0.00    -0.074 A 
ATOM    104  H   TYR d   1      -2.925  16.349  14.900  0.00  0.00     0.087 H 
ATOM    105  H   TYR d   1      -0.518  16.690  15.319  0.00  0.00     0.084 H 
BRANCH 100 106
ATOM    106  OH  TYR d   1      -4.853  17.878  15.839  0.00  0.00    -0.361 OA
ATOM    107  H   TYR d   1      -5.009  17.952  14.905  0.00  0.00     0.217 HD
ENDBRANCH 100 106
ENDBRANCH  93  96
ENDBRANCH   1  93
TORSDOF 32
