REMARK  7 active torsions:
REMARK  status: ('A' for Active; 'I' for Inactive)
REMARK    1  A    between atoms: C3_3  and  C27_27 
REMARK    2  A    between atoms: C6_6  and  S7_7 
REMARK    3  A    between atoms: S7_7  and  N10_10 
REMARK    4  A    between atoms: N10_10  and  C11_11 
REMARK    5  A    between atoms: C12_12  and  C17_17 
REMARK    6  A    between atoms: C15_15  and  O20_20 
REMARK    7  A    between atoms: O20_20  and  C21_21 
ROOT
ATOM      1  C11 1JL d   1     -23.987  50.044  56.962  0.00  0.00     0.062 A 
ATOM      2  C12 1JL d   1     -23.154  49.027  56.333  0.00  0.00     0.068 A 
ATOM      3  C13 1JL d   1     -22.073  49.397  55.485  0.00  0.00    -0.061 A 
ATOM      4  C14 1JL d   1     -21.780  50.738  55.239  0.00  0.00    -0.049 A 
ATOM      5  C15 1JL d   1     -22.566  51.760  55.833  0.00  0.00     0.078 A 
ATOM      6  C16 1JL d   1     -23.672  51.423  56.699  0.00  0.00    -0.023 A 
ATOM      7  H6  1JL d   1     -21.468  48.625  55.023  0.00  0.00     0.085 H 
ATOM      8  H7  1JL d   1     -20.950  51.001  54.593  0.00  0.00     0.087 H 
ATOM      9  H8  1JL d   1     -24.265  52.210  57.151  0.00  0.00     0.091 H 
ENDROOT
BRANCH   1  10
ATOM     10  N10 1JL d   1     -25.118  49.648  57.858  0.00  0.00    -0.279 N 
ATOM     11  H5  1JL d   1     -24.935  48.937  58.537  0.00  0.00     0.179 HD
BRANCH  10  12
ATOM     12  S7  1JL d   1     -26.758  50.330  57.822  0.00  0.00     0.263 S 
ATOM     13  O8  1JL d   1     -27.676  49.420  58.519  0.00  0.00    -0.200 OA
ATOM     14  O9  1JL d   1     -26.731  51.740  58.251  0.00  0.00    -0.200 OA
BRANCH  12  15
ATOM     15  C6  1JL d   1     -27.252  50.357  56.120  0.00  0.00     0.079 A 
ATOM     16  C1  1JL d   1     -27.039  51.533  55.348  0.00  0.00    -0.060 A 
ATOM     17  C2  1JL d   1     -27.429  51.553  53.992  0.00  0.00    -0.076 A 
ATOM     18  H1  1JL d   1     -26.581  52.406  55.798  0.00  0.00     0.085 H 
ATOM     19  C3  1JL d   1     -28.033  50.401  53.405  0.00  0.00    -0.062 A 
ATOM     20  H2  1JL d   1     -27.270  52.444  53.396  0.00  0.00     0.084 H 
ATOM     21  C4  1JL d   1     -28.241  49.231  54.196  0.00  0.00    -0.076 A 
ATOM     22  C5  1JL d   1     -27.852  49.204  55.553  0.00  0.00    -0.060 A 
ATOM     23  H3  1JL d   1     -28.701  48.356  53.751  0.00  0.00     0.084 H 
ATOM     24  H4  1JL d   1     -28.010  48.315  56.153  0.00  0.00     0.085 H 
BRANCH  19  25
ATOM     25  C27 1JL d   1     -28.444  50.427  51.972  0.00  0.00    -0.051 C 
ATOM     26  H14 1JL d   1     -28.202  51.409  51.539  0.00  0.00     0.033 H 
ATOM     27  H15 1JL d   1     -29.527  50.251  51.898  0.00  0.00     0.033 H 
ATOM     28  H16 1JL d   1     -27.906  49.641  51.422  0.00  0.00     0.033 H 
ENDBRANCH  19  25
ENDBRANCH  12  15
ENDBRANCH  10  12
ENDBRANCH   1  10
BRANCH   2  29
ATOM     29  C17 1JL d   1     -23.402  47.608  56.553  0.00  0.00     0.211 C 
ATOM     30  O18 1JL d   1     -24.511  47.108  56.717  0.00  0.00    -0.644 OA
ATOM     31  O19 1JL d   1     -22.270  46.862  56.549  0.00  0.00    -0.644 OA
ENDBRANCH   2  29
BRANCH   5  32
ATOM     32  O20 1JL d   1     -22.299  53.114  55.615  0.00  0.00    -0.311 OA
BRANCH  32  33
ATOM     33  C21 1JL d   1     -21.474  53.566  54.542  0.00  0.00     0.076 A 
ATOM     34  C22 1JL d   1     -21.956  53.854  53.227  0.00  0.00    -0.050 A 
ATOM     35  C23 1JL d   1     -21.053  54.303  52.219  0.00  0.00    -0.080 A 
ATOM     36  H9  1JL d   1     -23.008  53.731  52.996  0.00  0.00     0.087 H 
ATOM     37  C24 1JL d   1     -19.666  54.465  52.509  0.00  0.00    -0.083 A 
ATOM     38  H10 1JL d   1     -21.424  54.523  51.224  0.00  0.00     0.083 H 
ATOM     39  C25 1JL d   1     -19.178  54.185  53.811  0.00  0.00    -0.080 A 
ATOM     40  H11 1JL d   1     -18.986  54.802  51.735  0.00  0.00     0.083 H 
ATOM     41  C26 1JL d   1     -20.073  53.735  54.828  0.00  0.00    -0.050 A 
ATOM     42  H12 1JL d   1     -18.125  54.313  54.034  0.00  0.00     0.083 H 
ATOM     43  H13 1JL d   1     -19.696  53.519  55.821  0.00  0.00     0.087 H 
ENDBRANCH  32  33
ENDBRANCH   5  32
TORSDOF 7
