REMARK  5 active torsions:
REMARK  status: ('A' for Active; 'I' for Inactive)
REMARK    1  A    between atoms: C7_15  and  C4_4 
REMARK    2  A    between atoms: N9_17  and  C16_10 
REMARK    3  A    between atoms: C12_19  and  C19_12 
REMARK    4  A    between atoms: C19_12  and  C20_22 
REMARK    5  A    between atoms: C25_14  and  N26_26 
REMARK       I    between atoms: C7_15  and  N9_17 
ROOT
ATOM      1  C1  1H8 d   1     -21.088 -43.225  -1.540  0.00  0.00     0.062 A 
ATOM      2  C2  1H8 d   1     -20.166 -42.249  -1.949  0.00  0.00     0.023 A 
ATOM      3  N3  1H8 d   1     -20.401 -41.684  -3.129  0.00  0.00    -0.254 NA
ATOM      4  C4  1H8 d   1     -21.452 -41.927  -3.881  0.00  0.00     0.124 A 
ATOM      5  C5  1H8 d   1     -22.397 -42.899  -3.537  0.00  0.00    -0.048 A 
ATOM      6  C6  1H8 d   1     -22.238 -43.549  -2.327  0.00  0.00    -0.059 A 
ATOM      7  C10 1H8 d   1     -20.876 -43.877  -0.268  0.00  0.00     0.101 C 
ATOM      8  N11 1H8 d   1     -20.726 -44.400   0.737  0.00  0.00    -0.191 NA
ATOM      9  H1  1H8 d   1     -19.314 -41.973  -1.339  0.00  0.00     0.117 H 
ATOM     10  H2  1H8 d   1     -23.225 -43.135  -4.196  0.00  0.00     0.087 H 
ATOM     11  H3  1H8 d   1     -22.961 -44.281  -1.986  0.00  0.00     0.086 H 
ENDROOT
BRANCH   4  12
ATOM     12  C7  1H8 d   1     -21.567 -41.252  -5.185  0.00  0.00     0.274 C 
ATOM     13  O8  1H8 d   1     -22.638 -41.283  -5.746  0.00  0.00    -0.266 OA
ATOM     14  N9  1H8 d   1     -20.459 -40.649  -5.709  0.00  0.00    -0.322 N 
ATOM     15  H9  1H8 d   1     -19.651 -40.658  -5.120  0.00  0.00     0.169 HD
BRANCH  14  16
ATOM     16  C16 1H8 d   1     -20.284 -40.014  -6.961  0.00  0.00     0.035 A 
ATOM     17  C14 1H8 d   1     -18.942 -39.749  -7.319  0.00  0.00    -0.046 A 
ATOM     18  C12 1H8 d   1     -18.564 -39.222  -8.532  0.00  0.00     0.010 A 
ATOM     19  H4  1H8 d   1     -18.166 -39.974  -6.596  0.00  0.00     0.088 H 
ATOM     20  C13 1H8 d   1     -19.618 -38.972  -9.449  0.00  0.00     0.125 A 
ATOM     21  C15 1H8 d   1     -20.972 -39.292  -9.139  0.00  0.00    -0.043 A 
ATOM     22  F18 1H8 d   1     -19.329 -38.454 -10.672  0.00  0.00    -0.205 F 
ATOM     23  C17 1H8 d   1     -21.322 -39.776  -7.881  0.00  0.00    -0.054 A 
ATOM     24  H5  1H8 d   1     -21.739 -39.157  -9.893  0.00  0.00     0.088 H 
ATOM     25  H6  1H8 d   1     -22.357 -39.963  -7.620  0.00  0.00     0.087 H 
BRANCH  18  26
ATOM     26  C19 1H8 d   1     -17.068 -38.937  -8.844  0.00  0.00     0.062 C 
ATOM     27  N21 1H8 d   1     -16.271 -39.106  -7.624  0.00  0.00    -0.343 N 
ATOM     28  C25 1H8 d   1     -15.621 -40.218  -7.415  0.00  0.00     0.213 C 
ATOM     29  H13 1H8 d   1     -16.224 -38.345  -6.931  0.00  0.00     0.164 HD
ATOM     30  O24 1H8 d   1     -15.628 -41.257  -8.286  0.00  0.00    -0.322 OA
ATOM     31  C23 1H8 d   1     -16.576 -41.311  -9.387  0.00  0.00     0.031 C 
ATOM     32  C22 1H8 d   1     -16.520 -39.901  -9.938  0.00  0.00    -0.017 C 
ATOM     33  H7  1H8 d   1     -16.265 -42.046 -10.144  0.00  0.00     0.075 H 
ATOM     34  H8  1H8 d   1     -17.587 -41.558  -9.030  0.00  0.00     0.075 H 
ATOM     35  H14 1H8 d   1     -15.481 -39.636 -10.183  0.00  0.00     0.040 H 
ATOM     36  H15 1H8 d   1     -17.140 -39.829 -10.844  0.00  0.00     0.040 H 
BRANCH  26  37
ATOM     37  C20 1H8 d   1     -16.844 -37.517  -9.324  0.00  0.00    -0.049 C 
ATOM     38  H10 1H8 d   1     -15.774 -37.364  -9.531  0.00  0.00     0.031 H 
ATOM     39  H11 1H8 d   1     -17.171 -36.811  -8.546  0.00  0.00     0.031 H 
ATOM     40  H12 1H8 d   1     -17.424 -37.345 -10.243  0.00  0.00     0.031 H 
ENDBRANCH  26  37
BRANCH  28  41
ATOM     41  N26 1H8 d   1     -14.929 -40.356  -6.251  0.00  0.00    -0.365 N 
ATOM     42  H16 1H8 d   1     -14.408 -41.224  -6.062  0.00  0.00     0.159 HD
ATOM     43  H17 1H8 d   1     -14.927 -39.593  -5.560  0.00  0.00     0.159 HD
ENDBRANCH  28  41
ENDBRANCH  18  26
ENDBRANCH  14  16
ENDBRANCH   4  12
TORSDOF 5
