REMARK  7 active torsions:
REMARK  status: ('A' for Active; 'I' for Inactive)
REMARK    1  A    between atoms: C9_8  and  C5_3 
REMARK    2  A    between atoms: C7_6  and  O_15 
REMARK    3  A    between atoms: C10_9  and  C9_8 
REMARK    4  A    between atoms: C9_8  and  O1_13 
REMARK    5  A    between atoms: C3_12  and  C2_16 
REMARK    6  A    between atoms: C16_17  and  C17_18 
REMARK    7  A    between atoms: C1_21  and  C_22 
ROOT
ATOM      1  C4  1H2 d   1      29.380  15.647  -0.994  0.00  0.00    -0.063 A 
ATOM      2  C5  1H2 d   1      28.080  15.094  -1.151  0.00  0.00    -0.022 A 
ATOM      3  C6  1H2 d   1      27.227  14.992  -0.071  0.00  0.00    -0.042 A 
ATOM      4  C7  1H2 d   1      27.694  15.436   1.184  0.00  0.00     0.067 A 
ATOM      5  C8  1H2 d   1      28.985  15.975   1.356  0.00  0.00    -0.040 A 
ATOM      6  C3  1H2 d   1      29.796  16.086   0.263  0.00  0.00    -0.018 A 
ATOM      7  H1  1H2 d   1      30.045  15.727  -1.847  0.00  0.00     0.085 H 
ATOM      8  H3  1H2 d   1      26.229  14.584  -0.183  0.00  0.00     0.088 H 
ATOM      9  H5  1H2 d   1      29.326  16.294   2.334  0.00  0.00     0.089 H 
ENDROOT
BRANCH   2  10
ATOM     10  C9  1H2 d   1      27.593  14.674  -2.552  0.00  0.00     0.086 C 
ATOM     11  H6  1H2 d   1      26.669  14.085  -2.454  0.00  0.00     0.098 H 
BRANCH  10  12
ATOM     12  C10 1H2 d   1      27.295  15.913  -3.415  0.00  0.00    -0.025 A 
ATOM     13  C11 1H2 d   1      27.863  16.061  -4.709  0.00  0.00    -0.074 A 
ATOM     14  C12 1H2 d   1      27.466  17.153  -5.554  0.00  0.00    -0.082 A 
ATOM     15  H4  1H2 d   1      28.599  15.347  -5.060  0.00  0.00     0.084 H 
ATOM     16  C13 1H2 d   1      26.518  18.092  -5.064  0.00  0.00    -0.083 A 
ATOM     17  H7  1H2 d   1      27.883  17.259  -6.549  0.00  0.00     0.083 H 
ATOM     18  C14 1H2 d   1      26.009  17.968  -3.791  0.00  0.00    -0.082 A 
ATOM     19  H8  1H2 d   1      26.194  18.911  -5.697  0.00  0.00     0.083 H 
ATOM     20  C15 1H2 d   1      26.365  16.886  -2.960  0.00  0.00    -0.074 A 
ATOM     21  H2  1H2 d   1      25.320  18.718  -3.420  0.00  0.00     0.083 H 
ATOM     22  H10 1H2 d   1      25.928  16.796  -1.972  0.00  0.00     0.084 H 
ENDBRANCH  10  12
BRANCH  10  23
ATOM     23  O1  1H2 d   1      28.610  13.855  -3.145  0.00  0.00    -0.386 OA
ATOM     24  H9  1H2 d   1      28.321  13.564  -4.002  0.00  0.00     0.210 HD
ENDBRANCH  10  23
ENDBRANCH   2  10
BRANCH   6  25
ATOM     25  C2  1H2 d   1      31.129  16.646   0.431  0.00  0.00     0.032 A 
ATOM     26  C16 1H2 d   1      32.263  16.067  -0.017  0.00  0.00     0.088 A 
ATOM     27  O2  1H2 d   1      33.372  16.918   0.181  0.00  0.00    -0.217 OA
ATOM     28  N   1H2 d   1      32.801  18.098   0.852  0.00  0.00    -0.133 NA
ATOM     29  C1  1H2 d   1      31.444  17.912   1.011  0.00  0.00     0.071 A 
BRANCH  26  30
ATOM     30  C17 1H2 d   1      32.461  14.697  -0.563  0.00  0.00    -0.028 C 
ATOM     31  H12 1H2 d   1      33.519  14.559  -0.833  0.00  0.00     0.036 H 
ATOM     32  H13 1H2 d   1      31.834  14.565  -1.457  0.00  0.00     0.036 H 
ATOM     33  H14 1H2 d   1      32.177  13.955   0.197  0.00  0.00     0.036 H 
ENDBRANCH  26  30
BRANCH  29  34
ATOM     34  C   1H2 d   1      30.461  18.828   1.696  0.00  0.00    -0.033 C 
ATOM     35  H15 1H2 d   1      30.983  19.731   2.045  0.00  0.00     0.035 H 
ATOM     36  H16 1H2 d   1      30.013  18.308   2.556  0.00  0.00     0.035 H 
ATOM     37  H17 1H2 d   1      29.670  19.113   0.987  0.00  0.00     0.035 H 
ENDBRANCH  29  34
ENDBRANCH   6  25
BRANCH   4  38
ATOM     38  O   1H2 d   1      26.885  15.352   2.226  0.00  0.00    -0.361 OA
ATOM     39  H11 1H2 d   1      27.284  14.804   2.892  0.00  0.00     0.217 HD
ENDBRANCH   4  38
TORSDOF 7
