REMARK  7 active torsions:
REMARK  status: ('A' for Active; 'I' for Inactive)
REMARK    1  A    between atoms: C9_8  and  C5_3 
REMARK    2  A    between atoms: C7_6  and  O_15 
REMARK    3  A    between atoms: C10_9  and  C9_8 
REMARK    4  A    between atoms: C9_8  and  O1_13 
REMARK    5  A    between atoms: C3_12  and  C2_16 
REMARK    6  A    between atoms: C16_17  and  C17_18 
REMARK    7  A    between atoms: C1_21  and  C_22 
ROOT
ATOM      1  C4  1H3 d   1      29.840  15.738  -1.026  0.00  0.00    -0.063 A 
ATOM      2  C5  1H3 d   1      28.552  15.147  -1.252  0.00  0.00    -0.022 A 
ATOM      3  C6  1H3 d   1      27.666  15.040  -0.224  0.00  0.00    -0.042 A 
ATOM      4  C7  1H3 d   1      28.073  15.495   1.082  0.00  0.00     0.067 A 
ATOM      5  C8  1H3 d   1      29.302  16.055   1.333  0.00  0.00    -0.040 A 
ATOM      6  C3  1H3 d   1      30.197  16.197   0.257  0.00  0.00    -0.018 A 
ATOM      7  H1  1H3 d   1      30.542  15.832  -1.847  0.00  0.00     0.085 H 
ATOM      8  H3  1H3 d   1      26.678  14.623  -0.384  0.00  0.00     0.088 H 
ATOM      9  H5  1H3 d   1      29.574  16.378   2.331  0.00  0.00     0.089 H 
ENDROOT
BRANCH   2  10
ATOM     10  C9  1H3 d   1      28.180  14.645  -2.653  0.00  0.00     0.086 C 
ATOM     11  H6  1H3 d   1      29.081  14.227  -3.125  0.00  0.00     0.098 H 
BRANCH  10  12
ATOM     12  C10 1H3 d   1      27.711  15.791  -3.497  0.00  0.00    -0.025 A 
ATOM     13  C11 1H3 d   1      28.209  15.972  -4.767  0.00  0.00    -0.074 A 
ATOM     14  C12 1H3 d   1      27.769  17.061  -5.515  0.00  0.00    -0.082 A 
ATOM     15  H4  1H3 d   1      28.933  15.278  -5.179  0.00  0.00     0.084 H 
ATOM     16  C13 1H3 d   1      26.880  17.951  -5.001  0.00  0.00    -0.083 A 
ATOM     17  H7  1H3 d   1      28.142  17.201  -6.523  0.00  0.00     0.083 H 
ATOM     18  C14 1H3 d   1      26.394  17.779  -3.746  0.00  0.00    -0.082 A 
ATOM     19  H8  1H3 d   1      26.559  18.799  -5.594  0.00  0.00     0.083 H 
ATOM     20  C15 1H3 d   1      26.809  16.690  -3.008  0.00  0.00    -0.074 A 
ATOM     21  H2  1H3 d   1      25.689  18.488  -3.329  0.00  0.00     0.083 H 
ATOM     22  H10 1H3 d   1      26.407  16.544  -2.012  0.00  0.00     0.084 H 
ENDBRANCH  10  12
BRANCH  10  23
ATOM     23  O1  1H3 d   1      27.222  13.604  -2.546  0.00  0.00    -0.386 OA
ATOM     24  H9  1H3 d   1      27.027  13.264  -3.411  0.00  0.00     0.210 HD
ENDBRANCH  10  23
ENDBRANCH   2  10
BRANCH   6  25
ATOM     25  C2  1H3 d   1      31.505  16.739   0.461  0.00  0.00     0.032 A 
ATOM     26  C16 1H3 d   1      32.716  16.171  -0.005  0.00  0.00     0.088 A 
ATOM     27  O2  1H3 d   1      33.702  17.033   0.201  0.00  0.00    -0.217 OA
ATOM     28  N   1H3 d   1      33.161  18.155   0.867  0.00  0.00    -0.133 NA
ATOM     29  C1  1H3 d   1      31.855  18.005   1.058  0.00  0.00     0.071 A 
BRANCH  26  30
ATOM     30  C17 1H3 d   1      33.103  14.830  -0.566  0.00  0.00    -0.028 C 
ATOM     31  H12 1H3 d   1      34.178  14.827  -0.801  0.00  0.00     0.036 H 
ATOM     32  H13 1H3 d   1      32.526  14.636  -1.482  0.00  0.00     0.036 H 
ATOM     33  H14 1H3 d   1      32.888  14.046   0.175  0.00  0.00     0.036 H 
ENDBRANCH  26  30
BRANCH  29  34
ATOM     34  C   1H3 d   1      30.966  18.957   1.803  0.00  0.00    -0.033 C 
ATOM     35  H15 1H3 d   1      31.552  19.830   2.126  0.00  0.00     0.035 H 
ATOM     36  H16 1H3 d   1      30.545  18.452   2.685  0.00  0.00     0.035 H 
ATOM     37  H17 1H3 d   1      30.149  19.287   1.145  0.00  0.00     0.035 H 
ENDBRANCH  29  34
ENDBRANCH   6  25
BRANCH   4  38
ATOM     38  O   1H3 d   1      27.199  15.393   2.069  0.00  0.00    -0.361 OA
ATOM     39  H11 1H3 d   1      27.567  14.858   2.762  0.00  0.00     0.217 HD
ENDBRANCH   4  38
TORSDOF 7
