REMARK  7 active torsions:
REMARK  status: ('A' for Active; 'I' for Inactive)
REMARK    1  A    between atoms: C6_6  and  C7_7 
REMARK    2  A    between atoms: C6_6  and  C15_15 
REMARK    3  A    between atoms: C9_9  and  N16_16 
REMARK       I    between atoms: N16_16  and  C17_17 
REMARK    4  A    between atoms: C17_17  and  C18_18 
REMARK    5  A    between atoms: C22_22  and  O25_25 
REMARK    6  A    between atoms: O25_25  and  C28_28 
REMARK    7  A    between atoms: C28_28  and  C29_29 
ROOT
ATOM      1  C7  6T9 d   1     -18.460 -39.090  -8.388  0.00  0.00     0.016 A 
ATOM      2  C8  6T9 d   1     -18.815 -39.775  -7.215  0.00  0.00    -0.045 A 
ATOM      3  C9  6T9 d   1     -20.167 -39.959  -6.863  0.00  0.00     0.035 A 
ATOM      4  C10 6T9 d   1     -21.202 -39.465  -7.668  0.00  0.00    -0.054 A 
ATOM      5  C11 6T9 d   1     -20.867 -38.829  -8.886  0.00  0.00    -0.043 A 
ATOM      6  C12 6T9 d   1     -19.521 -38.642  -9.233  0.00  0.00     0.125 A 
ATOM      7  F13 6T9 d   1     -19.211 -37.952 -10.381  0.00  0.00    -0.205 F 
ATOM      8  H4  6T9 d   1     -18.037 -40.168  -6.570  0.00  0.00     0.088 H 
ATOM      9  H5  6T9 d   1     -22.237 -39.568  -7.364  0.00  0.00     0.087 H 
ATOM     10  H6  6T9 d   1     -21.651 -38.486  -9.552  0.00  0.00     0.088 H 
ENDROOT
BRANCH   3  11
ATOM     11  N16 6T9 d   1     -20.405 -40.674  -5.683  0.00  0.00    -0.322 N 
ATOM     12  C17 6T9 d   1     -21.629 -41.121  -5.275  0.00  0.00     0.274 C 
ATOM     13  O19 6T9 d   1     -22.605 -40.968  -5.995  0.00  0.00    -0.266 OA
ATOM     14  H12 6T9 d   1     -19.620 -40.872  -5.095  0.00  0.00     0.169 HD
BRANCH  12  15
ATOM     15  C18 6T9 d   1     -21.590 -41.868  -4.025  0.00  0.00     0.124 A 
ATOM     16  N20 6T9 d   1     -20.470 -41.681  -3.348  0.00  0.00    -0.253 NA
ATOM     17  C21 6T9 d   1     -20.194 -42.263  -2.220  0.00  0.00     0.035 A 
ATOM     18  C22 6T9 d   1     -21.073 -43.170  -1.669  0.00  0.00     0.086 A 
ATOM     19  H13 6T9 d   1     -19.266 -42.034  -1.709  0.00  0.00     0.119 H 
ATOM     20  C23 6T9 d   1     -22.287 -43.415  -2.351  0.00  0.00    -0.047 A 
ATOM     21  C24 6T9 d   1     -22.540 -42.778  -3.568  0.00  0.00    -0.047 A 
ATOM     22  H14 6T9 d   1     -23.019 -44.095  -1.931  0.00  0.00     0.087 H 
ATOM     23  H15 6T9 d   1     -23.441 -42.984  -4.135  0.00  0.00     0.087 H 
BRANCH  18  24
ATOM     24  O25 6T9 d   1     -20.699 -43.777  -0.465  0.00  0.00    -0.350 OA
BRANCH  24  25
ATOM     25  C28 6T9 d   1     -21.764 -44.602   0.077  0.00  0.00     0.023 C 
ATOM     26  H16 6T9 d   1     -21.994 -45.411  -0.632  0.00  0.00     0.074 H 
ATOM     27  H17 6T9 d   1     -22.660 -43.983   0.231  0.00  0.00     0.074 H 
BRANCH  25  28
ATOM     28  C29 6T9 d   1     -21.337 -45.205   1.404  0.00  0.00    -0.056 C 
ATOM     29  H18 6T9 d   1     -22.152 -45.827   1.803  0.00  0.00     0.030 H 
ATOM     30  H19 6T9 d   1     -21.108 -44.399   2.116  0.00  0.00     0.030 H 
ATOM     31  H20 6T9 d   1     -20.442 -45.826   1.253  0.00  0.00     0.030 H 
ENDBRANCH  25  28
ENDBRANCH  24  25
ENDBRANCH  18  24
ENDBRANCH  12  15
ENDBRANCH   3  11
BRANCH   1  32
ATOM     32  C6  6T9 d   1     -17.001 -38.904  -8.783  0.00  0.00     0.128 C 
ATOM     33  C2  6T9 d   1     -16.625 -40.068  -9.728  0.00  0.00     0.293 C 
ATOM     34  C1  6T9 d   1     -16.615 -41.459  -9.087  0.00  0.00     0.092 C 
ATOM     35  F26 6T9 d   1     -15.375 -39.845 -10.274  0.00  0.00    -0.201 F 
ATOM     36  F27 6T9 d   1     -17.462 -40.071 -10.789  0.00  0.00    -0.201 F 
ATOM     37  O3  6T9 d   1     -15.630 -41.327  -8.036  0.00  0.00    -0.316 OA
ATOM     38  H1  6T9 d   1     -16.316 -42.227  -9.815  0.00  0.00     0.084 H 
ATOM     39  H2  6T9 d   1     -17.603 -41.711  -8.674  0.00  0.00     0.084 H 
ATOM     40  C4  6T9 d   1     -15.548 -40.175  -7.317  0.00  0.00     0.213 C 
ATOM     41  N5  6T9 d   1     -16.094 -39.024  -7.664  0.00  0.00    -0.337 N 
ATOM     42  N14 6T9 d   1     -14.727 -40.197  -6.231  0.00  0.00    -0.365 N 
ATOM     43  H3  6T9 d   1     -15.865 -38.181  -7.118  0.00  0.00     0.164 HD
ATOM     44  H7  6T9 d   1     -14.623 -39.355  -5.647  0.00  0.00     0.159 HD
ATOM     45  H8  6T9 d   1     -14.210 -41.056  -5.994  0.00  0.00     0.159 HD
BRANCH  32  46
ATOM     46  C15 6T9 d   1     -16.693 -37.556  -9.455  0.00  0.00    -0.043 C 
ATOM     47  H9  6T9 d   1     -16.965 -36.736  -8.774  0.00  0.00     0.031 H 
ATOM     48  H10 6T9 d   1     -17.275 -37.468 -10.384  0.00  0.00     0.031 H 
ATOM     49  H11 6T9 d   1     -15.619 -37.499  -9.688  0.00  0.00     0.031 H 
ENDBRANCH  32  46
ENDBRANCH   1  32
TORSDOF 7
