REMARK  5 active torsions:
REMARK  status: ('A' for Active; 'I' for Inactive)
REMARK    1  A    between atoms: C7_4  and  C4_2 
REMARK       I    between atoms: N8_9  and  C7_4 
REMARK    2  A    between atoms: C12_12  and  N8_9 
REMARK    3  A    between atoms: C18_18  and  C16_16 
REMARK    4  A    between atoms: C18_18  and  C19_19 
REMARK    5  A    between atoms: C22_22  and  N24_24 
ROOT
ATOM      1  C2  1H7 d   1     -22.164 -43.394  -2.292  0.00  0.00    -0.059 A 
ATOM      2  C4  1H7 d   1     -21.419 -41.772  -3.872  0.00  0.00     0.124 A 
ATOM      3  C6  1H7 d   1     -20.068 -42.058  -1.992  0.00  0.00     0.023 A 
ATOM      4  C10 1H7 d   1     -20.743 -43.682  -0.296  0.00  0.00     0.101 C 
ATOM      5  C1  1H7 d   1     -20.958 -43.041  -1.546  0.00  0.00     0.062 A 
ATOM      6  C3  1H7 d   1     -22.360 -42.729  -3.497  0.00  0.00    -0.048 A 
ATOM      7  N5  1H7 d   1     -20.358 -41.463  -3.137  0.00  0.00    -0.254 NA
ATOM      8  N11 1H7 d   1     -20.559 -44.181   0.680  0.00  0.00    -0.191 NA
ATOM      9  H1  1H7 d   1     -22.867 -44.134  -1.926  0.00  0.00     0.086 H 
ATOM     10  H2  1H7 d   1     -19.182 -41.796  -1.425  0.00  0.00     0.117 H 
ATOM     11  H3  1H7 d   1     -23.217 -42.948  -4.124  0.00  0.00     0.087 H 
ENDROOT
BRANCH   2  12
ATOM     12  C7  1H7 d   1     -21.522 -41.093  -5.177  0.00  0.00     0.274 C 
ATOM     13  N8  1H7 d   1     -20.388 -40.479  -5.656  0.00  0.00    -0.322 N 
ATOM     14  H4  1H7 d   1     -19.610 -40.478  -5.028  0.00  0.00     0.169 HD
ATOM     15  O9  1H7 d   1     -22.569 -41.163  -5.780  0.00  0.00    -0.266 OA
BRANCH  13  16
ATOM     16  C12 1H7 d   1     -20.153 -39.846  -6.906  0.00  0.00     0.035 A 
ATOM     17  C13 1H7 d   1     -21.173 -39.605  -7.816  0.00  0.00    -0.054 A 
ATOM     18  C14 1H7 d   1     -20.846 -39.100  -9.078  0.00  0.00    -0.043 A 
ATOM     19  H5  1H7 d   1     -22.205 -39.805  -7.553  0.00  0.00     0.087 H 
ATOM     20  C15 1H7 d   1     -19.504 -38.802  -9.367  0.00  0.00     0.125 A 
ATOM     21  H6  1H7 d   1     -21.617 -38.941  -9.823  0.00  0.00     0.088 H 
ATOM     22  C16 1H7 d   1     -18.471 -39.056  -8.429  0.00  0.00     0.013 A 
ATOM     23  F27 1H7 d   1     -19.187 -38.322 -10.608  0.00  0.00    -0.205 F 
ATOM     24  C17 1H7 d   1     -18.822 -39.576  -7.204  0.00  0.00    -0.046 A 
ATOM     25  H7  1H7 d   1     -18.054 -39.777  -6.465  0.00  0.00     0.088 H 
BRANCH  22  26
ATOM     26  C18 1H7 d   1     -16.996 -38.769  -8.762  0.00  0.00     0.093 C 
ATOM     27  N23 1H7 d   1     -16.080 -38.919  -7.607  0.00  0.00    -0.341 N 
ATOM     28  C22 1H7 d   1     -15.486 -40.044  -7.343  0.00  0.00     0.213 C 
ATOM     29  H13 1H7 d   1     -15.909 -38.108  -6.996  0.00  0.00     0.164 HD
ATOM     30  O21 1H7 d   1     -15.635 -41.131  -8.086  0.00  0.00    -0.320 OA
ATOM     31  C20 1H7 d   1     -16.440 -41.210  -9.298  0.00  0.00     0.060 C 
ATOM     32  C25 1H7 d   1     -16.548 -39.771  -9.836  0.00  0.00     0.128 C 
ATOM     33  H11 1H7 d   1     -17.440 -41.607  -9.067  0.00  0.00     0.079 H 
ATOM     34  H12 1H7 d   1     -15.950 -41.859 -10.039  0.00  0.00     0.079 H 
ATOM     35  F26 1H7 d   1     -15.260 -39.412 -10.249  0.00  0.00    -0.244 F 
ATOM     36  H16 1H7 d   1     -17.251 -39.741 -10.681  0.00  0.00     0.099 H 
BRANCH  26  37
ATOM     37  C19 1H7 d   1     -16.771 -37.292  -9.147  0.00  0.00    -0.046 C 
ATOM     38  H8  1H7 d   1     -15.707 -37.131  -9.376  0.00  0.00     0.031 H 
ATOM     39  H9  1H7 d   1     -17.067 -36.645  -8.308  0.00  0.00     0.031 H 
ATOM     40  H10 1H7 d   1     -17.378 -37.047 -10.031  0.00  0.00     0.031 H 
ENDBRANCH  26  37
BRANCH  28  41
ATOM     41  N24 1H7 d   1     -14.656 -40.130  -6.223  0.00  0.00    -0.365 N 
ATOM     42  H14 1H7 d   1     -14.516 -39.306  -5.621  0.00  0.00     0.159 HD
ATOM     43  H15 1H7 d   1     -14.184 -41.018  -5.999  0.00  0.00     0.159 HD
ENDBRANCH  28  41
ENDBRANCH  22  26
ENDBRANCH  13  16
ENDBRANCH   2  12
TORSDOF 5
