REMARK  5 active torsions:
REMARK  status: ('A' for Active; 'I' for Inactive)
REMARK    1  A    between atoms: C13_1  and  N16_16 
REMARK    2  A    between atoms: C1_4  and  N17_17 
REMARK    3  A    between atoms: C8_10  and  C5_6 
REMARK    4  A    between atoms: C8_10  and  C9_9 
REMARK       I    between atoms: N17_17  and  C18_18 
REMARK    5  A    between atoms: C18_18  and  C19_19 
ROOT
ATOM      1  C19 1H6 d   1     -21.245 -41.675  -3.985  0.00  0.00     0.124 A 
ATOM      2  N21 1H6 d   1     -20.192 -41.417  -3.207  0.00  0.00    -0.254 NA
ATOM      3  C22 1H6 d   1     -19.994 -42.069  -2.073  0.00  0.00     0.023 A 
ATOM      4  C23 1H6 d   1     -20.919 -43.023  -1.635  0.00  0.00     0.062 A 
ATOM      5  C24 1H6 d   1     -22.073 -43.306  -2.441  0.00  0.00    -0.059 A 
ATOM      6  C25 1H6 d   1     -22.195 -42.626  -3.643  0.00  0.00    -0.048 A 
ATOM      7  C26 1H6 d   1     -20.744 -43.688  -0.384  0.00  0.00     0.101 C 
ATOM      8  N27 1H6 d   1     -20.604 -44.220   0.595  0.00  0.00    -0.191 NA
ATOM      9  H14 1H6 d   1     -19.110 -41.863  -1.480  0.00  0.00     0.117 H 
ATOM     10  H15 1H6 d   1     -22.820 -44.024  -2.122  0.00  0.00     0.086 H 
ATOM     11  H16 1H6 d   1     -23.024 -42.835  -4.309  0.00  0.00     0.087 H 
ENDROOT
BRANCH   1  12
ATOM     12  C18 1H6 d   1     -21.323 -40.995  -5.269  0.00  0.00     0.274 C 
ATOM     13  N17 1H6 d   1     -20.200 -40.375  -5.692  0.00  0.00    -0.322 N 
ATOM     14  H13 1H6 d   1     -19.424 -40.382  -5.061  0.00  0.00     0.169 HD
ATOM     15  O20 1H6 d   1     -22.386 -40.923  -5.863  0.00  0.00    -0.266 OA
BRANCH  13  16
ATOM     16  C1  1H6 d   1     -20.001 -39.722  -6.920  0.00  0.00     0.035 A 
ATOM     17  C2  1H6 d   1     -21.075 -39.303  -7.739  0.00  0.00    -0.054 A 
ATOM     18  C3  1H6 d   1     -20.772 -38.691  -8.991  0.00  0.00    -0.043 A 
ATOM     19  H2  1H6 d   1     -22.102 -39.443  -7.423  0.00  0.00     0.087 H 
ATOM     20  C4  1H6 d   1     -19.423 -38.514  -9.396  0.00  0.00     0.125 A 
ATOM     21  H1  1H6 d   1     -21.577 -38.359  -9.637  0.00  0.00     0.088 H 
ATOM     22  C5  1H6 d   1     -18.361 -38.904  -8.517  0.00  0.00     0.013 A 
ATOM     23  F7  1H6 d   1     -19.132 -37.926 -10.613  0.00  0.00    -0.205 F 
ATOM     24  C6  1H6 d   1     -18.679 -39.547  -7.334  0.00  0.00    -0.046 A 
ATOM     25  H3  1H6 d   1     -17.878 -39.926  -6.710  0.00  0.00     0.088 H 
BRANCH  22  26
ATOM     26  C8  1H6 d   1     -16.868 -38.802  -8.933  0.00  0.00     0.093 C 
ATOM     27  C10 1H6 d   1     -16.530 -40.003  -9.956  0.00  0.00     0.128 C 
ATOM     28  C11 1H6 d   1     -16.246 -41.286  -9.186  0.00  0.00     0.060 C 
ATOM     29  F15 1H6 d   1     -17.578 -40.242 -10.676  0.00  0.00    -0.244 F 
ATOM     30  H4  1H6 d   1     -15.672 -39.732 -10.588  0.00  0.00     0.099 H 
ATOM     31  O12 1H6 d   1     -15.153 -41.035  -8.295  0.00  0.00    -0.320 OA
ATOM     32  H8  1H6 d   1     -15.979 -42.091  -9.887  0.00  0.00     0.079 H 
ATOM     33  H9  1H6 d   1     -17.136 -41.581  -8.611  0.00  0.00     0.079 H 
ATOM     34  C13 1H6 d   1     -15.293 -40.010  -7.468  0.00  0.00     0.213 C 
ATOM     35  N14 1H6 d   1     -16.022 -38.939  -7.743  0.00  0.00    -0.341 N 
ATOM     36  H10 1H6 d   1     -15.993 -38.152  -7.079  0.00  0.00     0.164 HD
BRANCH  34  37
ATOM     37  N16 1H6 d   1     -14.609 -40.063  -6.247  0.00  0.00    -0.365 N 
ATOM     38  H11 1H6 d   1     -14.692 -39.286  -5.576  0.00  0.00     0.159 HD
ATOM     39  H12 1H6 d   1     -14.023 -40.879  -6.020  0.00  0.00     0.159 HD
ENDBRANCH  34  37
BRANCH  26  40
ATOM     40  C9  1H6 d   1     -16.567 -37.453  -9.557  0.00  0.00    -0.046 C 
ATOM     41  H5  1H6 d   1     -16.806 -36.655  -8.839  0.00  0.00     0.031 H 
ATOM     42  H6  1H6 d   1     -17.176 -37.325 -10.464  0.00  0.00     0.031 H 
ATOM     43  H7  1H6 d   1     -15.500 -37.401  -9.821  0.00  0.00     0.031 H 
ENDBRANCH  26  40
ENDBRANCH  22  26
ENDBRANCH  13  16
ENDBRANCH   1  12
TORSDOF 5
