REMARK  4 active torsions:
REMARK  status: ('A' for Active; 'I' for Inactive)
REMARK    1  A    between atoms: C5_4  and  C8_6 
REMARK    2  A    between atoms: C8_6  and  C9_7 
REMARK    3  A    between atoms: C1_12  and  N17_17 
REMARK       I    between atoms: N17_17  and  C18_18 
REMARK    4  A    between atoms: C18_18  and  C19_19 
ROOT
ATOM      1  C19 1H5 d   1      20.940  42.285  -4.040  0.00  0.00     0.124 A 
ATOM      2  N21 1H5 d   1      19.807  42.036  -3.362  0.00  0.00    -0.254 NA
ATOM      3  C22 1H5 d   1      19.553  42.576  -2.176  0.00  0.00     0.023 A 
ATOM      4  C23 1H5 d   1      20.486  43.502  -1.659  0.00  0.00     0.062 A 
ATOM      5  C24 1H5 d   1      21.697  43.825  -2.388  0.00  0.00    -0.059 A 
ATOM      6  C25 1H5 d   1      21.921  43.204  -3.604  0.00  0.00    -0.048 A 
ATOM      7  C26 1H5 d   1      20.246  44.113  -0.375  0.00  0.00     0.101 C 
ATOM      8  N27 1H5 d   1      20.085  44.609   0.647  0.00  0.00    -0.191 NA
ATOM      9  H13 1H5 d   1      18.659  42.315  -1.622  0.00  0.00     0.117 H 
ATOM     10  H14 1H5 d   1      22.411  44.537  -1.989  0.00  0.00     0.086 H 
ATOM     11  H15 1H5 d   1      22.806  43.412  -4.194  0.00  0.00     0.087 H 
ENDROOT
BRANCH   1  12
ATOM     12  C18 1H5 d   1      21.064  41.653  -5.359  0.00  0.00     0.274 C 
ATOM     13  N17 1H5 d   1      19.950  41.065  -5.820  0.00  0.00    -0.322 N 
ATOM     14  H12 1H5 d   1      19.169  41.042  -5.195  0.00  0.00     0.169 HD
ATOM     15  O20 1H5 d   1      22.080  41.685  -6.003  0.00  0.00    -0.266 OA
BRANCH  13  16
ATOM     16  C1  1H5 d   1      19.761  40.493  -7.049  0.00  0.00     0.035 A 
ATOM     17  C2  1H5 d   1      20.801  40.268  -7.959  0.00  0.00    -0.054 A 
ATOM     18  C3  1H5 d   1      20.476  39.760  -9.179  0.00  0.00    -0.043 A 
ATOM     19  H1  1H5 d   1      21.830  40.491  -7.701  0.00  0.00     0.087 H 
ATOM     20  C4  1H5 d   1      19.158  39.495  -9.489  0.00  0.00     0.125 A 
ATOM     21  H2  1H5 d   1      21.254  39.563  -9.908  0.00  0.00     0.088 H 
ATOM     22  C5  1H5 d   1      18.147  39.777  -8.599  0.00  0.00     0.016 A 
ATOM     23  F7  1H5 d   1      18.841  39.055 -10.733  0.00  0.00    -0.205 F 
ATOM     24  C6  1H5 d   1      18.454  40.268  -7.368  0.00  0.00    -0.045 A 
ATOM     25  H3  1H5 d   1      17.670  40.478  -6.650  0.00  0.00     0.088 H 
BRANCH  22  26
ATOM     26  C8  1H5 d   1      16.735  39.541  -8.993  0.00  0.00     0.122 C 
ATOM     27  C10 1H5 d   1      16.297  40.626 -10.044  0.00  0.00     0.130 C 
ATOM     28  C11 1H5 d   1      16.081  42.010  -9.425  0.00  0.00     0.060 C 
ATOM     29  F15 1H5 d   1      15.037  40.319 -10.519  0.00  0.00    -0.244 F 
ATOM     30  H6  1H5 d   1      17.038  40.671 -10.856  0.00  0.00     0.099 H 
ATOM     31  O12 1H5 d   1      15.203  41.874  -8.293  0.00  0.00    -0.320 OA
ATOM     32  H7  1H5 d   1      15.626  42.682 -10.168  0.00  0.00     0.079 H 
ATOM     33  H8  1H5 d   1      17.046  42.425  -9.098  0.00  0.00     0.079 H 
ATOM     34  C13 1H5 d   1      15.100  40.691  -7.675  0.00  0.00     0.213 C 
ATOM     35  N14 1H5 d   1      15.764  39.597  -7.924  0.00  0.00    -0.338 N 
ATOM     36  N16 1H5 d   1      14.192  40.686  -6.662  0.00  0.00    -0.365 N 
ATOM     37  H9  1H5 d   1      15.594  38.759  -7.350  0.00  0.00     0.164 HD
ATOM     38  H10 1H5 d   1      13.656  41.539  -6.447  0.00  0.00     0.159 HD
ATOM     39  H11 1H5 d   1      14.041  39.830  -6.110  0.00  0.00     0.159 HD
BRANCH  26  40
ATOM     40  C9  1H5 d   1      16.765  38.115  -9.493  0.00  0.00     0.088 C 
ATOM     41  F28 1H5 d   1      15.442  37.784  -9.761  0.00  0.00    -0.252 F 
ATOM     42  H4  1H5 d   1      17.179  37.447  -8.723  0.00  0.00     0.086 H 
ATOM     43  H5  1H5 d   1      17.372  38.042 -10.408  0.00  0.00     0.086 H 
ENDBRANCH  26  40
ENDBRANCH  22  26
ENDBRANCH  13  16
ENDBRANCH   1  12
TORSDOF 4
