REMARK  5 active torsions:
REMARK  status: ('A' for Active; 'I' for Inactive)
REMARK    1  A    between atoms: C7_9  and  C4_3 
REMARK       I    between atoms: N9_6  and  C7_9 
REMARK    2  A    between atoms: C12_13  and  N9_6 
REMARK    3  A    between atoms: C16_16  and  C19_19 
REMARK    4  A    between atoms: C19_19  and  C25_25 
REMARK    5  A    between atoms: C23_23  and  N28_28 
ROOT
ATOM      1  C2  1HQ d   1     -22.218 -43.459  -2.289  0.00  0.00    -0.059 A 
ATOM      2  C3  1HQ d   1     -22.372 -42.798  -3.500  0.00  0.00    -0.048 A 
ATOM      3  C4  1HQ d   1     -21.426 -41.880  -3.941  0.00  0.00     0.124 A 
ATOM      4  N5  1HQ d   1     -20.370 -41.591  -3.230  0.00  0.00    -0.254 NA
ATOM      5  C6  1HQ d   1     -20.115 -42.178  -2.072  0.00  0.00     0.023 A 
ATOM      6  C1  1HQ d   1     -21.022 -43.136  -1.588  0.00  0.00     0.062 A 
ATOM      7  C10 1HQ d   1     -20.776 -43.758  -0.325  0.00  0.00     0.101 C 
ATOM      8  N11 1HQ d   1     -20.599 -44.247   0.663  0.00  0.00    -0.191 NA
ATOM      9  H1  1HQ d   1     -22.949 -44.163  -1.908  0.00  0.00     0.086 H 
ATOM     10  H2  1HQ d   1     -23.244 -43.001  -4.111  0.00  0.00     0.087 H 
ATOM     11  H3  1HQ d   1     -19.224 -41.925  -1.508  0.00  0.00     0.117 H 
ENDROOT
BRANCH   3  12
ATOM     12  C7  1HQ d   1     -21.545 -41.199  -5.235  0.00  0.00     0.274 C 
ATOM     13  N9  1HQ d   1     -20.429 -40.584  -5.719  0.00  0.00    -0.322 N 
ATOM     14  H4  1HQ d   1     -19.634 -40.580  -5.112  0.00  0.00     0.169 HD
ATOM     15  O8  1HQ d   1     -22.591 -41.251  -5.873  0.00  0.00    -0.266 OA
BRANCH  13  16
ATOM     16  C12 1HQ d   1     -20.257 -39.962  -6.951  0.00  0.00     0.035 A 
ATOM     17  C13 1HQ d   1     -21.333 -39.708  -7.865  0.00  0.00    -0.054 A 
ATOM     18  C14 1HQ d   1     -20.992 -39.225  -9.150  0.00  0.00    -0.043 A 
ATOM     19  H5  1HQ d   1     -22.365 -39.879  -7.582  0.00  0.00     0.087 H 
ATOM     20  C15 1HQ d   1     -19.644 -38.951  -9.461  0.00  0.00     0.125 A 
ATOM     21  H6  1HQ d   1     -21.765 -39.066  -9.894  0.00  0.00     0.088 H 
ATOM     22  C16 1HQ d   1     -18.576 -39.217  -8.526  0.00  0.00     0.016 A 
ATOM     23  F18 1HQ d   1     -19.252 -38.444 -10.701  0.00  0.00    -0.205 F 
ATOM     24  C17 1HQ d   1     -18.904 -39.755  -7.299  0.00  0.00    -0.045 A 
ATOM     25  H7  1HQ d   1     -18.120 -40.020  -6.599  0.00  0.00     0.088 H 
BRANCH  22  26
ATOM     26  C19 1HQ d   1     -17.089 -39.005  -8.911  0.00  0.00     0.124 C 
ATOM     27  C20 1HQ d   1     -16.565 -40.053  -9.944  0.00  0.00    -0.012 C 
ATOM     28  C21 1HQ d   1     -16.466 -41.436  -9.312  0.00  0.00     0.032 C 
ATOM     29  H8  1HQ d   1     -15.569 -39.745 -10.296  0.00  0.00     0.040 H 
ATOM     30  H9  1HQ d   1     -17.258 -40.096 -10.797  0.00  0.00     0.040 H 
ATOM     31  O22 1HQ d   1     -15.544 -41.229  -8.174  0.00  0.00    -0.322 OA
ATOM     32  H10 1HQ d   1     -16.054 -42.166 -10.025  0.00  0.00     0.075 H 
ATOM     33  H11 1HQ d   1     -17.451 -41.780  -8.963  0.00  0.00     0.075 H 
ATOM     34  C23 1HQ d   1     -15.514 -40.125  -7.439  0.00  0.00     0.213 C 
ATOM     35  N24 1HQ d   1     -16.199 -39.065  -7.708  0.00  0.00    -0.338 N 
ATOM     36  H12 1HQ d   1     -16.133 -38.247  -7.085  0.00  0.00     0.164 HD
BRANCH  34  37
ATOM     37  N28 1HQ d   1     -14.709 -40.178  -6.276  0.00  0.00    -0.365 N 
ATOM     38  H14 1HQ d   1     -14.640 -39.356  -5.659  0.00  0.00     0.159 HD
ATOM     39  H15 1HQ d   1     -14.192 -41.039  -6.046  0.00  0.00     0.159 HD
ENDBRANCH  34  37
BRANCH  26  40
ATOM     40  C25 1HQ d   1     -16.858 -37.631  -9.480  0.00  0.00     0.236 C 
ATOM     41  F26 1HQ d   1     -17.255 -36.646  -8.587  0.00  0.00    -0.211 F 
ATOM     42  F27 1HQ d   1     -15.522 -37.461  -9.716  0.00  0.00    -0.211 F 
ATOM     43  H13 1HQ d   1     -17.422 -37.527 -10.419  0.00  0.00     0.149 H 
ENDBRANCH  26  40
ENDBRANCH  22  26
ENDBRANCH  13  16
ENDBRANCH   3  12
TORSDOF 5
