REMARK  4 active torsions:
REMARK  status: ('A' for Active; 'I' for Inactive)
REMARK       I    between atoms: N19_6  and  C20_5 
REMARK    1  A    between atoms: C20_5  and  C21_25 
REMARK    2  A    between atoms: C14_23  and  N19_6 
REMARK    3  A    between atoms: C3_11  and  C8_12 
REMARK    4  A    between atoms: C3_11  and  C9_15 
ROOT
ATOM      1  C27 1HO d   1     -22.217 -42.996  -3.406  0.00  0.00    -0.048 A 
ATOM      2  C28 1HO d   1     -20.583 -44.033  -0.269  0.00  0.00     0.101 C 
ATOM      3  C26 1HO d   1     -22.003 -43.684  -2.227  0.00  0.00    -0.059 A 
ATOM      4  C21 1HO d   1     -21.287 -42.062  -3.815  0.00  0.00     0.124 A 
ATOM      5  N23 1HO d   1     -20.157 -41.824  -3.120  0.00  0.00    -0.254 NA
ATOM      6  C24 1HO d   1     -19.853 -42.465  -1.991  0.00  0.00     0.023 A 
ATOM      7  C25 1HO d   1     -20.799 -43.376  -1.497  0.00  0.00     0.062 A 
ATOM      8  N29 1HO d   1     -20.421 -44.558   0.701  0.00  0.00    -0.191 NA
ATOM      9  H1  1HO d   1     -23.103 -43.187  -4.001  0.00  0.00     0.087 H 
ATOM     10  H2  1HO d   1     -22.710 -44.423  -1.867  0.00  0.00     0.086 H 
ATOM     11  H14 1HO d   1     -18.915 -42.290  -1.477  0.00  0.00     0.117 H 
ENDROOT
BRANCH   4  12
ATOM     12  C20 1HO d   1     -21.430 -41.381  -5.097  0.00  0.00     0.274 C 
ATOM     13  O22 1HO d   1     -22.497 -41.319  -5.727  0.00  0.00    -0.266 OA
ATOM     14  N19 1HO d   1     -20.260 -40.859  -5.554  0.00  0.00    -0.322 N 
ATOM     15  H3  1HO d   1     -19.462 -40.966  -4.960  0.00  0.00     0.169 HD
BRANCH  14  16
ATOM     16  C14 1HO d   1     -20.053 -40.194  -6.755  0.00  0.00     0.035 A 
ATOM     17  C15 1HO d   1     -21.095 -39.717  -7.531  0.00  0.00    -0.054 A 
ATOM     18  C16 1HO d   1     -20.802 -39.110  -8.747  0.00  0.00    -0.043 A 
ATOM     19  H4  1HO d   1     -22.122 -39.815  -7.197  0.00  0.00     0.087 H 
ATOM     20  C17 1HO d   1     -19.479 -38.983  -9.158  0.00  0.00     0.125 A 
ATOM     21  H5  1HO d   1     -21.603 -38.736  -9.374  0.00  0.00     0.088 H 
ATOM     22  C8  1HO d   1     -18.401 -39.462  -8.345  0.00  0.00     0.019 A 
ATOM     23  F18 1HO d   1     -19.193 -38.396 -10.351  0.00  0.00    -0.205 F 
ATOM     24  C13 1HO d   1     -18.708 -40.039  -7.160  0.00  0.00    -0.045 A 
ATOM     25  H13 1HO d   1     -17.911 -40.387  -6.513  0.00  0.00     0.088 H 
BRANCH  22  26
ATOM     26  C3  1HO d   1     -16.954 -39.277  -8.803  0.00  0.00     0.158 C 
ATOM     27  C4  1HO d   1     -16.596 -40.440  -9.784  0.00  0.00     0.296 C 
ATOM     28  C5  1HO d   1     -16.459 -41.771  -9.075  0.00  0.00     0.092 C 
ATOM     29  F11 1HO d   1     -17.501 -40.619 -10.773  0.00  0.00    -0.201 F 
ATOM     30  F12 1HO d   1     -15.451 -40.243 -10.492  0.00  0.00    -0.201 F 
ATOM     31  O6  1HO d   1     -15.410 -41.563  -8.117  0.00  0.00    -0.316 OA
ATOM     32  H6  1HO d   1     -16.184 -42.564  -9.786  0.00  0.00     0.084 H 
ATOM     33  H7  1HO d   1     -17.398 -42.041  -8.570  0.00  0.00     0.084 H 
ATOM     34  C1  1HO d   1     -15.387 -40.438  -7.395  0.00  0.00     0.213 C 
ATOM     35  N2  1HO d   1     -16.025 -39.327  -7.695  0.00  0.00    -0.335 N 
ATOM     36  N7  1HO d   1     -14.586 -40.469  -6.307  0.00  0.00    -0.365 N 
ATOM     37  H10 1HO d   1     -15.861 -38.480  -7.133  0.00  0.00     0.164 HD
ATOM     38  H11 1HO d   1     -14.082 -41.334  -6.063  0.00  0.00     0.159 HD
ATOM     39  H12 1HO d   1     -14.480 -39.628  -5.722  0.00  0.00     0.159 HD
BRANCH  26  40
ATOM     40  C9  1HO d   1     -16.833 -37.858  -9.329  0.00  0.00     0.091 C 
ATOM     41  F10 1HO d   1     -15.450 -37.641  -9.567  0.00  0.00    -0.252 F 
ATOM     42  H8  1HO d   1     -17.209 -37.142  -8.584  0.00  0.00     0.086 H 
ATOM     43  H9  1HO d   1     -17.403 -37.748 -10.264  0.00  0.00     0.086 H 
ENDBRANCH  26  40
ENDBRANCH  22  26
ENDBRANCH  14  16
ENDBRANCH   4  12
TORSDOF 4
