REMARK  6 active torsions:
REMARK  status: ('A' for Active; 'I' for Inactive)
REMARK    1  A    between atoms: C1_1  and  C27_27 
REMARK    2  A    between atoms: C4_3  and  N14_17 
REMARK    3  A    between atoms: C6_4  and  C15_6 
REMARK    4  A    between atoms: C7_11  and  C6_4 
REMARK    5  A    between atoms: C17_7  and  C18_8 
REMARK       I    between atoms: N16_18  and  C17_7 
REMARK    6  A    between atoms: C9_13  and  N16_18 
ROOT
ATOM      1  C18 1HM d   1     -21.156 -41.880  -4.031  0.00  0.00     0.124 C 
ATOM      2  N20 1HM d   1     -20.069 -41.583  -3.280  0.00  0.00    -0.254 NA
ATOM      3  C21 1HM d   1     -19.781 -42.230  -2.136  0.00  0.00     0.023 C 
ATOM      4  C22 1HM d   1     -20.694 -43.119  -1.622  0.00  0.00     0.062 C 
ATOM      5  C23 1HM d   1     -21.886 -43.443  -2.371  0.00  0.00    -0.059 C 
ATOM      6  C24 1HM d   1     -22.155 -42.785  -3.581  0.00  0.00    -0.048 C 
ATOM      7  C25 1HM d   1     -20.466 -43.746  -0.351  0.00  0.00     0.101 C 
ATOM      8  N26 1HM d   1     -20.293 -44.255   0.662  0.00  0.00    -0.191 NA
ATOM      9  H13 1HM d   1     -18.841 -42.052  -1.626  0.00  0.00     0.117 H 
ATOM     10  H14 1HM d   1     -22.573 -44.194  -1.998  0.00  0.00     0.086 H 
ATOM     11  H15 1HM d   1     -23.069 -42.957  -4.138  0.00  0.00     0.087 H 
ENDROOT
BRANCH   1  12
ATOM     12  C17 1HM d   1     -21.302 -41.203  -5.316  0.00  0.00     0.274 C 
ATOM     13  N16 1HM d   1     -20.183 -40.581  -5.801  0.00  0.00    -0.322 N 
ATOM     14  H12 1HM d   1     -19.390 -40.588  -5.191  0.00  0.00     0.169 HD
ATOM     15  O19 1HM d   1     -22.357 -41.257  -5.937  0.00  0.00    -0.266 OA
BRANCH  13  16
ATOM     16  C9  1HM d   1     -19.990 -39.936  -7.029  0.00  0.00     0.035 A 
ATOM     17  C8  1HM d   1     -18.638 -39.670  -7.327  0.00  0.00    -0.046 A 
ATOM     18  C7  1HM d   1     -18.337 -39.185  -8.606  0.00  0.00     0.013 A 
ATOM     19  H7  1HM d   1     -17.859 -39.835  -6.592  0.00  0.00     0.088 H 
ATOM     20  C12 1HM d   1     -19.430 -38.929  -9.533  0.00  0.00     0.125 A 
ATOM     21  C11 1HM d   1     -20.772 -39.215  -9.257  0.00  0.00    -0.043 A 
ATOM     22  F13 1HM d   1     -19.098 -38.481 -10.762  0.00  0.00    -0.205 F 
ATOM     23  C10 1HM d   1     -21.082 -39.736  -7.976  0.00  0.00    -0.054 A 
ATOM     24  H9  1HM d   1     -21.546 -39.044  -9.996  0.00  0.00     0.088 H 
ATOM     25  H8  1HM d   1     -22.103 -39.980  -7.707  0.00  0.00     0.087 H 
BRANCH  18  26
ATOM     26  C6  1HM d   1     -16.913 -38.811  -8.985  0.00  0.00     0.092 C 
ATOM     27  C2  1HM d   1     -16.260 -39.731 -10.090  0.00  0.00    -0.002 C 
ATOM     28  C1  1HM d   1     -16.132 -41.117  -9.469  0.00  0.00     0.144 C 
ATOM     29  H2  1HM d   1     -16.903 -39.771 -10.982  0.00  0.00     0.041 H 
ATOM     30  H3  1HM d   1     -15.268 -39.346 -10.370  0.00  0.00     0.041 H 
ATOM     31  O3  1HM d   1     -15.253 -41.050  -8.299  0.00  0.00    -0.308 OA
ATOM     32  H1  1HM d   1     -17.122 -41.498  -9.179  0.00  0.00     0.098 H 
ATOM     33  C4  1HM d   1     -15.262 -39.960  -7.549  0.00  0.00     0.214 C 
ATOM     34  N5  1HM d   1     -16.039 -38.930  -7.827  0.00  0.00    -0.341 N 
ATOM     35  H6  1HM d   1     -16.026 -38.140  -7.166  0.00  0.00     0.164 HD
BRANCH  28  36
ATOM     36  C27 1HM d   1     -15.465 -42.066 -10.534  0.00  0.00     0.413 C 
ATOM     37  F28 1HM d   1     -14.253 -41.584 -10.879  0.00  0.00    -0.168 F 
ATOM     38  F29 1HM d   1     -15.323 -43.236  -9.892  0.00  0.00    -0.168 F 
ATOM     39  F30 1HM d   1     -16.365 -42.153 -11.569  0.00  0.00    -0.168 F 
ENDBRANCH  28  36
BRANCH  33  40
ATOM     40  N14 1HM d   1     -14.455 -40.060  -6.413  0.00  0.00    -0.365 N 
ATOM     41  H10 1HM d   1     -14.388 -39.268  -5.758  0.00  0.00     0.159 HD
ATOM     42  H11 1HM d   1     -13.927 -40.926  -6.231  0.00  0.00     0.159 HD
ENDBRANCH  33  40
BRANCH  26  43
ATOM     43  C15 1HM d   1     -16.824 -37.276  -9.255  0.00  0.00     0.086 C 
ATOM     44  F31 1HM d   1     -15.472 -36.968  -9.668  0.00  0.00    -0.253 F 
ATOM     45  H4  1HM d   1     -17.069 -36.721  -8.337  0.00  0.00     0.086 H 
ATOM     46  H5  1HM d   1     -17.529 -36.996 -10.051  0.00  0.00     0.086 H 
ENDBRANCH  26  43
ENDBRANCH  18  26
ENDBRANCH  13  16
ENDBRANCH   1  12
TORSDOF 6
