REMARK  6 active torsions:
REMARK  status: ('A' for Active; 'I' for Inactive)
REMARK    1  A    between atoms: C1_1  and  C27_27 
REMARK    2  A    between atoms: C4_4  and  N14_14 
REMARK    3  A    between atoms: C6_6  and  C7_7 
REMARK    4  A    between atoms: C6_6  and  C15_15 
REMARK    5  A    between atoms: C9_9  and  N16_16 
REMARK       I    between atoms: N16_16  and  C17_17 
REMARK    6  A    between atoms: C17_17  and  C18_18 
ROOT
ATOM      1  C18 1HL d   1     -20.673 -42.571  -4.042  0.00  0.00     0.124 A 
ATOM      2  N20 1HL d   1     -19.562 -42.294  -3.332  0.00  0.00    -0.254 NA
ATOM      3  C21 1HL d   1     -19.371 -42.820  -2.123  0.00  0.00     0.023 A 
ATOM      4  C22 1HL d   1     -20.313 -43.721  -1.564  0.00  0.00     0.062 A 
ATOM      5  C23 1HL d   1     -21.490 -44.054  -2.326  0.00  0.00    -0.059 A 
ATOM      6  C24 1HL d   1     -21.677 -43.464  -3.586  0.00  0.00    -0.048 A 
ATOM      7  C25 1HL d   1     -20.091 -44.293  -0.260  0.00  0.00     0.101 C 
ATOM      8  N26 1HL d   1     -19.939 -44.765   0.782  0.00  0.00    -0.191 NA
ATOM      9  H14 1HL d   1     -18.484 -42.556  -1.559  0.00  0.00     0.117 H 
ATOM     10  H15 1HL d   1     -22.221 -44.751  -1.932  0.00  0.00     0.086 H 
ATOM     11  H16 1HL d   1     -22.553 -43.682  -4.186  0.00  0.00     0.087 H 
ENDROOT
BRANCH   1  12
ATOM     12  C17 1HL d   1     -20.811 -41.962  -5.368  0.00  0.00     0.274 C 
ATOM     13  N16 1HL d   1     -19.680 -41.385  -5.880  0.00  0.00    -0.322 N 
ATOM     14  H13 1HL d   1     -18.879 -41.384  -5.282  0.00  0.00     0.169 HD
ATOM     15  O19 1HL d   1     -21.884 -41.983  -5.940  0.00  0.00    -0.266 OA
BRANCH  13  16
ATOM     16  C9  1HL d   1     -19.511 -40.806  -7.117  0.00  0.00     0.035 A 
ATOM     17  C8  1HL d   1     -18.189 -40.481  -7.445  0.00  0.00    -0.046 A 
ATOM     18  C7  1HL d   1     -17.909 -39.935  -8.687  0.00  0.00     0.010 A 
ATOM     19  H5  1HL d   1     -17.391 -40.655  -6.732  0.00  0.00     0.088 H 
ATOM     20  C12 1HL d   1     -18.950 -39.750  -9.622  0.00  0.00     0.125 A 
ATOM     21  C11 1HL d   1     -20.275 -40.113  -9.289  0.00  0.00    -0.043 A 
ATOM     22  F13 1HL d   1     -18.697 -39.253 -10.898  0.00  0.00    -0.205 F 
ATOM     23  C10 1HL d   1     -20.576 -40.631  -8.026  0.00  0.00    -0.054 A 
ATOM     24  H7  1HL d   1     -21.065 -39.988 -10.020  0.00  0.00     0.088 H 
ATOM     25  H6  1HL d   1     -21.593 -40.889  -7.754  0.00  0.00     0.087 H 
BRANCH  18  26
ATOM     26  C6  1HL d   1     -16.443 -39.613  -9.030  0.00  0.00     0.063 C 
ATOM     27  C2  1HL d   1     -15.997 -40.626 -10.123  0.00  0.00    -0.005 C 
ATOM     28  C1  1HL d   1     -15.705 -42.000  -9.499  0.00  0.00     0.144 C 
ATOM     29  H2  1HL d   1     -16.799 -40.730 -10.868  0.00  0.00     0.041 H 
ATOM     30  H3  1HL d   1     -15.087 -40.251 -10.614  0.00  0.00     0.041 H 
ATOM     31  O3  1HL d   1     -14.833 -41.906  -8.366  0.00  0.00    -0.308 OA
ATOM     32  H1  1HL d   1     -16.653 -42.477  -9.208  0.00  0.00     0.098 H 
ATOM     33  C4  1HL d   1     -14.805 -40.756  -7.645  0.00  0.00     0.214 C 
ATOM     34  N5  1HL d   1     -15.548 -39.698  -7.886  0.00  0.00    -0.343 N 
ATOM     35  H4  1HL d   1     -15.494 -38.898  -7.239  0.00  0.00     0.164 HD
BRANCH  28  36
ATOM     36  C27 1HL d   1     -14.951 -42.865 -10.518  0.00  0.00     0.413 C 
ATOM     37  F28 1HL d   1     -14.677 -44.101  -9.932  0.00  0.00    -0.168 F 
ATOM     38  F29 1HL d   1     -15.851 -43.137 -11.524  0.00  0.00    -0.168 F 
ATOM     39  F30 1HL d   1     -13.779 -42.213 -11.015  0.00  0.00    -0.168 F 
ENDBRANCH  28  36
BRANCH  33  40
ATOM     40  N14 1HL d   1     -13.941 -40.770  -6.552  0.00  0.00    -0.365 N 
ATOM     41  H8  1HL d   1     -13.858 -39.938  -5.950  0.00  0.00     0.159 HD
ATOM     42  H9  1HL d   1     -13.385 -41.612  -6.346  0.00  0.00     0.159 HD
ENDBRANCH  33  40
BRANCH  26  43
ATOM     43  C15 1HL d   1     -16.239 -38.193  -9.585  0.00  0.00    -0.049 C 
ATOM     44  H10 1HL d   1     -16.548 -37.456  -8.829  0.00  0.00     0.031 H 
ATOM     45  H11 1HL d   1     -16.846 -38.063 -10.493  0.00  0.00     0.031 H 
ATOM     46  H12 1HL d   1     -15.177 -38.044  -9.830  0.00  0.00     0.031 H 
ENDBRANCH  26  43
ENDBRANCH  18  26
ENDBRANCH  13  16
ENDBRANCH   1  12
TORSDOF 6
