REMARK  6 active torsions:
REMARK  status: ('A' for Active; 'I' for Inactive)
REMARK    1  A    between atoms: C1_1  and  C27_27 
REMARK    2  A    between atoms: C4_4  and  N14_14 
REMARK    3  A    between atoms: C6_6  and  C7_7 
REMARK    4  A    between atoms: C6_6  and  C15_15 
REMARK    5  A    between atoms: C9_9  and  N16_16 
REMARK       I    between atoms: N16_16  and  C17_17 
REMARK    6  A    between atoms: C17_17  and  C18_18 
ROOT
ATOM      1  C18 1HJ d   1      20.710  41.984  -4.110  0.00  0.00     0.124 A 
ATOM      2  N20 1HJ d   1      19.659  41.776  -3.321  0.00  0.00    -0.254 NA
ATOM      3  C21 1HJ d   1      19.504  42.396  -2.169  0.00  0.00     0.023 A 
ATOM      4  C22 1HJ d   1      20.450  43.338  -1.779  0.00  0.00     0.062 A 
ATOM      5  C23 1HJ d   1      21.595  43.637  -2.595  0.00  0.00    -0.059 A 
ATOM      6  C24 1HJ d   1      21.717  42.925  -3.796  0.00  0.00    -0.048 A 
ATOM      7  C25 1HJ d   1      20.259  43.980  -0.522  0.00  0.00     0.101 C 
ATOM      8  N26 1HJ d   1      20.086  44.479   0.474  0.00  0.00    -0.191 NA
ATOM      9  H14 1HJ d   1      18.653  42.175  -1.535  0.00  0.00     0.117 H 
ATOM     10  H15 1HJ d   1      22.328  44.377  -2.296  0.00  0.00     0.086 H 
ATOM     11  H16 1HJ d   1      22.556  43.090  -4.462  0.00  0.00     0.087 H 
ENDROOT
BRANCH   1  12
ATOM     12  C17 1HJ d   1      20.754  41.273  -5.400  0.00  0.00     0.274 C 
ATOM     13  N16 1HJ d   1      19.575  40.730  -5.780  0.00  0.00    -0.322 N 
ATOM     14  H13 1HJ d   1      18.828  40.774  -5.117  0.00  0.00     0.169 HD
ATOM     15  O19 1HJ d   1      21.774  41.257  -6.081  0.00  0.00    -0.266 OA
BRANCH  13  16
ATOM     16  C9  1HJ d   1      19.297  40.126  -6.978  0.00  0.00     0.035 A 
ATOM     17  C8  1HJ d   1      17.956  39.951  -7.319  0.00  0.00    -0.046 A 
ATOM     18  C7  1HJ d   1      17.680  39.392  -8.539  0.00  0.00     0.010 A 
ATOM     19  H5  1HJ d   1      17.161  40.246  -6.644  0.00  0.00     0.088 H 
ATOM     20  C12 1HJ d   1      18.732  39.101  -9.421  0.00  0.00     0.125 A 
ATOM     21  C11 1HJ d   1      20.053  39.316  -9.086  0.00  0.00    -0.043 A 
ATOM     22  F13 1HJ d   1      18.500  38.574 -10.632  0.00  0.00    -0.205 F 
ATOM     23  C10 1HJ d   1      20.362  39.859  -7.860  0.00  0.00    -0.054 A 
ATOM     24  H7  1HJ d   1      20.842  39.059  -9.784  0.00  0.00     0.088 H 
ATOM     25  H6  1HJ d   1      21.388  40.074  -7.583  0.00  0.00     0.087 H 
BRANCH  18  26
ATOM     26  C6  1HJ d   1      16.263  39.209  -8.967  0.00  0.00     0.063 C 
ATOM     27  C2  1HJ d   1      16.030  40.354  -9.992  0.00  0.00    -0.005 C 
ATOM     28  C1  1HJ d   1      14.652  40.989  -9.798  0.00  0.00     0.144 C 
ATOM     29  H2  1HJ d   1      16.804  41.124  -9.854  0.00  0.00     0.041 H 
ATOM     30  H3  1HJ d   1      16.098  39.944 -11.011  0.00  0.00     0.041 H 
ATOM     31  O3  1HJ d   1      14.546  41.395  -8.410  0.00  0.00    -0.308 OA
ATOM     32  H1  1HJ d   1      13.843  40.305 -10.095  0.00  0.00     0.098 H 
ATOM     33  C4  1HJ d   1      14.681  40.391  -7.562  0.00  0.00     0.214 C 
ATOM     34  N5  1HJ d   1      15.458  39.383  -7.773  0.00  0.00    -0.343 N 
ATOM     35  H4  1HJ d   1      15.510  38.655  -7.047  0.00  0.00     0.164 HD
BRANCH  28  36
ATOM     36  C27 1HJ d   1      14.627  42.298 -10.594  0.00  0.00     0.413 C 
ATOM     37  F28 1HJ d   1      14.715  41.973 -11.938  0.00  0.00    -0.168 F 
ATOM     38  F29 1HJ d   1      13.345  42.836 -10.422  0.00  0.00    -0.168 F 
ATOM     39  F30 1HJ d   1      15.682  43.202 -10.192  0.00  0.00    -0.168 F 
ENDBRANCH  28  36
BRANCH  33  40
ATOM     40  N14 1HJ d   1      13.960  40.461  -6.395  0.00  0.00    -0.365 N 
ATOM     41  H8  1HJ d   1      14.030  39.704  -5.700  0.00  0.00     0.159 HD
ATOM     42  H9  1HJ d   1      13.350  41.271  -6.215  0.00  0.00     0.159 HD
ENDBRANCH  33  40
BRANCH  26  43
ATOM     43  C15 1HJ d   1      15.951  37.857  -9.651  0.00  0.00    -0.049 C 
ATOM     44  H10 1HJ d   1      16.112  37.038  -8.935  0.00  0.00     0.031 H 
ATOM     45  H11 1HJ d   1      16.615  37.722 -10.518  0.00  0.00     0.031 H 
ATOM     46  H12 1HJ d   1      14.904  37.849  -9.987  0.00  0.00     0.031 H 
ENDBRANCH  26  43
ENDBRANCH  18  26
ENDBRANCH  13  16
ENDBRANCH   1  12
TORSDOF 6
