REMARK  6 active torsions:
REMARK  status: ('A' for Active; 'I' for Inactive)
REMARK    1  A    between atoms: C3_2  and  C31_31 
REMARK    2  A    between atoms: C5_3  and  N19_21 
REMARK    3  A    between atoms: C14_6  and  C1_13 
REMARK    4  A    between atoms: N20_22  and  C7_7 
REMARK    5  A    between atoms: C21_9  and  C22_10 
REMARK       I    between atoms: C21_9  and  N20_22 
REMARK    6  A    between atoms: C1_13  and  C12_11 
ROOT
ATOM      1  C22 1HH d   1      20.859 -42.106   3.928  0.00  0.00     0.124 A 
ATOM      2  C24 1HH d   1      21.793 -43.099   3.579  0.00  0.00    -0.048 A 
ATOM      3  C25 1HH d   1      21.635 -43.728   2.332  0.00  0.00    -0.059 A 
ATOM      4  C26 1HH d   1      20.524 -43.363   1.522  0.00  0.00     0.062 A 
ATOM      5  C27 1HH d   1      19.643 -42.375   1.970  0.00  0.00     0.023 A 
ATOM      6  N28 1HH d   1      19.845 -41.833   3.144  0.00  0.00    -0.254 NA
ATOM      7  C29 1HH d   1      20.321 -43.962   0.231  0.00  0.00     0.101 C 
ATOM      8  N30 1HH d   1      20.168 -44.433  -0.791  0.00  0.00    -0.191 NA
ATOM      9  H13 1HH d   1      22.604 -43.369   4.247  0.00  0.00     0.087 H 
ATOM     10  H14 1HH d   1      22.344 -44.475   1.995  0.00  0.00     0.086 H 
ATOM     11  H15 1HH d   1      18.806 -42.063   1.355  0.00  0.00     0.117 H 
ENDROOT
BRANCH   1  12
ATOM     12  C21 1HH d   1      20.917 -41.456   5.266  0.00  0.00     0.274 C 
ATOM     13  N20 1HH d   1      19.740 -40.996   5.764  0.00  0.00    -0.322 N 
ATOM     14  H12 1HH d   1      18.947 -41.076   5.160  0.00  0.00     0.169 HD
ATOM     15  O23 1HH d   1      21.934 -41.422   5.934  0.00  0.00    -0.266 OA
BRANCH  13  16
ATOM     16  C7  1HH d   1      19.501 -40.424   7.019  0.00  0.00     0.035 A 
ATOM     17  C8  1HH d   1      20.532 -40.327   8.010  0.00  0.00    -0.054 A 
ATOM     18  C9  1HH d   1      20.195 -39.802   9.257  0.00  0.00    -0.043 A 
ATOM     19  H1  1HH d   1      21.544 -40.652   7.796  0.00  0.00     0.087 H 
ATOM     20  C10 1HH d   1      18.855 -39.413   9.502  0.00  0.00     0.125 A 
ATOM     21  H3  1HH d   1      20.948 -39.693  10.029  0.00  0.00     0.088 H 
ATOM     22  C14 1HH d   1      17.834 -39.535   8.530  0.00  0.00     0.013 A 
ATOM     23  F13 1HH d   1      18.541 -38.904  10.714  0.00  0.00    -0.205 F 
ATOM     24  C11 1HH d   1      18.170 -40.039   7.295  0.00  0.00    -0.046 A 
ATOM     25  H4  1HH d   1      17.409 -40.141   6.529  0.00  0.00     0.088 H 
BRANCH  22  26
ATOM     26  C1  1HH d   1      16.418 -39.112   8.839  0.00  0.00     0.093 C 
ATOM     27  C2  1HH d   1      15.800 -39.946   9.984  0.00  0.00     0.141 C 
ATOM     28  C3  1HH d   1      15.263 -41.348   9.610  0.00  0.00     0.173 C 
ATOM     29  F18 1HH d   1      14.637 -39.282  10.337  0.00  0.00    -0.243 F 
ATOM     30  H5  1HH d   1      16.516 -40.020  10.816  0.00  0.00     0.100 H 
ATOM     31  O4  1HH d   1      15.043 -41.478   8.196  0.00  0.00    -0.305 OA
ATOM     32  H2  1HH d   1      14.307 -41.501  10.133  0.00  0.00     0.102 H 
ATOM     33  C5  1HH d   1      14.973 -40.387   7.409  0.00  0.00     0.214 C 
ATOM     34  N6  1HH d   1      15.605 -39.272   7.638  0.00  0.00    -0.341 N 
ATOM     35  H9  1HH d   1      15.530 -38.496   6.965  0.00  0.00     0.164 HD
BRANCH  28  36
ATOM     36  C31 1HH d   1      16.240 -42.434  10.035  0.00  0.00     0.416 C 
ATOM     37  F15 1HH d   1      16.448 -42.304  11.375  0.00  0.00    -0.168 F 
ATOM     38  F16 1HH d   1      15.725 -43.661   9.768  0.00  0.00    -0.168 F 
ATOM     39  F17 1HH d   1      17.433 -42.449   9.343  0.00  0.00    -0.168 F 
ENDBRANCH  28  36
BRANCH  33  40
ATOM     40  N19 1HH d   1      14.254 -40.529   6.253  0.00  0.00    -0.365 N 
ATOM     41  H10 1HH d   1      14.159 -39.734   5.604  0.00  0.00     0.159 HD
ATOM     42  H11 1HH d   1      13.807 -41.430   6.032  0.00  0.00     0.159 HD
ENDBRANCH  33  40
BRANCH  26  43
ATOM     43  C12 1HH d   1      16.384 -37.647   9.312  0.00  0.00    -0.046 C 
ATOM     44  H6  1HH d   1      16.814 -37.000   8.533  0.00  0.00     0.031 H 
ATOM     45  H7  1HH d   1      16.971 -37.547  10.237  0.00  0.00     0.031 H 
ATOM     46  H8  1HH d   1      15.343 -37.348   9.504  0.00  0.00     0.031 H 
ENDBRANCH  26  43
ENDBRANCH  22  26
ENDBRANCH  13  16
ENDBRANCH   1  12
TORSDOF 6
