REMARK  5 active torsions:
REMARK  status: ('A' for Active; 'I' for Inactive)
REMARK    1  A    between atoms: C1_1  and  C27_27 
REMARK    2  A    between atoms: C6_6  and  C7_7 
REMARK    3  A    between atoms: C6_6  and  C15_15 
REMARK    4  A    between atoms: C9_9  and  N16_16 
REMARK       I    between atoms: N16_16  and  C17_17 
REMARK    5  A    between atoms: C17_17  and  C18_18 
ROOT
ATOM      1  C18 1HG d   1     -20.912 -42.175  -3.915  0.00  0.00     0.124 A 
ATOM      2  N20 1HG d   1     -19.822 -41.938  -3.165  0.00  0.00    -0.254 NA
ATOM      3  C21 1HG d   1     -19.601 -42.481  -1.988  0.00  0.00     0.023 A 
ATOM      4  C22 1HG d   1     -20.507 -43.429  -1.522  0.00  0.00     0.062 A 
ATOM      5  C23 1HG d   1     -21.661 -43.754  -2.308  0.00  0.00    -0.059 A 
ATOM      6  C24 1HG d   1     -21.891 -43.120  -3.537  0.00  0.00    -0.048 A 
ATOM      7  C25 1HG d   1     -20.289 -44.052  -0.237  0.00  0.00     0.101 C 
ATOM      8  N26 1HG d   1     -20.107 -44.544   0.789  0.00  0.00    -0.191 NA
ATOM      9  H13 1HG d   1     -18.737 -42.198  -1.397  0.00  0.00     0.117 H 
ATOM     10  H14 1HG d   1     -22.363 -44.498  -1.948  0.00  0.00     0.086 H 
ATOM     11  H15 1HG d   1     -22.756 -43.339  -4.152  0.00  0.00     0.087 H 
ENDROOT
BRANCH   1  12
ATOM     12  C17 1HG d   1     -21.023 -41.531  -5.228  0.00  0.00     0.274 C 
ATOM     13  N16 1HG d   1     -19.885 -41.022  -5.726  0.00  0.00    -0.322 N 
ATOM     14  H12 1HG d   1     -19.095 -41.050  -5.114  0.00  0.00     0.169 HD
ATOM     15  O19 1HG d   1     -22.065 -41.538  -5.858  0.00  0.00    -0.266 OA
BRANCH  13  16
ATOM     16  C9  1HG d   1     -19.656 -40.462  -6.976  0.00  0.00     0.035 A 
ATOM     17  C8  1HG d   1     -18.314 -40.126  -7.266  0.00  0.00    -0.046 A 
ATOM     18  C7  1HG d   1     -18.013 -39.588  -8.483  0.00  0.00     0.013 A 
ATOM     19  H4  1HG d   1     -17.535 -40.294  -6.531  0.00  0.00     0.088 H 
ATOM     20  C12 1HG d   1     -19.058 -39.407  -9.398  0.00  0.00     0.125 A 
ATOM     21  C11 1HG d   1     -20.387 -39.810  -9.152  0.00  0.00    -0.043 A 
ATOM     22  F13 1HG d   1     -18.779 -38.922 -10.608  0.00  0.00    -0.205 F 
ATOM     23  C10 1HG d   1     -20.701 -40.353  -7.915  0.00  0.00    -0.054 A 
ATOM     24  H6  1HG d   1     -21.148 -39.697  -9.915  0.00  0.00     0.088 H 
ATOM     25  H5  1HG d   1     -21.708 -40.680  -7.681  0.00  0.00     0.087 H 
BRANCH  18  26
ATOM     26  C6  1HG d   1     -16.600 -39.207  -8.824  0.00  0.00     0.093 C 
ATOM     27  C2  1HG d   1     -16.122 -40.201  -9.892  0.00  0.00     0.141 C 
ATOM     28  C1  1HG d   1     -15.958 -41.574  -9.249  0.00  0.00     0.173 C 
ATOM     29  F31 1HG d   1     -14.866 -39.822 -10.364  0.00  0.00    -0.243 F 
ATOM     30  H2  1HG d   1     -16.846 -40.244 -10.719  0.00  0.00     0.100 H 
ATOM     31  O3  1HG d   1     -15.030 -41.423  -8.163  0.00  0.00    -0.305 OA
ATOM     32  H1  1HG d   1     -16.923 -41.979  -8.911  0.00  0.00     0.102 H 
ATOM     33  C4  1HG d   1     -15.010 -40.336  -7.433  0.00  0.00     0.214 C 
ATOM     34  N5  1HG d   1     -15.723 -39.259  -7.649  0.00  0.00    -0.341 N 
ATOM     35  N14 1HG d   1     -14.166 -40.483  -6.380  0.00  0.00    -0.365 N 
ATOM     36  H3  1HG d   1     -15.669 -38.459  -7.003  0.00  0.00     0.164 HD
ATOM     37  H7  1HG d   1     -14.040 -39.711  -5.710  0.00  0.00     0.159 HD
ATOM     38  H8  1HG d   1     -13.652 -41.366  -6.252  0.00  0.00     0.159 HD
BRANCH  28  39
ATOM     39  C27 1HG d   1     -15.275 -42.507 -10.273  0.00  0.00     0.416 C 
ATOM     40  F28 1HG d   1     -14.001 -42.113 -10.622  0.00  0.00    -0.168 F 
ATOM     41  F29 1HG d   1     -15.299 -43.795  -9.763  0.00  0.00    -0.168 F 
ATOM     42  F30 1HG d   1     -15.951 -42.487 -11.437  0.00  0.00    -0.168 F 
ENDBRANCH  28  39
BRANCH  26  43
ATOM     43  C15 1HG d   1     -16.483 -37.822  -9.463  0.00  0.00    -0.046 C 
ATOM     44  H9  1HG d   1     -16.813 -37.057  -8.744  0.00  0.00     0.031 H 
ATOM     45  H10 1HG d   1     -17.116 -37.778 -10.361  0.00  0.00     0.031 H 
ATOM     46  H11 1HG d   1     -15.436 -37.635  -9.743  0.00  0.00     0.031 H 
ENDBRANCH  26  43
ENDBRANCH  18  26
ENDBRANCH  13  16
ENDBRANCH   1  12
TORSDOF 5
