REMARK  11 active torsions:
REMARK  status: ('A' for Active; 'I' for Inactive)
REMARK    1  A    between atoms: O1_1  and  C1_2 
REMARK    2  A    between atoms: C2_3  and  O1_1 
REMARK    3  A    between atoms: C4_5  and  O2_8 
REMARK    4  A    between atoms: O2_8  and  C5_7 
REMARK    5  A    between atoms: O3_10  and  C13_20 
REMARK    6  A    between atoms: C14_21  and  O3_10 
REMARK    7  A    between atoms: C9_16  and  C8_13 
REMARK    8  A    between atoms: C15_22  and  O4_14 
REMARK    9  A    between atoms: C16_18  and  C17_19 
REMARK   10  A    between atoms: C14_21  and  C15_22 
REMARK   11  A    between atoms: C11_23  and  C12_24 
ROOT
ATOM      1  C9  1K0 d   1       9.668  22.669  -2.280  0.00  0.00     0.011 A 
ATOM      2  C18 1K0 d   1       8.403  22.777  -1.907  0.00  0.00    -0.061 A 
ATOM      3  C16 1K0 d   1       8.013  23.383  -0.722  0.00  0.00    -0.027 A 
ATOM      4  C13 1K0 d   1       9.033  24.014   0.023  0.00  0.00     0.080 A 
ATOM      5  C11 1K0 d   1      10.355  23.973  -0.344  0.00  0.00    -0.027 A 
ATOM      6  C10 1K0 d   1      10.665  23.321  -1.534  0.00  0.00    -0.061 A 
ATOM      7  H   1K0 d   1       7.636  22.373  -2.558  0.00  0.00     0.085 H 
ATOM      8  H   1K0 d   1      11.689  23.316  -1.890  0.00  0.00     0.085 H 
ENDROOT
BRANCH   1   9
ATOM      9  C8  1K0 d   1      10.105  21.913  -3.490  0.00  0.00     0.141 A 
ATOM     10  N1  1K0 d   1       9.249  20.972  -3.993  0.00  0.00    -0.306 N 
ATOM     11  C7  1K0 d   1       9.580  20.150  -5.064  0.00  0.00     0.262 A 
ATOM     12  H   1K0 d   1       8.347  20.871  -3.573  0.00  0.00     0.170 HD
ATOM     13  C6  1K0 d   1      10.826  20.416  -5.689  0.00  0.00     0.094 A 
ATOM     14  O5  1K0 d   1       8.787  19.252  -5.363  0.00  0.00    -0.267 OA
ATOM     15  C4  1K0 d   1      11.309  19.761  -6.855  0.00  0.00     0.088 A 
ATOM     16  C19 1K0 d   1      11.701  21.413  -5.139  0.00  0.00     0.080 A 
ATOM     17  C3  1K0 d   1      12.551  20.023  -7.359  0.00  0.00    -0.018 A 
ATOM     18  C2  1K0 d   1      13.379  20.958  -6.752  0.00  0.00     0.073 A 
ATOM     19  H   1K0 d   1      12.894  19.496  -8.242  0.00  0.00     0.092 H 
ATOM     20  C20 1K0 d   1      12.948  21.651  -5.643  0.00  0.00    -0.022 A 
ATOM     21  H   1K0 d   1      13.595  22.382  -5.172  0.00  0.00     0.091 H 
ATOM     22  N2  1K0 d   1      11.290  22.152  -4.012  0.00  0.00    -0.229 NA
BRANCH  15  23
ATOM     23  O2  1K0 d   1      10.428  18.903  -7.471  0.00  0.00    -0.355 OA
BRANCH  23  24
ATOM     24  C5  1K0 d   1      10.791  18.411  -8.773  0.00  0.00     0.010 C 
ATOM     25  H   1K0 d   1      10.002  17.741  -9.145  0.00  0.00     0.066 H 
ATOM     26  H   1K0 d   1      11.740  17.858  -8.705  0.00  0.00     0.066 H 
ATOM     27  H   1K0 d   1      10.909  19.258  -9.465  0.00  0.00     0.066 H 
ENDBRANCH  23  24
ENDBRANCH  15  23
BRANCH  18  28
ATOM     28  O1  1K0 d   1      14.583  21.110  -7.315  0.00  0.00    -0.356 OA
BRANCH  28  29
ATOM     29  C1  1K0 d   1      15.512  22.030  -6.702  0.00  0.00     0.010 C 
ATOM     30  H   1K0 d   1      16.449  22.043  -7.278  0.00  0.00     0.066 H 
ATOM     31  H   1K0 d   1      15.720  21.709  -5.671  0.00  0.00     0.066 H 
ATOM     32  H   1K0 d   1      15.075  23.039  -6.691  0.00  0.00     0.066 H 
ENDBRANCH  28  29
ENDBRANCH  18  28
ENDBRANCH   1   9
BRANCH   3  33
ATOM     33  C17 1K0 d   1       6.566  23.471  -0.294  0.00  0.00    -0.049 C 
ATOM     34  H   1K0 d   1       5.939  22.915  -1.006  0.00  0.00     0.033 H 
ATOM     35  H   1K0 d   1       6.253  24.525  -0.275  0.00  0.00     0.033 H 
ATOM     36  H   1K0 d   1       6.454  23.037   0.710  0.00  0.00     0.033 H 
ENDBRANCH   3  33
BRANCH   5  37
ATOM     37  C12 1K0 d   1      11.384  24.651   0.460  0.00  0.00    -0.049 C 
ATOM     38  H   1K0 d   1      12.370  24.498  -0.002  0.00  0.00     0.033 H 
ATOM     39  H   1K0 d   1      11.387  24.234   1.478  0.00  0.00     0.033 H 
ATOM     40  H   1K0 d   1      11.164  25.728   0.505  0.00  0.00     0.033 H 
ENDBRANCH   5  37
BRANCH   4  41
ATOM     41  O3  1K0 d   1       8.657  24.666   1.193  0.00  0.00    -0.348 OA
BRANCH  41  42
ATOM     42  C14 1K0 d   1       8.793  23.856   2.378  0.00  0.00     0.045 C 
ATOM     43  H   1K0 d   1       9.821  23.469   2.436  0.00  0.00     0.078 H 
ATOM     44  H   1K0 d   1       8.087  23.014   2.324  0.00  0.00     0.078 H 
BRANCH  42  45
ATOM     45  C15 1K0 d   1       8.499  24.673   3.617  0.00  0.00     0.037 C 
ATOM     46  H   1K0 d   1       8.673  24.071   4.521  0.00  0.00     0.077 H 
ATOM     47  H   1K0 d   1       9.137  25.569   3.644  0.00  0.00     0.077 H 
BRANCH  45  48
ATOM     48  O4  1K0 d   1       7.162  25.036   3.529  0.00  0.00    -0.399 OA
ATOM     49  H   1K0 d   1       6.624  24.254   3.498  0.00  0.00     0.209 HD
ENDBRANCH  45  48
ENDBRANCH  42  45
ENDBRANCH  41  42
ENDBRANCH   4  41
TORSDOF 11
