REMARK WARNING: 32 MAX_TORS EXCEEDED!!!
REMARK  60 active torsions:
REMARK  status: ('A' for Active; 'I' for Inactive)
REMARK    1  A    between atoms: N_1  and  CA_2 
REMARK    2  A    between atoms: CA_2  and  C_3 
REMARK    3  A    between atoms: CA_2  and  CB_5 
REMARK       I    between atoms: C_3  and  N_12 
REMARK    4  A    between atoms: CB_5  and  CG_6 
REMARK    5  A    between atoms: CG_6  and  CD_7 
REMARK    6  A    between atoms: CD_7  and  NE_8 
REMARK       I    between atoms: NE_8  and  CZ_9 
REMARK       I    between atoms: CZ_9  and  NH1_10 
REMARK       I    between atoms: CZ_9  and  NH2_11 
REMARK    7  A    between atoms: N_12  and  CA_13 
REMARK    8  A    between atoms: CA_13  and  C_14 
REMARK    9  A    between atoms: CA_13  and  CB_16 
REMARK       I    between atoms: C_14  and  N_22 
REMARK   10  A    between atoms: CB_16  and  CG_17 
REMARK   11  A    between atoms: CA_23  and  C_24 
REMARK       I    between atoms: C_24  and  N_29 
REMARK   12  A    between atoms: N_29  and  CA_30 
REMARK   13  A    between atoms: CA_30  and  C_31 
REMARK   14  A    between atoms: CA_30  and  CB_33 
REMARK       I    between atoms: C_31  and  N_37 
REMARK   15  A    between atoms: CB_33  and  CG_34 
REMARK   16  A    between atoms: CG_34  and  CD1_35 
REMARK   17  A    between atoms: CG_34  and  CD2_36 
REMARK   18  A    between atoms: N_37  and  CA_38 
REMARK   19  A    between atoms: CA_38  and  C_39 
REMARK   20  A    between atoms: CA_38  and  CB_41 
REMARK       I    between atoms: C_39  and  N_45 
REMARK   21  A    between atoms: CB_41  and  CG_42 
REMARK   22  A    between atoms: CG_42  and  CD1_43 
REMARK   23  A    between atoms: CG_42  and  CD2_44 
REMARK   24  A    between atoms: N_45  and  CA_46 
REMARK   25  A    between atoms: CA_46  and  C_47 
REMARK   26  A    between atoms: CA_46  and  CB_49 
REMARK       I    between atoms: C_47  and  N_53 
REMARK   27  A    between atoms: CB_49  and  CG_50 
REMARK   28  A    between atoms: CG_50  and  CD1_51 
REMARK   29  A    between atoms: CG_50  and  CD2_52 
REMARK   30  A    between atoms: N_53  and  CA_54 
REMARK   31  A    between atoms: CA_54  and  C_55 
REMARK   32  A    between atoms: CA_54  and  CB_57 
REMARK       I    between atoms: C_55  and  N_64 
REMARK   33  A    between atoms: CB_57  and  CG_58 
REMARK   34  A    between atoms: CG_58  and  CD_59 
REMARK   35  A    between atoms: CD_59  and  NE_60 
REMARK       I    between atoms: NE_60  and  CZ_61 
REMARK       I    between atoms: CZ_61  and  NH1_62 
REMARK       I    between atoms: CZ_61  and  NH2_63 
REMARK   36  A    between atoms: N_64  and  CA_65 
REMARK   37  A    between atoms: CA_65  and  C_66 
REMARK   38  A    between atoms: CA_65  and  CB_68 
REMARK       I    between atoms: C_66  and  N_74 
REMARK   39  A    between atoms: CB_68  and  CG_69 
REMARK   40  A    between atoms: N_74  and  CA_75 
REMARK   41  A    between atoms: CA_75  and  C_76 
REMARK   42  A    between atoms: CA_75  and  CB_78 
REMARK       I    between atoms: C_76  and  N_82 
REMARK   43  A    between atoms: CB_78  and  CG_79 
REMARK   44  A    between atoms: CG_79  and  CD1_80 
REMARK   45  A    between atoms: CG_79  and  CD2_81 
REMARK   46  A    between atoms: N_82  and  CA_83 
REMARK   47  A    between atoms: CA_83  and  C_84 
REMARK   48  A    between atoms: CA_83  and  CB_86 
REMARK       I    between atoms: C_84  and  N_90 
REMARK   49  A    between atoms: CB_86  and  CG_87 
REMARK   50  A    between atoms: CG_87  and  CD1_88 
REMARK   51  A    between atoms: CG_87  and  CD2_89 
REMARK   52  A    between atoms: N_90  and  CA_91 
REMARK   53  A    between atoms: CA_91  and  C_92 
REMARK   54  A    between atoms: CA_91  and  CB_94 
REMARK       I    between atoms: C_92  and  N_99 
REMARK   55  A    between atoms: CB_94  and  CG_95 
REMARK   56  A    between atoms: CG_95  and  CD_96 
REMARK       I    between atoms: CD_96  and  NE2_98 
REMARK   57  A    between atoms: N_99  and  CA_100 
REMARK   58  A    between atoms: CA_100  and  C_101 
REMARK   59  A    between atoms: CA_100  and  CB_103 
REMARK   60  A    between atoms: CB_103  and  CG_104 
REMARK       I    between atoms: CG_104  and  ND2_106 
ROOT
ATOM      1  N   ARG d   1      -3.971  27.539 -10.976  0.00  0.00    -0.346 N 
ATOM      2  H63 ARG d   1      -4.080  28.478 -11.302  0.00  0.00     0.163 HD
ATOM      3  C   LEU d   1      -3.989  26.536 -11.848  0.00  0.00     0.241 C 
ATOM      4  O   LEU d   1      -3.842  25.350 -11.514  0.00  0.00    -0.271 OA
ENDROOT
BRANCH   3   5
ATOM      5  CA  LEU d   1      -4.189  26.920 -13.313  0.00  0.00     0.089 C 
ATOM      6  H53 LEU d   1      -4.510  26.021 -13.860  0.00  0.00     0.087 H 
BRANCH   5   7
ATOM      7  N   LEU d   1      -5.229  27.935 -13.481  0.00  0.00    -0.346 N 
ATOM      8  C   LEU d   1      -6.480  27.737 -13.046  0.00  0.00     0.241 C 
ATOM      9  O   LEU d   1      -6.851  26.682 -12.537  0.00  0.00    -0.271 OA
ATOM     10  H52 LEU d   1      -5.000  28.798 -13.932  0.00  0.00     0.163 HD
BRANCH   8  11
ATOM     11  CA  LEU d   1      -7.448  28.907 -13.165  0.00  0.00     0.089 C 
ATOM     12  H42 LEU d   1      -8.320  28.702 -12.527  0.00  0.00     0.087 H 
BRANCH  11  13
ATOM     13  N   LEU d   1      -6.792  30.115 -12.692  0.00  0.00    -0.346 N 
ATOM     14  C   LEU d   1      -6.384  30.254 -11.442  0.00  0.00     0.241 C 
ATOM     15  O   LEU d   1      -6.506  29.381 -10.606  0.00  0.00    -0.271 OA
ATOM     16  H41 LEU d   1      -6.644  30.867 -13.334  0.00  0.00     0.163 HD
BRANCH  14  17
ATOM     17  CA  LEU d   1      -5.789  31.595 -11.074  0.00  0.00     0.089 C 
ATOM     18  H31 LEU d   1      -5.235  31.462 -10.133  0.00  0.00     0.087 H 
BRANCH  17  19
ATOM     19  N   LEU d   1      -4.835  32.078 -12.079  0.00  0.00    -0.346 N 
ATOM     20  C   PRO d   1      -3.634  31.503 -12.196  0.00  0.00     0.241 C 
ATOM     21  O   PRO d   1      -3.330  30.491 -11.571  0.00  0.00    -0.271 OA
ATOM     22  H30 LEU d   1      -5.084  32.839 -12.678  0.00  0.00     0.163 HD
BRANCH  20  23
ATOM     23  CA  PRO d   1      -2.623  32.115 -13.181  0.00  0.00     0.091 C 
ATOM     24  N   PRO d   1      -3.203  32.514 -14.462  0.00  0.00    -0.337 N 
ATOM     25  C   HIS d   1      -3.827  31.548 -15.152  0.00  0.00     0.243 C 
ATOM     26  CD  PRO d   1      -2.932  33.923 -14.797  0.00  0.00    -0.001 C 
ATOM     27  O   HIS d   1      -3.930  30.407 -14.728  0.00  0.00    -0.271 OA
ATOM     28  CG  PRO d   1      -2.510  34.516 -13.491  0.00  0.00    -0.048 C 
ATOM     29  H28 PRO d   1      -3.837  34.418 -15.179  0.00  0.00     0.064 H 
ATOM     30  H29 PRO d   1      -2.128  34.002 -15.543  0.00  0.00     0.064 H 
ATOM     31  CB  PRO d   1      -2.015  33.414 -12.625  0.00  0.00    -0.036 C 
ATOM     32  H26 PRO d   1      -1.708  35.250 -13.656  0.00  0.00     0.035 H 
ATOM     33  H27 PRO d   1      -3.367  35.011 -13.012  0.00  0.00     0.035 H 
ATOM     34  H24 PRO d   1      -0.917  33.366 -12.662  0.00  0.00     0.036 H 
ATOM     35  H25 PRO d   1      -2.340  33.572 -11.586  0.00  0.00     0.036 H 
ATOM     36  H23 PRO d   1      -1.829  31.374 -13.355  0.00  0.00     0.087 H 
BRANCH  25  37
ATOM     37  CA  HIS d   1      -4.445  31.924 -16.495  0.00  0.00     0.095 C 
ATOM     38  H17 HIS d   1      -5.336  32.540 -16.303  0.00  0.00     0.088 H 
BRANCH  37  39
ATOM     39  N   HIS d   1      -3.524  32.705 -17.311  0.00  0.00    -0.346 N 
ATOM     40  C   ARG d   1      -3.948  33.685 -18.108  0.00  0.00     0.249 C 
ATOM     41  O   ARG d   1      -5.146  33.976 -18.236  0.00  0.00    -0.271 OA
ATOM     42  H16 HIS d   1      -2.546  32.500 -17.272  0.00  0.00     0.163 HD
BRANCH  40  43
ATOM     43  CA  ARG d   1      -2.871  34.461 -18.879  0.00  0.00     0.176 C 
ATOM     44  H4  ARG d   1      -2.693  35.410 -18.352  0.00  0.00     0.099 H 
BRANCH  43  45
ATOM     45  N   ARG d   1      -1.576  33.722 -18.954  0.00  0.00    -0.067 N 
ATOM     46  H1  ARG d   1      -0.905  34.271 -19.468  0.00  0.00     0.275 HD
ATOM     47  H2  ARG d   1      -1.718  32.841 -19.423  0.00  0.00     0.275 HD
ATOM     48  H3  ARG d   1      -1.230  33.555 -18.022  0.00  0.00     0.275 HD
ENDBRANCH  43  45
BRANCH  43  49
ATOM     49  CB  ARG d   1      -3.363  34.773 -20.288  0.00  0.00    -0.029 C 
ATOM     50  H5  ARG d   1      -2.620  35.418 -20.780  0.00  0.00     0.036 H 
ATOM     51  H6  ARG d   1      -4.320  35.309 -20.210  0.00  0.00     0.036 H 
BRANCH  49  52
ATOM     52  CG  ARG d   1      -3.573  33.542 -21.150  0.00  0.00    -0.047 C 
ATOM     53  H7  ARG d   1      -4.180  32.811 -20.596  0.00  0.00     0.035 H 
ATOM     54  H8  ARG d   1      -2.596  33.099 -21.392  0.00  0.00     0.035 H 
BRANCH  52  55
ATOM     55  CD  ARG d   1      -4.286  33.911 -22.435  0.00  0.00     0.009 C 
ATOM     56  H9  ARG d   1      -3.540  34.246 -23.171  0.00  0.00     0.064 H 
ATOM     57  H10 ARG d   1      -4.990  34.730 -22.227  0.00  0.00     0.064 H 
BRANCH  55  58
ATOM     58  NE  ARG d   1      -5.029  32.784 -22.998  0.00  0.00    -0.227 N 
ATOM     59  CZ  ARG d   1      -5.919  32.885 -23.988  0.00  0.00     0.665 C 
ATOM     60  NH1 ARG d   1      -6.187  34.070 -24.544  0.00  0.00    -0.235 N 
ATOM     61  NH2 ARG d   1      -6.552  31.797 -24.427  0.00  0.00    -0.235 N 
ATOM     62  H12 ARG d   1      -6.875  34.137 -25.307  0.00  0.00     0.174 HD
ATOM     63  H13 ARG d   1      -5.705  34.917 -24.209  0.00  0.00     0.174 HD
ATOM     64  H14 ARG d   1      -6.352  30.879 -24.005  0.00  0.00     0.174 HD
ATOM     65  H15 ARG d   1      -7.241  31.874 -25.189  0.00  0.00     0.174 HD
ATOM     66  H11 ARG d   1      -4.854  31.849 -22.604  0.00  0.00     0.177 HD
ENDBRANCH  55  58
ENDBRANCH  52  55
ENDBRANCH  49  52
ENDBRANCH  43  49
ENDBRANCH  40  43
ENDBRANCH  37  39
BRANCH  37  67
ATOM     67  CB  HIS d   1      -4.886  30.651 -17.237  0.00  0.00     0.004 C 
ATOM     68  H18 HIS d   1      -5.311  29.951 -16.503  0.00  0.00     0.046 H 
ATOM     69  H19 HIS d   1      -4.000  30.198 -17.705  0.00  0.00     0.046 H 
BRANCH  67  70
ATOM     70  CG  HIS d   1      -5.908  30.896 -18.302  0.00  0.00     0.053 A 
ATOM     71  ND1 HIS d   1      -7.221  31.208 -18.015  0.00  0.00    -0.247 NA
ATOM     72  CE1 HIS d   1      -7.890  31.370 -19.143  0.00  0.00     0.064 A 
ATOM     73  NE2 HIS d   1      -7.063  31.164 -20.151  0.00  0.00    -0.359 N 
ATOM     74  H21 HIS d   1      -8.944  31.629 -19.227  0.00  0.00     0.143 H 
ATOM     75  CD2 HIS d   1      -5.817  30.861 -19.652  0.00  0.00     0.002 A 
ATOM     76  H22 HIS d   1      -7.310  31.221 -21.149  0.00  0.00     0.166 HD
ATOM     77  H20 HIS d   1      -4.925  30.635 -20.234  0.00  0.00     0.114 H 
ENDBRANCH  67  70
ENDBRANCH  37  67
ENDBRANCH  25  37
ENDBRANCH  20  23
ENDBRANCH  17  19
BRANCH  17  78
ATOM     78  CB  LEU d   1      -6.899  32.630 -10.820  0.00  0.00    -0.035 C 
ATOM     79  H32 LEU d   1      -7.657  32.176 -10.165  0.00  0.00     0.037 H 
ATOM     80  H33 LEU d   1      -7.358  32.895 -11.784  0.00  0.00     0.037 H 
BRANCH  78  81
ATOM     81  CG  LEU d   1      -6.385  33.916 -10.154  0.00  0.00    -0.059 C 
ATOM     82  H34 LEU d   1      -5.546  34.295 -10.755  0.00  0.00     0.038 H 
BRANCH  81  83
ATOM     83  CD1 LEU d   1      -7.474  34.998 -10.133  0.00  0.00    -0.073 C 
ATOM     84  H35 LEU d   1      -7.080  35.905  -9.652  0.00  0.00     0.028 H 
ATOM     85  H36 LEU d   1      -8.344  34.632  -9.568  0.00  0.00     0.028 H 
ATOM     86  H37 LEU d   1      -7.778  35.232 -11.164  0.00  0.00     0.028 H 
ENDBRANCH  81  83
BRANCH  81  87
ATOM     87  CD2 LEU d   1      -5.862  33.629  -8.752  0.00  0.00    -0.073 C 
ATOM     88  H38 LEU d   1      -5.085  32.852  -8.802  0.00  0.00     0.028 H 
ATOM     89  H39 LEU d   1      -6.689  33.280  -8.116  0.00  0.00     0.028 H 
ATOM     90  H40 LEU d   1      -5.434  34.548  -8.325  0.00  0.00     0.028 H 
ENDBRANCH  81  87
ENDBRANCH  78  81
ENDBRANCH  17  78
ENDBRANCH  14  17
ENDBRANCH  11  13
BRANCH  11  91
ATOM     91  CB  LEU d   1      -7.946  29.111 -14.613  0.00  0.00    -0.035 C 
ATOM     92  H43 LEU d   1      -7.123  29.576 -15.176  0.00  0.00     0.037 H 
ATOM     93  H44 LEU d   1      -8.797  29.806 -14.568  0.00  0.00     0.037 H 
BRANCH  91  94
ATOM     94  CG  LEU d   1      -8.404  27.889 -15.411  0.00  0.00    -0.059 C 
ATOM     95  H45 LEU d   1      -7.545  27.209 -15.514  0.00  0.00     0.038 H 
BRANCH  94  96
ATOM     96  CD1 LEU d   1      -9.520  27.144 -14.705  0.00  0.00    -0.073 C 
ATOM     97  H46 LEU d   1      -9.820  26.275 -15.309  0.00  0.00     0.028 H 
ATOM     98  H47 LEU d   1     -10.382  27.814 -14.573  0.00  0.00     0.028 H 
ATOM     99  H48 LEU d   1      -9.167  26.802 -13.721  0.00  0.00     0.028 H 
ENDBRANCH  94  96
BRANCH  94 100
ATOM    100  CD2 LEU d   1      -8.873  28.291 -16.805  0.00  0.00    -0.073 C 
ATOM    101  H49 LEU d   1      -8.066  28.832 -17.321  0.00  0.00     0.028 H 
ATOM    102  H50 LEU d   1      -9.756  28.942 -16.721  0.00  0.00     0.028 H 
ATOM    103  H51 LEU d   1      -9.135  27.389 -17.378  0.00  0.00     0.028 H 
ENDBRANCH  94 100
ENDBRANCH  91  94
ENDBRANCH  11  91
ENDBRANCH   8  11
ENDBRANCH   5   7
BRANCH   5 104
ATOM    104  CB  LEU d   1      -2.841  27.388 -13.903  0.00  0.00    -0.035 C 
ATOM    105  H54 LEU d   1      -2.030  26.961 -13.294  0.00  0.00     0.037 H 
ATOM    106  H55 LEU d   1      -2.802  28.486 -13.848  0.00  0.00     0.037 H 
BRANCH 104 107
ATOM    107  CG  LEU d   1      -2.619  26.972 -15.357  0.00  0.00    -0.059 C 
ATOM    108  H56 LEU d   1      -3.450  27.366 -15.961  0.00  0.00     0.038 H 
BRANCH 107 109
ATOM    109  CD1 LEU d   1      -1.323  27.536 -15.910  0.00  0.00    -0.073 C 
ATOM    110  H57 LEU d   1      -1.200  27.215 -16.955  0.00  0.00     0.028 H 
ATOM    111  H58 LEU d   1      -0.477  27.167 -15.311  0.00  0.00     0.028 H 
ATOM    112  H59 LEU d   1      -1.352  28.635 -15.865  0.00  0.00     0.028 H 
ENDBRANCH 107 109
BRANCH 107 113
ATOM    113  CD2 LEU d   1      -2.624  25.458 -15.457  0.00  0.00    -0.073 C 
ATOM    114  H60 LEU d   1      -3.569  25.067 -15.052  0.00  0.00     0.028 H 
ATOM    115  H61 LEU d   1      -1.781  25.050 -14.880  0.00  0.00     0.028 H 
ATOM    116  H62 LEU d   1      -2.525  25.160 -16.511  0.00  0.00     0.028 H 
ENDBRANCH 107 113
ENDBRANCH 104 107
ENDBRANCH   5 104
ENDBRANCH   3   5
BRANCH   1 117
ATOM    117  CA  ARG d   1      -3.795  27.290  -9.552  0.00  0.00     0.089 C 
ATOM    118  H64 ARG d   1      -2.893  26.673  -9.428  0.00  0.00     0.087 H 
BRANCH 117 119
ATOM    119  C   ARG d   1      -4.963  26.500  -8.984  0.00  0.00     0.241 C 
ATOM    120  O   ARG d   1      -4.759  25.591  -8.211  0.00  0.00    -0.271 OA
ATOM    121  N   HIS d   1      -6.195  26.819  -9.395  0.00  0.00    -0.346 N 
ATOM    122  H76 HIS d   1      -6.331  27.599 -10.005  0.00  0.00     0.163 HD
BRANCH 121 123
ATOM    123  CA  HIS d   1      -7.342  26.030  -8.954  0.00  0.00     0.094 C 
ATOM    124  H77 HIS d   1      -7.313  25.968  -7.856  0.00  0.00     0.088 H 
BRANCH 123 125
ATOM    125  C   HIS d   1      -7.271  24.608  -9.524  0.00  0.00     0.241 C 
ATOM    126  O   HIS d   1      -7.602  23.643  -8.836  0.00  0.00    -0.271 OA
ATOM    127  N   LEU d   1      -6.836  24.484 -10.780  0.00  0.00    -0.346 N 
ATOM    128  H83 LEU d   1      -6.574  25.300 -11.296  0.00  0.00     0.163 HD
BRANCH 127 129
ATOM    129  CA  LEU d   1      -6.738  23.155 -11.415  0.00  0.00     0.089 C 
ATOM    130  H84 LEU d   1      -7.719  22.667 -11.322  0.00  0.00     0.087 H 
BRANCH 129 131
ATOM    131  C   LEU d   1      -5.717  22.303 -10.677  0.00  0.00     0.241 C 
ATOM    132  O   LEU d   1      -5.928  21.116 -10.508  0.00  0.00    -0.271 OA
ATOM    133  N   LEU d   1      -4.638  22.915 -10.198  0.00  0.00    -0.346 N 
ATOM    134  H94 LEU d   1      -4.560  23.910 -10.268  0.00  0.00     0.163 HD
BRANCH 133 135
ATOM    135  CA  LEU d   1      -3.569  22.149  -9.573  0.00  0.00     0.089 C 
ATOM    136  H95 LEU d   1      -3.596  21.142 -10.015  0.00  0.00     0.087 H 
BRANCH 135 137
ATOM    137  C   LEU d   1      -3.711  21.968  -8.053  0.00  0.00     0.241 C 
ATOM    138  O   LEU d   1      -3.103  21.073  -7.470  0.00  0.00    -0.271 OA
ATOM    139  N   GLN d   1      -4.518  22.809  -7.416  0.00  0.00    -0.346 N 
ATOM    140 5H10 GLN d   1      -5.008  23.502  -7.944  0.00  0.00     0.163 HD
BRANCH 139 141
ATOM    141  CA  GLN d   1      -4.713  22.754  -5.966  0.00  0.00     0.090 C 
ATOM    142 6H10 GLN d   1      -3.731  22.815  -5.475  0.00  0.00     0.087 H 
BRANCH 141 143
ATOM    143  C   GLN d   1      -5.403  21.461  -5.528  0.00  0.00     0.241 C 
ATOM    144  O   GLN d   1      -6.270  20.943  -6.232  0.00  0.00    -0.271 OA
ATOM    145  N   ASN d   1      -5.033  20.971  -4.354  0.00  0.00    -0.344 N 
ATOM    146 3H11 ASN d   1      -4.268  21.401  -3.874  0.00  0.00     0.163 HD
BRANCH 145 147
ATOM    147  CA  ASN d   1      -5.698  19.826  -3.731  0.00  0.00     0.104 C 
ATOM    148 4H11 ASN d   1      -6.616  19.605  -4.295  0.00  0.00     0.090 H 
BRANCH 147 149
ATOM    149  C   ASN d   1      -6.075  20.134  -2.281  0.00  0.00     0.197 C 
ATOM    150  O   ASN d   1      -7.103  19.625  -1.760  0.00  0.00    -0.646 OA
ATOM    151  O   ASN d   1      -5.349  20.906  -1.599  0.00  0.00    -0.646 OA
ENDBRANCH 147 149
BRANCH 147 152
ATOM    152  CB  ASN d   1      -4.788  18.600  -3.772  0.00  0.00     0.037 C 
ATOM    153 5H11 ASN d   1      -5.330  17.745  -3.342  0.00  0.00     0.051 H 
ATOM    154 6H11 ASN d   1      -3.892  18.807  -3.169  0.00  0.00     0.051 H 
BRANCH 152 155
ATOM    155  CG  ASN d   1      -4.352  18.239  -5.184  0.00  0.00     0.217 C 
ATOM    156  OD1 ASN d   1      -5.157  18.228  -6.122  0.00  0.00    -0.274 OA
ATOM    157  ND2 ASN d   1      -3.072  17.933  -5.339  0.00  0.00    -0.370 N 
ATOM    158 7H11 ASN d   1      -2.723  17.687  -6.243  0.00  0.00     0.159 HD
ATOM    159 8H11 ASN d   1      -2.455  17.948  -4.552  0.00  0.00     0.159 HD
ENDBRANCH 152 155
ENDBRANCH 147 152
ENDBRANCH 145 147
ENDBRANCH 141 143
BRANCH 141 160
ATOM    160  CB  GLN d   1      -5.570  23.942  -5.533  0.00  0.00    -0.030 C 
ATOM    161 7H10 GLN d   1      -6.609  23.742  -5.836  0.00  0.00     0.037 H 
ATOM    162 8H10 GLN d   1      -5.202  24.837  -6.056  0.00  0.00     0.037 H 
BRANCH 160 163
ATOM    163  CG  GLN d   1      -5.561  24.229  -4.048  0.00  0.00     0.011 C 
ATOM    164 9H10 GLN d   1      -4.527  24.429  -3.729  0.00  0.00     0.047 H 
ATOM    165 0H11 GLN d   1      -5.946  23.349  -3.512  0.00  0.00     0.047 H 
BRANCH 163 166
ATOM    166  CD  GLN d   1      -6.423  25.430  -3.707  0.00  0.00     0.215 C 
ATOM    167  OE1 GLN d   1      -7.516  25.600  -4.257  0.00  0.00    -0.274 OA
ATOM    168  NE2 GLN d   1      -5.938  26.272  -2.805  0.00  0.00    -0.370 N 
ATOM    169 1H11 GLN d   1      -6.464  27.081  -2.542  0.00  0.00     0.159 HD
ATOM    170 2H11 GLN d   1      -5.046  26.098  -2.387  0.00  0.00     0.159 HD
ENDBRANCH 163 166
ENDBRANCH 160 163
ENDBRANCH 141 160
ENDBRANCH 139 141
ENDBRANCH 135 137
BRANCH 135 171
ATOM    171  CB  LEU d   1      -2.222  22.772  -9.922  0.00  0.00    -0.035 C 
ATOM    172  H96 LEU d   1      -1.432  22.225  -9.386  0.00  0.00     0.037 H 
ATOM    173  H97 LEU d   1      -2.226  23.823  -9.597  0.00  0.00     0.037 H 
BRANCH 171 174
ATOM    174  CG  LEU d   1      -1.918  22.724 -11.427  0.00  0.00    -0.059 C 
ATOM    175  H98 LEU d   1      -2.805  23.095 -11.962  0.00  0.00     0.038 H 
BRANCH 174 176
ATOM    176  CD1 LEU d   1      -0.748  23.623 -11.801  0.00  0.00    -0.073 C 
ATOM    177  H99 LEU d   1      -0.567  23.557 -12.884  0.00  0.00     0.028 H 
ATOM    178 0H10 LEU d   1       0.152  23.298 -11.258  0.00  0.00     0.028 H 
ATOM    179 1H10 LEU d   1      -0.984  24.663 -11.531  0.00  0.00     0.028 H 
ENDBRANCH 174 176
BRANCH 174 180
ATOM    180  CD2 LEU d   1      -1.676  21.287 -11.862  0.00  0.00    -0.073 C 
ATOM    181 2H10 LEU d   1      -2.539  20.667 -11.577  0.00  0.00     0.028 H 
ATOM    182 3H10 LEU d   1      -0.770  20.903 -11.370  0.00  0.00     0.028 H 
ATOM    183 4H10 LEU d   1      -1.544  21.252 -12.954  0.00  0.00     0.028 H 
ENDBRANCH 174 180
ENDBRANCH 171 174
ENDBRANCH 135 171
ENDBRANCH 133 135
ENDBRANCH 129 131
BRANCH 129 184
ATOM    184  CB  LEU d   1      -6.405  23.241 -12.917  0.00  0.00    -0.035 C 
ATOM    185  H85 LEU d   1      -5.963  22.281 -13.223  0.00  0.00     0.037 H 
ATOM    186  H86 LEU d   1      -5.668  24.045 -13.056  0.00  0.00     0.037 H 
BRANCH 184 187
ATOM    187  CG  LEU d   1      -7.600  23.528 -13.838  0.00  0.00    -0.059 C 
ATOM    188  H87 LEU d   1      -8.165  24.359 -13.391  0.00  0.00     0.038 H 
BRANCH 187 189
ATOM    189  CD1 LEU d   1      -7.153  23.969 -15.228  0.00  0.00    -0.073 C 
ATOM    190  H88 LEU d   1      -8.037  24.163 -15.853  0.00  0.00     0.028 H 
ATOM    191  H89 LEU d   1      -6.547  23.174 -15.688  0.00  0.00     0.028 H 
ATOM    192  H90 LEU d   1      -6.553  24.887 -15.146  0.00  0.00     0.028 H 
ENDBRANCH 187 189
BRANCH 187 193
ATOM    193  CD2 LEU d   1      -8.540  22.333 -13.938  0.00  0.00    -0.073 C 
ATOM    194  H91 LEU d   1      -8.853  22.027 -12.929  0.00  0.00     0.028 H 
ATOM    195  H92 LEU d   1      -8.020  21.497 -14.429  0.00  0.00     0.028 H 
ATOM    196  H93 LEU d   1      -9.426  22.611 -14.528  0.00  0.00     0.028 H 
ENDBRANCH 187 193
ENDBRANCH 184 187
ENDBRANCH 129 184
ENDBRANCH 127 129
ENDBRANCH 123 125
BRANCH 123 197
ATOM    197  CB  HIS d   1      -8.660  26.682  -9.364  0.00  0.00     0.004 C 
ATOM    198  H78 HIS d   1      -9.440  25.906  -9.379  0.00  0.00     0.046 H 
ATOM    199  H79 HIS d   1      -8.539  27.100 -10.374  0.00  0.00     0.046 H 
BRANCH 197 200
ATOM    200  CG  HIS d   1      -9.107  27.779  -8.452  0.00  0.00     0.053 A 
ATOM    201  ND1 HIS d   1      -8.984  29.112  -8.777  0.00  0.00    -0.247 NA
ATOM    202  CE1 HIS d   1      -9.470  29.850  -7.796  0.00  0.00     0.064 A 
ATOM    203  NE2 HIS d   1      -9.899  29.045  -6.847  0.00  0.00    -0.359 N 
ATOM    204  H81 HIS d   1      -9.509  30.938  -7.776  0.00  0.00     0.143 H 
ATOM    205  CD2 HIS d   1      -9.683  27.745  -7.228  0.00  0.00     0.002 A 
ATOM    206  H82 HIS d   1     -10.329  29.344  -5.960  0.00  0.00     0.166 HD
ATOM    207  H80 HIS d   1      -9.929  26.853  -6.653  0.00  0.00     0.114 H 
ENDBRANCH 197 200
ENDBRANCH 123 197
ENDBRANCH 121 123
ENDBRANCH 117 119
BRANCH 117 208
ATOM    208  CB  ARG d   1      -3.554  28.611  -8.813  0.00  0.00    -0.036 C 
ATOM    209  H65 ARG d   1      -3.769  28.468  -7.744  0.00  0.00     0.036 H 
ATOM    210  H66 ARG d   1      -4.227  29.378  -9.223  0.00  0.00     0.036 H 
BRANCH 208 211
ATOM    211  CG  ARG d   1      -2.103  29.084  -8.971  0.00  0.00    -0.048 C 
ATOM    212  H67 ARG d   1      -1.784  28.868 -10.002  0.00  0.00     0.035 H 
ATOM    213  H68 ARG d   1      -1.480  28.513  -8.267  0.00  0.00     0.035 H 
BRANCH 211 214
ATOM    214  CD  ARG d   1      -1.875  30.578  -8.705  0.00  0.00     0.009 C 
ATOM    215  H69 ARG d   1      -2.144  30.794  -7.660  0.00  0.00     0.064 H 
ATOM    216  H70 ARG d   1      -2.524  31.158  -9.378  0.00  0.00     0.064 H 
BRANCH 214 217
ATOM    217  NE  ARG d   1      -0.468  30.994  -8.928  0.00  0.00    -0.227 N 
ATOM    218  CZ  ARG d   1       0.126  31.143 -10.123  0.00  0.00     0.665 C 
ATOM    219  NH1 ARG d   1      -0.526  30.899 -11.257  0.00  0.00    -0.235 N 
ATOM    220  NH2 ARG d   1       1.389  31.535 -10.195  0.00  0.00    -0.235 N 
ATOM    221  H72 ARG d   1      -0.049  31.020 -12.162  0.00  0.00     0.174 HD
ATOM    222  H73 ARG d   1      -1.508  30.589 -11.230  0.00  0.00     0.174 HD
ATOM    223  H74 ARG d   1       1.917  31.731  -9.333  0.00  0.00     0.174 HD
ATOM    224  H75 ARG d   1       1.843  31.644 -11.113  0.00  0.00     0.174 HD
ATOM    225  H71 ARG d   1       0.103  31.185  -8.092  0.00  0.00     0.177 HD
ENDBRANCH 214 217
ENDBRANCH 211 214
ENDBRANCH 208 211
ENDBRANCH 117 208
ENDBRANCH   1 117
TORSDOF 60
