REMARK WARNING: 32 MAX_TORS EXCEEDED!!!
REMARK  54 active torsions:
REMARK  status: ('A' for Active; 'I' for Inactive)
REMARK    1  A    between atoms: N_1  and  CA_2 
REMARK    2  A    between atoms: CA_2  and  C_3 
REMARK    3  A    between atoms: CA_2  and  CB_5 
REMARK       I    between atoms: C_3  and  N_11 
REMARK    4  A    between atoms: CB_5  and  CG_6 
REMARK    5  A    between atoms: CA_12  and  C_13 
REMARK       I    between atoms: C_13  and  N_18 
REMARK    6  A    between atoms: N_18  and  CA_19 
REMARK    7  A    between atoms: CA_19  and  C_20 
REMARK    8  A    between atoms: CA_19  and  CB_22 
REMARK       I    between atoms: C_20  and  N_26 
REMARK    9  A    between atoms: CB_22  and  CG_23 
REMARK   10  A    between atoms: CG_23  and  CD1_24 
REMARK   11  A    between atoms: CG_23  and  CD2_25 
REMARK   12  A    between atoms: N_26  and  CA_27 
REMARK   13  A    between atoms: CA_27  and  C_28 
REMARK   14  A    between atoms: CA_27  and  CB_30 
REMARK       I    between atoms: C_28  and  N_34 
REMARK   15  A    between atoms: CB_30  and  CG_31 
REMARK   16  A    between atoms: CG_31  and  CD1_32 
REMARK   17  A    between atoms: CG_31  and  CD2_33 
REMARK   18  A    between atoms: N_34  and  CA_35 
REMARK   19  A    between atoms: CA_35  and  C_36 
REMARK   20  A    between atoms: CA_35  and  CB_38 
REMARK       I    between atoms: C_36  and  N_42 
REMARK   21  A    between atoms: CB_38  and  CG_39 
REMARK   22  A    between atoms: CG_39  and  SD_40 
REMARK   23  A    between atoms: SD_40  and  CE_41 
REMARK   24  A    between atoms: N_42  and  CA_43 
REMARK   25  A    between atoms: CA_43  and  C_44 
REMARK   26  A    between atoms: CA_43  and  CB_46 
REMARK       I    between atoms: C_44  and  N_53 
REMARK   27  A    between atoms: CB_46  and  CG_47 
REMARK   28  A    between atoms: CG_47  and  CD_48 
REMARK   29  A    between atoms: CD_48  and  NE_49 
REMARK       I    between atoms: NE_49  and  CZ_50 
REMARK       I    between atoms: CZ_50  and  NH1_51 
REMARK       I    between atoms: CZ_50  and  NH2_52 
REMARK   30  A    between atoms: N_53  and  CA_54 
REMARK   31  A    between atoms: CA_54  and  C_55 
REMARK   32  A    between atoms: CA_54  and  CB_57 
REMARK       I    between atoms: C_55  and  N_61 
REMARK   33  A    between atoms: CB_57  and  CG_58 
REMARK   34  A    between atoms: CG_58  and  CD1_59 
REMARK   35  A    between atoms: CG_58  and  CD2_60 
REMARK   36  A    between atoms: N_61  and  CA_62 
REMARK   37  A    between atoms: CA_62  and  C_63 
REMARK   38  A    between atoms: CA_62  and  CB_65 
REMARK       I    between atoms: C_63  and  N_69 
REMARK   39  A    between atoms: CB_65  and  CG_66 
REMARK   40  A    between atoms: CG_66  and  CD1_67 
REMARK   41  A    between atoms: CG_66  and  CD2_68 
REMARK   42  A    between atoms: N_69  and  CA_70 
REMARK   43  A    between atoms: CA_70  and  C_71 
REMARK   44  A    between atoms: CA_70  and  CB_73 
REMARK       I    between atoms: C_71  and  N_79 
REMARK   45  A    between atoms: CB_73  and  CG_74 
REMARK   46  A    between atoms: N_79  and  CA_80 
REMARK   47  A    between atoms: CA_80  and  C_81 
REMARK   48  A    between atoms: CA_80  and  CB_83 
REMARK       I    between atoms: C_81  and  N_89 
REMARK   49  A    between atoms: CB_83  and  CG_84 
REMARK   50  A    between atoms: CA_90  and  C_91 
REMARK       I    between atoms: C_91  and  N_96 
REMARK   51  A    between atoms: N_96  and  CA_97 
REMARK   52  A    between atoms: CA_97  and  C_98 
REMARK   53  A    between atoms: CA_97  and  CB_100 
REMARK   54  A    between atoms: CB_100  and  OG_101 
ROOT
ATOM      1  CA  ARG d   1     -10.018  12.768  16.913  0.00  0.00     0.089 C 
ATOM      2  H49 ARG d   1     -10.142  12.478  17.967  0.00  0.00     0.087 H 
ENDROOT
BRANCH   1   3
ATOM      3  N   ARG d   1      -9.061  13.897  16.859  0.00  0.00    -0.346 N 
ATOM      4  C   MET d   1      -7.811  13.807  17.325  0.00  0.00     0.241 C 
ATOM      5  O   MET d   1      -7.387  12.826  17.936  0.00  0.00    -0.271 OA
ATOM      6  H48 ARG d   1      -9.362  14.762  16.458  0.00  0.00     0.163 HD
BRANCH   4   7
ATOM      7  CA  MET d   1      -6.885  15.003  17.077  0.00  0.00     0.090 C 
ATOM      8  H40 MET d   1      -5.851  14.630  17.113  0.00  0.00     0.087 H 
BRANCH   7   9
ATOM      9  N   MET d   1      -7.083  15.610  15.750  0.00  0.00    -0.346 N 
ATOM     10  C   LEU d   1      -6.785  14.960  14.624  0.00  0.00     0.241 C 
ATOM     11  O   LEU d   1      -6.289  13.828  14.606  0.00  0.00    -0.271 OA
ATOM     12  H39 MET d   1      -7.452  16.538  15.691  0.00  0.00     0.163 HD
BRANCH  10  13
ATOM     13  CA  LEU d   1      -7.086  15.685  13.302  0.00  0.00     0.089 C 
ATOM     14  H29 LEU d   1      -7.090  14.932  12.500  0.00  0.00     0.087 H 
BRANCH  13  15
ATOM     15  N   LEU d   1      -8.406  16.340  13.306  0.00  0.00    -0.346 N 
ATOM     16  C   LEU d   1      -9.539  15.663  13.507  0.00  0.00     0.241 C 
ATOM     17  O   LEU d   1      -9.579  14.437  13.618  0.00  0.00    -0.271 OA
ATOM     18  H28 LEU d   1      -8.455  17.327  13.153  0.00  0.00     0.163 HD
BRANCH  16  19
ATOM     19  CA  LEU d   1     -10.832  16.481  13.616  0.00  0.00     0.089 C 
ATOM     20  H18 LEU d   1     -11.581  15.843  14.108  0.00  0.00     0.087 H 
BRANCH  19  21
ATOM     21  N   LEU d   1     -10.678  17.687  14.449  0.00  0.00    -0.346 N 
ATOM     22  C   PRO d   1     -10.448  17.619  15.758  0.00  0.00     0.241 C 
ATOM     23  O   PRO d   1     -10.312  16.554  16.366  0.00  0.00    -0.271 OA
ATOM     24  H17 LEU d   1     -10.749  18.586  14.016  0.00  0.00     0.163 HD
BRANCH  22  25
ATOM     25  CA  PRO d   1     -10.346  18.950  16.527  0.00  0.00     0.091 C 
ATOM     26  N   PRO d   1      -9.519  20.022  15.909  0.00  0.00    -0.337 N 
ATOM     27  C   HIS d   1      -8.196  19.726  15.737  0.00  0.00     0.251 C 
ATOM     28  CD  PRO d   1     -10.357  21.187  15.552  0.00  0.00    -0.001 C 
ATOM     29  O   HIS d   1      -7.767  18.586  15.941  0.00  0.00    -0.271 OA
ATOM     30  CG  PRO d   1     -11.756  20.647  15.599  0.00  0.00    -0.048 C 
ATOM     31  H15 PRO d   1     -10.111  21.553  14.544  0.00  0.00     0.064 H 
ATOM     32  H16 PRO d   1     -10.226  22.002  16.279  0.00  0.00     0.064 H 
ATOM     33  CB  PRO d   1     -11.729  19.601  16.655  0.00  0.00    -0.036 C 
ATOM     34  H13 PRO d   1     -12.469  21.443  15.861  0.00  0.00     0.035 H 
ATOM     35  H14 PRO d   1     -12.034  20.210  14.629  0.00  0.00     0.035 H 
ATOM     36  H11 PRO d   1     -11.854  20.052  17.650  0.00  0.00     0.036 H 
ATOM     37  H12 PRO d   1     -12.524  18.859  16.486  0.00  0.00     0.036 H 
ATOM     38  H10 PRO d   1      -9.942  18.723  17.524  0.00  0.00     0.087 H 
BRANCH  27  39
ATOM     39  CA  HIS d   1      -7.235  20.841  15.244  0.00  0.00     0.181 C 
ATOM     40  H4  HIS d   1      -7.413  20.969  14.166  0.00  0.00     0.099 H 
BRANCH  39  41
ATOM     41  N   HIS d   1      -7.435  22.183  15.889  0.00  0.00    -0.066 N 
ATOM     42  H1  HIS d   1      -6.771  22.840  15.510  0.00  0.00     0.275 HD
ATOM     43  H2  HIS d   1      -7.296  22.102  16.884  0.00  0.00     0.275 HD
ATOM     44  H3  HIS d   1      -8.372  22.508  15.706  0.00  0.00     0.275 HD
ENDBRANCH  39  41
BRANCH  39  45
ATOM     45  CB  HIS d   1      -5.770  20.385  15.443  0.00  0.00     0.011 C 
ATOM     46  H5  HIS d   1      -5.652  19.394  14.980  0.00  0.00     0.046 H 
ATOM     47  H6  HIS d   1      -5.576  20.311  16.523  0.00  0.00     0.046 H 
BRANCH  45  48
ATOM     48  CG  HIS d   1      -4.752  21.307  14.845  0.00  0.00     0.053 A 
ATOM     49  ND1 HIS d   1      -4.268  22.418  15.504  0.00  0.00    -0.247 NA
ATOM     50  CE1 HIS d   1      -3.382  23.029  14.737  0.00  0.00     0.064 A 
ATOM     51  NE2 HIS d   1      -3.270  22.352  13.610  0.00  0.00    -0.359 N 
ATOM     52  H8  HIS d   1      -2.837  23.937  14.992  0.00  0.00     0.143 H 
ATOM     53  CD2 HIS d   1      -4.113  21.270  13.653  0.00  0.00     0.002 A 
ATOM     54  H9  HIS d   1      -2.650  22.596  12.825  0.00  0.00     0.166 HD
ATOM     55  H7  HIS d   1      -4.243  20.521  12.873  0.00  0.00     0.114 H 
ENDBRANCH  45  48
ENDBRANCH  39  45
ENDBRANCH  27  39
ENDBRANCH  22  25
ENDBRANCH  19  21
BRANCH  19  56
ATOM     56  CB  LEU d   1     -11.368  16.829  12.221  0.00  0.00    -0.035 C 
ATOM     57  H19 LEU d   1     -11.457  15.891  11.654  0.00  0.00     0.037 H 
ATOM     58  H20 LEU d   1     -10.630  17.484  11.733  0.00  0.00     0.037 H 
BRANCH  56  59
ATOM     59  CG  LEU d   1     -12.731  17.539  12.166  0.00  0.00    -0.059 C 
ATOM     60  H21 LEU d   1     -12.672  18.434  12.803  0.00  0.00     0.038 H 
BRANCH  59  61
ATOM     61  CD1 LEU d   1     -13.035  17.987  10.745  0.00  0.00    -0.073 C 
ATOM     62  H22 LEU d   1     -14.012  18.493  10.721  0.00  0.00     0.028 H 
ATOM     63  H23 LEU d   1     -13.060  17.110  10.081  0.00  0.00     0.028 H 
ATOM     64  H24 LEU d   1     -12.254  18.683  10.405  0.00  0.00     0.028 H 
ENDBRANCH  59  61
BRANCH  59  65
ATOM     65  CD2 LEU d   1     -13.856  16.661  12.698  0.00  0.00    -0.073 C 
ATOM     66  H25 LEU d   1     -13.621  16.346  13.725  0.00  0.00     0.028 H 
ATOM     67  H26 LEU d   1     -13.962  15.773  12.057  0.00  0.00     0.028 H 
ATOM     68  H27 LEU d   1     -14.797  17.230  12.695  0.00  0.00     0.028 H 
ENDBRANCH  59  65
ENDBRANCH  56  59
ENDBRANCH  19  56
ENDBRANCH  16  19
ENDBRANCH  13  15
BRANCH  13  69
ATOM     69  CB  LEU d   1      -5.976  16.700  12.998  0.00  0.00    -0.035 C 
ATOM     70  H30 LEU d   1      -6.054  17.498  13.752  0.00  0.00     0.037 H 
ATOM     71  H31 LEU d   1      -6.184  17.116  12.001  0.00  0.00     0.037 H 
BRANCH  69  72
ATOM     72  CG  LEU d   1      -4.514  16.229  12.992  0.00  0.00    -0.059 C 
ATOM     73  H32 LEU d   1      -4.251  15.911  14.012  0.00  0.00     0.038 H 
BRANCH  72  74
ATOM     74  CD1 LEU d   1      -4.298  15.046  12.059  0.00  0.00    -0.073 C 
ATOM     75  H33 LEU d   1      -3.240  14.745  12.088  0.00  0.00     0.028 H 
ATOM     76  H34 LEU d   1      -4.569  15.334  11.033  0.00  0.00     0.028 H 
ATOM     77  H35 LEU d   1      -4.928  14.204  12.382  0.00  0.00     0.028 H 
ENDBRANCH  72  74
BRANCH  72  78
ATOM     78  CD2 LEU d   1      -3.610  17.386  12.599  0.00  0.00    -0.073 C 
ATOM     79  H36 LEU d   1      -3.779  18.231  13.282  0.00  0.00     0.028 H 
ATOM     80  H37 LEU d   1      -3.838  17.696  11.569  0.00  0.00     0.028 H 
ATOM     81  H38 LEU d   1      -2.559  17.068  12.662  0.00  0.00     0.028 H 
ENDBRANCH  72  78
ENDBRANCH  69  72
ENDBRANCH  13  69
ENDBRANCH  10  13
ENDBRANCH   7   9
BRANCH   7  82
ATOM     82  CB  MET d   1      -7.043  16.043  18.195  0.00  0.00    -0.030 C 
ATOM     83  H41 MET d   1      -7.111  15.513  19.157  0.00  0.00     0.037 H 
ATOM     84  H42 MET d   1      -7.973  16.604  18.020  0.00  0.00     0.037 H 
BRANCH  82  85
ATOM     85  CG  MET d   1      -5.890  17.032  18.270  0.00  0.00    -0.021 C 
ATOM     86  H43 MET d   1      -5.857  17.598  17.327  0.00  0.00     0.049 H 
ATOM     87  H44 MET d   1      -4.955  16.466  18.391  0.00  0.00     0.049 H 
BRANCH  85  88
ATOM     88  SD  MET d   1      -6.025  18.206  19.634  0.00  0.00    -0.173 SA
BRANCH  88  89
ATOM     89  CE  MET d   1      -7.338  19.281  19.070  0.00  0.00    -0.035 C 
ATOM     90  H45 MET d   1      -7.525  20.059  19.825  0.00  0.00     0.041 H 
ATOM     91  H46 MET d   1      -8.254  18.692  18.916  0.00  0.00     0.041 H 
ATOM     92  H47 MET d   1      -7.043  19.754  18.122  0.00  0.00     0.041 H 
ENDBRANCH  88  89
ENDBRANCH  85  88
ENDBRANCH  82  85
ENDBRANCH   7  82
ENDBRANCH   4   7
ENDBRANCH   1   3
BRANCH   1  93
ATOM     93  C   ARG d   1      -9.504  11.565  16.130  0.00  0.00     0.241 C 
ATOM     94  O   ARG d   1      -9.430  10.467  16.665  0.00  0.00    -0.271 OA
ATOM     95  N   LEU d   1      -9.133  11.796  14.874  0.00  0.00    -0.346 N 
ATOM     96  H61 LEU d   1      -9.213  12.723  14.508  0.00  0.00     0.163 HD
BRANCH  95  97
ATOM     97  CA  LEU d   1      -8.609  10.730  14.006  0.00  0.00     0.089 C 
ATOM     98  H62 LEU d   1      -9.321   9.894  14.069  0.00  0.00     0.087 H 
BRANCH  97  99
ATOM     99  C   LEU d   1      -7.244  10.172  14.466  0.00  0.00     0.241 C 
ATOM    100  O   LEU d   1      -6.939   9.009  14.190  0.00  0.00    -0.271 OA
ATOM    101  N   LEU d   1      -6.445  10.982  15.170  0.00  0.00    -0.346 N 
ATOM    102  H72 LEU d   1      -6.685  11.950  15.251  0.00  0.00     0.163 HD
BRANCH 101 103
ATOM    103  CA  LEU d   1      -5.219  10.489  15.831  0.00  0.00     0.089 C 
ATOM    104  H73 LEU d   1      -4.704   9.840  15.108  0.00  0.00     0.087 H 
BRANCH 103 105
ATOM    105  C   LEU d   1      -5.503   9.640  17.087  0.00  0.00     0.241 C 
ATOM    106  O   LEU d   1      -4.708   8.765  17.423  0.00  0.00    -0.271 OA
ATOM    107  N   HIS d   1      -6.620   9.903  17.770  0.00  0.00    -0.346 N 
ATOM    108  H83 HIS d   1      -7.225  10.626  17.436  0.00  0.00     0.163 HD
BRANCH 107 109
ATOM    109  CA  HIS d   1      -7.002   9.175  18.996  0.00  0.00     0.094 C 
ATOM    110  H84 HIS d   1      -6.100   8.656  19.352  0.00  0.00     0.088 H 
BRANCH 109 111
ATOM    111  C   HIS d   1      -8.088   8.111  18.813  0.00  0.00     0.241 C 
ATOM    112  O   HIS d   1      -8.086   7.115  19.540  0.00  0.00    -0.271 OA
ATOM    113  N   HIS d   1      -9.019   8.336  17.883  0.00  0.00    -0.346 N 
ATOM    114  H90 HIS d   1      -9.011   9.212  17.401  0.00  0.00     0.163 HD
BRANCH 113 115
ATOM    115  CA  HIS d   1     -10.055   7.354  17.536  0.00  0.00     0.095 C 
ATOM    116  H91 HIS d   1     -10.272   6.748  18.428  0.00  0.00     0.088 H 
BRANCH 115 117
ATOM    117  C   HIS d   1      -9.552   6.443  16.419  0.00  0.00     0.243 C 
ATOM    118  O   HIS d   1      -9.095   6.944  15.387  0.00  0.00    -0.271 OA
ATOM    119  N   PRO d   1      -9.631   5.111  16.614  0.00  0.00    -0.337 N 
ATOM    120  CA  PRO d   1      -9.401   4.183  15.501  0.00  0.00     0.091 C 
ATOM    121  CD  PRO d   1      -9.771   4.392  17.892  0.00  0.00    -0.001 C 
ATOM    122  CB  PRO d   1      -9.054   2.861  16.201  0.00  0.00    -0.036 C 
ATOM    123  H97 PRO d   1      -8.561   4.529  14.881  0.00  0.00     0.087 H 
ATOM    124  CG  PRO d   1      -8.976   3.162  17.664  0.00  0.00    -0.048 C 
ATOM    125  H98 PRO d   1      -8.087   2.482  15.839  0.00  0.00     0.036 H 
ATOM    126  H99 PRO d   1      -9.837   2.112  16.008  0.00  0.00     0.036 H 
ATOM    127 0H10 PRO d   1      -7.930   3.327  17.961  0.00  0.00     0.035 H 
ATOM    128 1H10 PRO d   1      -9.395   2.327  18.245  0.00  0.00     0.035 H 
ATOM    129 2H10 PRO d   1     -10.824   4.151  18.098  0.00  0.00     0.064 H 
ATOM    130 3H10 PRO d   1      -9.360   4.981  18.725  0.00  0.00     0.064 H 
BRANCH 120 131
ATOM    131  C   PRO d   1     -10.640   4.012  14.614  0.00  0.00     0.241 C 
ATOM    132  O   PRO d   1     -11.769   4.073  15.112  0.00  0.00    -0.271 OA
ATOM    133  N   SER d   1     -10.420   3.800  13.315  0.00  0.00    -0.343 N 
ATOM    134 4H10 SER d   1      -9.478   3.814  12.979  0.00  0.00     0.163 HD
BRANCH 133 135
ATOM    135  CA  SER d   1     -11.508   3.546  12.358  0.00  0.00     0.116 C 
ATOM    136 5H10 SER d   1     -12.224   2.856  12.829  0.00  0.00     0.093 H 
BRANCH 135 137
ATOM    137  C   SER d   1     -10.987   2.895  11.076  0.00  0.00     0.198 C 
ATOM    138  O   SER d   1     -11.780   2.546  10.162  0.00  0.00    -0.646 OA
ATOM    139  O   SER d   1      -9.750   2.705  10.932  0.00  0.00    -0.646 OA
ENDBRANCH 135 137
BRANCH 135 140
ATOM    140  CB  SER d   1     -12.242   4.848  12.017  0.00  0.00     0.045 C 
ATOM    141 6H10 SER d   1     -11.554   5.518  11.480  0.00  0.00     0.077 H 
ATOM    142 7H10 SER d   1     -12.569   5.330  12.950  0.00  0.00     0.077 H 
BRANCH 140 143
ATOM    143  OG  SER d   1     -13.376   4.602  11.202  0.00  0.00    -0.398 OA
ATOM    144 8H10 SER d   1     -13.099   4.189  10.392  0.00  0.00     0.209 HD
ENDBRANCH 140 143
ENDBRANCH 135 140
ENDBRANCH 133 135
ENDBRANCH 120 131
ENDBRANCH 115 117
BRANCH 115 145
ATOM    145  CB  HIS d   1     -11.352   8.018  17.065  0.00  0.00     0.004 C 
ATOM    146  H92 HIS d   1     -12.039   7.230  16.723  0.00  0.00     0.046 H 
ATOM    147  H93 HIS d   1     -11.113   8.686  16.225  0.00  0.00     0.046 H 
BRANCH 145 148
ATOM    148  CG  HIS d   1     -12.045   8.820  18.120  0.00  0.00     0.053 A 
ATOM    149  ND1 HIS d   1     -13.053   9.714  17.828  0.00  0.00    -0.247 NA
ATOM    150  CE1 HIS d   1     -13.482  10.270  18.947  0.00  0.00     0.064 A 
ATOM    151  NE2 HIS d   1     -12.784   9.773  19.953  0.00  0.00    -0.359 N 
ATOM    152  H95 HIS d   1     -14.276  11.011  19.027  0.00  0.00     0.143 H 
ATOM    153  CD2 HIS d   1     -11.878   8.865  19.463  0.00  0.00     0.002 A 
ATOM    154  H96 HIS d   1     -12.901  10.026  20.945  0.00  0.00     0.166 HD
ATOM    155  H94 HIS d   1     -11.160   8.289  20.045  0.00  0.00     0.114 H 
ENDBRANCH 145 148
ENDBRANCH 115 145
ENDBRANCH 113 115
ENDBRANCH 109 111
BRANCH 109 156
ATOM    156  CB  HIS d   1      -7.441  10.161  20.082  0.00  0.00     0.004 C 
ATOM    157  H85 HIS d   1      -8.019   9.609  20.838  0.00  0.00     0.046 H 
ATOM    158  H86 HIS d   1      -8.081  10.926  19.617  0.00  0.00     0.046 H 
BRANCH 156 159
ATOM    159  CG  HIS d   1      -6.306  10.850  20.768  0.00  0.00     0.053 A 
ATOM    160  ND1 HIS d   1      -6.337  12.189  21.085  0.00  0.00    -0.247 NA
ATOM    161  CE1 HIS d   1      -5.214  12.521  21.693  0.00  0.00     0.064 A 
ATOM    162  NE2 HIS d   1      -4.451  11.446  21.777  0.00  0.00    -0.359 N 
ATOM    163  H88 HIS d   1      -4.959  13.513  22.063  0.00  0.00     0.143 H 
ATOM    164  CD2 HIS d   1      -5.112  10.386  21.209  0.00  0.00     0.002 A 
ATOM    165  H89 HIS d   1      -3.513  11.409  22.200  0.00  0.00     0.166 HD
ATOM    166  H87 HIS d   1      -4.746   9.364  21.128  0.00  0.00     0.114 H 
ENDBRANCH 156 159
ENDBRANCH 109 156
ENDBRANCH 107 109
ENDBRANCH 103 105
BRANCH 103 167
ATOM    167  CB  LEU d   1      -4.262  11.642  16.184  0.00  0.00    -0.035 C 
ATOM    168  H74 LEU d   1      -3.540  11.260  16.921  0.00  0.00     0.037 H 
ATOM    169  H75 LEU d   1      -4.862  12.444  16.640  0.00  0.00     0.037 H 
BRANCH 167 170
ATOM    170  CG  LEU d   1      -3.462  12.261  15.029  0.00  0.00    -0.059 C 
ATOM    171  H76 LEU d   1      -4.159  12.452  14.200  0.00  0.00     0.038 H 
BRANCH 170 172
ATOM    172  CD1 LEU d   1      -2.853  13.590  15.454  0.00  0.00    -0.073 C 
ATOM    173  H77 LEU d   1      -2.285  14.018  14.615  0.00  0.00     0.028 H 
ATOM    174  H78 LEU d   1      -2.179  13.428  16.308  0.00  0.00     0.028 H 
ATOM    175  H79 LEU d   1      -3.655  14.284  15.745  0.00  0.00     0.028 H 
ENDBRANCH 170 172
BRANCH 170 176
ATOM    176  CD2 LEU d   1      -2.376  11.321  14.521  0.00  0.00    -0.073 C 
ATOM    177  H80 LEU d   1      -2.830  10.366  14.218  0.00  0.00     0.028 H 
ATOM    178  H81 LEU d   1      -1.643  11.141  15.321  0.00  0.00     0.028 H 
ATOM    179  H82 LEU d   1      -1.871  11.777  13.657  0.00  0.00     0.028 H 
ENDBRANCH 170 176
ENDBRANCH 167 170
ENDBRANCH 103 167
ENDBRANCH 101 103
ENDBRANCH  97  99
BRANCH  97 180
ATOM    180  CB  LEU d   1      -8.590  11.192  12.536  0.00  0.00    -0.035 C 
ATOM    181  H63 LEU d   1      -7.911  10.536  11.971  0.00  0.00     0.037 H 
ATOM    182  H64 LEU d   1      -8.217  12.226  12.498  0.00  0.00     0.037 H 
BRANCH 180 183
ATOM    183  CG  LEU d   1      -9.989  11.146  11.872  0.00  0.00    -0.059 C 
ATOM    184  H65 LEU d   1     -10.725  11.060  12.685  0.00  0.00     0.038 H 
BRANCH 183 185
ATOM    185  CD1 LEU d   1     -10.337  12.404  11.088  0.00  0.00    -0.073 C 
ATOM    186  H66 LEU d   1     -11.340  12.296  10.649  0.00  0.00     0.028 H 
ATOM    187  H67 LEU d   1      -9.599  12.552  10.286  0.00  0.00     0.028 H 
ATOM    188  H68 LEU d   1     -10.324  13.272  11.763  0.00  0.00     0.028 H 
ENDBRANCH 183 185
BRANCH 183 189
ATOM    189  CD2 LEU d   1     -10.134   9.911  10.990  0.00  0.00    -0.073 C 
ATOM    190  H69 LEU d   1      -9.879   9.013  11.572  0.00  0.00     0.028 H 
ATOM    191  H70 LEU d   1      -9.456   9.994  10.128  0.00  0.00     0.028 H 
ATOM    192  H71 LEU d   1     -11.172   9.835  10.634  0.00  0.00     0.028 H 
ENDBRANCH 183 189
ENDBRANCH 180 183
ENDBRANCH  97 180
ENDBRANCH  95  97
ENDBRANCH   1  93
BRANCH   1 193
ATOM    193  CB  ARG d   1     -11.396  13.154  16.342  0.00  0.00    -0.036 C 
ATOM    194  H50 ARG d   1     -11.930  12.226  16.091  0.00  0.00     0.036 H 
ATOM    195  H51 ARG d   1     -11.231  13.741  15.427  0.00  0.00     0.036 H 
BRANCH 193 196
ATOM    196  CG  ARG d   1     -12.284  13.969  17.265  0.00  0.00    -0.048 C 
ATOM    197  H52 ARG d   1     -11.719  14.838  17.632  0.00  0.00     0.035 H 
ATOM    198  H53 ARG d   1     -12.588  13.342  18.117  0.00  0.00     0.035 H 
BRANCH 196 199
ATOM    199  CD  ARG d   1     -13.531  14.458  16.538  0.00  0.00     0.009 C 
ATOM    200  H54 ARG d   1     -14.233  13.617  16.438  0.00  0.00     0.064 H 
ATOM    201  H55 ARG d   1     -13.240  14.814  15.539  0.00  0.00     0.064 H 
BRANCH 199 202
ATOM    202  NE  ARG d   1     -14.203  15.548  17.246  0.00  0.00    -0.227 N 
ATOM    203  CZ  ARG d   1     -14.969  15.422  18.336  0.00  0.00     0.665 C 
ATOM    204  NH1 ARG d   1     -15.189  14.233  18.907  0.00  0.00    -0.235 N 
ATOM    205  NH2 ARG d   1     -15.521  16.512  18.874  0.00  0.00    -0.235 N 
ATOM    206  H57 ARG d   1     -15.783  14.166  19.746  0.00  0.00     0.174 HD
ATOM    207  H58 ARG d   1     -14.764  13.384  18.508  0.00  0.00     0.174 HD
ATOM    208  H59 ARG d   1     -15.361  17.435  18.446  0.00  0.00     0.174 HD
ATOM    209  H60 ARG d   1     -16.107  16.430  19.717  0.00  0.00     0.174 HD
ATOM    210  H56 ARG d   1     -14.075  16.499  16.871  0.00  0.00     0.177 HD
ENDBRANCH 199 202
ENDBRANCH 196 199
ENDBRANCH 193 196
ENDBRANCH   1 193
TORSDOF 54
