REMARK WARNING: 32 MAX_TORS EXCEEDED!!!
REMARK  56 active torsions:
REMARK  status: ('A' for Active; 'I' for Inactive)
REMARK    1  A    between atoms: N_1  and  CA_2 
REMARK    2  A    between atoms: CA_2  and  C_3 
REMARK    3  A    between atoms: CA_2  and  CB_5 
REMARK       I    between atoms: C_3  and  N_6 
REMARK    4  A    between atoms: N_6  and  CA_7 
REMARK    5  A    between atoms: CA_7  and  C_8 
REMARK    6  A    between atoms: CA_7  and  CB_10 
REMARK       I    between atoms: C_8  and  N_16 
REMARK    7  A    between atoms: CB_10  and  CG_11 
REMARK    8  A    between atoms: N_16  and  CA_17 
REMARK    9  A    between atoms: CA_17  and  C_18 
REMARK       I    between atoms: C_18  and  N_20 
REMARK   10  A    between atoms: N_20  and  CA_21 
REMARK   11  A    between atoms: CA_21  and  C_22 
REMARK   12  A    between atoms: CA_21  and  CB_24 
REMARK       I    between atoms: C_22  and  N_28 
REMARK   13  A    between atoms: CB_24  and  CG_25 
REMARK   14  A    between atoms: CG_25  and  SD_26 
REMARK   15  A    between atoms: SD_26  and  CE_27 
REMARK   16  A    between atoms: N_28  and  CA_29 
REMARK   17  A    between atoms: CA_29  and  C_30 
REMARK   18  A    between atoms: CA_29  and  CB_32 
REMARK       I    between atoms: C_30  and  N_36 
REMARK   19  A    between atoms: CB_32  and  CG_33 
REMARK   20  A    between atoms: CG_33  and  CD1_34 
REMARK   21  A    between atoms: CG_33  and  CD2_35 
REMARK   22  A    between atoms: N_36  and  CA_37 
REMARK   23  A    between atoms: CA_37  and  C_38 
REMARK   24  A    between atoms: CA_37  and  CB_40 
REMARK       I    between atoms: C_38  and  N_45 
REMARK   25  A    between atoms: CB_40  and  CG_41 
REMARK   26  A    between atoms: CG_41  and  CD_42 
REMARK   27  A    between atoms: CD_42  and  CE_43 
REMARK   28  A    between atoms: CE_43  and  NZ_44 
REMARK   29  A    between atoms: N_45  and  CA_46 
REMARK   30  A    between atoms: CA_46  and  C_47 
REMARK   31  A    between atoms: CA_46  and  CB_49 
REMARK       I    between atoms: C_47  and  N_53 
REMARK   32  A    between atoms: CB_49  and  CG_50 
REMARK   33  A    between atoms: CG_50  and  CD1_51 
REMARK   34  A    between atoms: CG_50  and  CD2_52 
REMARK   35  A    between atoms: N_53  and  CA_54 
REMARK   36  A    between atoms: CA_54  and  C_55 
REMARK   37  A    between atoms: CA_54  and  CB_57 
REMARK       I    between atoms: C_55  and  N_65 
REMARK   38  A    between atoms: CB_57  and  CG_58 
REMARK   39  A    between atoms: CZ_63  and  OH_64 
REMARK   40  A    between atoms: N_65  and  CA_66 
REMARK   41  A    between atoms: CA_66  and  C_67 
REMARK   42  A    between atoms: CA_66  and  CB_69 
REMARK       I    between atoms: C_67  and  N_77 
REMARK   43  A    between atoms: CB_69  and  CG_70 
REMARK   44  A    between atoms: CZ_75  and  OH_76 
REMARK   45  A    between atoms: N_77  and  CA_78 
REMARK   46  A    between atoms: CA_78  and  C_79 
REMARK       I    between atoms: C_79  and  N_81 
REMARK   47  A    between atoms: N_81  and  CA_82 
REMARK   48  A    between atoms: CA_82  and  C_83 
REMARK   49  A    between atoms: CA_82  and  CB_85 
REMARK       I    between atoms: C_83  and  N_89 
REMARK   50  A    between atoms: CB_85  and  CG_86 
REMARK   51  A    between atoms: CG_86  and  CD1_87 
REMARK   52  A    between atoms: CG_86  and  CD2_88 
REMARK   53  A    between atoms: N_89  and  CA_90 
REMARK   54  A    between atoms: CA_90  and  C_91 
REMARK   55  A    between atoms: CA_90  and  CB_93 
REMARK   56  A    between atoms: CB_93  and  OG_94 
ROOT
ATOM      1  CA  LEU d   1      -7.878  20.323  23.599  0.00  0.00     0.089 C 
ATOM      2  H52 LEU d   1      -7.194  20.819  24.303  0.00  0.00     0.087 H 
ENDROOT
BRANCH   1   3
ATOM      3  N   LEU d   1      -7.090  19.808  22.485  0.00  0.00    -0.346 N 
ATOM      4  C   LYS d   1      -6.095  18.938  22.634  0.00  0.00     0.241 C 
ATOM      5  O   LYS d   1      -5.760  18.455  23.716  0.00  0.00    -0.271 OA
ATOM      6  H51 LEU d   1      -7.309  20.125  21.562  0.00  0.00     0.163 HD
BRANCH   4   7
ATOM      7  CA  LYS d   1      -5.364  18.567  21.357  0.00  0.00     0.089 C 
ATOM      8  H39 LYS d   1      -4.763  17.665  21.541  0.00  0.00     0.087 H 
BRANCH   7   9
ATOM      9  N   LYS d   1      -6.306  18.286  20.281  0.00  0.00    -0.346 N 
ATOM     10  C   LEU d   1      -7.182  17.290  20.353  0.00  0.00     0.241 C 
ATOM     11  O   LEU d   1      -7.276  16.551  21.328  0.00  0.00    -0.271 OA
ATOM     12  H38 LYS d   1      -6.293  18.861  19.463  0.00  0.00     0.163 HD
BRANCH  10  13
ATOM     13  CA  LEU d   1      -8.095  17.109  19.146  0.00  0.00     0.089 C 
ATOM     14  H28 LEU d   1      -8.989  16.558  19.474  0.00  0.00     0.087 H 
BRANCH  13  15
ATOM     15  N   LEU d   1      -8.519  18.394  18.618  0.00  0.00    -0.346 N 
ATOM     16  C   MET d   1      -9.301  19.203  19.318  0.00  0.00     0.241 C 
ATOM     17  O   MET d   1      -9.695  18.933  20.451  0.00  0.00    -0.271 OA
ATOM     18  H27 LEU d   1      -8.214  18.674  17.707  0.00  0.00     0.163 HD
BRANCH  16  19
ATOM     19  CA  MET d   1      -9.700  20.503  18.634  0.00  0.00     0.090 C 
ATOM     20  H19 MET d   1     -10.142  21.175  19.385  0.00  0.00     0.087 H 
BRANCH  19  21
ATOM     21  N   MET d   1      -8.537  21.165  18.054  0.00  0.00    -0.346 N 
ATOM     22  C   GLY d   1      -7.519  21.571  18.808  0.00  0.00     0.236 C 
ATOM     23  O   GLY d   1      -7.546  21.548  20.036  0.00  0.00    -0.272 OA
ATOM     24  H18 MET d   1      -8.504  21.317  17.066  0.00  0.00     0.163 HD
BRANCH  22  25
ATOM     25  CA  GLY d   1      -6.299  22.102  18.084  0.00  0.00     0.069 C 
ATOM     26  H16 GLY d   1      -6.488  23.153  17.818  0.00  0.00     0.078 H 
ATOM     27  H17 GLY d   1      -5.441  22.046  18.770  0.00  0.00     0.078 H 
BRANCH  25  28
ATOM     28  N   GLY d   1      -5.957  21.381  16.869  0.00  0.00    -0.351 N 
ATOM     29  C   HIS d   1      -5.618  20.095  16.868  0.00  0.00     0.241 C 
ATOM     30  O   HIS d   1      -5.616  19.397  17.886  0.00  0.00    -0.271 OA
ATOM     31  H15 GLY d   1      -5.978  21.872  15.998  0.00  0.00     0.163 HD
BRANCH  29  32
ATOM     32  CA  HIS d   1      -5.251  19.500  15.504  0.00  0.00     0.094 C 
ATOM     33  H9  HIS d   1      -5.187  18.407  15.611  0.00  0.00     0.088 H 
BRANCH  32  34
ATOM     34  N   HIS d   1      -6.273  19.804  14.512  0.00  0.00    -0.346 N 
ATOM     35  C   ALA d   1      -7.551  19.489  14.710  0.00  0.00     0.248 C 
ATOM     36  O   ALA d   1      -7.958  18.964  15.752  0.00  0.00    -0.271 OA
ATOM     37  H8  HIS d   1      -6.008  20.260  13.662  0.00  0.00     0.163 HD
BRANCH  35  38
ATOM     38  CA  ALA d   1      -8.511  19.816  13.567  0.00  0.00     0.172 C 
ATOM     39  H4  ALA d   1      -9.536  19.778  13.963  0.00  0.00     0.098 H 
BRANCH  38  40
ATOM     40  N   ALA d   1      -8.278  21.154  13.039  0.00  0.00    -0.067 N 
ATOM     41  H1  ALA d   1      -8.926  21.337  12.289  0.00  0.00     0.275 HD
ATOM     42  H2  ALA d   1      -7.334  21.218  12.691  0.00  0.00     0.275 HD
ATOM     43  H3  ALA d   1      -8.412  21.833  13.772  0.00  0.00     0.275 HD
ENDBRANCH  38  40
BRANCH  38  44
ATOM     44  CB  ALA d   1      -8.393  18.793  12.456  0.00  0.00    -0.042 C 
ATOM     45  H5  ALA d   1      -8.570  17.787  12.864  0.00  0.00     0.030 H 
ATOM     46  H6  ALA d   1      -7.384  18.840  12.020  0.00  0.00     0.030 H 
ATOM     47  H7  ALA d   1      -9.139  19.010  11.677  0.00  0.00     0.030 H 
ENDBRANCH  38  44
ENDBRANCH  35  38
ENDBRANCH  32  34
BRANCH  32  48
ATOM     48  CB  HIS d   1      -3.890  20.019  15.038  0.00  0.00     0.004 C 
ATOM     49  H10 HIS d   1      -3.906  21.118  15.075  0.00  0.00     0.046 H 
ATOM     50  H11 HIS d   1      -3.728  19.689  14.001  0.00  0.00     0.046 H 
BRANCH  48  51
ATOM     51  CG  HIS d   1      -2.746  19.534  15.873  0.00  0.00     0.053 A 
ATOM     52  ND1 HIS d   1      -2.009  20.367  16.687  0.00  0.00    -0.247 NA
ATOM     53  CE1 HIS d   1      -1.076  19.665  17.303  0.00  0.00     0.064 A 
ATOM     54  NE2 HIS d   1      -1.181  18.405  16.920  0.00  0.00    -0.359 N 
ATOM     55  H13 HIS d   1      -0.344  20.058  18.007  0.00  0.00     0.143 H 
ATOM     56  CD2 HIS d   1      -2.221  18.295  16.030  0.00  0.00     0.002 A 
ATOM     57  H14 HIS d   1      -0.580  17.631  17.237  0.00  0.00     0.166 HD
ATOM     58  H12 HIS d   1      -2.560  17.383  15.542  0.00  0.00     0.114 H 
ENDBRANCH  48  51
ENDBRANCH  32  48
ENDBRANCH  29  32
ENDBRANCH  25  28
ENDBRANCH  22  25
ENDBRANCH  19  21
BRANCH  19  59
ATOM     59  CB  MET d   1     -10.754  20.205  17.563  0.00  0.00    -0.030 C 
ATOM     60  H20 MET d   1     -11.397  19.392  17.930  0.00  0.00     0.037 H 
ATOM     61  H21 MET d   1     -10.234  19.878  16.650  0.00  0.00     0.037 H 
BRANCH  59  62
ATOM     62  CG  MET d   1     -11.636  21.384  17.210  0.00  0.00    -0.021 C 
ATOM     63  H22 MET d   1     -11.023  22.144  16.703  0.00  0.00     0.049 H 
ATOM     64  H23 MET d   1     -12.049  21.806  18.138  0.00  0.00     0.049 H 
BRANCH  62  65
ATOM     65  SD  MET d   1     -13.002  20.924  16.125  0.00  0.00    -0.173 SA
BRANCH  65  66
ATOM     66  CE  MET d   1     -12.111  20.469  14.638  0.00  0.00    -0.035 C 
ATOM     67  H24 MET d   1     -12.826  20.157  13.863  0.00  0.00     0.041 H 
ATOM     68  H25 MET d   1     -11.426  19.638  14.861  0.00  0.00     0.041 H 
ATOM     69  H26 MET d   1     -11.534  21.333  14.277  0.00  0.00     0.041 H 
ENDBRANCH  65  66
ENDBRANCH  62  65
ENDBRANCH  59  62
ENDBRANCH  19  59
ENDBRANCH  16  19
ENDBRANCH  13  15
BRANCH  13  70
ATOM     70  CB  LEU d   1      -7.404  16.293  18.051  0.00  0.00    -0.035 C 
ATOM     71  H29 LEU d   1      -6.994  15.381  18.509  0.00  0.00     0.037 H 
ATOM     72  H30 LEU d   1      -6.583  16.897  17.638  0.00  0.00     0.037 H 
BRANCH  70  73
ATOM     73  CG  LEU d   1      -8.322  15.879  16.897  0.00  0.00    -0.059 C 
ATOM     74  H31 LEU d   1      -8.678  16.789  16.392  0.00  0.00     0.038 H 
BRANCH  73  75
ATOM     75  CD1 LEU d   1      -7.578  15.027  15.881  0.00  0.00    -0.073 C 
ATOM     76  H32 LEU d   1      -8.262  14.746  15.067  0.00  0.00     0.028 H 
ATOM     77  H33 LEU d   1      -7.199  14.118  16.372  0.00  0.00     0.028 H 
ATOM     78  H34 LEU d   1      -6.734  15.600  15.470  0.00  0.00     0.028 H 
ENDBRANCH  73  75
BRANCH  73  79
ATOM     79  CD2 LEU d   1      -9.521  15.124  17.437  0.00  0.00    -0.073 C 
ATOM     80  H35 LEU d   1     -10.050  15.751  18.170  0.00  0.00     0.028 H 
ATOM     81  H36 LEU d   1      -9.182  14.198  17.924  0.00  0.00     0.028 H 
ATOM     82  H37 LEU d   1     -10.201  14.876  16.609  0.00  0.00     0.028 H 
ENDBRANCH  73  79
ENDBRANCH  70  73
ENDBRANCH  13  70
ENDBRANCH  10  13
ENDBRANCH   7   9
BRANCH   7  83
ATOM     83  CB  LYS d   1      -4.431  19.714  20.965  0.00  0.00    -0.038 C 
ATOM     84  H40 LYS d   1      -5.039  20.607  20.759  0.00  0.00     0.036 H 
ATOM     85  H41 LYS d   1      -3.883  19.426  20.056  0.00  0.00     0.036 H 
BRANCH  83  86
ATOM     86  CG  LYS d   1      -3.429  20.050  22.048  0.00  0.00    -0.061 C 
ATOM     87  H42 LYS d   1      -2.820  19.159  22.258  0.00  0.00     0.033 H 
ATOM     88  H43 LYS d   1      -3.973  20.344  22.957  0.00  0.00     0.033 H 
BRANCH  86  89
ATOM     89  CD  LYS d   1      -2.512  21.185  21.637  0.00  0.00    -0.043 C 
ATOM     90  H44 LYS d   1      -3.096  22.114  21.558  0.00  0.00     0.035 H 
ATOM     91  H45 LYS d   1      -2.061  20.952  20.661  0.00  0.00     0.035 H 
BRANCH  89  92
ATOM     92  CE  LYS d   1      -1.412  21.371  22.666  0.00  0.00     0.080 C 
ATOM     93  H46 LYS d   1      -1.861  21.661  23.627  0.00  0.00     0.075 H 
ATOM     94  H47 LYS d   1      -0.729  22.163  22.326  0.00  0.00     0.075 H 
BRANCH  92  95
ATOM     95  NZ  LYS d   1      -0.644  20.104  22.845  0.00  0.00    -0.079 N 
ATOM     96  H48 LYS d   1       0.081  20.245  23.531  0.00  0.00     0.274 HD
ATOM     97  H49 LYS d   1      -0.229  19.836  21.967  0.00  0.00     0.274 HD
ATOM     98  H50 LYS d   1      -1.266  19.375  23.159  0.00  0.00     0.274 HD
ENDBRANCH  92  95
ENDBRANCH  89  92
ENDBRANCH  86  89
ENDBRANCH  83  86
ENDBRANCH   7  83
ENDBRANCH   4   7
ENDBRANCH   1   3
BRANCH   1  99
ATOM     99  C   LEU d   1      -8.609  19.210  24.352  0.00  0.00     0.241 C 
ATOM    100  O   LEU d   1      -8.656  19.210  25.582  0.00  0.00    -0.271 OA
ATOM    101  N   TYR d   1      -9.176  18.259  23.613  0.00  0.00    -0.346 N 
ATOM    102  H62 TYR d   1      -9.057  18.271  22.620  0.00  0.00     0.163 HD
BRANCH 101 103
ATOM    103  CA  TYR d   1      -9.967  17.201  24.229  0.00  0.00     0.093 C 
ATOM    104  H63 TYR d   1     -10.426  17.618  25.137  0.00  0.00     0.088 H 
BRANCH 103 105
ATOM    105  C   TYR d   1      -9.129  16.003  24.637  0.00  0.00     0.241 C 
ATOM    106  O   TYR d   1      -9.430  15.354  25.632  0.00  0.00    -0.271 OA
ATOM    107  N   TYR d   1      -8.091  15.703  23.862  0.00  0.00    -0.346 N 
ATOM    108  H71 TYR d   1      -7.839  16.326  23.122  0.00  0.00     0.163 HD
BRANCH 107 109
ATOM    109  CA  TYR d   1      -7.310  14.486  24.065  0.00  0.00     0.093 C 
ATOM    110  H72 TYR d   1      -7.886  13.840  24.744  0.00  0.00     0.088 H 
BRANCH 109 111
ATOM    111  C   TYR d   1      -5.952  14.744  24.721  0.00  0.00     0.241 C 
ATOM    112  O   TYR d   1      -5.336  13.830  25.264  0.00  0.00    -0.271 OA
ATOM    113  N   GLY d   1      -5.487  15.983  24.659  0.00  0.00    -0.351 N 
ATOM    114  H80 GLY d   1      -6.037  16.691  24.217  0.00  0.00     0.163 HD
BRANCH 113 115
ATOM    115  CA  GLY d   1      -4.195  16.333  25.220  0.00  0.00     0.069 C 
ATOM    116  H81 GLY d   1      -4.149  15.968  26.257  0.00  0.00     0.078 H 
ATOM    117  H82 GLY d   1      -4.090  17.428  25.211  0.00  0.00     0.078 H 
BRANCH 115 118
ATOM    118  C   GLY d   1      -3.048  15.727  24.438  0.00  0.00     0.236 C 
ATOM    119  O   GLY d   1      -2.147  15.111  25.015  0.00  0.00    -0.272 OA
ATOM    120  N   LEU d   1      -3.078  15.900  23.118  0.00  0.00    -0.346 N 
ATOM    121  H83 LEU d   1      -3.873  16.340  22.701  0.00  0.00     0.163 HD
BRANCH 120 122
ATOM    122  CA  LEU d   1      -1.976  15.462  22.263  0.00  0.00     0.089 C 
ATOM    123  H84 LEU d   1      -1.968  14.362  22.234  0.00  0.00     0.087 H 
BRANCH 122 124
ATOM    124  C   LEU d   1      -0.648  15.952  22.837  0.00  0.00     0.241 C 
ATOM    125  O   LEU d   1      -0.557  17.069  23.357  0.00  0.00    -0.271 OA
ATOM    126  N   SER d   1       0.376  15.110  22.745  0.00  0.00    -0.343 N 
ATOM    127  H94 SER d   1       0.242  14.223  22.303  0.00  0.00     0.163 HD
BRANCH 126 128
ATOM    128  CA  SER d   1       1.690  15.452  23.274  0.00  0.00     0.116 C 
ATOM    129  H95 SER d   1       1.555  16.206  24.064  0.00  0.00     0.093 H 
BRANCH 128 130
ATOM    130  C   SER d   1       2.580  16.053  22.191  0.00  0.00     0.198 C 
ATOM    131  O   SER d   1       3.024  17.227  22.303  0.00  0.00    -0.646 OA
ATOM    132  O   SER d   1       2.874  15.369  21.174  0.00  0.00    -0.646 OA
ENDBRANCH 128 130
BRANCH 128 133
ATOM    133  CB  SER d   1       2.357  14.219  23.896  0.00  0.00     0.045 C 
ATOM    134  H96 SER d   1       2.191  13.352  23.240  0.00  0.00     0.077 H 
ATOM    135  H97 SER d   1       1.906  14.026  24.880  0.00  0.00     0.077 H 
BRANCH 133 136
ATOM    136  OG  SER d   1       3.756  14.416  24.058  0.00  0.00    -0.398 OA
ATOM    137  H98 SER d   1       4.142  13.638  24.444  0.00  0.00     0.209 HD
ENDBRANCH 133 136
ENDBRANCH 128 133
ENDBRANCH 126 128
ENDBRANCH 122 124
BRANCH 122 138
ATOM    138  CB  LEU d   1      -2.151  15.990  20.837  0.00  0.00    -0.035 C 
ATOM    139  H85 LEU d   1      -1.183  15.882  20.326  0.00  0.00     0.037 H 
ATOM    140  H86 LEU d   1      -2.410  17.056  20.911  0.00  0.00     0.037 H 
BRANCH 138 141
ATOM    141  CG  LEU d   1      -3.206  15.326  19.958  0.00  0.00    -0.059 C 
ATOM    142  H87 LEU d   1      -2.854  14.317  19.696  0.00  0.00     0.038 H 
BRANCH 141 143
ATOM    143  CD1 LEU d   1      -4.504  15.196  20.703  0.00  0.00    -0.073 C 
ATOM    144  H88 LEU d   1      -5.252  14.716  20.055  0.00  0.00     0.028 H 
ATOM    145  H89 LEU d   1      -4.860  16.195  20.997  0.00  0.00     0.028 H 
ATOM    146  H90 LEU d   1      -4.350  14.582  21.603  0.00  0.00     0.028 H 
ENDBRANCH 141 143
BRANCH 141 147
ATOM    147  CD2 LEU d   1      -3.404  16.107  18.681  0.00  0.00    -0.073 C 
ATOM    148  H91 LEU d   1      -2.444  16.192  18.150  0.00  0.00     0.028 H 
ATOM    149  H92 LEU d   1      -3.780  17.113  18.921  0.00  0.00     0.028 H 
ATOM    150  H93 LEU d   1      -4.132  15.586  18.042  0.00  0.00     0.028 H 
ENDBRANCH 141 147
ENDBRANCH 138 141
ENDBRANCH 122 138
ENDBRANCH 120 122
ENDBRANCH 115 118
ENDBRANCH 113 115
ENDBRANCH 109 111
BRANCH 109 151
ATOM    151  CB  TYR d   1      -7.119  13.726  22.742  0.00  0.00    -0.014 C 
ATOM    152  H73 TYR d   1      -6.393  12.916  22.908  0.00  0.00     0.043 H 
ATOM    153  H74 TYR d   1      -6.721  14.427  21.993  0.00  0.00     0.043 H 
BRANCH 151 154
ATOM    154  CG  TYR d   1      -8.395  13.120  22.199  0.00  0.00    -0.056 A 
ATOM    155  CD1 TYR d   1      -8.964  12.009  22.805  0.00  0.00    -0.074 A 
ATOM    156  CE1 TYR d   1     -10.130  11.451  22.325  0.00  0.00    -0.051 A 
ATOM    157  H75 TYR d   1      -8.483  11.571  23.672  0.00  0.00     0.084 H 
ATOM    158  CZ  TYR d   1     -10.747  12.006  21.220  0.00  0.00     0.065 A 
ATOM    159  H77 TYR d   1     -10.560  10.583  22.811  0.00  0.00     0.087 H 
ATOM    160  CE2 TYR d   1     -10.207  13.115  20.601  0.00  0.00    -0.051 A 
ATOM    161  CD2 TYR d   1      -9.038  13.664  21.085  0.00  0.00    -0.074 A 
ATOM    162  H78 TYR d   1     -10.699  13.552  19.739  0.00  0.00     0.087 H 
ATOM    163  H76 TYR d   1      -8.612  14.531  20.593  0.00  0.00     0.084 H 
BRANCH 158 164
ATOM    164  OH  TYR d   1     -11.912  11.436  20.746  0.00  0.00    -0.361 OA
ATOM    165  H79 TYR d   1     -12.613  12.076  20.779  0.00  0.00     0.217 HD
ENDBRANCH 158 164
ENDBRANCH 151 154
ENDBRANCH 109 151
ENDBRANCH 107 109
ENDBRANCH 103 105
BRANCH 103 166
ATOM    166  CB  TYR d   1     -11.089  16.731  23.298  0.00  0.00    -0.014 C 
ATOM    167  H64 TYR d   1     -10.634  16.260  22.414  0.00  0.00     0.043 H 
ATOM    168  H65 TYR d   1     -11.674  17.609  22.986  0.00  0.00     0.043 H 
BRANCH 166 169
ATOM    169  CG  TYR d   1     -12.026  15.735  23.943  0.00  0.00    -0.056 A 
ATOM    170  CD1 TYR d   1     -11.770  14.369  23.889  0.00  0.00    -0.074 A 
ATOM    171  CE1 TYR d   1     -12.622  13.459  24.485  0.00  0.00    -0.051 A 
ATOM    172  H66 TYR d   1     -10.887  14.012  23.371  0.00  0.00     0.084 H 
ATOM    173  CZ  TYR d   1     -13.742  13.908  25.147  0.00  0.00     0.065 A 
ATOM    174  H68 TYR d   1     -12.409  12.397  24.431  0.00  0.00     0.087 H 
ATOM    175  CE2 TYR d   1     -14.014  15.252  25.221  0.00  0.00    -0.051 A 
ATOM    176  CD2 TYR d   1     -13.159  16.159  24.622  0.00  0.00    -0.074 A 
ATOM    177  H69 TYR d   1     -14.896  15.601  25.747  0.00  0.00     0.087 H 
ATOM    178  H67 TYR d   1     -13.378  17.219  24.684  0.00  0.00     0.084 H 
BRANCH 173 179
ATOM    179  OH  TYR d   1     -14.593  13.004  25.742  0.00  0.00    -0.361 OA
ATOM    180  H70 TYR d   1     -14.266  12.123  25.601  0.00  0.00     0.217 HD
ENDBRANCH 173 179
ENDBRANCH 166 169
ENDBRANCH 103 166
ENDBRANCH 101 103
ENDBRANCH   1  99
BRANCH   1 181
ATOM    181  CB  LEU d   1      -8.880  21.360  23.080  0.00  0.00    -0.035 C 
ATOM    182  H53 LEU d   1      -9.686  20.805  22.578  0.00  0.00     0.037 H 
ATOM    183  H54 LEU d   1      -8.348  21.980  22.343  0.00  0.00     0.037 H 
BRANCH 181 184
ATOM    184  CG  LEU d   1      -9.545  22.314  24.067  0.00  0.00    -0.059 C 
ATOM    185  H55 LEU d   1     -10.275  21.743  24.660  0.00  0.00     0.038 H 
BRANCH 184 186
ATOM    186  CD1 LEU d   1      -8.532  22.922  25.022  0.00  0.00    -0.073 C 
ATOM    187  H56 LEU d   1      -9.046  23.602  25.717  0.00  0.00     0.028 H 
ATOM    188  H57 LEU d   1      -7.779  23.483  24.449  0.00  0.00     0.028 H 
ATOM    189  H58 LEU d   1      -8.038  22.121  25.591  0.00  0.00     0.028 H 
ENDBRANCH 184 186
BRANCH 184 190
ATOM    190  CD2 LEU d   1     -10.285  23.403  23.312  0.00  0.00    -0.073 C 
ATOM    191  H59 LEU d   1     -11.013  22.944  22.627  0.00  0.00     0.028 H 
ATOM    192  H60 LEU d   1      -9.566  24.003  22.735  0.00  0.00     0.028 H 
ATOM    193  H61 LEU d   1     -10.813  24.051  24.027  0.00  0.00     0.028 H 
ENDBRANCH 184 190
ENDBRANCH 181 184
ENDBRANCH   1 181
TORSDOF 56
