REMARK WARNING: 32 MAX_TORS EXCEEDED!!!
REMARK  35 active torsions:
REMARK  status: ('A' for Active; 'I' for Inactive)
REMARK    1  A    between atoms: CAB_1  and  CAR_2 
REMARK    2  A    between atoms: CAR_2  and  CAU_3 
REMARK    3  A    between atoms: CAU_3  and  CAV_4 
REMARK    4  A    between atoms: CAV_4  and  CAW_5 
REMARK    5  A    between atoms: CAW_5  and  CAX_6 
REMARK    6  A    between atoms: CAX_6  and  CBA_7 
REMARK    7  A    between atoms: CBA_7  and  CBL_8 
REMARK    8  A    between atoms: CBL_8  and  OBD_10 
REMARK    9  A    between atoms: OBD_10  and  CBT_11 
REMARK   10  A    between atoms: CBX_13  and  OBG_14 
REMARK   11  A    between atoms: CBX_13  and  CAI_18 
REMARK   12  A    between atoms: OBG_14  and  CBI_15 
REMARK   13  A    between atoms: CBI_15  and  CAE_17 
REMARK   14  A    between atoms: CBR_20  and  OBC_21 
REMARK   15  A    between atoms: OBC_21  and  CBK_22 
REMARK   16  A    between atoms: CBK_22  and  OAK_23 
REMARK   17  A    between atoms: CBK_22  and  CAY_24 
REMARK   18  A    between atoms: CAY_24  and  CAS_25 
REMARK   19  A    between atoms: CAS_25  and  CAC_26 
REMARK   20  A    between atoms: CBY_27  and  OBH_28 
REMARK   21  A    between atoms: OBH_28  and  CBM_29 
REMARK   22  A    between atoms: CBM_29  and  OAM_30 
REMARK   23  A    between atoms: CBM_29  and  CAZ_31 
REMARK   24  A    between atoms: CAZ_31  and  CAT_32 
REMARK   25  A    between atoms: CAT_32  and  CAD_33 
REMARK   26  A    between atoms: CBW_34  and  CAH_35 
REMARK   27  A    between atoms: CBW_34  and  OAP_36 
REMARK   28  A    between atoms: CBP_37  and  OAO_38 
REMARK   29  A    between atoms: CBN_42  and  CAG_43 
REMARK   30  A    between atoms: CBS_44  and  OBE_45 
REMARK   31  A    between atoms: OBE_45  and  CBO_46 
REMARK   32  A    between atoms: CBO_46  and  CBJ_48 
REMARK   33  A    between atoms: CBJ_48  and  CAF_49 
REMARK   34  A    between atoms: CBJ_48  and  CAQ_50 
REMARK   35  A    between atoms: CAQ_50  and  CAA_51 
ROOT
ATOM      1  CBT 1HT d   1      -8.455  -4.438 -63.804  0.00  0.00     0.080 C 
ATOM      2  CBV 1HT d   1      -8.835  -4.698 -62.371  0.00  0.00     0.011 C 
ATOM      3  CBX 1HT d   1     -10.152  -5.571 -62.029  0.00  0.00     0.076 C 
ATOM      4  CBB 1HT d   1     -10.232  -6.172 -60.657  0.00  0.00    -0.008 C 
ATOM      5  CBR 1HT d   1     -10.215  -5.276 -59.428  0.00  0.00     0.080 C 
ATOM      6  CBY 1HT d   1      -9.111  -4.167 -59.194  0.00  0.00     0.151 C 
ATOM      7  CBW 1HT d   1      -9.317  -3.233 -58.087  0.00  0.00     0.140 C 
ATOM      8  CBP 1HT d   1      -8.397  -2.102 -58.413  0.00  0.00     0.161 C 
ATOM      9  OBF 1HT d   1      -7.918  -2.417 -59.717  0.00  0.00    -0.349 OA
ATOM     10  CBU 1HT d   1      -8.955  -3.142 -60.236  0.00  0.00     0.081 C 
ATOM     11  CBQ 1HT d   1      -8.954  -3.312 -61.798  0.00  0.00    -0.012 C 
ATOM     12  CBN 1HT d   1      -8.111  -2.286 -62.571  0.00  0.00    -0.023 C 
ATOM     13  CBS 1HT d   1      -8.262  -2.933 -63.968  0.00  0.00     0.077 C 
ATOM     14  H16 1HT d   1      -9.294  -4.746 -64.445  0.00  0.00     0.089 H 
ATOM     15  H17 1HT d   1      -7.992  -5.220 -61.895  0.00  0.00     0.049 H 
ATOM     16  H24 1HT d   1      -9.377  -6.857 -60.561  0.00  0.00     0.041 H 
ATOM     17  H25 1HT d   1     -11.169  -6.747 -60.617  0.00  0.00     0.041 H 
ATOM     18  H26 1HT d   1     -10.152  -5.967 -58.574  0.00  0.00     0.088 H 
ATOM     19  H49 1HT d   1      -7.584  -2.082 -57.672  0.00  0.00     0.133 H 
ATOM     20  H51 1HT d   1      -9.851  -2.518 -60.106  0.00  0.00     0.089 H 
ATOM     21  H52 1HT d   1      -9.986  -3.034 -62.058  0.00  0.00     0.045 H 
ATOM     22  H53 1HT d   1      -7.061  -2.208 -62.254  0.00  0.00     0.044 H 
ATOM     23  H57 1HT d   1      -7.328  -2.747 -64.519  0.00  0.00     0.088 H 
ENDROOT
BRANCH   1  24
ATOM     24  OBD 1HT d   1      -7.383  -5.155 -64.181  0.00  0.00    -0.313 OA
BRANCH  24  25
ATOM     25  CBL 1HT d   1      -7.214  -5.521 -65.512  0.00  0.00     0.259 C 
ATOM     26  OAL 1HT d   1      -8.082  -5.284 -66.337  0.00  0.00    -0.265 OA
BRANCH  25  27
ATOM     27  CBA 1HT d   1      -5.782  -5.541 -66.036  0.00  0.00     0.016 C 
ATOM     28  H14 1HT d   1      -5.165  -4.936 -65.355  0.00  0.00     0.048 H 
ATOM     29  H15 1HT d   1      -5.431  -6.583 -66.019  0.00  0.00     0.048 H 
BRANCH  27  30
ATOM     30  CAX 1HT d   1      -5.584  -5.006 -67.442  0.00  0.00    -0.057 C 
ATOM     31  H12 1HT d   1      -6.369  -4.260 -67.632  0.00  0.00     0.033 H 
ATOM     32  H13 1HT d   1      -4.598  -4.519 -67.482  0.00  0.00     0.033 H 
BRANCH  30  33
ATOM     33  CAW 1HT d   1      -5.640  -6.032 -68.554  0.00  0.00    -0.065 C 
ATOM     34  H10 1HT d   1      -5.068  -6.922 -68.252  0.00  0.00     0.033 H 
ATOM     35  H11 1HT d   1      -6.689  -6.313 -68.732  0.00  0.00     0.033 H 
BRANCH  33  36
ATOM     36  CAV 1HT d   1      -5.053  -5.477 -69.830  0.00  0.00    -0.065 C 
ATOM     37  H8  1HT d   1      -4.802  -4.423 -69.642  0.00  0.00     0.033 H 
ATOM     38  H9  1HT d   1      -4.133  -6.042 -70.039  0.00  0.00     0.033 H 
BRANCH  36  39
ATOM     39  CAU 1HT d   1      -5.909  -5.521 -71.095  0.00  0.00    -0.065 C 
ATOM     40  H6  1HT d   1      -6.027  -6.579 -71.374  0.00  0.00     0.033 H 
ATOM     41  H7  1HT d   1      -6.891  -5.097 -70.840  0.00  0.00     0.033 H 
BRANCH  39  42
ATOM     42  CAR 1HT d   1      -5.411  -4.796 -72.303  0.00  0.00    -0.069 C 
ATOM     43  H4  1HT d   1      -4.399  -4.429 -72.079  0.00  0.00     0.032 H 
ATOM     44  H5  1HT d   1      -5.364  -5.519 -73.131  0.00  0.00     0.032 H 
BRANCH  42  45
ATOM     45  CAB 1HT d   1      -6.225  -3.631 -72.763  0.00  0.00    -0.077 C 
ATOM     46  H1  1HT d   1      -5.757  -3.186 -73.653  0.00  0.00     0.027 H 
ATOM     47  H2  1HT d   1      -6.276  -2.880 -71.961  0.00  0.00     0.027 H 
ATOM     48  H3  1HT d   1      -7.241  -3.970 -73.013  0.00  0.00     0.027 H 
ENDBRANCH  42  45
ENDBRANCH  39  42
ENDBRANCH  36  39
ENDBRANCH  33  36
ENDBRANCH  30  33
ENDBRANCH  27  30
ENDBRANCH  25  27
ENDBRANCH  24  25
ENDBRANCH   1  24
BRANCH  13  49
ATOM     49  OBE 1HT d   1      -9.273  -2.481 -64.717  0.00  0.00    -0.313 OA
BRANCH  49  50
ATOM     50  CBO 1HT d   1      -8.975  -2.235 -66.089  0.00  0.00     0.263 C 
ATOM     51  OAN 1HT d   1      -7.972  -1.590 -66.358  0.00  0.00    -0.265 OA
BRANCH  50  52
ATOM     52  CBJ 1HT d   1     -10.115  -2.358 -67.227  0.00  0.00     0.026 C 
ATOM     53  H58 1HT d   1     -10.336  -1.320 -67.516  0.00  0.00     0.054 H 
BRANCH  52  54
ATOM     54  CAF 1HT d   1      -9.633  -3.082 -68.563  0.00  0.00    -0.064 C 
ATOM     55  H59 1HT d   1     -10.467  -3.122 -69.279  0.00  0.00     0.028 H 
ATOM     56  H60 1HT d   1      -9.302  -4.104 -68.327  0.00  0.00     0.028 H 
ATOM     57  H61 1HT d   1      -8.797  -2.519 -69.004  0.00  0.00     0.028 H 
ENDBRANCH  52  54
BRANCH  52  58
ATOM     58  CAQ 1HT d   1     -11.511  -2.969 -66.728  0.00  0.00    -0.057 C 
ATOM     59  H62 1HT d   1     -11.331  -3.482 -65.772  0.00  0.00     0.033 H 
ATOM     60  H63 1HT d   1     -11.846  -3.700 -67.479  0.00  0.00     0.033 H 
BRANCH  58  61
ATOM     61  CAA 1HT d   1     -12.620  -1.988 -66.519  0.00  0.00    -0.076 C 
ATOM     62  H64 1HT d   1     -13.521  -2.520 -66.179  0.00  0.00     0.027 H 
ATOM     63  H65 1HT d   1     -12.835  -1.470 -67.466  0.00  0.00     0.027 H 
ATOM     64  H66 1HT d   1     -12.320  -1.252 -65.758  0.00  0.00     0.027 H 
ENDBRANCH  58  61
ENDBRANCH  52  58
ENDBRANCH  50  52
ENDBRANCH  49  50
ENDBRANCH  13  49
BRANCH   3  65
ATOM     65  OBG 1HT d   1      -9.726  -6.601 -62.812  0.00  0.00    -0.310 OA
BRANCH  65  66
ATOM     66  CBI 1HT d   1     -10.398  -7.745 -63.184  0.00  0.00     0.255 C 
ATOM     67  OAJ 1HT d   1     -11.507  -7.635 -63.669  0.00  0.00    -0.266 OA
BRANCH  66  68
ATOM     68  CAE 1HT d   1      -9.531  -8.870 -63.683  0.00  0.00     0.004 C 
ATOM     69  H18 1HT d   1     -10.164  -9.729 -63.951  0.00  0.00     0.041 H 
ATOM     70  H19 1HT d   1      -8.825  -9.167 -62.893  0.00  0.00     0.041 H 
ATOM     71  H20 1HT d   1      -8.971  -8.536 -64.569  0.00  0.00     0.041 H 
ENDBRANCH  66  68
ENDBRANCH  65  66
ENDBRANCH   3  65
BRANCH   3  72
ATOM     72  CAI 1HT d   1     -11.406  -5.122 -62.676  0.00  0.00    -0.046 C 
ATOM     73  H21 1HT d   1     -12.231  -5.784 -62.375  0.00  0.00     0.031 H 
ATOM     74  H22 1HT d   1     -11.288  -5.158 -63.769  0.00  0.00     0.031 H 
ATOM     75  H23 1HT d   1     -11.630  -4.091 -62.365  0.00  0.00     0.031 H 
ENDBRANCH   3  72
BRANCH  12  76
ATOM     76  CAG 1HT d   1      -8.805  -1.051 -62.371  0.00  0.00    -0.070 C 
ATOM     77  H54 1HT d   1      -8.272  -0.242 -62.893  0.00  0.00     0.028 H 
ATOM     78  H55 1HT d   1      -8.850  -0.826 -61.295  0.00  0.00     0.028 H 
ATOM     79  H56 1HT d   1      -9.826  -1.135 -62.771  0.00  0.00     0.028 H 
ENDBRANCH  12  76
BRANCH   5  80
ATOM     80  OBC 1HT d   1     -11.362  -4.558 -59.333  0.00  0.00    -0.353 OA
BRANCH  80  81
ATOM     81  CBK 1HT d   1     -12.444  -4.998 -58.540  0.00  0.00     0.129 C 
ATOM     82  H27 1HT d   1     -12.693  -5.985 -58.957  0.00  0.00     0.128 H 
BRANCH  81  83
ATOM     83  OAK 1HT d   1     -12.203  -5.247 -57.376  0.00  0.00    -0.371 OA
ATOM     84  H28 1HT d   1     -11.870  -4.466 -56.949  0.00  0.00     0.212 HD
ENDBRANCH  81  83
BRANCH  81  85
ATOM     85  CAY 1HT d   1     -13.662  -4.182 -58.791  0.00  0.00    -0.019 C 
ATOM     86  H29 1HT d   1     -14.546  -4.835 -58.823  0.00  0.00     0.040 H 
ATOM     87  H30 1HT d   1     -13.563  -3.652 -59.750  0.00  0.00     0.040 H 
BRANCH  85  88
ATOM     88  CAS 1HT d   1     -13.808  -3.184 -57.672  0.00  0.00    -0.064 C 
ATOM     89  H31 1HT d   1     -13.008  -2.436 -57.772  0.00  0.00     0.032 H 
ATOM     90  H32 1HT d   1     -13.693  -3.718 -56.717  0.00  0.00     0.032 H 
BRANCH  88  91
ATOM     91  CAC 1HT d   1     -15.117  -2.467 -57.651  0.00  0.00    -0.076 C 
ATOM     92  H33 1HT d   1     -15.136  -1.763 -56.806  0.00  0.00     0.027 H 
ATOM     93  H34 1HT d   1     -15.933  -3.196 -57.538  0.00  0.00     0.027 H 
ATOM     94  H35 1HT d   1     -15.247  -1.914 -58.593  0.00  0.00     0.027 H 
ENDBRANCH  88  91
ENDBRANCH  85  88
ENDBRANCH  81  85
ENDBRANCH  80  81
ENDBRANCH   5  80
BRANCH   6  95
ATOM     95  OBH 1HT d   1      -7.971  -4.902 -58.866  0.00  0.00    -0.342 OA
BRANCH  95  96
ATOM     96  CBM 1HT d   1      -6.621  -4.754 -59.248  0.00  0.00     0.130 C 
ATOM     97  H36 1HT d   1      -6.679  -4.031 -60.075  0.00  0.00     0.128 H 
BRANCH  96  98
ATOM     98  OAM 1HT d   1      -6.106  -5.729 -59.761  0.00  0.00    -0.371 OA
ATOM     99  H37 1HT d   1      -6.132  -6.457 -59.151  0.00  0.00     0.212 HD
ENDBRANCH  96  98
BRANCH  96 100
ATOM    100  CAZ 1HT d   1      -5.721  -4.071 -58.250  0.00  0.00    -0.019 C 
ATOM    101  H38 1HT d   1      -5.084  -4.852 -57.809  0.00  0.00     0.040 H 
ATOM    102  H39 1HT d   1      -6.373  -3.647 -57.472  0.00  0.00     0.040 H 
BRANCH 100 103
ATOM    103  CAT 1HT d   1      -4.802  -2.961 -58.703  0.00  0.00    -0.064 C 
ATOM    104  H40 1HT d   1      -5.437  -2.186 -59.157  0.00  0.00     0.032 H 
ATOM    105  H41 1HT d   1      -4.140  -3.388 -59.470  0.00  0.00     0.032 H 
BRANCH 103 106
ATOM    106  CAD 1HT d   1      -3.914  -2.265 -57.696  0.00  0.00    -0.076 C 
ATOM    107  H42 1HT d   1      -3.320  -1.491 -58.204  0.00  0.00     0.027 H 
ATOM    108  H43 1HT d   1      -3.239  -3.000 -57.232  0.00  0.00     0.027 H 
ATOM    109  H44 1HT d   1      -4.537  -1.798 -56.919  0.00  0.00     0.027 H 
ENDBRANCH 103 106
ENDBRANCH 100 103
ENDBRANCH  96 100
ENDBRANCH  95  96
ENDBRANCH   6  95
BRANCH   7 110
ATOM    110  CAH 1HT d   1      -9.204  -3.816 -56.688  0.00  0.00    -0.040 C 
ATOM    111  H45 1HT d   1      -9.377  -3.023 -55.945  0.00  0.00     0.032 H 
ATOM    112  H46 1HT d   1      -8.198  -4.237 -56.547  0.00  0.00     0.032 H 
ATOM    113  H47 1HT d   1      -9.955  -4.609 -56.560  0.00  0.00     0.032 H 
ENDBRANCH   7 110
BRANCH   7 114
ATOM    114  OAP 1HT d   1     -10.584  -2.696 -58.145  0.00  0.00    -0.382 OA
ATOM    115  H48 1HT d   1     -11.225  -3.382 -57.997  0.00  0.00     0.210 HD
ENDBRANCH   7 114
BRANCH   8 116
ATOM    116  OAO 1HT d   1      -8.910  -0.844 -58.534  0.00  0.00    -0.368 OA
ATOM    117  H50 1HT d   1      -9.609  -0.849 -59.178  0.00  0.00     0.212 HD
ENDBRANCH   8 116
TORSDOF 35
