REMARK  13 active torsions:
REMARK  status: ('A' for Active; 'I' for Inactive)
REMARK    1  A    between atoms: C7_4  and  C4_18 
REMARK    2  A    between atoms: C9_6  and  C8_5 
REMARK    3  A    between atoms: C15_12  and  C12_9 
REMARK       I    between atoms: N17_22  and  C15_12 
REMARK    4  A    between atoms: C21_14  and  C20_13 
REMARK    5  A    between atoms: C20_13  and  C18_23 
REMARK    6  A    between atoms: C22_15  and  C21_14 
REMARK       I    between atoms: N24_25  and  C22_15 
REMARK    7  A    between atoms: C27_16  and  O28_17 
REMARK    8  A    between atoms: C26_27  and  C27_16 
REMARK    9  A    between atoms: C18_23  and  N17_22 
REMARK   10  A    between atoms: C18_23  and  C29_28 
REMARK   11  A    between atoms: C25_26  and  N24_25 
REMARK   12  A    between atoms: C25_26  and  C26_27 
REMARK       I    between atoms: C29_28  and  N31_30 
REMARK   13  A    between atoms: N31_30  and  O32_31 
ROOT
ATOM      1  C18 1JS d   1       5.833  11.832  17.615  0.00  0.00     0.092 C 
ATOM      2  H18 1JS d   1       6.820  11.999  18.070  0.00  0.00     0.087 H 
ENDROOT
BRANCH   1   3
ATOM      3  C20 1JS d   1       5.846  10.539  16.817  0.00  0.00    -0.030 C 
ATOM      4  H8  1JS d   1       5.191  10.664  15.942  0.00  0.00     0.037 H 
ATOM      5  H9  1JS d   1       6.876  10.349  16.480  0.00  0.00     0.037 H 
BRANCH   3   6
ATOM      6  C21 1JS d   1       5.365   9.323  17.611  0.00  0.00     0.011 C 
ATOM      7  H10 1JS d   1       4.663   8.740  16.997  0.00  0.00     0.047 H 
ATOM      8  H11 1JS d   1       4.858   9.661  18.527  0.00  0.00     0.047 H 
BRANCH   6   9
ATOM      9  C22 1JS d   1       6.550   8.455  17.983  0.00  0.00     0.217 C 
ATOM     10  O23 1JS d   1       7.444   8.291  17.180  0.00  0.00    -0.274 OA
ATOM     11  N24 1JS d   1       6.653   7.816  19.176  0.00  0.00    -0.361 N 
ATOM     12  H19 1JS d   1       7.454   7.236  19.327  0.00  0.00     0.162 HD
BRANCH  11  13
ATOM     13  C25 1JS d   1       5.666   7.919  20.261  0.00  0.00    -0.003 C 
ATOM     14  H20 1JS d   1       5.434   6.912  20.639  0.00  0.00     0.064 H 
ATOM     15  H21 1JS d   1       4.748   8.386  19.874  0.00  0.00     0.064 H 
BRANCH  13  16
ATOM     16  C26 1JS d   1       6.229   8.778  21.411  0.00  0.00    -0.031 C 
ATOM     17  H22 1JS d   1       7.328   8.744  21.378  0.00  0.00     0.038 H 
ATOM     18  H23 1JS d   1       5.890   9.816  21.281  0.00  0.00     0.038 H 
BRANCH  16  19
ATOM     19  C27 1JS d   1       5.755   8.266  22.774  0.00  0.00     0.018 C 
ATOM     20  H12 1JS d   1       6.451   8.602  23.556  0.00  0.00     0.074 H 
ATOM     21  H13 1JS d   1       4.749   8.658  22.985  0.00  0.00     0.074 H 
BRANCH  19  22
ATOM     22  O28 1JS d   1       5.717   6.829  22.747  0.00  0.00    -0.401 OA
ATOM     23  H14 1JS d   1       6.587   6.494  22.563  0.00  0.00     0.209 HD
ENDBRANCH  19  22
ENDBRANCH  16  19
ENDBRANCH  13  16
ENDBRANCH  11  13
ENDBRANCH   6   9
ENDBRANCH   3   6
ENDBRANCH   1   3
BRANCH   1  24
ATOM     24  N17 1JS d   1       4.818  11.811  18.705  0.00  0.00    -0.344 N 
ATOM     25  C15 1JS d   1       5.127  11.979  20.032  0.00  0.00     0.252 C 
ATOM     26  O16 1JS d   1       6.286  12.144  20.403  0.00  0.00    -0.268 OA
ATOM     27  H17 1JS d   1       3.860  11.667  18.457  0.00  0.00     0.163 HD
BRANCH  25  28
ATOM     28  C12 1JS d   1       4.075  11.951  21.077  0.00  0.00     0.032 A 
ATOM     29  C11 1JS d   1       4.393  12.178  22.433  0.00  0.00    -0.066 A 
ATOM     30  C10 1JS d   1       3.393  12.153  23.376  0.00  0.00    -0.064 A 
ATOM     31  H5  1JS d   1       5.418  12.371  22.729  0.00  0.00     0.085 H 
ATOM     32  C9  1JS d   1       2.056  11.904  23.021  0.00  0.00     0.018 A 
ATOM     33  H4  1JS d   1       3.641  12.329  24.416  0.00  0.00     0.085 H 
ATOM     34  C14 1JS d   1       1.750  11.657  21.682  0.00  0.00    -0.064 A 
ATOM     35  C13 1JS d   1       2.742  11.684  20.732  0.00  0.00    -0.066 A 
ATOM     36  H7  1JS d   1       0.728  11.444  21.391  0.00  0.00     0.085 H 
ATOM     37  H6  1JS d   1       2.489  11.495  19.695  0.00  0.00     0.085 H 
BRANCH  32  38
ATOM     38  C8  1JS d   1       1.013  11.859  24.015  0.00  0.00    -0.061 C 
ATOM     39  C7  1JS d   1       0.154  11.810  24.815  0.00  0.00    -0.061 C 
BRANCH  39  40
ATOM     40  C4  1JS d   1      -0.926  11.734  25.766  0.00  0.00     0.018 A 
ATOM     41  C3  1JS d   1      -0.827  12.269  27.076  0.00  0.00    -0.065 A 
ATOM     42  C2  1JS d   1      -1.902  12.134  27.946  0.00  0.00    -0.082 A 
ATOM     43  H3  1JS d   1       0.076  12.777  27.395  0.00  0.00     0.085 H 
ATOM     44  C1  1JS d   1      -3.078  11.487  27.564  0.00  0.00    -0.083 A 
ATOM     45  H2  1JS d   1      -1.825  12.542  28.947  0.00  0.00     0.083 H 
ATOM     46  C6  1JS d   1      -3.165  10.950  26.279  0.00  0.00    -0.082 A 
ATOM     47  H1  1JS d   1      -3.910  11.403  28.254  0.00  0.00     0.083 H 
ATOM     48  C5  1JS d   1      -2.100  11.060  25.387  0.00  0.00    -0.065 A 
ATOM     49  H16 1JS d   1      -4.071  10.441  25.971  0.00  0.00     0.083 H 
ATOM     50  H15 1JS d   1      -2.177  10.624  24.397  0.00  0.00     0.085 H 
ENDBRANCH  39  40
ENDBRANCH  32  38
ENDBRANCH  25  28
ENDBRANCH   1  24
BRANCH   1  51
ATOM     51  C29 1JS d   1       5.562  12.898  16.588  0.00  0.00     0.263 C 
ATOM     52  O30 1JS d   1       4.421  13.154  16.205  0.00  0.00    -0.269 OA
ATOM     53  N31 1JS d   1       6.616  13.568  16.061  0.00  0.00    -0.236 N 
ATOM     54  H24 1JS d   1       7.546  13.350  16.358  0.00  0.00     0.197 HD
BRANCH  53  55
ATOM     55  O32 1JS d   1       6.402  14.569  15.098  0.00  0.00    -0.287 OA
ATOM     56  H25 1JS d   1       7.237  14.937  14.834  0.00  0.00     0.244 HD
ENDBRANCH  53  55
ENDBRANCH   1  51
TORSDOF 13
