REMARK  9 active torsions:
REMARK  status: ('A' for Active; 'I' for Inactive)
REMARK       I    between atoms: C25_2  and  N2_3 
REMARK       I    between atoms: C25_2  and  N1_10 
REMARK    1  A    between atoms: C10_11  and  C9_12 
REMARK    2  A    between atoms: C5_15  and  O1_16 
REMARK    3  A    between atoms: O1_16  and  C6_17 
REMARK    4  A    between atoms: C6_17  and  C8_18 
REMARK    5  A    between atoms: C6_17  and  C7_19 
REMARK    6  A    between atoms: C1_21  and  O_22 
REMARK    7  A    between atoms: O_22  and  C_23 
REMARK    8  A    between atoms: C18_24  and  C19_25 
REMARK    9  A    between atoms: C11_32  and  C12_34 
ROOT
ATOM      1  O3  NUT d   1       7.974  27.233  34.468  0.00  0.00    -0.247 OA
ATOM      2  C25 NUT d   1       8.003  26.745  35.605  0.00  0.00     0.327 C 
ATOM      3  N2  NUT d   1       7.784  27.496  36.724  0.00  0.00    -0.324 N 
ATOM      4  C29 NUT d   1       7.094  28.784  36.583  0.00  0.00     0.073 C 
ATOM      5  C28 NUT d   1       8.074  29.891  36.804  0.00  0.00     0.235 C 
ATOM      6  O2  NUT d   1       8.196  30.861  36.051  0.00  0.00    -0.272 OA
ATOM      7  N3  NUT d   1       8.841  29.767  37.889  0.00  0.00    -0.358 N 
ATOM      8  C27 NUT d   1       8.691  28.598  38.780  0.00  0.00     0.010 C 
ATOM      9  C26 NUT d   1       8.594  27.297  37.956  0.00  0.00     0.014 C 
ATOM     10  N1  NUT d   1       8.372  25.390  35.779  0.00  0.00    -0.272 N 
ATOM     11  C10 NUT d   1       8.197  24.578  36.914  0.00  0.00     0.143 C 
ATOM     12  C18 NUT d   1       9.362  24.799  34.883  0.00  0.00     0.074 C 
ATOM     13  C11 NUT d   1      10.041  23.785  35.842  0.00  0.00     0.084 C 
ATOM     14  N   NUT d   1       9.104  23.634  36.960  0.00  0.00    -0.259 NA
ATOM     15  H1  NUT d   1       6.287  28.853  37.327  0.00  0.00     0.079 H 
ATOM     16  H2  NUT d   1       6.669  28.865  35.572  0.00  0.00     0.079 H 
ATOM     17  H3  NUT d   1       9.521  30.469  38.100  0.00  0.00     0.162 HD
ATOM     18  H4  NUT d   1       7.776  28.715  39.380  0.00  0.00     0.066 H 
ATOM     19  H5  NUT d   1       9.563  28.538  39.448  0.00  0.00     0.066 H 
ATOM     20  H6  NUT d   1       9.607  26.977  37.671  0.00  0.00     0.067 H 
ATOM     21  H7  NUT d   1       8.123  26.517  38.572  0.00  0.00     0.067 H 
ATOM     22  H21 NUT d   1      10.079  25.541  34.503  0.00  0.00     0.085 H 
ATOM     23  H26 NUT d   1      10.971  24.236  36.219  0.00  0.00     0.087 H 
ENDROOT
BRANCH  11  24
ATOM     24  C9  NUT d   1       7.107  24.798  37.881  0.00  0.00     0.043 A 
ATOM     25  C3  NUT d   1       7.319  24.528  39.250  0.00  0.00    -0.064 A 
ATOM     26  C2  NUT d   1       6.309  24.744  40.185  0.00  0.00    -0.050 A 
ATOM     27  H8  NUT d   1       8.280  24.148  39.578  0.00  0.00     0.085 H 
ATOM     28  C1  NUT d   1       5.063  25.234  39.746  0.00  0.00     0.070 A 
ATOM     29  H9  NUT d   1       6.479  24.538  41.236  0.00  0.00     0.087 H 
ATOM     30  C4  NUT d   1       4.805  25.513  38.403  0.00  0.00    -0.018 A 
ATOM     31  C5  NUT d   1       5.824  25.265  37.478  0.00  0.00     0.086 A 
ATOM     32  H17 NUT d   1       3.846  25.909  38.087  0.00  0.00     0.092 H 
BRANCH  28  33
ATOM     33  O   NUT d   1       4.087  25.420  40.648  0.00  0.00    -0.356 OA
BRANCH  33  34
ATOM     34  C   NUT d   1       4.411  25.041  41.983  0.00  0.00     0.010 C 
ATOM     35  H18 NUT d   1       3.549  25.233  42.638  0.00  0.00     0.066 H 
ATOM     36  H19 NUT d   1       5.274  25.628  42.331  0.00  0.00     0.066 H 
ATOM     37  H20 NUT d   1       4.661  23.970  42.010  0.00  0.00     0.066 H 
ENDBRANCH  33  34
ENDBRANCH  28  33
BRANCH  31  38
ATOM     38  O1  NUT d   1       5.580  25.434  36.170  0.00  0.00    -0.346 OA
BRANCH  38  39
ATOM     39  C6  NUT d   1       4.313  26.009  35.824  0.00  0.00     0.038 C 
ATOM     40  H10 NUT d   1       4.025  26.720  36.612  0.00  0.00     0.082 H 
BRANCH  39  41
ATOM     41  C8  NUT d   1       4.428  26.762  34.495  0.00  0.00    -0.052 C 
ATOM     42  H11 NUT d   1       3.453  27.200  34.236  0.00  0.00     0.030 H 
ATOM     43  H12 NUT d   1       4.738  26.064  33.703  0.00  0.00     0.030 H 
ATOM     44  H13 NUT d   1       5.176  27.563  34.591  0.00  0.00     0.030 H 
ENDBRANCH  39  41
BRANCH  39  45
ATOM     45  C7  NUT d   1       3.226  24.932  35.716  0.00  0.00    -0.052 C 
ATOM     46  H14 NUT d   1       2.268  25.403  35.450  0.00  0.00     0.030 H 
ATOM     47  H15 NUT d   1       3.125  24.415  36.682  0.00  0.00     0.030 H 
ATOM     48  H16 NUT d   1       3.506  24.206  34.939  0.00  0.00     0.030 H 
ENDBRANCH  39  45
ENDBRANCH  38  39
ENDBRANCH  31  38
ENDBRANCH  11  24
BRANCH  12  49
ATOM     49  C19 NUT d   1       8.653  24.123  33.724  0.00  0.00    -0.032 A 
ATOM     50  C24 NUT d   1       7.278  23.842  33.821  0.00  0.00    -0.073 A 
ATOM     51  C23 NUT d   1       6.618  23.177  32.798  0.00  0.00    -0.061 A 
ATOM     52  H22 NUT d   1       6.729  24.148  34.704  0.00  0.00     0.084 H 
ATOM     53  C22 NUT d   1       7.351  22.779  31.647  0.00  0.00     0.034 A 
ATOM     54  H23 NUT d   1       5.558  22.964  32.875  0.00  0.00     0.086 H 
ATOM     55 CL1  NUT d   1       6.586  21.910  30.443  0.00  0.00    -0.084 Cl
ATOM     56  C21 NUT d   1       8.726  23.106  31.516  0.00  0.00    -0.061 A 
ATOM     57  C20 NUT d   1       9.360  23.773  32.557  0.00  0.00    -0.073 A 
ATOM     58  H24 NUT d   1       9.273  22.840  30.619  0.00  0.00     0.086 H 
ATOM     59  H25 NUT d   1      10.410  24.027  32.470  0.00  0.00     0.084 H 
ENDBRANCH  12  49
BRANCH  13  60
ATOM     60  C12 NUT d   1      10.421  22.469  35.213  0.00  0.00    -0.031 A 
ATOM     61  C17 NUT d   1      11.768  22.242  34.874  0.00  0.00    -0.073 A 
ATOM     62  C16 NUT d   1      12.154  21.071  34.260  0.00  0.00    -0.061 A 
ATOM     63  H27 NUT d   1      12.511  22.998  35.099  0.00  0.00     0.084 H 
ATOM     64  C15 NUT d   1      11.172  20.095  33.966  0.00  0.00     0.034 A 
ATOM     65  H28 NUT d   1      13.194  20.900  34.006  0.00  0.00     0.086 H 
ATOM     66 CL   NUT d   1      11.611  18.721  33.130  0.00  0.00    -0.084 Cl
ATOM     67  C14 NUT d   1       9.819  20.283  34.356  0.00  0.00    -0.061 A 
ATOM     68  C13 NUT d   1       9.460  21.472  34.975  0.00  0.00    -0.073 A 
ATOM     69  H29 NUT d   1       9.080  19.511  34.173  0.00  0.00     0.086 H 
ATOM     70  H30 NUT d   1       8.431  21.633  35.277  0.00  0.00     0.084 H 
ENDBRANCH  13  60
TORSDOF 9
