REMARK  11 active torsions:
REMARK  status: ('A' for Active; 'I' for Inactive)
REMARK    1  A    between atoms: O1_1  and  C1_2 
REMARK    2  A    between atoms: C2_3  and  O1_1 
REMARK    3  A    between atoms: C4_5  and  O2_8 
REMARK    4  A    between atoms: O2_8  and  C5_7 
REMARK    5  A    between atoms: O3_10  and  C13_20 
REMARK    6  A    between atoms: C14_21  and  O3_10 
REMARK    7  A    between atoms: C9_16  and  C8_13 
REMARK    8  A    between atoms: C15_22  and  O4_14 
REMARK    9  A    between atoms: C16_18  and  C17_19 
REMARK   10  A    between atoms: C14_21  and  C15_22 
REMARK   11  A    between atoms: C11_23  and  C12_24 
ROOT
ATOM      1  C9  1K0 d   1     -13.615  -7.865   4.113  0.00  0.00     0.011 C 
ATOM      2  C18 1K0 d   1     -14.204  -7.130   5.118  0.00  0.00    -0.061 C 
ATOM      3  C16 1K0 d   1     -14.446  -7.654   6.393  0.00  0.00    -0.027 C 
ATOM      4  C13 1K0 d   1     -14.026  -9.001   6.590  0.00  0.00     0.080 C 
ATOM      5  C11 1K0 d   1     -13.424  -9.814   5.525  0.00  0.00    -0.027 C 
ATOM      6  C10 1K0 d   1     -13.141  -9.172   4.371  0.00  0.00    -0.061 C 
ATOM      7  H   1K0 d   1     -14.492  -6.105   4.913  0.00  0.00     0.085 H 
ATOM      8  H   1K0 d   1     -12.535  -9.671   3.624  0.00  0.00     0.085 H 
ENDROOT
BRANCH   1   9
ATOM      9  C8  1K0 d   1     -13.329  -7.153   2.895  0.00  0.00     0.141 A 
ATOM     10  N1  1K0 d   1     -14.214  -6.291   2.299  0.00  0.00    -0.306 N 
ATOM     11  C7  1K0 d   1     -13.885  -5.553   1.199  0.00  0.00     0.262 A 
ATOM     12  H   1K0 d   1     -15.133  -6.200   2.684  0.00  0.00     0.170 HD
ATOM     13  C6  1K0 d   1     -12.534  -5.712   0.660  0.00  0.00     0.094 A 
ATOM     14  O5  1K0 d   1     -14.785  -4.834   0.672  0.00  0.00    -0.267 OA
ATOM     15  C4  1K0 d   1     -12.008  -4.984  -0.440  0.00  0.00     0.088 A 
ATOM     16  C19 1K0 d   1     -11.686  -6.659   1.333  0.00  0.00     0.080 A 
ATOM     17  C3  1K0 d   1     -10.700  -5.215  -0.843  0.00  0.00    -0.018 A 
ATOM     18  C2  1K0 d   1      -9.878  -6.169  -0.179  0.00  0.00     0.073 A 
ATOM     19  H   1K0 d   1     -10.296  -4.658  -1.680  0.00  0.00     0.092 H 
ATOM     20  C20 1K0 d   1     -10.388  -6.894   0.858  0.00  0.00    -0.022 A 
ATOM     21  H   1K0 d   1      -9.781  -7.663   1.321  0.00  0.00     0.091 H 
ATOM     22  N2  1K0 d   1     -12.140  -7.374   2.400  0.00  0.00    -0.229 NA
BRANCH  15  23
ATOM     23  O2  1K0 d   1     -12.777  -4.012  -0.940  0.00  0.00    -0.355 OA
BRANCH  23  24
ATOM     24  C5  1K0 d   1     -12.170  -3.051  -1.863  0.00  0.00     0.010 C 
ATOM     25  H   1K0 d   1     -12.928  -2.321  -2.182  0.00  0.00     0.066 H 
ATOM     26  H   1K0 d   1     -11.780  -3.584  -2.743  0.00  0.00     0.066 H 
ATOM     27  H   1K0 d   1     -11.346  -2.527  -1.357  0.00  0.00     0.066 H 
ENDBRANCH  23  24
ENDBRANCH  15  23
BRANCH  18  28
ATOM     28  O1  1K0 d   1      -8.654  -6.266  -0.722  0.00  0.00    -0.356 OA
BRANCH  28  29
ATOM     29  C1  1K0 d   1      -7.744  -7.174  -0.129  0.00  0.00     0.010 C 
ATOM     30  H   1K0 d   1      -6.790  -7.146  -0.675  0.00  0.00     0.066 H 
ATOM     31  H   1K0 d   1      -8.161  -8.191  -0.171  0.00  0.00     0.066 H 
ATOM     32  H   1K0 d   1      -7.574  -6.890   0.920  0.00  0.00     0.066 H 
ENDBRANCH  28  29
ENDBRANCH  18  28
ENDBRANCH   1   9
BRANCH   3  33
ATOM     33  C17 1K0 d   1     -15.164  -6.898   7.514  0.00  0.00    -0.049 C 
ATOM     34  H   1K0 d   1     -15.406  -5.880   7.173  0.00  0.00     0.033 H 
ATOM     35  H   1K0 d   1     -14.510  -6.843   8.397  0.00  0.00     0.033 H 
ATOM     36  H   1K0 d   1     -16.092  -7.427   7.777  0.00  0.00     0.033 H 
ENDBRANCH   3  33
BRANCH   5  37
ATOM     37  C12 1K0 d   1     -12.960 -11.211   5.780  0.00  0.00    -0.049 C 
ATOM     38  H   1K0 d   1     -12.545 -11.634   4.854  0.00  0.00     0.033 H 
ATOM     39  H   1K0 d   1     -13.810 -11.824   6.115  0.00  0.00     0.033 H 
ATOM     40  H   1K0 d   1     -12.184 -11.203   6.559  0.00  0.00     0.033 H 
ENDBRANCH   5  37
BRANCH   4  41
ATOM     41  O3  1K0 d   1     -14.217  -9.561   7.790  0.00  0.00    -0.348 OA
BRANCH  41  42
ATOM     42  C14 1K0 d   1     -15.543  -9.897   8.245  0.00  0.00     0.045 C 
ATOM     43  H   1K0 d   1     -16.071  -8.971   8.517  0.00  0.00     0.078 H 
ATOM     44  H   1K0 d   1     -15.461 -10.546   9.129  0.00  0.00     0.078 H 
BRANCH  42  45
ATOM     45  C15 1K0 d   1     -16.359 -10.636   7.156  0.00  0.00     0.037 C 
ATOM     46  H   1K0 d   1     -15.662 -10.998   6.386  0.00  0.00     0.077 H 
ATOM     47  H   1K0 d   1     -16.865 -11.493   7.624  0.00  0.00     0.077 H 
BRANCH  45  48
ATOM     48  O4  1K0 d   1     -17.331  -9.832   6.533  0.00  0.00    -0.399 OA
ATOM     49  H   1K0 d   1     -16.907  -9.091   6.115  0.00  0.00     0.209 HD
ENDBRANCH  45  48
ENDBRANCH  42  45
ENDBRANCH  41  42
ENDBRANCH   4  41
TORSDOF 11
