REMARK  7 active torsions:
REMARK  status: ('A' for Active; 'I' for Inactive)
REMARK    1  A    between atoms: CBA_2  and  CAX_5 
REMARK       I    between atoms: NAQ_13  and  CAP_14 
REMARK       I    between atoms: CAP_14  and  NAO_16 
REMARK    2  A    between atoms: NAO_16  and  CAN_17 
REMARK    3  A    between atoms: CAN_17  and  CAL_18 
REMARK    4  A    between atoms: CAL_18  and  CAK_19 
REMARK    5  A    between atoms: CAK_19  and  NAM_20 
REMARK    6  A    between atoms: CAK_19  and  CAJ_21 
REMARK    7  A    between atoms: CAJ_21  and  CAD_22 
ROOT
ATOM      1  CAN D3C d   1       4.877  15.942 -22.532  0.00  0.00    -0.001 C 
ATOM      2  H   D3C d   1       5.211  14.979 -22.118  0.00  0.00     0.064 H 
ATOM      3  H   D3C d   1       4.059  15.770 -23.247  0.00  0.00     0.064 H 
ENDROOT
BRANCH   1   4
ATOM      4  NAO D3C d   1       6.006  16.575 -23.240  0.00  0.00    -0.343 N 
ATOM      5  CAP D3C d   1       5.892  17.726 -23.907  0.00  0.00     0.318 C 
ATOM      6  NAQ D3C d   1       6.955  18.240 -24.536  0.00  0.00    -0.327 N 
ATOM      7  OAR D3C d   1       4.838  18.364 -23.959  0.00  0.00    -0.247 OA
ATOM      8  CAU D3C d   1       6.821  19.518 -25.269  0.00  0.00     0.037 C 
ATOM      9  CAS D3C d   1       8.272  17.553 -24.558  0.00  0.00     0.015 C 
ATOM     10  CAV D3C d   1       7.253  19.242 -26.699  0.00  0.00     0.030 A 
ATOM     11  H   D3C d   1       5.776  19.861 -25.247  0.00  0.00     0.074 H 
ATOM     12  H   D3C d   1       7.468  20.285 -24.818  0.00  0.00     0.074 H 
ATOM     13  CAZ D3C d   1       6.909  19.894 -27.807  0.00  0.00    -0.057 A 
ATOM     14  NAW D3C d   1       8.120  18.190 -27.023  0.00  0.00    -0.343 N 
ATOM     15  CAY D3C d   1       7.514  19.319 -28.849  0.00  0.00    -0.050 A 
ATOM     16  H   D3C d   1       6.244  20.755 -27.856  0.00  0.00     0.086 H 
ATOM     17  CAX D3C d   1       8.246  18.296 -28.409  0.00  0.00     0.119 A 
ATOM     18  H   D3C d   1       7.424  19.634 -29.887  0.00  0.00     0.087 H 
ATOM     19  CAT D3C d   1       8.701  17.247 -26.010  0.00  0.00     0.015 C 
ATOM     20  H   D3C d   1       9.798  17.308 -26.068  0.00  0.00     0.067 H 
ATOM     21  H   D3C d   1       8.377  16.226 -26.260  0.00  0.00     0.067 H 
ATOM     22  H   D3C d   1       9.026  18.201 -24.087  0.00  0.00     0.067 H 
ATOM     23  H   D3C d   1       8.197  16.610 -23.997  0.00  0.00     0.067 H 
ATOM     24  H   D3C d   1       6.897  16.122 -23.219  0.00  0.00     0.164 HD
BRANCH  17  25
ATOM     25  CBA D3C d   1       9.095  17.378 -29.302  0.00  0.00     0.432 C 
ATOM     26  FBB D3C d   1       8.767  16.112 -29.069  0.00  0.00    -0.165 F 
ATOM     27  FBC D3C d   1      10.384  17.561 -29.027  0.00  0.00    -0.165 F 
ATOM     28  FBD D3C d   1       8.872  17.655 -30.586  0.00  0.00    -0.165 F 
ENDBRANCH  17  25
ENDBRANCH   1   4
BRANCH   1  29
ATOM     29  CAL D3C d   1       4.358  16.823 -21.385  0.00  0.00    -0.024 C 
ATOM     30  H   D3C d   1       3.896  17.727 -21.809  0.00  0.00     0.038 H 
ATOM     31  H   D3C d   1       5.204  17.110 -20.743  0.00  0.00     0.038 H 
BRANCH  29  32
ATOM     32  CAK D3C d   1       3.319  16.082 -20.539  0.00  0.00     0.105 C 
ATOM     33  H   D3C d   1       2.651  15.507 -21.198  0.00  0.00     0.084 H 
BRANCH  32  34
ATOM     34  NAM D3C d   1       2.524  17.047 -19.765  0.00  0.00    -0.075 N 
ATOM     35  H   D3C d   1       1.842  16.553 -19.211  0.00  0.00     0.274 HD
ATOM     36  H   D3C d   1       2.052  17.676 -20.396  0.00  0.00     0.274 HD
ATOM     37  H   D3C d   1       3.133  17.574 -19.158  0.00  0.00     0.274 HD
ENDBRANCH  32  34
BRANCH  32  38
ATOM     38  CAJ D3C d   1       4.049  15.124 -19.588  0.00  0.00    -0.012 C 
ATOM     39  H   D3C d   1       4.721  15.711 -18.944  0.00  0.00     0.043 H 
ATOM     40  H   D3C d   1       4.641  14.416 -20.187  0.00  0.00     0.043 H 
BRANCH  38  41
ATOM     41  CAD D3C d   1       3.090  14.331 -18.701  0.00  0.00    -0.015 A 
ATOM     42  CAC D3C d   1       2.320  13.331 -19.299  0.00  0.00    -0.034 A 
ATOM     43  CAB D3C d   1       1.431  12.576 -18.538  0.00  0.00     0.155 A 
ATOM     44  H   D3C d   1       2.415  13.141 -20.362  0.00  0.00     0.089 H 
ATOM     45  FAI D3C d   1       0.688  11.615 -19.120  0.00  0.00    -0.203 F 
ATOM     46  CAA D3C d   1       1.309  12.814 -17.174  0.00  0.00     0.157 A 
ATOM     47  FAH D3C d   1       0.452  12.081 -16.447  0.00  0.00    -0.203 F 
ATOM     48  CAF D3C d   1       2.075  13.806 -16.567  0.00  0.00    -0.005 A 
ATOM     49  CAE D3C d   1       2.963  14.559 -17.332  0.00  0.00     0.125 A 
ATOM     50  H   D3C d   1       1.981  13.992 -15.503  0.00  0.00     0.093 H 
ATOM     51  FAG D3C d   1       3.702  15.521 -16.745  0.00  0.00    -0.205 F 
ENDBRANCH  38  41
ENDBRANCH  32  38
ENDBRANCH  29  32
ENDBRANCH   1  29
TORSDOF 7
