REMARK  3 active torsions:
REMARK  status: ('A' for Active; 'I' for Inactive)
REMARK    1  A    between atoms: C11_14  and  C10_3 
REMARK    2  A    between atoms: C14_16  and  C15_5 
REMARK    3  A    between atoms: C2_9  and  C1_8 
ROOT
ATOM      1  C4  AJ8 d   1       8.337  11.381 -13.772  0.00  0.00     0.246 A 
ATOM      2  C8  AJ8 d   1       7.752  11.669 -11.463  0.00  0.00     0.046 A 
ATOM      3  C10 AJ8 d   1       7.136  11.877  -9.146  0.00  0.00    -0.022 A 
ATOM      4  C21 AJ8 d   1       6.199  12.903  -9.462  0.00  0.00    -0.071 A 
ATOM      5  C22 AJ8 d   1       6.068  13.303 -10.752  0.00  0.00    -0.070 A 
ATOM      6  C2  AJ8 d   1       6.704  13.056 -13.223  0.00  0.00    -0.044 A 
ATOM      7  C3  AJ8 d   1       7.401  12.459 -14.224  0.00  0.00    -0.011 A 
ATOM      8  O5  AJ8 d   1       9.063  10.766 -14.593  0.00  0.00    -0.268 OA
ATOM      9  N6  AJ8 d   1       8.479  11.048 -12.493  0.00  0.00    -0.323 N 
ATOM     10  C9  AJ8 d   1       7.896  11.273 -10.133  0.00  0.00    -0.045 A 
ATOM     11  C23 AJ8 d   1       6.840  12.709 -11.796  0.00  0.00    -0.003 A 
ATOM     12  H2  AJ8 d   1       5.599  13.358  -8.682  0.00  0.00     0.084 H 
ATOM     13  H3  AJ8 d   1       5.363  14.090 -10.995  0.00  0.00     0.085 H 
ATOM     14  H7  AJ8 d   1       7.288  12.741 -15.270  0.00  0.00     0.092 H 
ATOM     15  H8  AJ8 d   1       9.129  10.327 -12.254  0.00  0.00     0.169 HD
ATOM     16  H9  AJ8 d   1       8.602  10.493  -9.873  0.00  0.00     0.088 H 
ENDROOT
BRANCH   3  17
ATOM     17  C11 AJ8 d   1       7.276  11.574  -7.689  0.00  0.00    -0.004 A 
ATOM     18  C12 AJ8 d   1       6.128  11.285  -6.921  0.00  0.00    -0.070 A 
ATOM     19  C13 AJ8 d   1       6.264  11.087  -5.566  0.00  0.00    -0.066 A 
ATOM     20  H10 AJ8 d   1       5.154  11.220  -7.391  0.00  0.00     0.085 H 
ATOM     21  C14 AJ8 d   1       7.528  11.180  -4.968  0.00  0.00     0.042 A 
ATOM     22  H1  AJ8 d   1       5.394  10.859  -4.961  0.00  0.00     0.085 H 
ATOM     23  C18 AJ8 d   1       8.678  11.447  -5.674  0.00  0.00    -0.045 A 
ATOM     24  C19 AJ8 d   1       8.523  11.679  -7.034  0.00  0.00     0.046 A 
ATOM     25  H11 AJ8 d   1       9.650  11.475  -5.196  0.00  0.00     0.087 H 
ATOM     26 CL   AJ8 d   1      10.000  11.963  -7.822  0.00  0.00    -0.083 Cl
BRANCH  21  27
ATOM     27  C15 AJ8 d   1       7.669  10.990  -3.506  0.00  0.00     0.209 C 
ATOM     28  O16 AJ8 d   1       8.513  11.303  -2.786  0.00  0.00    -0.644 OA
ATOM     29  O17 AJ8 d   1       6.833  10.454  -2.759  0.00  0.00    -0.644 OA
ENDBRANCH  21  27
ENDBRANCH   3  17
BRANCH   6  30
ATOM     30  C1  AJ8 d   1       5.761  14.185 -13.561  0.00  0.00    -0.050 C 
ATOM     31  H4  AJ8 d   1       5.752  14.341 -14.650  0.00  0.00     0.033 H 
ATOM     32  H5  AJ8 d   1       6.097  15.105 -13.061  0.00  0.00     0.033 H 
ATOM     33  H6  AJ8 d   1       4.747  13.931 -13.218  0.00  0.00     0.033 H 
ENDBRANCH   6  30
TORSDOF 3
