REMARK  6 active torsions:
REMARK  status: ('A' for Active; 'I' for Inactive)
REMARK       I    between atoms: C2_2  and  N3_3 
REMARK    1  A    between atoms: C2_2  and  C12_12 
REMARK    2  A    between atoms: N3_3  and  C4_4 
REMARK    3  A    between atoms: C5_9  and  C10_10 
REMARK    4  A    between atoms: C10_10  and  C11_11 
REMARK    5  A    between atoms: C12_12  and  S13_13 
REMARK    6  A    between atoms: S13_13  and  C14_14 
ROOT
ATOM      1  O1  D44 d   1      -9.066  11.884 -30.561  0.00  0.00    -0.272 OA
ATOM      2  C2  D44 d   1      -9.131  10.973 -29.758  0.00  0.00     0.231 C 
ATOM      3  N3  D44 d   1      -9.229   9.675 -30.092  0.00  0.00    -0.326 N 
ATOM      4  H1  D44 d   1      -9.282   9.004 -29.352  0.00  0.00     0.169 HD
ENDROOT
BRANCH   2   5
ATOM      5  C12 D44 d   1      -9.120  11.356 -28.300  0.00  0.00     0.058 C 
ATOM      6  H11 D44 d   1     -10.117  11.737 -28.034  0.00  0.00     0.064 H 
ATOM      7  H12 D44 d   1      -8.373  12.151 -28.156  0.00  0.00     0.064 H 
BRANCH   5   8
ATOM      8  S13 D44 d   1      -8.728  10.024 -27.217  0.00  0.00    -0.083 SA
BRANCH   8   9
ATOM      9  C14 D44 d   1     -10.067   8.938 -27.048  0.00  0.00     0.169 A 
ATOM     10  N18 D44 d   1      -9.911   7.731 -26.494  0.00  0.00    -0.318 N 
ATOM     11  C17 D44 d   1     -11.151   7.220 -26.565  0.00  0.00     0.158 A 
ATOM     12  H13 D44 d   1      -9.057   7.302 -26.110  0.00  0.00     0.169 HD
ATOM     13  N22 D44 d   1     -11.543   5.995 -26.135  0.00  0.00    -0.241 NA
ATOM     14  C16 D44 d   1     -12.017   8.132 -27.159  0.00  0.00     0.105 A 
ATOM     15  C21 D44 d   1     -12.821   5.632 -26.280  0.00  0.00     0.005 A 
ATOM     16  C20 D44 d   1     -13.741   6.499 -26.867  0.00  0.00    -0.064 A 
ATOM     17  H14 D44 d   1     -13.145   4.655 -25.938  0.00  0.00     0.114 H 
ATOM     18  C19 D44 d   1     -13.347   7.757 -27.319  0.00  0.00    -0.050 A 
ATOM     19  H15 D44 d   1     -14.775   6.191 -26.973  0.00  0.00     0.085 H 
ATOM     20  H16 D44 d   1     -14.060   8.428 -27.784  0.00  0.00     0.087 H 
ATOM     21  N15 D44 d   1     -11.303   9.240 -27.468  0.00  0.00    -0.221 NA
ENDBRANCH   8   9
ENDBRANCH   5   8
ENDBRANCH   2   5
BRANCH   3  22
ATOM     22  C4  D44 d   1      -9.262   9.196 -31.427  0.00  0.00     0.041 A 
ATOM     23  C9  D44 d   1      -8.449   9.778 -32.415  0.00  0.00    -0.057 A 
ATOM     24  C8  D44 d   1      -8.458   9.331 -33.743  0.00  0.00    -0.081 A 
ATOM     25  H2  D44 d   1      -7.795  10.598 -32.141  0.00  0.00     0.086 H 
ATOM     26  C7  D44 d   1      -9.290   8.277 -34.105  0.00  0.00    -0.082 A 
ATOM     27  H3  D44 d   1      -7.821   9.803 -34.483  0.00  0.00     0.083 H 
ATOM     28  C6  D44 d   1     -10.104   7.688 -33.136  0.00  0.00    -0.075 A 
ATOM     29  H4  D44 d   1      -9.306   7.917 -35.127  0.00  0.00     0.083 H 
ATOM     30  C5  D44 d   1     -10.099   8.131 -31.800  0.00  0.00    -0.032 A 
ATOM     31  H5  D44 d   1     -10.756   6.870 -33.419  0.00  0.00     0.084 H 
BRANCH  30  32
ATOM     32  C10 D44 d   1     -11.003   7.455 -30.773  0.00  0.00    -0.042 C 
ATOM     33  H6  D44 d   1     -11.623   8.227 -30.293  0.00  0.00     0.039 H 
ATOM     34  H7  D44 d   1     -10.369   6.970 -30.016  0.00  0.00     0.039 H 
BRANCH  32  35
ATOM     35  C11 D44 d   1     -11.921   6.407 -31.374  0.00  0.00    -0.073 C 
ATOM     36  H8  D44 d   1     -12.540   5.964 -30.580  0.00  0.00     0.028 H 
ATOM     37  H9  D44 d   1     -11.317   5.620 -31.850  0.00  0.00     0.028 H 
ATOM     38  H10 D44 d   1     -12.571   6.877 -32.127  0.00  0.00     0.028 H 
ENDBRANCH  32  35
ENDBRANCH  30  32
ENDBRANCH   3  22
TORSDOF 6
