REMARK  6 active torsions:
REMARK  status: ('A' for Active; 'I' for Inactive)
REMARK       I    between atoms: C2_2  and  N3_3 
REMARK    1  A    between atoms: C2_2  and  C12_12 
REMARK    2  A    between atoms: N3_3  and  C4_4 
REMARK    3  A    between atoms: C5_9  and  C10_10 
REMARK    4  A    between atoms: C10_10  and  C11_11 
REMARK    5  A    between atoms: C12_12  and  S13_13 
REMARK    6  A    between atoms: S13_13  and  C14_14 
ROOT
ATOM      1  O1  D44 d   1     -16.078  20.576  -9.409  0.00  0.00    -0.272 OA
ATOM      2  C2  D44 d   1     -15.168  21.094  -8.780  0.00  0.00     0.231 C 
ATOM      3  N3  D44 d   1     -14.425  22.018  -9.346  0.00  0.00    -0.326 N 
ATOM      4  H1  D44 d   1     -13.625  22.413  -8.895  0.00  0.00     0.169 HD
ENDROOT
BRANCH   2   5
ATOM      5  C12 D44 d   1     -14.776  20.694  -7.382  0.00  0.00     0.058 C 
ATOM      6  H11 D44 d   1     -14.329  19.690  -7.422  0.00  0.00     0.064 H 
ATOM      7  H12 D44 d   1     -15.684  20.667  -6.762  0.00  0.00     0.064 H 
BRANCH   5   8
ATOM      8  S13 D44 d   1     -13.599  21.806  -6.611  0.00  0.00    -0.083 SA
BRANCH   8   9
ATOM      9  C14 D44 d   1     -12.031  21.142  -7.075  0.00  0.00     0.169 A 
ATOM     10  N18 D44 d   1     -10.864  21.708  -6.713  0.00  0.00    -0.318 N 
ATOM     11  C17 D44 d   1      -9.946  20.874  -7.268  0.00  0.00     0.158 A 
ATOM     12  H13 D44 d   1     -10.707  22.559  -6.155  0.00  0.00     0.169 HD
ATOM     13  N22 D44 d   1      -8.594  21.004  -7.191  0.00  0.00    -0.241 NA
ATOM     14  C16 D44 d   1     -10.569  19.834  -7.948  0.00  0.00     0.105 A 
ATOM     15  C21 D44 d   1      -7.823  20.081  -7.809  0.00  0.00     0.005 A 
ATOM     16  C20 D44 d   1      -8.375  19.018  -8.527  0.00  0.00    -0.064 A 
ATOM     17  H14 D44 d   1      -6.744  20.169  -7.745  0.00  0.00     0.114 H 
ATOM     18  C19 D44 d   1      -9.772  18.891  -8.612  0.00  0.00    -0.050 A 
ATOM     19  H15 D44 d   1      -7.731  18.296  -9.015  0.00  0.00     0.085 H 
ATOM     20  H16 D44 d   1     -10.223  18.083  -9.177  0.00  0.00     0.087 H 
ATOM     21  N15 D44 d   1     -11.918  20.013  -7.812  0.00  0.00    -0.221 NA
ENDBRANCH   8   9
ENDBRANCH   5   8
ENDBRANCH   2   5
BRANCH   3  22
ATOM     22  C4  D44 d   1     -14.830  22.408 -10.616  0.00  0.00     0.041 A 
ATOM     23  C9  D44 d   1     -15.000  21.545 -11.697  0.00  0.00    -0.057 A 
ATOM     24  C8  D44 d   1     -15.417  22.013 -12.932  0.00  0.00    -0.081 A 
ATOM     25  H2  D44 d   1     -14.802  20.487 -11.569  0.00  0.00     0.086 H 
ATOM     26  C7  D44 d   1     -15.725  23.356 -13.049  0.00  0.00    -0.082 A 
ATOM     27  H3  D44 d   1     -15.500  21.346 -13.782  0.00  0.00     0.083 H 
ATOM     28  C6  D44 d   1     -15.604  24.205 -11.956  0.00  0.00    -0.075 A 
ATOM     29  H4  D44 d   1     -16.063  23.749 -14.001  0.00  0.00     0.083 H 
ATOM     30  C5  D44 d   1     -15.142  23.731 -10.725  0.00  0.00    -0.032 A 
ATOM     31  H5  D44 d   1     -15.872  25.250 -12.059  0.00  0.00     0.084 H 
BRANCH  30  32
ATOM     32  C10 D44 d   1     -14.996  24.612  -9.489  0.00  0.00    -0.042 C 
ATOM     33  H6  D44 d   1     -15.486  24.095  -8.651  0.00  0.00     0.039 H 
ATOM     34  H7  D44 d   1     -15.518  25.559  -9.691  0.00  0.00     0.039 H 
BRANCH  32  35
ATOM     35  C11 D44 d   1     -13.577  24.950  -9.056  0.00  0.00    -0.073 C 
ATOM     36  H8  D44 d   1     -13.609  25.586  -8.159  0.00  0.00     0.028 H 
ATOM     37  H9  D44 d   1     -13.064  25.486  -9.868  0.00  0.00     0.028 H 
ATOM     38  H10 D44 d   1     -13.032  24.022  -8.828  0.00  0.00     0.028 H 
ENDBRANCH  32  35
ENDBRANCH  30  32
ENDBRANCH   3  22
TORSDOF 6
