REMARK  7 active torsions:
REMARK  status: ('A' for Active; 'I' for Inactive)
REMARK    1  A    between atoms: N53_1  and  C55_2 
REMARK    2  A    between atoms: C57_4  and  C59_5 
REMARK    3  A    between atoms: C58_8  and  C61_9 
REMARK       I    between atoms: C61_9  and  N63_11 
REMARK    4  A    between atoms: N63_11  and  C65_12 
REMARK    5  A    between atoms: C71_15  and  S75_16 
REMARK    6  A    between atoms: C69_23  and  S73_24 
REMARK    7  A    between atoms: C76_29  and  S83_30 
ROOT
ATOM      1  C65 SVR d   1      37.940  31.331  18.756  0.00  0.00     0.047 A 
ATOM      2  C67 SVR d   1      38.595  32.201  19.602  0.00  0.00    -0.055 A 
ATOM      3  C70 SVR d   1      39.872  32.635  19.354  0.00  0.00    -0.056 A 
ATOM      4  C71 SVR d   1      40.566  32.199  18.247  0.00  0.00     0.091 A 
ATOM      5  C66 SVR d   1      38.620  30.855  17.597  0.00  0.00     0.027 A 
ATOM      6  C68 SVR d   1      39.953  31.317  17.357  0.00  0.00     0.004 A 
ATOM      7  C72 SVR d   1      40.642  30.870  16.221  0.00  0.00    -0.047 A 
ATOM      8  C69 SVR d   1      38.052  29.955  16.667  0.00  0.00     0.095 A 
ATOM      9  C74 SVR d   1      38.781  29.548  15.568  0.00  0.00    -0.035 A 
ATOM     10  C76 SVR d   1      40.051  30.000  15.347  0.00  0.00     0.083 A 
ATOM     11  H10 SVR d   1      38.084  32.553  20.491  0.00  0.00     0.087 H 
ATOM     12  H11 SVR d   1      40.342  33.331  20.039  0.00  0.00     0.086 H 
ATOM     13  H12 SVR d   1      41.652  31.217  16.034  0.00  0.00     0.087 H 
ATOM     14  H13 SVR d   1      38.336  28.854  14.864  0.00  0.00     0.088 H 
ENDROOT
BRANCH   1  15
ATOM     15  N63 SVR d   1      36.592  30.916  19.101  0.00  0.00    -0.322 N 
ATOM     16  C61 SVR d   1      35.494  31.794  19.510  0.00  0.00     0.256 C 
ATOM     17  O64 SVR d   1      35.617  33.008  19.593  0.00  0.00    -0.267 OA
ATOM     18  H9  SVR d   1      36.395  29.937  19.055  0.00  0.00     0.169 HD
BRANCH  16  19
ATOM     19  C58 SVR d   1      34.149  31.188  19.843  0.00  0.00     0.034 A 
ATOM     20  C56 SVR d   1      33.068  32.023  20.193  0.00  0.00    -0.042 A 
ATOM     21  C55 SVR d   1      31.831  31.464  20.499  0.00  0.00     0.032 A 
ATOM     22  H3  SVR d   1      33.200  33.099  20.224  0.00  0.00     0.088 H 
ATOM     23  C57 SVR d   1      31.657  30.086  20.462  0.00  0.00    -0.036 A 
ATOM     24  C60 SVR d   1      32.719  29.261  20.119  0.00  0.00    -0.074 A 
ATOM     25  C62 SVR d   1      33.957  29.806  19.812  0.00  0.00    -0.067 A 
ATOM     26  H7  SVR d   1      32.580  28.186  20.091  0.00  0.00     0.084 H 
ATOM     27  H8  SVR d   1      34.781  29.154  19.546  0.00  0.00     0.085 H 
BRANCH  21  28
ATOM     28  N53 SVR d   1      30.718  32.340  20.858  0.00  0.00    -0.399 N 
ATOM     29  H1  SVR d   1      30.854  33.361  20.884  0.00  0.00     0.156 HD
ATOM     30  H2  SVR d   1      29.798  31.937  21.085  0.00  0.00     0.156 HD
ENDBRANCH  21  28
BRANCH  23  31
ATOM     31  C59 SVR d   1      30.337  29.472  20.787  0.00  0.00    -0.049 C 
ATOM     32  H4  SVR d   1      30.410  28.378  20.700  0.00  0.00     0.033 H 
ATOM     33  H5  SVR d   1      29.576  29.846  20.086  0.00  0.00     0.033 H 
ATOM     34  H6  SVR d   1      30.051  29.739  21.815  0.00  0.00     0.033 H 
ENDBRANCH  23  31
ENDBRANCH  16  19
ENDBRANCH   1  15
BRANCH   8  35
ATOM     35  S73 SVR d   1      36.417  29.292  16.816  0.00  0.00     0.138 S 
ATOM     36  O77 SVR d   1      36.089  28.386  15.745  0.00  0.00    -0.591 OA
ATOM     37  O78 SVR d   1      35.417  30.324  16.663  0.00  0.00    -0.591 OA
ATOM     38  O79 SVR d   1      36.270  28.614  18.106  0.00  0.00    -0.591 OA
ENDBRANCH   8  35
BRANCH   4  39
ATOM     39  S75 SVR d   1      42.219  32.808  17.993  0.00  0.00     0.138 S 
ATOM     40  O80 SVR d   1      42.306  33.547  16.759  0.00  0.00    -0.591 OA
ATOM     41  O81 SVR d   1      42.661  33.795  18.951  0.00  0.00    -0.591 OA
ATOM     42  O82 SVR d   1      43.157  31.676  17.987  0.00  0.00    -0.591 OA
ENDBRANCH   4  39
BRANCH  10  43
ATOM     43  S83 SVR d   1      40.961  29.462  13.937  0.00  0.00     0.137 S 
ATOM     44  O85 SVR d   1      40.051  28.968  12.888  0.00  0.00    -0.591 OA
ATOM     45  O86 SVR d   1      41.835  30.493  13.432  0.00  0.00    -0.591 OA
ATOM     46  O84 SVR d   1      41.920  28.451  14.318  0.00  0.00    -0.591 OA
ENDBRANCH  10  43
TORSDOF 7
