REMARK  9 active torsions:
REMARK  status: ('A' for Active; 'I' for Inactive)
REMARK    1  A    between atoms: C2_2  and  O6_36 
REMARK    2  A    between atoms: C3_3  and  C28_33 
REMARK    3  A    between atoms: C7_7  and  C20_24 
REMARK    4  A    between atoms: C8_8  and  C9_10 
REMARK    5  A    between atoms: C12_13  and  O2_16 
REMARK    6  A    between atoms: O2_16  and  C15_17 
REMARK    7  A    between atoms: C15_17  and  C16_18 
REMARK       I    between atoms: C16_18  and  N1_19 
REMARK    8  A    between atoms: N1_19  and  C17_21 
REMARK    9  A    between atoms: C21_25  and  C22_26 
ROOT
ATOM      1  C1  N75 d   1      31.658  -5.380  35.102  0.00  0.00    -0.016 A 
ATOM      2  C2  N75 d   1      31.546  -4.043  35.470  0.00  0.00     0.085 A 
ATOM      3  C3  N75 d   1      32.520  -3.485  36.314  0.00  0.00     0.074 A 
ATOM      4  C4  N75 d   1      33.578  -4.273  36.758  0.00  0.00    -0.050 A 
ATOM      5  C5  N75 d   1      33.659  -5.604  36.372  0.00  0.00     0.021 A 
ATOM      6  C6  N75 d   1      32.713  -6.153  35.551  0.00  0.00     0.090 A 
ATOM      7  C7  N75 d   1      34.529  -6.631  36.604  0.00  0.00     0.065 A 
ATOM      8  C8  N75 d   1      34.004  -7.700  35.902  0.00  0.00     0.106 A 
ATOM      9  O1  N75 d   1      32.956  -7.348  35.319  0.00  0.00    -0.307 OA
ATOM     10  H1  N75 d   1      30.909  -5.821  34.455  0.00  0.00     0.092 H 
ATOM     11  H2  N75 d   1      34.337  -3.848  37.404  0.00  0.00     0.086 H 
ENDROOT
BRANCH   8  12
ATOM     12  C9  N75 d   1      34.472  -8.989  35.785  0.00  0.00    -0.001 A 
ATOM     13  C10 N75 d   1      34.140  -9.946  36.740  0.00  0.00    -0.068 A 
ATOM     14  C11 N75 d   1      34.590 -11.245  36.666  0.00  0.00    -0.050 A 
ATOM     15  H3  N75 d   1      33.505  -9.659  37.570  0.00  0.00     0.085 H 
ATOM     16  C12 N75 d   1      35.406 -11.688  35.635  0.00  0.00     0.069 A 
ATOM     17  H4  N75 d   1      34.297 -11.945  37.440  0.00  0.00     0.087 H 
ATOM     18  C13 N75 d   1      35.739 -10.731  34.675  0.00  0.00    -0.050 A 
ATOM     19  C14 N75 d   1      35.287  -9.429  34.750  0.00  0.00    -0.068 A 
ATOM     20  H5  N75 d   1      36.373 -11.020  33.844  0.00  0.00     0.087 H 
ATOM     21  H6  N75 d   1      35.577  -8.727  33.976  0.00  0.00     0.085 H 
BRANCH  16  22
ATOM     22  O2  N75 d   1      35.823 -13.014  35.635  0.00  0.00    -0.342 OA
BRANCH  22  23
ATOM     23  C15 N75 d   1      35.157 -13.971  34.824  0.00  0.00     0.099 C 
ATOM     24  H7  N75 d   1      35.907 -14.552  34.268  0.00  0.00     0.089 H 
ATOM     25  H8  N75 d   1      34.501 -13.444  34.115  0.00  0.00     0.089 H 
BRANCH  23  26
ATOM     26  C16 N75 d   1      34.314 -14.925  35.664  0.00  0.00     0.242 C 
ATOM     27  N1  N75 d   1      35.056 -15.926  36.270  0.00  0.00    -0.355 N 
ATOM     28  H9  N75 d   1      36.042 -15.951  36.104  0.00  0.00     0.162 HD
ATOM     29  O3  N75 d   1      33.112 -14.808  35.790  0.00  0.00    -0.271 OA
BRANCH  27  30
ATOM     30  C17 N75 d   1      34.478 -16.944  37.136  0.00  0.00     0.012 A 
ATOM     31  C18 N75 d   1      35.392 -18.147  37.030  0.00  0.00    -0.044 A 
ATOM     32  C19 N75 d   1      35.081 -17.476  38.367  0.00  0.00    -0.044 A 
ATOM     33  H11 N75 d   1      36.390 -18.049  36.578  0.00  0.00     0.036 H 
ATOM     34  H12 N75 d   1      34.980 -19.140  36.797  0.00  0.00     0.036 H 
ATOM     35  H13 N75 d   1      34.452 -17.993  39.107  0.00  0.00     0.036 H 
ATOM     36  H14 N75 d   1      35.862 -16.902  38.887  0.00  0.00     0.036 H 
ATOM     37  H10 N75 d   1      33.383 -16.979  37.036  0.00  0.00     0.072 H 
ENDBRANCH  27  30
ENDBRANCH  23  26
ENDBRANCH  22  23
ENDBRANCH  16  22
ENDBRANCH   8  12
BRANCH   7  38
ATOM     38  C20 N75 d   1      35.622  -6.511  37.369  0.00  0.00    -0.058 C 
ATOM     39  C21 N75 d   1      36.662  -6.415  38.013  0.00  0.00    -0.061 C 
BRANCH  39  40
ATOM     40  C22 N75 d   1      37.821  -6.315  38.645  0.00  0.00     0.019 A 
ATOM     41  C23 N75 d   1      38.990  -6.204  37.902  0.00  0.00    -0.065 A 
ATOM     42  C24 N75 d   1      40.209  -6.095  38.532  0.00  0.00    -0.080 A 
ATOM     43  H15 N75 d   1      38.942  -6.203  36.819  0.00  0.00     0.085 H 
ATOM     44  C25 N75 d   1      40.282  -6.096  39.905  0.00  0.00    -0.062 A 
ATOM     45  H16 N75 d   1      41.115  -6.008  37.943  0.00  0.00     0.083 H 
ATOM     46  C26 N75 d   1      39.128  -6.207  40.655  0.00  0.00     0.035 A 
ATOM     47  H17 N75 d   1      41.244  -6.010  40.398  0.00  0.00     0.086 H 
ATOM     48 CL   N75 d   1      39.241  -6.209  42.379  0.00  0.00    -0.084 Cl
ATOM     49  C27 N75 d   1      37.888  -6.317  40.030  0.00  0.00    -0.044 A 
ATOM     50  H18 N75 d   1      36.983  -6.403  40.621  0.00  0.00     0.088 H 
ENDBRANCH  39  40
ENDBRANCH   7  38
BRANCH   3  51
ATOM     51  C28 N75 d   1      32.466  -2.171  36.719  0.00  0.00     0.212 C 
ATOM     52  O4  N75 d   1      33.276  -1.348  36.381  0.00  0.00    -0.644 OA
ATOM     53  O5  N75 d   1      31.499  -1.669  37.527  0.00  0.00    -0.644 OA
ENDBRANCH   3  51
BRANCH   2  54
ATOM     54  O6  N75 d   1      30.465  -3.357  34.973  0.00  0.00    -0.360 OA
ATOM     55  H19 N75 d   1      29.934  -3.039  35.694  0.00  0.00     0.217 HD
ENDBRANCH   2  54
TORSDOF 9
