REMARK  10 active torsions:
REMARK  status: ('A' for Active; 'I' for Inactive)
REMARK    1  A    between atoms: C1_1  and  O2_2 
REMARK    2  A    between atoms: O2_2  and  C3_3 
REMARK    3  A    between atoms: C5_5  and  C31_31 
REMARK    4  A    between atoms: C8_8  and  N9_9 
REMARK    5  A    between atoms: N9_9  and  C10_10 
REMARK    6  A    between atoms: N14_14  and  C15_15 
REMARK    7  A    between atoms: C18_18  and  C29_29 
REMARK    8  A    between atoms: N21_21  and  C22_22 
REMARK       I    between atoms: C31_31  and  N33_33 
REMARK    9  A    between atoms: N33_33  and  N34_34 
REMARK   10  A    between atoms: N37_37  and  C38_38 
ROOT
ATOM      1  N9  1J3 d   1      32.424 -33.475 -18.499  0.00  0.00    -0.185 N 
ATOM      2  H7  1J3 d   1      31.729 -33.334 -19.246  0.00  0.00     0.184 HD
ENDROOT
BRANCH   1   3
ATOM      3  C8  1J3 d   1      33.149 -34.676 -18.568  0.00  0.00     0.082 A 
ATOM      4  C3  1J3 d   1      32.711 -35.595 -19.529  0.00  0.00     0.096 A 
ATOM      5  C4  1J3 d   1      33.341 -36.831 -19.673  0.00  0.00    -0.033 A 
ATOM      6  C5  1J3 d   1      34.436 -37.155 -18.852  0.00  0.00     0.036 A 
ATOM      7  H4  1J3 d   1      32.988 -37.539 -20.414  0.00  0.00     0.089 H 
ATOM      8  C6  1J3 d   1      34.866 -36.223 -17.888  0.00  0.00    -0.065 A 
ATOM      9  C7  1J3 d   1      34.240 -34.991 -17.746  0.00  0.00    -0.053 A 
ATOM     10  H5  1J3 d   1      35.702 -36.472 -17.244  0.00  0.00     0.085 H 
ATOM     11  H6  1J3 d   1      34.592 -34.280 -17.007  0.00  0.00     0.087 H 
BRANCH   4  12
ATOM     12  O2  1J3 d   1      31.640 -35.238 -20.301  0.00  0.00    -0.354 OA
BRANCH  12  13
ATOM     13  C1  1J3 d   1      30.893 -36.254 -20.997  0.00  0.00     0.010 C 
ATOM     14  H1  1J3 d   1      30.075 -35.785 -21.562  0.00  0.00     0.066 H 
ATOM     15  H2  1J3 d   1      30.475 -36.965 -20.269  0.00  0.00     0.066 H 
ATOM     16  H3  1J3 d   1      31.559 -36.788 -21.691  0.00  0.00     0.066 H 
ENDBRANCH  12  13
ENDBRANCH   4  12
BRANCH   6  17
ATOM     17  C31 1J3 d   1      35.090 -38.488 -18.992  0.00  0.00     0.275 C 
ATOM     18  O32 1J3 d   1      35.299 -38.973 -20.077  0.00  0.00    -0.266 OA
ATOM     19  N33 1J3 d   1      35.409 -39.182 -17.883  0.00  0.00    -0.182 N 
ATOM     20  H26 1J3 d   1      35.215 -38.758 -16.999  0.00  0.00     0.197 HD
BRANCH  19  21
ATOM     21  N34 1J3 d   1      35.980 -40.426 -17.878  0.00  0.00     0.014 N 
ATOM     22  C35 1J3 d   1      37.332 -40.375 -17.286  0.00  0.00     0.127 C 
ATOM     23  C36 1J3 d   1      37.970 -41.760 -17.391  0.00  0.00     0.107 C 
ATOM     24  H28 1J3 d   1      37.261 -40.080 -16.229  0.00  0.00     0.082 H 
ATOM     25  H29 1J3 d   1      37.946 -39.643 -17.831  0.00  0.00     0.082 H 
ATOM     26  N37 1J3 d   1      37.118 -42.709 -16.657  0.00  0.00    -0.072 N 
ATOM     27  H30 1J3 d   1      38.977 -41.742 -16.948  0.00  0.00     0.078 H 
ATOM     28  H31 1J3 d   1      38.039 -42.060 -18.447  0.00  0.00     0.078 H 
ATOM     29  C39 1J3 d   1      35.756 -42.775 -17.225  0.00  0.00     0.107 C 
ATOM     30  H32 1J3 d   1      37.022 -42.352 -15.719  0.00  0.00     0.279 HD
ATOM     31  C40 1J3 d   1      35.116 -41.382 -17.154  0.00  0.00     0.127 C 
ATOM     32  H36 1J3 d   1      35.150 -43.489 -16.648  0.00  0.00     0.078 H 
ATOM     33  H37 1J3 d   1      35.809 -43.103 -18.274  0.00  0.00     0.078 H 
ATOM     34  H38 1J3 d   1      34.120 -41.408 -17.621  0.00  0.00     0.082 H 
ATOM     35  H39 1J3 d   1      35.020 -41.072 -16.103  0.00  0.00     0.082 H 
ATOM     36  H27 1J3 d   1      36.066 -40.739 -18.832  0.00  0.00     0.309 HD
BRANCH  26  37
ATOM     37  C38 1J3 d   1      37.754 -44.026 -16.543  0.00  0.00     0.066 C 
ATOM     38  H33 1J3 d   1      37.090 -44.707 -15.990  0.00  0.00     0.068 H 
ATOM     39  H34 1J3 d   1      38.708 -43.927 -16.005  0.00  0.00     0.068 H 
ATOM     40  H35 1J3 d   1      37.940 -44.431 -17.548  0.00  0.00     0.068 H 
ENDBRANCH  26  37
ENDBRANCH  19  21
ENDBRANCH   6  17
ENDBRANCH   1   3
BRANCH   1  41
ATOM     41  C10 1J3 d   1      32.513 -32.454 -17.568  0.00  0.00     0.728 A 
ATOM     42  N11 1J3 d   1      31.698 -31.422 -17.716  0.00  0.00    -0.073 NA
ATOM     43  C12 1J3 d   1      31.751 -30.383 -16.877  0.00  0.00     0.051 A 
ATOM     44  C13 1J3 d   1      32.658 -30.394 -15.835  0.00  0.00     0.102 A 
ATOM     45  H8  1J3 d   1      31.087 -29.537 -17.013  0.00  0.00     0.119 H 
ATOM     46  N14 1J3 d   1      32.720 -29.258 -14.997  0.00  0.00    -0.315 N 
ATOM     47  C27 1J3 d   1      33.513 -31.524 -15.696  0.00  0.00     0.174 A 
ATOM     48  C16 1J3 d   1      32.872 -29.301 -13.647  0.00  0.00     0.270 C 
ATOM     49  O17 1J3 d   1      32.935 -28.243 -13.011  0.00  0.00    -0.269 OA
ATOM     50  C18 1J3 d   1      32.924 -30.614 -12.919  0.00  0.00     0.217 C 
ATOM     51  F19 1J3 d   1      33.121 -30.323 -11.582  0.00  0.00    -0.226 F 
ATOM     52  C20 1J3 d   1      34.110 -31.486 -13.284  0.00  0.00     0.042 C 
ATOM     53  N21 1J3 d   1      34.476 -31.651 -14.692  0.00  0.00    -0.355 N 
ATOM     54  H12 1J3 d   1      33.903 -32.491 -12.887  0.00  0.00     0.070 H 
ATOM     55  H13 1J3 d   1      34.987 -31.064 -12.773  0.00  0.00     0.070 H 
ATOM     56  N28 1J3 d   1      33.393 -32.500 -16.579  0.00  0.00    -0.043 NA
BRANCH  46  57
ATOM     57  C15 1J3 d   1      32.687 -27.933 -15.635  0.00  0.00    -0.011 C 
ATOM     58  H9  1J3 d   1      32.560 -28.052 -16.721  0.00  0.00     0.057 H 
ATOM     59  H10 1J3 d   1      33.630 -27.405 -15.432  0.00  0.00     0.057 H 
ATOM     60  H11 1J3 d   1      31.846 -27.352 -15.229  0.00  0.00     0.057 H 
ENDBRANCH  46  57
BRANCH  50  61
ATOM     61  C29 1J3 d   1      31.628 -31.388 -13.037  0.00  0.00    -0.064 C 
ATOM     62  C30 1J3 d   1      30.983 -31.827 -11.980  0.00  0.00    -0.121 C 
ATOM     63  H24 1J3 d   1      30.053 -32.381 -12.101  0.00  0.00     0.066 H 
ATOM     64  H25 1J3 d   1      31.378 -31.637 -10.983  0.00  0.00     0.066 H 
ATOM     65  H23 1J3 d   1      31.219 -31.587 -14.027  0.00  0.00     0.081 H 
ENDBRANCH  50  61
BRANCH  53  66
ATOM     66  C22 1J3 d   1      35.371 -32.826 -14.819  0.00  0.00     0.013 C 
ATOM     67  C23 1J3 d   1      36.738 -32.567 -14.110  0.00  0.00    -0.046 C 
ATOM     68  C24 1J3 d   1      37.113 -33.935 -13.490  0.00  0.00    -0.063 C 
ATOM     69  H15 1J3 d   1      36.632 -31.801 -13.328  0.00  0.00     0.036 H 
ATOM     70  H16 1J3 d   1      37.499 -32.247 -14.837  0.00  0.00     0.036 H 
ATOM     71  C25 1J3 d   1      35.767 -34.537 -13.076  0.00  0.00    -0.063 C 
ATOM     72  H17 1J3 d   1      37.767 -33.802 -12.616  0.00  0.00     0.033 H 
ATOM     73  H18 1J3 d   1      37.616 -34.575 -14.230  0.00  0.00     0.033 H 
ATOM     74  C26 1J3 d   1      34.779 -34.092 -14.161  0.00  0.00    -0.046 C 
ATOM     75  H19 1J3 d   1      35.459 -34.153 -12.092  0.00  0.00     0.033 H 
ATOM     76  H20 1J3 d   1      35.830 -35.635 -13.038  0.00  0.00     0.033 H 
ATOM     77  H21 1J3 d   1      34.659 -34.887 -14.912  0.00  0.00     0.036 H 
ATOM     78  H22 1J3 d   1      33.802 -33.862 -13.711  0.00  0.00     0.036 H 
ATOM     79  H14 1J3 d   1      35.541 -33.018 -15.889  0.00  0.00     0.072 H 
ENDBRANCH  53  66
ENDBRANCH   1  41
TORSDOF 10
