REMARK  9 active torsions:
REMARK  status: ('A' for Active; 'I' for Inactive)
REMARK       I    between atoms: C6_2  and  N8_3 
REMARK    1  A    between atoms: C6_2  and  C5_11 
REMARK    2  A    between atoms: N8_3  and  C9_4 
REMARK    3  A    between atoms: N12_7  and  C13_8 
REMARK    4  A    between atoms: C3_13  and  O2_14 
REMARK    5  A    between atoms: O2_14  and  C1_15 
REMARK    6  A    between atoms: C19_19  and  N20_20 
REMARK    7  A    between atoms: N20_20  and  C21_21 
REMARK    8  A    between atoms: N25_25  and  C26_26 
REMARK    9  A    between atoms: N33_31  and  C34_36 
ROOT
ATOM      1  C5  1J4 d   1      49.081  11.298  32.336  0.00  0.00     0.073 A 
ATOM      2  C4  1J4 d   1      48.271  10.516  31.507  0.00  0.00    -0.030 A 
ATOM      3  C3  1J4 d   1      46.874  10.557  31.628  0.00  0.00     0.096 A 
ATOM      4  C16 1J4 d   1      48.470  12.133  33.281  0.00  0.00     0.134 A 
ATOM      5  F17 1J4 d   1      49.181  12.922  34.112  0.00  0.00    -0.205 F 
ATOM      6  C18 1J4 d   1      47.083  12.171  33.391  0.00  0.00    -0.016 A 
ATOM      7  C19 1J4 d   1      46.270  11.388  32.568  0.00  0.00     0.085 A 
ATOM      8  H15 1J4 d   1      48.727   9.872  30.764  0.00  0.00     0.089 H 
ATOM      9  H19 1J4 d   1      46.625  12.820  34.129  0.00  0.00     0.091 H 
ENDROOT
BRANCH   7  10
ATOM     10  N20 1J4 d   1      44.910  11.333  32.653  0.00  0.00    -0.185 N 
ATOM     11  H20 1J4 d   1      44.428  10.804  31.912  0.00  0.00     0.184 HD
BRANCH  10  12
ATOM     12  C21 1J4 d   1      44.114  11.897  33.606  0.00  0.00     0.728 A 
ATOM     13  N22 1J4 d   1      42.782  11.728  33.467  0.00  0.00    -0.073 NA
ATOM     14  C23 1J4 d   1      41.917  12.254  34.324  0.00  0.00     0.050 A 
ATOM     15  C24 1J4 d   1      42.369  12.984  35.418  0.00  0.00     0.096 A 
ATOM     16  H21 1J4 d   1      40.853  12.114  34.171  0.00  0.00     0.119 H 
ATOM     17  N25 1J4 d   1      41.405  13.586  36.265  0.00  0.00    -0.313 N 
ATOM     18  C39 1J4 d   1      43.749  13.180  35.553  0.00  0.00     0.153 A 
ATOM     19  C27 1J4 d   1      41.498  13.786  37.592  0.00  0.00     0.298 C 
ATOM     20  O28 1J4 d   1      40.576  14.363  38.164  0.00  0.00    -0.266 OA
ATOM     21  C29 1J4 d   1      42.629  13.316  38.484  0.00  0.00     0.334 C 
ATOM     22  C32 1J4 d   1      44.021  13.151  37.875  0.00  0.00     0.055 C 
ATOM     23  F30 1J4 d   1      42.716  14.189  39.474  0.00  0.00    -0.194 F 
ATOM     24  F31 1J4 d   1      42.306  12.135  38.979  0.00  0.00    -0.194 F 
ATOM     25  N33 1J4 d   1      44.267  13.924  36.649  0.00  0.00    -0.255 NA
ATOM     26  H25 1J4 d   1      44.760  13.463  38.627  0.00  0.00     0.066 H 
ATOM     27  H26 1J4 d   1      44.165  12.086  37.640  0.00  0.00     0.066 H 
ATOM     28  N40 1J4 d   1      44.583  12.608  34.652  0.00  0.00    -0.048 NA
BRANCH  17  29
ATOM     29  C26 1J4 d   1      40.236  14.119  35.547  0.00  0.00    -0.011 C 
ATOM     30  H22 1J4 d   1      40.316  13.869  34.479  0.00  0.00     0.057 H 
ATOM     31  H23 1J4 d   1      40.200  15.212  35.666  0.00  0.00     0.057 H 
ATOM     32  H24 1J4 d   1      39.318  13.674  35.959  0.00  0.00     0.057 H 
ENDBRANCH  17  29
BRANCH  25  33
ATOM     33  C34 1J4 d   1      45.707  14.313  36.521  0.00  0.00     0.001 C 
ATOM     34  C35 1J4 d   1      46.010  15.546  37.376  0.00  0.00    -0.050 C 
ATOM     35  C36 1J4 d   1      47.304  15.308  38.136  0.00  0.00    -0.064 C 
ATOM     36  H28 1J4 d   1      45.188  15.713  38.088  0.00  0.00     0.035 H 
ATOM     37  H29 1J4 d   1      46.119  16.428  36.728  0.00  0.00     0.035 H 
ATOM     38  C37 1J4 d   1      47.623  13.828  38.024  0.00  0.00    -0.064 C 
ATOM     39  H30 1J4 d   1      47.178  15.588  39.192  0.00  0.00     0.033 H 
ATOM     40  H31 1J4 d   1      48.116  15.903  37.694  0.00  0.00     0.033 H 
ATOM     41  C38 1J4 d   1      46.738  13.249  36.928  0.00  0.00    -0.050 C 
ATOM     42  H32 1J4 d   1      47.414  13.326  38.980  0.00  0.00     0.033 H 
ATOM     43  H33 1J4 d   1      48.683  13.691  37.762  0.00  0.00     0.033 H 
ATOM     44  H34 1J4 d   1      47.354  12.978  36.058  0.00  0.00     0.035 H 
ATOM     45  H35 1J4 d   1      46.220  12.354  37.304  0.00  0.00     0.035 H 
ATOM     46  H27 1J4 d   1      45.879  14.561  35.463  0.00  0.00     0.064 H 
ENDBRANCH  25  33
ENDBRANCH  10  12
ENDBRANCH   7  10
BRANCH   3  47
ATOM     47  O2  1J4 d   1      46.067   9.788  30.816  0.00  0.00    -0.354 OA
BRANCH  47  48
ATOM     48  C1  1J4 d   1      46.323   8.408  30.541  0.00  0.00     0.010 C 
ATOM     49  H16 1J4 d   1      45.543   8.017  29.872  0.00  0.00     0.066 H 
ATOM     50  H17 1J4 d   1      46.317   7.839  31.483  0.00  0.00     0.066 H 
ATOM     51  H18 1J4 d   1      47.306   8.307  30.057  0.00  0.00     0.066 H 
ENDBRANCH  47  48
ENDBRANCH   3  47
BRANCH   1  52
ATOM     52  C6  1J4 d   1      50.581  11.208  32.179  0.00  0.00     0.255 C 
ATOM     53  O7  1J4 d   1      51.058  11.352  31.074  0.00  0.00    -0.268 OA
ATOM     54  N8  1J4 d   1      51.345  10.945  33.246  0.00  0.00    -0.352 N 
ATOM     55  H1  1J4 d   1      50.881  10.813  34.122  0.00  0.00     0.163 HD
BRANCH  54  56
ATOM     56  C9  1J4 d   1      52.808  10.834  33.234  0.00  0.00     0.015 C 
ATOM     57  C10 1J4 d   1      53.357  12.010  34.040  0.00  0.00    -0.023 C 
ATOM     58  C11 1J4 d   1      54.858  11.887  34.281  0.00  0.00     0.085 C 
ATOM     59  H3  1J4 d   1      52.843  12.045  35.012  0.00  0.00     0.038 H 
ATOM     60  H4  1J4 d   1      53.161  12.941  33.488  0.00  0.00     0.038 H 
ATOM     61  N12 1J4 d   1      55.196  10.610  34.933  0.00  0.00    -0.075 N 
ATOM     62  H5  1J4 d   1      55.186  12.716  34.926  0.00  0.00     0.076 H 
ATOM     63  H6  1J4 d   1      55.381  11.945  33.315  0.00  0.00     0.076 H 
ATOM     64  C14 1J4 d   1      54.701   9.471  34.133  0.00  0.00     0.085 C 
ATOM     65  H7  1J4 d   1      54.760  10.583  35.841  0.00  0.00     0.279 HD
ATOM     66  C15 1J4 d   1      53.186   9.545  33.956  0.00  0.00    -0.023 C 
ATOM     67  H11 1J4 d   1      54.958   8.532  34.646  0.00  0.00     0.076 H 
ATOM     68  H12 1J4 d   1      55.180   9.491  33.143  0.00  0.00     0.076 H 
ATOM     69  H13 1J4 d   1      52.846   8.683  33.364  0.00  0.00     0.038 H 
ATOM     70  H14 1J4 d   1      52.702   9.525  34.944  0.00  0.00     0.038 H 
ATOM     71  H2  1J4 d   1      53.199  10.840  32.206  0.00  0.00     0.072 H 
BRANCH  61  72
ATOM     72  C13 1J4 d   1      56.662  10.509  35.101  0.00  0.00     0.066 C 
ATOM     73  H8  1J4 d   1      56.910   9.555  35.588  0.00  0.00     0.068 H 
ATOM     74  H9  1J4 d   1      57.018  11.342  35.725  0.00  0.00     0.068 H 
ATOM     75  H10 1J4 d   1      57.148  10.555  34.115  0.00  0.00     0.068 H 
ENDBRANCH  61  72
ENDBRANCH  54  56
ENDBRANCH   1  52
TORSDOF 9
