REMARK  6 active torsions:
REMARK  status: ('A' for Active; 'I' for Inactive)
REMARK    1  A    between atoms: CAX_3  and  NAA_4 
REMARK    2  A    between atoms: CAY_7  and  CAR_8 
REMARK    3  A    between atoms: CAR_8  and  NAU_9 
REMARK       I    between atoms: NAU_9  and  CAV_10 
REMARK       I    between atoms: CAV_10  and  N_12 
REMARK    4  A    between atoms: N_12  and  CA_13 
REMARK    5  A    between atoms: CA_13  and  C_14 
REMARK       I    between atoms: C_14  and  NBD_16 
REMARK    6  A    between atoms: CBC_20  and  CAZ_21 
ROOT
ATOM      1  C   671 d   1       5.277  20.709  18.622  0.00  0.00     0.238 C 
ATOM      2  O   671 d   1       5.011  20.316  19.755  0.00  0.00    -0.272 OA
ATOM      3  NBD 671 d   1       6.524  20.995  18.192  0.00  0.00    -0.342 N 
ATOM      4  CAS 671 d   1       7.769  20.880  18.938  0.00  0.00    -0.002 C 
ATOM      5  CAO 671 d   1       8.802  21.829  18.303  0.00  0.00    -0.048 C 
ATOM      6  CAQ 671 d   1       8.603  21.083  17.046  0.00  0.00    -0.041 C 
ATOM      7  CBC 671 d   1       7.027  21.370  16.840  0.00  0.00     0.041 C 
ATOM      8  H13 671 d   1       8.137  19.844  18.891  0.00  0.00     0.064 H 
ATOM      9  H14 671 d   1       7.601  21.162  19.988  0.00  0.00     0.064 H 
ATOM     10  H15 671 d   1       9.815  21.756  18.726  0.00  0.00     0.035 H 
ATOM     11  H16 671 d   1       8.495  22.885  18.265  0.00  0.00     0.035 H 
ATOM     12  H17 671 d   1       8.816  20.010  17.163  0.00  0.00     0.036 H 
ATOM     13  H18 671 d   1       9.209  21.490  16.223  0.00  0.00     0.036 H 
ATOM     14  H19 671 d   1       6.585  20.791  16.016  0.00  0.00     0.080 H 
ENDROOT
BRANCH   1  15
ATOM     15  CA  671 d   1       4.181  20.773  17.554  0.00  0.00     0.070 C 
ATOM     16  H11 671 d   1       3.913  21.822  17.359  0.00  0.00     0.078 H 
ATOM     17  H12 671 d   1       4.540  20.308  16.624  0.00  0.00     0.078 H 
BRANCH  15  18
ATOM     18  N   671 d   1       3.004  20.043  18.053  0.00  0.00    -0.334 N 
ATOM     19  CAV 671 d   1       2.794  18.723  17.855  0.00  0.00     0.316 C 
ATOM     20  NAU 671 d   1       1.659  18.219  18.382  0.00  0.00    -0.339 N 
ATOM     21  OAB 671 d   1       3.566  18.036  17.184  0.00  0.00    -0.247 OA
ATOM     22  H9  671 d   1       1.060  18.849  18.876  0.00  0.00     0.164 HD
ATOM     23  H10 671 d   1       2.318  20.555  18.570  0.00  0.00     0.164 HD
BRANCH  20  24
ATOM     24  CAR 671 d   1       1.236  16.819  18.287  0.00  0.00     0.021 C 
ATOM     25  H7  671 d   1       0.296  16.750  17.719  0.00  0.00     0.071 H 
ATOM     26  H8  671 d   1       2.014  16.227  17.782  0.00  0.00     0.071 H 
BRANCH  24  27
ATOM     27  CAY 671 d   1       1.041  16.336  19.594  0.00  0.00    -0.040 A 
ATOM     28  CAJ 671 d   1       1.943  16.691  20.592  0.00  0.00    -0.073 A 
ATOM     29  CAH 671 d   1       1.772  16.229  21.893  0.00  0.00    -0.057 A 
ATOM     30  H1  671 d   1       2.784  17.332  20.354  0.00  0.00     0.084 H 
ATOM     31  CAX 671 d   1       0.695  15.412  22.206  0.00  0.00     0.025 A 
ATOM     32  H2  671 d   1       2.482  16.508  22.664  0.00  0.00     0.086 H 
ATOM     33  CAI 671 d   1      -0.215  15.059  21.213  0.00  0.00    -0.057 A 
ATOM     34  CAK 671 d   1      -0.044  15.522  19.910  0.00  0.00    -0.073 A 
ATOM     35  H5  671 d   1      -1.059  14.422  21.454  0.00  0.00     0.086 H 
ATOM     36  H6  671 d   1      -0.757  15.248  19.141  0.00  0.00     0.084 H 
BRANCH  31  37
ATOM     37  NAA 671 d   1       0.540  14.978  23.458  0.00  0.00    -0.399 N 
ATOM     38  H3  671 d   1      -0.257  14.371  23.698  0.00  0.00     0.156 HD
ATOM     39  H4  671 d   1       1.217  15.250  24.185  0.00  0.00     0.156 HD
ENDBRANCH  31  37
ENDBRANCH  24  27
ENDBRANCH  20  24
ENDBRANCH  15  18
ENDBRANCH   1  15
BRANCH   7  40
ATOM     40  CAZ 671 d   1       6.776  22.776  16.704  0.00  0.00    -0.024 A 
ATOM     41  CBB 671 d   1       6.865  23.306  15.397  0.00  0.00    -0.018 A 
ATOM     42  CAN 671 d   1       7.187  22.484  14.309  0.00  0.00    -0.072 A 
ATOM     43  CBA 671 d   1       6.643  24.657  15.145  0.00  0.00    -0.025 A 
ATOM     44  CAE 671 d   1       7.286  22.992  13.011  0.00  0.00    -0.082 A 
ATOM     45  H20 671 d   1       7.364  21.428  14.478  0.00  0.00     0.084 H 
ATOM     46  CAD 671 d   1       7.067  24.344  12.776  0.00  0.00    -0.082 A 
ATOM     47  H21 671 d   1       7.534  22.332  12.188  0.00  0.00     0.083 H 
ATOM     48  CAL 671 d   1       6.741  25.167  13.850  0.00  0.00    -0.072 A 
ATOM     49  H22 671 d   1       7.149  24.750  11.774  0.00  0.00     0.083 H 
ATOM     50  H23 671 d   1       6.560  26.222  13.678  0.00  0.00     0.084 H 
ATOM     51  CAM 671 d   1       6.316  25.516  16.191  0.00  0.00    -0.072 A 
ATOM     52  CAF 671 d   1       6.203  25.018  17.482  0.00  0.00    -0.082 A 
ATOM     53  H24 671 d   1       6.150  26.570  15.998  0.00  0.00     0.084 H 
ATOM     54  CAG 671 d   1       6.417  23.666  17.726  0.00  0.00    -0.074 A 
ATOM     55  H25 671 d   1       5.948  25.683  18.299  0.00  0.00     0.083 H 
ATOM     56  H26 671 d   1       6.303  23.289  18.736  0.00  0.00     0.084 H 
ENDBRANCH   7  40
TORSDOF 6
