REMARK  8 active torsions:
REMARK  status: ('A' for Active; 'I' for Inactive)
REMARK    1  A    between atoms: CAA_1  and  SAT_2 
REMARK    2  A    between atoms: SAT_2  and  CAY_3 
REMARK    3  A    between atoms: CAZ_8  and  CBA_9 
REMARK       I    between atoms: N1_13  and  C_14 
REMARK    4  A    between atoms: C_14  and  CA_16 
REMARK    5  A    between atoms: CA_16  and  N_17 
REMARK       I    between atoms: N_17  and  CAU_18 
REMARK       I    between atoms: CAU_18  and  N2_20 
REMARK    6  A    between atoms: N2_20  and  CAO_21 
REMARK    7  A    between atoms: CAO_21  and  CAX_22 
REMARK    8  A    between atoms: CAW_25  and  N3_26 
ROOT
ATOM      1  CBA 6B4 d   1       7.069  21.496  17.327  0.00  0.00     0.041 C 
ATOM      2  CAP 6B4 d   1       8.592  21.287  17.777  0.00  0.00    -0.041 C 
ATOM      3  CAM 6B4 d   1       8.604  22.128  18.983  0.00  0.00    -0.048 C 
ATOM      4  CAQ 6B4 d   1       7.515  21.197  19.538  0.00  0.00    -0.002 C 
ATOM      5  N1  6B4 d   1       6.408  21.235  18.625  0.00  0.00    -0.342 N 
ATOM      6  C   6B4 d   1       5.149  20.965  18.998  0.00  0.00     0.238 C 
ATOM      7  O   6B4 d   1       4.837  20.665  20.148  0.00  0.00    -0.272 OA
ATOM      8  H8  6B4 d   1       6.772  20.817  16.514  0.00  0.00     0.080 H 
ATOM      9  H9  6B4 d   1       9.299  21.650  17.016  0.00  0.00     0.036 H 
ATOM     10  H10 6B4 d   1       8.811  20.234  18.008  0.00  0.00     0.036 H 
ATOM     11  H11 6B4 d   1       8.284  23.168  18.823  0.00  0.00     0.035 H 
ATOM     12  H12 6B4 d   1       9.550  22.117  19.544  0.00  0.00     0.035 H 
ATOM     13  H13 6B4 d   1       7.194  21.544  20.531  0.00  0.00     0.064 H 
ATOM     14  H14 6B4 d   1       7.902  20.170  19.616  0.00  0.00     0.064 H 
ENDROOT
BRANCH   1  15
ATOM     15  CAZ 6B4 d   1       6.729  22.857  17.028  0.00  0.00    -0.018 A 
ATOM     16  CAY 6B4 d   1       6.581  23.088  15.657  0.00  0.00     0.008 A 
ATOM     17  CAG 6B4 d   1       6.239  24.342  15.158  0.00  0.00    -0.066 A 
ATOM     18  CAE 6B4 d   1       6.002  25.402  16.017  0.00  0.00    -0.082 A 
ATOM     19  H4  6B4 d   1       6.157  24.490  14.087  0.00  0.00     0.085 H 
ATOM     20  CAF 6B4 d   1       6.122  25.194  17.379  0.00  0.00    -0.082 A 
ATOM     21  H5  6B4 d   1       5.728  26.376  15.629  0.00  0.00     0.083 H 
ATOM     22  CAH 6B4 d   1       6.444  23.935  17.877  0.00  0.00    -0.073 A 
ATOM     23  H6  6B4 d   1       5.964  26.019  18.064  0.00  0.00     0.083 H 
ATOM     24  H7  6B4 d   1       6.475  23.784  18.950  0.00  0.00     0.084 H 
BRANCH  16  25
ATOM     25  SAT 6B4 d   1       6.882  21.739  14.518  0.00  0.00    -0.134 SA
BRANCH  25  26
ATOM     26  CAA 6B4 d   1       6.471  22.512  12.968  0.00  0.00    -0.030 C 
ATOM     27  H1  6B4 d   1       6.610  21.790  12.150  0.00  0.00     0.042 H 
ATOM     28  H2  6B4 d   1       7.127  23.380  12.806  0.00  0.00     0.042 H 
ATOM     29  H3  6B4 d   1       5.423  22.844  12.990  0.00  0.00     0.042 H 
ENDBRANCH  25  26
ENDBRANCH  16  25
ENDBRANCH   1  15
BRANCH   6  30
ATOM     30  CA  6B4 d   1       4.114  20.906  17.883  0.00  0.00     0.070 C 
ATOM     31  H15 6B4 d   1       4.534  20.378  17.014  0.00  0.00     0.078 H 
ATOM     32  H16 6B4 d   1       3.828  21.926  17.588  0.00  0.00     0.078 H 
BRANCH  30  33
ATOM     33  N   6B4 d   1       2.936  20.185  18.378  0.00  0.00    -0.334 N 
ATOM     34  CAU 6B4 d   1       2.760  18.872  18.196  0.00  0.00     0.316 C 
ATOM     35  OAC 6B4 d   1       3.558  18.176  17.562  0.00  0.00    -0.247 OA
ATOM     36  N2  6B4 d   1       1.640  18.358  18.704  0.00  0.00    -0.339 N 
ATOM     37  H18 6B4 d   1       1.012  18.972  19.182  0.00  0.00     0.164 HD
ATOM     38  H17 6B4 d   1       2.234  20.698  18.873  0.00  0.00     0.164 HD
BRANCH  36  39
ATOM     39  CAO 6B4 d   1       1.280  16.939  18.599  0.00  0.00     0.021 C 
ATOM     40  H19 6B4 d   1       2.101  16.369  18.139  0.00  0.00     0.071 H 
ATOM     41  H20 6B4 d   1       0.368  16.820  17.996  0.00  0.00     0.071 H 
BRANCH  39  42
ATOM     42  CAX 6B4 d   1       1.059  16.503  19.899  0.00  0.00    -0.040 A 
ATOM     43  CAK 6B4 d   1       2.018  16.777  20.868  0.00  0.00    -0.073 A 
ATOM     44  CAI 6B4 d   1       1.823  16.370  22.179  0.00  0.00    -0.057 A 
ATOM     45  H21 6B4 d   1       2.922  17.311  20.597  0.00  0.00     0.084 H 
ATOM     46  CAW 6B4 d   1       0.663  15.690  22.524  0.00  0.00     0.025 A 
ATOM     47  H22 6B4 d   1       2.574  16.582  22.932  0.00  0.00     0.086 H 
ATOM     48  CAJ 6B4 d   1      -0.302  15.412  21.556  0.00  0.00    -0.057 A 
ATOM     49  CAL 6B4 d   1      -0.105  15.823  20.241  0.00  0.00    -0.073 A 
ATOM     50  H25 6B4 d   1      -1.204  14.876  21.828  0.00  0.00     0.086 H 
ATOM     51  H26 6B4 d   1      -0.855  15.614  19.487  0.00  0.00     0.084 H 
BRANCH  46  52
ATOM     52  N3  6B4 d   1       0.490  15.308  23.787  0.00  0.00    -0.399 N 
ATOM     53  H23 6B4 d   1      -0.365  14.803  24.060  0.00  0.00     0.156 HD
ATOM     54  H24 6B4 d   1       1.211  15.518  24.492  0.00  0.00     0.156 HD
ENDBRANCH  46  52
ENDBRANCH  39  42
ENDBRANCH  36  39
ENDBRANCH  30  33
ENDBRANCH   6  30
TORSDOF 8
