REMARK  12 active torsions:
REMARK  status: ('A' for Active; 'I' for Inactive)
REMARK    1  A    between atoms: CAB_1  and  SAW_2 
REMARK    2  A    between atoms: SAW_2  and  CBB_3 
REMARK    3  A    between atoms: CBC_8  and  CBE_9 
REMARK       I    between atoms: NBF_13  and  C_14 
REMARK    4  A    between atoms: C_14  and  CA_16 
REMARK    5  A    between atoms: CA_16  and  CB_17 
REMARK    6  A    between atoms: CA_16  and  N_21 
REMARK    7  A    between atoms: CB_17  and  CG_18 
REMARK    8  A    between atoms: CG_18  and  SD_19 
REMARK    9  A    between atoms: SD_19  and  CE_20 
REMARK       I    between atoms: N_21  and  CAX_22 
REMARK       I    between atoms: CAX_22  and  NAT_24 
REMARK   10  A    between atoms: NAT_24  and  CAP_25 
REMARK   11  A    between atoms: CAP_25  and  CBA_26 
REMARK   12  A    between atoms: CAZ_29  and  NAC_30 
ROOT
ATOM      1  CA  7I6 d   1       4.033  20.731  17.810  0.00  0.00     0.092 C 
ATOM      2  H15 7I6 d   1       4.386  20.620  16.774  0.00  0.00     0.087 H 
ENDROOT
BRANCH   1   3
ATOM      3  C   7I6 d   1       5.173  20.592  18.815  0.00  0.00     0.243 C 
ATOM      4  NBF 7I6 d   1       6.404  20.934  18.403  0.00  0.00    -0.342 N 
ATOM      5  CBE 7I6 d   1       6.826  21.276  16.985  0.00  0.00     0.041 C 
ATOM      6  CAS 7I6 d   1       7.545  20.804  19.314  0.00  0.00    -0.002 C 
ATOM      7  CAQ 7I6 d   1       8.318  20.870  17.066  0.00  0.00    -0.041 C 
ATOM      8  H8  7I6 d   1       6.279  20.657  16.259  0.00  0.00     0.080 H 
ATOM      9  CAN 7I6 d   1       8.764  21.274  18.466  0.00  0.00    -0.048 C 
ATOM     10  H9  7I6 d   1       8.905  21.404  16.305  0.00  0.00     0.036 H 
ATOM     11  H10 7I6 d   1       8.431  19.785  16.923  0.00  0.00     0.036 H 
ATOM     12  H11 7I6 d   1       8.915  22.361  18.544  0.00  0.00     0.035 H 
ATOM     13  H12 7I6 d   1       9.687  20.753  18.762  0.00  0.00     0.035 H 
ATOM     14  H13 7I6 d   1       7.414  21.445  20.198  0.00  0.00     0.064 H 
ATOM     15  H14 7I6 d   1       7.672  19.759  19.634  0.00  0.00     0.064 H 
ATOM     16  O   7I6 d   1       4.976  20.227  19.956  0.00  0.00    -0.271 OA
BRANCH   5  17
ATOM     17  CBC 7I6 d   1       6.674  22.666  16.603  0.00  0.00    -0.018 A 
ATOM     18  CBB 7I6 d   1       6.732  23.065  15.256  0.00  0.00     0.008 A 
ATOM     19  CAH 7I6 d   1       6.598  24.396  14.917  0.00  0.00    -0.066 A 
ATOM     20  CAF 7I6 d   1       6.446  25.333  15.907  0.00  0.00    -0.082 A 
ATOM     21  H4  7I6 d   1       6.613  24.699  13.876  0.00  0.00     0.085 H 
ATOM     22  CAG 7I6 d   1       6.418  24.961  17.224  0.00  0.00    -0.082 A 
ATOM     23  H5  7I6 d   1       6.347  26.380  15.643  0.00  0.00     0.083 H 
ATOM     24  CAI 7I6 d   1       6.515  23.659  17.546  0.00  0.00    -0.073 A 
ATOM     25  H6  7I6 d   1       6.318  25.710  18.001  0.00  0.00     0.083 H 
ATOM     26  H7  7I6 d   1       6.466  23.378  18.592  0.00  0.00     0.084 H 
BRANCH  18  27
ATOM     27  SAW 7I6 d   1       6.880  21.819  14.046  0.00  0.00    -0.134 SA
BRANCH  27  28
ATOM     28  CAB 7I6 d   1       6.787  22.637  12.522  0.00  0.00    -0.030 C 
ATOM     29  H1  7I6 d   1       6.874  21.904  11.707  0.00  0.00     0.042 H 
ATOM     30  H2  7I6 d   1       7.606  23.368  12.447  0.00  0.00     0.042 H 
ATOM     31  H3  7I6 d   1       5.822  23.159  12.444  0.00  0.00     0.042 H 
ENDBRANCH  27  28
ENDBRANCH  18  27
ENDBRANCH   5  17
ENDBRANCH   1   3
BRANCH   1  32
ATOM     32  CB  7I6 d   1       3.392  22.107  18.068  0.00  0.00    -0.030 C 
ATOM     33  H16 7I6 d   1       4.049  22.910  17.703  0.00  0.00     0.037 H 
ATOM     34  H17 7I6 d   1       3.205  22.247  19.143  0.00  0.00     0.037 H 
BRANCH  32  35
ATOM     35  CG  7I6 d   1       2.078  22.107  17.298  0.00  0.00    -0.021 C 
ATOM     36  H18 7I6 d   1       1.253  21.913  17.999  0.00  0.00     0.049 H 
ATOM     37  H19 7I6 d   1       2.109  21.311  16.539  0.00  0.00     0.049 H 
BRANCH  35  38
ATOM     38  SD  7I6 d   1       1.794  23.668  16.488  0.00  0.00    -0.173 SA
BRANCH  38  39
ATOM     39  CE  7I6 d   1       1.701  24.338  18.015  0.00  0.00    -0.035 C 
ATOM     40  H20 7I6 d   1       1.512  25.418  17.930  0.00  0.00     0.041 H 
ATOM     41  H21 7I6 d   1       2.650  24.172  18.547  0.00  0.00     0.041 H 
ATOM     42  H22 7I6 d   1       0.880  23.865  18.574  0.00  0.00     0.041 H 
ENDBRANCH  38  39
ENDBRANCH  35  38
ENDBRANCH  32  35
ENDBRANCH   1  32
BRANCH   1  43
ATOM     43  N   7I6 d   1       3.030  19.786  18.132  0.00  0.00    -0.330 N 
ATOM     44  CAX 7I6 d   1       2.961  18.622  17.791  0.00  0.00     0.317 C 
ATOM     45  OAD 7I6 d   1       3.741  18.067  17.060  0.00  0.00    -0.247 OA
ATOM     46  NAT 7I6 d   1       1.809  18.203  18.374  0.00  0.00    -0.339 N 
ATOM     47  H24 7I6 d   1       1.326  18.919  18.879  0.00  0.00     0.164 HD
ATOM     48  H23 7I6 d   1       2.286  20.117  18.712  0.00  0.00     0.165 HD
BRANCH  46  49
ATOM     49  CAP 7I6 d   1       1.184  16.986  18.401  0.00  0.00     0.021 C 
ATOM     50  H25 7I6 d   1       1.764  16.270  17.800  0.00  0.00     0.071 H 
ATOM     51  H26 7I6 d   1       0.175  17.090  17.974  0.00  0.00     0.071 H 
BRANCH  49  52
ATOM     52  CBA 7I6 d   1       1.076  16.489  19.757  0.00  0.00    -0.040 A 
ATOM     53  CAL 7I6 d   1       2.092  16.671  20.685  0.00  0.00    -0.073 A 
ATOM     54  CAJ 7I6 d   1       1.974  16.138  21.930  0.00  0.00    -0.057 A 
ATOM     55  H27 7I6 d   1       2.977  17.237  20.418  0.00  0.00     0.084 H 
ATOM     56  CAZ 7I6 d   1       0.861  15.461  22.338  0.00  0.00     0.025 A 
ATOM     57  H28 7I6 d   1       2.796  16.255  22.626  0.00  0.00     0.086 H 
ATOM     58  CAK 7I6 d   1      -0.165  15.256  21.400  0.00  0.00    -0.057 A 
ATOM     59  CAM 7I6 d   1      -0.012  15.750  20.130  0.00  0.00    -0.073 A 
ATOM     60  H31 7I6 d   1      -1.063  14.716  21.676  0.00  0.00     0.086 H 
ATOM     61  H32 7I6 d   1      -0.782  15.547  19.395  0.00  0.00     0.084 H 
BRANCH  56  62
ATOM     62  NAC 7I6 d   1       0.765  14.963  23.592  0.00  0.00    -0.399 N 
ATOM     63  H29 7I6 d   1      -0.083  14.455  23.881  0.00  0.00     0.156 HD
ATOM     64  H30 7I6 d   1       1.540  15.092  24.258  0.00  0.00     0.156 HD
ENDBRANCH  56  62
ENDBRANCH  49  52
ENDBRANCH  46  49
ENDBRANCH   1  43
TORSDOF 12
