REMARK  6 active torsions:
REMARK  status: ('A' for Active; 'I' for Inactive)
REMARK    1  A    between atoms: CAC_3  and  NAG_4 
REMARK    2  A    between atoms: CAF_7  and  CAH_8 
REMARK    3  A    between atoms: CAH_8  and  NAI_9 
REMARK       I    between atoms: NAI_9  and  CAJ_10 
REMARK       I    between atoms: CAJ_10  and  N_12 
REMARK    4  A    between atoms: N_12  and  CA_13 
REMARK    5  A    between atoms: CA_13  and  C_14 
REMARK       I    between atoms: C_14  and  NAP_16 
REMARK    6  A    between atoms: CAT_20  and  CAU_21 
ROOT
ATOM      1  CA  728 d   1       3.925  20.539  17.538  0.00  0.00     0.070 C 
ATOM      2  H11 728 d   1       3.705  21.577  17.248  0.00  0.00     0.078 H 
ATOM      3  H12 728 d   1       4.296  19.985  16.663  0.00  0.00     0.078 H 
ENDROOT
BRANCH   1   4
ATOM      4  N   728 d   1       2.719  19.904  18.049  0.00  0.00    -0.334 N 
ATOM      5  CAJ 728 d   1       2.558  18.607  17.879  0.00  0.00     0.316 C 
ATOM      6  NAI 728 d   1       1.432  18.101  18.373  0.00  0.00    -0.339 N 
ATOM      7  OAL 728 d   1       3.345  17.959  17.185  0.00  0.00    -0.247 OA
ATOM      8  H9  728 d   1       0.793  18.719  18.832  0.00  0.00     0.164 HD
ATOM      9  H10 728 d   1       2.023  20.444  18.522  0.00  0.00     0.164 HD
BRANCH   6  10
ATOM     10  CAH 728 d   1       1.083  16.682  18.277  0.00  0.00     0.021 C 
ATOM     11  H7  728 d   1       0.149  16.558  17.709  0.00  0.00     0.071 H 
ATOM     12  H8  728 d   1       1.891  16.124  17.781  0.00  0.00     0.071 H 
BRANCH  10  13
ATOM     13  CAF 728 d   1       0.897  16.178  19.728  0.00  0.00    -0.040 A 
ATOM     14  CAA 728 d   1       1.784  16.536  20.750  0.00  0.00    -0.073 A 
ATOM     15  CAB 728 d   1       1.592  16.066  22.054  0.00  0.00    -0.057 A 
ATOM     16  H1  728 d   1       2.626  17.182  20.530  0.00  0.00     0.084 H 
ATOM     17  CAC 728 d   1       0.507  15.242  22.356  0.00  0.00     0.025 A 
ATOM     18  H2  728 d   1       2.291  16.344  22.835  0.00  0.00     0.086 H 
ATOM     19  CAD 728 d   1      -0.376  14.887  21.338  0.00  0.00    -0.057 A 
ATOM     20  CAE 728 d   1      -0.181  15.354  20.038  0.00  0.00    -0.073 A 
ATOM     21  H5  728 d   1      -1.220  14.243  21.558  0.00  0.00     0.086 H 
ATOM     22  H6  728 d   1      -0.879  15.071  19.258  0.00  0.00     0.084 H 
BRANCH  17  23
ATOM     23  NAG 728 d   1       0.319  14.790  23.603  0.00  0.00    -0.399 N 
ATOM     24  H3  728 d   1      -0.485  14.182  23.815  0.00  0.00     0.156 HD
ATOM     25  H4  728 d   1       0.979  15.050  24.350  0.00  0.00     0.156 HD
ENDBRANCH  17  23
ENDBRANCH  10  13
ENDBRANCH   6  10
ENDBRANCH   1   4
BRANCH   1  26
ATOM     26  C   728 d   1       4.986  20.523  18.653  0.00  0.00     0.238 C 
ATOM     27  O   728 d   1       4.749  20.087  19.785  0.00  0.00    -0.272 OA
ATOM     28  NAP 728 d   1       6.215  20.819  18.285  0.00  0.00    -0.342 N 
ATOM     29  CAQ 728 d   1       7.410  20.681  19.083  0.00  0.00    -0.002 C 
ATOM     30  CAT 728 d   1       6.628  21.151  16.929  0.00  0.00     0.041 C 
ATOM     31  CAR 728 d   1       8.362  21.743  18.536  0.00  0.00    -0.048 C 
ATOM     32  H13 728 d   1       7.841  19.676  18.966  0.00  0.00     0.064 H 
ATOM     33  H14 728 d   1       7.191  20.865  20.145  0.00  0.00     0.064 H 
ATOM     34  CAS 728 d   1       8.200  21.006  17.184  0.00  0.00    -0.041 C 
ATOM     35  H15 728 d   1       9.377  21.724  18.960  0.00  0.00     0.035 H 
ATOM     36  H16 728 d   1       7.975  22.773  18.556  0.00  0.00     0.035 H 
ATOM     37  H17 728 d   1       8.499  19.950  17.263  0.00  0.00     0.036 H 
ATOM     38  H18 728 d   1       8.783  21.493  16.388  0.00  0.00     0.036 H 
ATOM     39  H19 728 d   1       6.203  20.548  16.113  0.00  0.00     0.080 H 
BRANCH  30  40
ATOM     40  CAU 728 d   1       6.355  22.684  16.832  0.00  0.00    -0.018 A 
ATOM     41  CAX 728 d   1       5.971  23.572  17.853  0.00  0.00    -0.073 A 
ATOM     42  CAW 728 d   1       5.692  24.906  17.563  0.00  0.00    -0.082 A 
ATOM     43  H20 728 d   1       5.891  23.216  18.874  0.00  0.00     0.084 H 
ATOM     44  CAV 728 d   1       5.700  25.373  16.257  0.00  0.00    -0.082 A 
ATOM     45  H21 728 d   1       5.465  25.591  18.372  0.00  0.00     0.083 H 
ATOM     46  CAY 728 d   1       6.009  24.502  15.225  0.00  0.00    -0.066 A 
ATOM     47  H22 728 d   1       5.466  26.410  16.046  0.00  0.00     0.083 H 
ATOM     48  CAZ 728 d   1       6.307  23.169  15.505  0.00  0.00     0.019 A 
ATOM     49  H23 728 d   1       6.019  24.857  14.201  0.00  0.00     0.085 H 
ATOM     50 BR   728 d   1       6.705  22.065  13.997  0.00  0.00    -0.050 Br
ENDBRANCH  30  40
ENDBRANCH   1  26
TORSDOF 6
