REMARK  8 active torsions:
REMARK  status: ('A' for Active; 'I' for Inactive)
REMARK    1  A    between atoms: CAA_1  and  OAT_2 
REMARK    2  A    between atoms: OAT_2  and  CAY_3 
REMARK    3  A    between atoms: CAZ_8  and  CBA_9 
REMARK       I    between atoms: NBB_13  and  C_14 
REMARK    4  A    between atoms: C_14  and  CA_16 
REMARK    5  A    between atoms: CA_16  and  N_17 
REMARK       I    between atoms: N_17  and  CAU_18 
REMARK       I    between atoms: CAU_18  and  NAS_20 
REMARK    6  A    between atoms: NAS_20  and  CAO_21 
REMARK    7  A    between atoms: CAO_21  and  CAX_22 
REMARK    8  A    between atoms: CAW_25  and  NAB_26 
ROOT
ATOM      1  CBA 7B7 d   1       6.901  21.245  17.133  0.00  0.00     0.043 C 
ATOM      2  CAP 7B7 d   1       8.451  20.957  17.264  0.00  0.00    -0.041 C 
ATOM      3  CAM 7B7 d   1       8.713  21.368  18.683  0.00  0.00    -0.048 C 
ATOM      4  CAQ 7B7 d   1       7.583  20.708  19.463  0.00  0.00    -0.002 C 
ATOM      5  NBB 7B7 d   1       6.445  20.865  18.544  0.00  0.00    -0.342 N 
ATOM      6  C   7B7 d   1       5.186  20.527  18.891  0.00  0.00     0.238 C 
ATOM      7  O   7B7 d   1       4.946  20.090  20.042  0.00  0.00    -0.272 OA
ATOM      8  H8  7B7 d   1       6.442  20.600  16.369  0.00  0.00     0.080 H 
ATOM      9  H9  7B7 d   1       9.034  21.564  16.556  0.00  0.00     0.036 H 
ATOM     10  H10 7B7 d   1       8.677  19.892  17.106  0.00  0.00     0.036 H 
ATOM     11  H11 7B7 d   1       8.675  22.462  18.788  0.00  0.00     0.035 H 
ATOM     12  H12 7B7 d   1       9.692  21.000  19.024  0.00  0.00     0.035 H 
ATOM     13  H13 7B7 d   1       7.401  21.225  20.417  0.00  0.00     0.064 H 
ATOM     14  H14 7B7 d   1       7.797  19.646  19.656  0.00  0.00     0.064 H 
ENDROOT
BRANCH   1  15
ATOM     15  CAZ 7B7 d   1       6.577  22.635  16.834  0.00  0.00    -0.002 A 
ATOM     16  CAY 7B7 d   1       6.581  23.012  15.514  0.00  0.00     0.076 A 
ATOM     17  CAG 7B7 d   1       6.324  24.319  15.108  0.00  0.00    -0.050 A 
ATOM     18  CAE 7B7 d   1       6.037  25.268  16.089  0.00  0.00    -0.080 A 
ATOM     19  H4  7B7 d   1       6.346  24.591  14.059  0.00  0.00     0.087 H 
ATOM     20  CAF 7B7 d   1       6.008  24.943  17.440  0.00  0.00    -0.082 A 
ATOM     21  H5  7B7 d   1       5.830  26.289  15.789  0.00  0.00     0.083 H 
ATOM     22  CAH 7B7 d   1       6.268  23.616  17.806  0.00  0.00    -0.072 A 
ATOM     23  H6  7B7 d   1       5.790  25.695  18.189  0.00  0.00     0.083 H 
ATOM     24  H7  7B7 d   1       6.232  23.336  18.852  0.00  0.00     0.084 H 
BRANCH  16  25
ATOM     25  OAT 7B7 d   1       6.848  22.014  14.597  0.00  0.00    -0.355 OA
BRANCH  25  26
ATOM     26  CAA 7B7 d   1       6.716  22.306  13.162  0.00  0.00     0.010 C 
ATOM     27  H1  7B7 d   1       6.965  21.406  12.580  0.00  0.00     0.066 H 
ATOM     28  H2  7B7 d   1       7.403  23.120  12.889  0.00  0.00     0.066 H 
ATOM     29  H3  7B7 d   1       5.682  22.610  12.943  0.00  0.00     0.066 H 
ENDBRANCH  25  26
ENDBRANCH  16  25
ENDBRANCH   1  15
BRANCH   6  30
ATOM     30  CA  7B7 d   1       4.126  20.644  17.801  0.00  0.00     0.070 C 
ATOM     31  H15 7B7 d   1       4.492  20.151  16.889  0.00  0.00     0.078 H 
ATOM     32  H16 7B7 d   1       3.939  21.708  17.593  0.00  0.00     0.078 H 
BRANCH  30  33
ATOM     33  N   7B7 d   1       2.886  20.017  18.214  0.00  0.00    -0.334 N 
ATOM     34  CAU 7B7 d   1       2.730  18.705  18.001  0.00  0.00     0.316 C 
ATOM     35  OAC 7B7 d   1       3.518  18.021  17.358  0.00  0.00    -0.247 OA
ATOM     36  NAS 7B7 d   1       1.580  18.187  18.490  0.00  0.00    -0.339 N 
ATOM     37  H18 7B7 d   1       0.932  18.835  18.892  0.00  0.00     0.164 HD
ATOM     38  H17 7B7 d   1       2.163  20.553  18.649  0.00  0.00     0.164 HD
BRANCH  36  39
ATOM     39  CAO 7B7 d   1       1.193  16.810  18.493  0.00  0.00     0.021 C 
ATOM     40  H19 7B7 d   1       1.988  16.207  18.030  0.00  0.00     0.071 H 
ATOM     41  H20 7B7 d   1       0.262  16.692  17.919  0.00  0.00     0.071 H 
BRANCH  39  42
ATOM     42  CAX 7B7 d   1       0.976  16.354  19.868  0.00  0.00    -0.040 A 
ATOM     43  CAK 7B7 d   1      -0.079  15.543  20.192  0.00  0.00    -0.073 A 
ATOM     44  CAI 7B7 d   1      -0.284  15.108  21.500  0.00  0.00    -0.057 A 
ATOM     45  H21 7B7 d   1      -0.769  15.233  19.415  0.00  0.00     0.084 H 
ATOM     46  CAW 7B7 d   1       0.642  15.404  22.537  0.00  0.00     0.025 A 
ATOM     47  H22 7B7 d   1      -1.171  14.530  21.732  0.00  0.00     0.086 H 
ATOM     48  CAJ 7B7 d   1       1.782  16.148  22.213  0.00  0.00    -0.057 A 
ATOM     49  CAL 7B7 d   1       1.919  16.613  20.899  0.00  0.00    -0.073 A 
ATOM     50  H25 7B7 d   1       2.539  16.359  22.959  0.00  0.00     0.086 H 
ATOM     51  H26 7B7 d   1       2.794  17.204  20.655  0.00  0.00     0.084 H 
BRANCH  46  52
ATOM     52  NAB 7B7 d   1       0.484  14.899  23.797  0.00  0.00    -0.399 N 
ATOM     53  H23 7B7 d   1       1.168  15.127  24.533  0.00  0.00     0.156 HD
ATOM     54  H24 7B7 d   1      -0.319  14.290  24.011  0.00  0.00     0.156 HD
ENDBRANCH  46  52
ENDBRANCH  39  42
ENDBRANCH  36  39
ENDBRANCH  30  33
ENDBRANCH   6  30
TORSDOF 8
