REMARK  11 active torsions:
REMARK  status: ('A' for Active; 'I' for Inactive)
REMARK    1  A    between atoms: C20_3  and  C21_4 
REMARK    2  A    between atoms: C17_7  and  C16_8 
REMARK    3  A    between atoms: C14_12  and  C1_13 
REMARK    4  A    between atoms: C1_13  and  O1_14 
REMARK    5  A    between atoms: C1_13  and  C2_15 
REMARK    6  A    between atoms: C2_15  and  C3_16 
REMARK    7  A    between atoms: C3_16  and  C4_17 
REMARK    8  A    between atoms: C4_17  and  C5_18 
REMARK    9  A    between atoms: C5_18  and  C6_19 
REMARK   10  A    between atoms: C6_19  and  C7_20 
REMARK   11  A    between atoms: C7_20  and  C8_21 
ROOT
ATOM      1  C2  BR1 d   1      50.928 -19.574 -35.509  0.00  0.00    -0.034 C 
ATOM      2  H10 BR1 d   1      50.768 -18.915 -36.375  0.00  0.00     0.037 H 
ATOM      3  H11 BR1 d   1      50.353 -19.197 -34.650  0.00  0.00     0.037 H 
ENDROOT
BRANCH   1   4
ATOM      4  C1  BR1 d   1      52.456 -19.564 -35.140  0.00  0.00     0.099 C 
ATOM      5  H8  BR1 d   1      53.047 -19.902 -36.004  0.00  0.00     0.096 H 
BRANCH   4   6
ATOM      6  C14 BR1 d   1      52.805 -18.134 -34.807  0.00  0.00     0.174 A 
ATOM      7  O2  BR1 d   1      51.934 -17.090 -35.028  0.00  0.00    -0.289 OA
ATOM      8  C16 BR1 d   1      52.593 -16.014 -34.578  0.00  0.00     0.123 A 
ATOM      9  C15 BR1 d   1      53.850 -16.345 -34.127  0.00  0.00     0.040 A 
ATOM     10  N1  BR1 d   1      53.951 -17.710 -34.265  0.00  0.00    -0.235 NA
ATOM     11  H7  BR1 d   1      54.609 -15.666 -33.740  0.00  0.00     0.119 H 
BRANCH   8  12
ATOM     12  C17 BR1 d   1      52.080 -14.684 -34.658  0.00  0.00     0.091 A 
ATOM     13  C18 BR1 d   1      50.845 -14.436 -35.300  0.00  0.00    -0.052 A 
ATOM     14  C19 BR1 d   1      50.367 -13.114 -35.378  0.00  0.00    -0.074 A 
ATOM     15  H1  BR1 d   1      50.274 -15.253 -35.726  0.00  0.00     0.087 H 
ATOM     16  C20 BR1 d   1      51.189 -12.118 -34.839  0.00  0.00    -0.044 A 
ATOM     17  H2  BR1 d   1      49.411 -12.880 -35.832  0.00  0.00     0.084 H 
ATOM     18  C22 BR1 d   1      52.429 -12.441 -34.213  0.00  0.00     0.009 A 
ATOM     19  N2  BR1 d   1      52.879 -13.701 -34.143  0.00  0.00    -0.258 NA
ATOM     20  H6  BR1 d   1      53.024 -11.644 -33.782  0.00  0.00     0.115 H 
BRANCH  16  21
ATOM     21  C21 BR1 d   1      50.878 -10.671 -34.921  0.00  0.00    -0.050 C 
ATOM     22  H3  BR1 d   1      51.674 -10.096 -34.425  0.00  0.00     0.033 H 
ATOM     23  H4  BR1 d   1      49.918 -10.473 -34.422  0.00  0.00     0.033 H 
ATOM     24  H5  BR1 d   1      50.811 -10.370 -35.977  0.00  0.00     0.033 H 
ENDBRANCH  16  21
ENDBRANCH   8  12
ENDBRANCH   4   6
BRANCH   4  25
ATOM     25  O1  BR1 d   1      52.737 -20.415 -34.026  0.00  0.00    -0.387 OA
ATOM     26  H9  BR1 d   1      53.661 -20.362 -33.814  0.00  0.00     0.210 HD
ENDBRANCH   4  25
ENDBRANCH   1   4
BRANCH   1  27
ATOM     27  C3  BR1 d   1      50.419 -21.008 -35.866  0.00  0.00    -0.062 C 
ATOM     28  H12 BR1 d   1      50.543 -21.680 -35.004  0.00  0.00     0.033 H 
ATOM     29  H13 BR1 d   1      50.979 -21.407 -36.725  0.00  0.00     0.033 H 
BRANCH  27  30
ATOM     30  C4  BR1 d   1      48.923 -20.869 -36.223  0.00  0.00    -0.065 C 
ATOM     31  H14 BR1 d   1      48.620 -21.707 -36.868  0.00  0.00     0.033 H 
ATOM     32  H15 BR1 d   1      48.759 -19.920 -36.754  0.00  0.00     0.033 H 
BRANCH  30  33
ATOM     33  C5  BR1 d   1      48.094 -20.886 -34.947  0.00  0.00    -0.065 C 
ATOM     34  H16 BR1 d   1      48.247 -19.961 -34.372  0.00  0.00     0.033 H 
ATOM     35  H17 BR1 d   1      48.358 -21.753 -34.324  0.00  0.00     0.033 H 
BRANCH  33  36
ATOM     36  C6  BR1 d   1      46.645 -20.988 -35.431  0.00  0.00    -0.061 C 
ATOM     37  H18 BR1 d   1      46.547 -21.759 -36.209  0.00  0.00     0.033 H 
ATOM     38  H19 BR1 d   1      46.297 -20.022 -35.826  0.00  0.00     0.033 H 
BRANCH  36  39
ATOM     39  C7  BR1 d   1      45.855 -21.379 -34.174  0.00  0.00    -0.041 C 
ATOM     40  H20 BR1 d   1      46.284 -20.835 -33.320  0.00  0.00     0.040 H 
ATOM     41  H21 BR1 d   1      45.977 -22.461 -34.019  0.00  0.00     0.040 H 
BRANCH  39  42
ATOM     42  C8  BR1 d   1      44.450 -21.094 -34.220  0.00  0.00    -0.058 A 
ATOM     43  C9  BR1 d   1      43.717 -20.747 -35.368  0.00  0.00    -0.077 A 
ATOM     44  C10 BR1 d   1      42.351 -20.446 -35.272  0.00  0.00    -0.082 A 
ATOM     45  H22 BR1 d   1      44.210 -20.712 -36.333  0.00  0.00     0.084 H 
ATOM     46  C11 BR1 d   1      41.682 -20.476 -34.045  0.00  0.00    -0.083 A 
ATOM     47  H23 BR1 d   1      41.802 -20.184 -36.169  0.00  0.00     0.083 H 
ATOM     48  C12 BR1 d   1      42.398 -20.829 -32.900  0.00  0.00    -0.082 A 
ATOM     49  H24 BR1 d   1      40.628 -20.230 -33.984  0.00  0.00     0.083 H 
ATOM     50  C13 BR1 d   1      43.757 -21.145 -32.995  0.00  0.00    -0.077 A 
ATOM     51  H25 BR1 d   1      41.901 -20.858 -31.937  0.00  0.00     0.083 H 
ATOM     52  H26 BR1 d   1      44.293 -21.438 -32.099  0.00  0.00     0.084 H 
ENDBRANCH  39  42
ENDBRANCH  36  39
ENDBRANCH  33  36
ENDBRANCH  30  33
ENDBRANCH  27  30
ENDBRANCH   1  27
TORSDOF 11
