REMARK  9 active torsions:
REMARK  status: ('A' for Active; 'I' for Inactive)
REMARK    1  A    between atoms: C1_1  and  C2_2 
REMARK    2  A    between atoms: C2_2  and  C3_3 
REMARK    3  A    between atoms: C2_2  and  O4_4 
REMARK    4  A    between atoms: C2_2  and  C5_5 
REMARK    5  A    between atoms: C5_5  and  N6_6 
REMARK    6  A    between atoms: C8_8  and  C11_11 
REMARK    7  A    between atoms: C22_22  and  C24_24 
REMARK    8  A    between atoms: N28_28  and  C29_29 
REMARK    9  A    between atoms: C29_29  and  C30_30 
ROOT
ATOM      1  C11 1JV d   1      17.395  62.375  22.506  0.00  0.00    -0.020 A 
ATOM      2  C12 1JV d   1      18.521  62.935  21.898  0.00  0.00    -0.071 A 
ATOM      3  C13 1JV d   1      19.764  62.343  22.046  0.00  0.00    -0.067 A 
ATOM      4  C14 1JV d   1      19.943  61.182  22.793  0.00  0.00     0.027 A 
ATOM      5  C15 1JV d   1      18.814  60.630  23.411  0.00  0.00     0.082 A 
ATOM      6  O16 1JV d   1      18.956  59.525  24.156  0.00  0.00    -0.350 OA
ATOM      7  C17 1JV d   1      19.738  59.698  25.310  0.00  0.00     0.030 C 
ATOM      8  C18 1JV d   1      21.067  59.032  25.009  0.00  0.00    -0.012 C 
ATOM      9  C19 1JV d   1      21.808  59.754  23.935  0.00  0.00     0.017 A 
ATOM     10  C20 1JV d   1      21.349  60.630  22.959  0.00  0.00     0.084 A 
ATOM     11  N21 1JV d   1      22.361  61.052  22.214  0.00  0.00    -0.236 NA
ATOM     12  C22 1JV d   1      23.553  60.595  22.416  0.00  0.00     0.146 A 
ATOM     13  S23 1JV d   1      23.523  59.478  23.725  0.00  0.00    -0.069 SA
ATOM     14  C34 1JV d   1      17.566  61.220  23.270  0.00  0.00    -0.039 A 
ATOM     15  H12 1JV d   1      18.421  63.838  21.307  0.00  0.00     0.084 H 
ATOM     16  H13 1JV d   1      20.623  62.797  21.566  0.00  0.00     0.085 H 
ATOM     17  H14 1JV d   1      19.256  59.219  26.175  0.00  0.00     0.075 H 
ATOM     18  H15 1JV d   1      19.884  60.768  25.518  0.00  0.00     0.075 H 
ATOM     19  H16 1JV d   1      20.883  57.998  24.683  0.00  0.00     0.044 H 
ATOM     20  H17 1JV d   1      21.679  59.025  25.923  0.00  0.00     0.044 H 
ATOM     21  H21 1JV d   1      16.709  60.776  23.762  0.00  0.00     0.089 H 
ENDROOT
BRANCH   1  22
ATOM     22  C8  1JV d   1      16.032  62.984  22.392  0.00  0.00     0.011 A 
ATOM     23  C7  1JV d   1      14.943  62.526  23.063  0.00  0.00     0.011 A 
ATOM     24  N6  1JV d   1      13.873  63.287  22.744  0.00  0.00    -0.278 N 
ATOM     25  H10 1JV d   1      14.934  61.680  23.749  0.00  0.00     0.115 H 
ATOM     26  N10 1JV d   1      14.325  64.301  21.880  0.00  0.00    -0.184 NA
ATOM     27  C9  1JV d   1      15.609  64.125  21.665  0.00  0.00     0.034 A 
ATOM     28  H11 1JV d   1      16.241  64.749  21.035  0.00  0.00     0.118 H 
BRANCH  24  29
ATOM     29  C5  1JV d   1      12.499  63.107  23.266  0.00  0.00     0.044 C 
ATOM     30  H8  1JV d   1      12.584  63.005  24.358  0.00  0.00     0.071 H 
ATOM     31  H9  1JV d   1      11.944  64.026  23.026  0.00  0.00     0.071 H 
BRANCH  29  32
ATOM     32  C2  1JV d   1      11.632  61.916  22.769  0.00  0.00     0.068 C 
BRANCH  32  33
ATOM     33  C1  1JV d   1      10.794  62.286  21.536  0.00  0.00    -0.047 C 
ATOM     34  H1  1JV d   1      11.463  62.572  20.711  0.00  0.00     0.031 H 
ATOM     35  H2  1JV d   1      10.133  63.130  21.782  0.00  0.00     0.031 H 
ATOM     36  H3  1JV d   1      10.186  61.421  21.233  0.00  0.00     0.031 H 
ENDBRANCH  32  33
BRANCH  32  37
ATOM     37  C3  1JV d   1      12.407  60.642  22.441  0.00  0.00    -0.047 C 
ATOM     38  H4  1JV d   1      13.018  60.351  23.308  0.00  0.00     0.031 H 
ATOM     39  H5  1JV d   1      13.061  60.823  21.575  0.00  0.00     0.031 H 
ATOM     40  H6  1JV d   1      11.700  59.834  22.203  0.00  0.00     0.031 H 
ENDBRANCH  32  37
BRANCH  32  41
ATOM     41  O4  1JV d   1      10.741  61.550  23.823  0.00  0.00    -0.389 OA
ATOM     42  H7  1JV d   1      10.224  62.306  24.076  0.00  0.00     0.210 HD
ENDBRANCH  32  41
ENDBRANCH  29  32
ENDBRANCH  24  29
ENDBRANCH   1  22
BRANCH  12  43
ATOM     43  C24 1JV d   1      24.773  60.914  21.682  0.00  0.00     0.183 A 
ATOM     44  N25 1JV d   1      25.935  60.300  21.823  0.00  0.00    -0.218 NA
ATOM     45  C26 1JV d   1      26.815  60.845  20.985  0.00  0.00     0.108 A 
ATOM     46  N27 1JV d   1      26.246  61.817  20.331  0.00  0.00    -0.164 NA
ATOM     47  H18 1JV d   1      27.850  60.527  20.865  0.00  0.00     0.149 H 
ATOM     48  N28 1JV d   1      24.914  61.890  20.758  0.00  0.00    -0.240 N 
BRANCH  48  49
ATOM     49  C29 1JV d   1      23.895  62.837  20.312  0.00  0.00     0.109 C 
ATOM     50  H19 1JV d   1      24.272  63.864  20.429  0.00  0.00     0.081 H 
ATOM     51  H20 1JV d   1      22.985  62.709  20.917  0.00  0.00     0.081 H 
BRANCH  49  52
ATOM     52  C30 1JV d   1      23.574  62.579  18.854  0.00  0.00     0.405 C 
ATOM     53  F31 1JV d   1      22.894  61.349  18.736  0.00  0.00    -0.169 F 
ATOM     54  F32 1JV d   1      22.790  63.660  18.436  0.00  0.00    -0.169 F 
ATOM     55  F33 1JV d   1      24.774  62.568  18.129  0.00  0.00    -0.169 F 
ENDBRANCH  49  52
ENDBRANCH  48  49
ENDBRANCH  12  43
TORSDOF 9
