REMARK  22 active torsions:
REMARK  status: ('A' for Active; 'I' for Inactive)
REMARK    1  A    between atoms: C16_1  and  O24_3 
REMARK       I    between atoms: N15_11  and  C16_1 
REMARK    2  A    between atoms: O24_3  and  C41_4 
REMARK    3  A    between atoms: C41_4  and  C18_5 
REMARK    4  A    between atoms: C13_12  and  N15_11 
REMARK    5  A    between atoms: C11_13  and  C13_12 
REMARK    6  A    between atoms: C13_12  and  C14_15 
REMARK       I    between atoms: N10_30  and  C11_13 
REMARK    7  A    between atoms: N29_16  and  C28_17 
REMARK       I    between atoms: C30_40  and  N29_16 
REMARK    8  A    between atoms: C26_19  and  C25_20 
REMARK    9  A    between atoms: C25_20  and  C9_21 
REMARK   10  A    between atoms: C9_21  and  C8_22 
REMARK   11  A    between atoms: C9_21  and  N10_30 
REMARK   12  A    between atoms: C8_22  and  C7_23 
REMARK   13  A    between atoms: C7_23  and  C6_24 
REMARK   14  A    between atoms: C39_32  and  O40_31 
REMARK   15  A    between atoms: C34_33  and  C39_32 
REMARK   16  A    between atoms: C34_33  and  C35_34 
REMARK   17  A    between atoms: C32_38  and  C34_33 
REMARK   18  A    between atoms: C35_34  and  C37_35 
REMARK   19  A    between atoms: C35_34  and  C36_37 
REMARK   20  A    between atoms: C37_35  and  C38_36 
REMARK   21  A    between atoms: C32_38  and  O33_39 
REMARK   22  A    between atoms: C32_38  and  C30_40 
ROOT
ATOM      1  C9  1KR d   1      17.317-140.735  11.749  0.00  0.00     0.013 C 
ATOM      2  H20 1KR d   1      17.489-141.154  10.746  0.00  0.00     0.072 H 
ENDROOT
BRANCH   1   3
ATOM      3  C25 1KR d   1      15.759-140.572  11.916  0.00  0.00    -0.041 C 
ATOM      4  H18 1KR d   1      15.533-139.566  12.299  0.00  0.00     0.036 H 
ATOM      5  H19 1KR d   1      15.268-140.712  10.942  0.00  0.00     0.036 H 
BRANCH   3   6
ATOM      6  C26 1KR d   1      15.234-141.647  12.927  0.00  0.00    -0.031 A 
ATOM      7  C28 1KR d   1      13.761-141.901  13.315  0.00  0.00     0.016 A 
ATOM      8  C27 1KR d   1      14.450-142.833  12.304  0.00  0.00    -0.041 A 
ATOM      9  H14 1KR d   1      13.529-142.240  14.336  0.00  0.00     0.073 H 
ATOM     10  H15 1KR d   1      14.160-142.804  11.243  0.00  0.00     0.036 H 
ATOM     11  H16 1KR d   1      14.698-143.866  12.589  0.00  0.00     0.036 H 
ATOM     12  H17 1KR d   1      16.003-141.813  13.696  0.00  0.00     0.043 H 
BRANCH   7  13
ATOM     13  N29 1KR d   1      12.667-141.111  12.806  0.00  0.00    -0.354 N 
ATOM     14  C30 1KR d   1      11.892-140.605  13.784  0.00  0.00     0.247 C 
ATOM     15  O31 1KR d   1      12.056-140.818  14.969  0.00  0.00    -0.271 OA
ATOM     16  H13 1KR d   1      12.502-140.956  11.832  0.00  0.00     0.162 HD
BRANCH  14  17
ATOM     17  C32 1KR d   1      10.815-139.660  13.401  0.00  0.00     0.118 C 
ATOM     18  H44 1KR d   1      10.143-139.479  14.252  0.00  0.00     0.098 H 
BRANCH  17  19
ATOM     19  C34 1KR d   1      11.476-138.321  12.982  0.00  0.00     0.003 C 
ATOM     20  H34 1KR d   1      12.143-138.016  13.801  0.00  0.00     0.048 H 
BRANCH  19  21
ATOM     21  C39 1KR d   1      12.338-138.443  11.709  0.00  0.00     0.023 C 
ATOM     22  H32 1KR d   1      12.566-139.513  11.599  0.00  0.00     0.074 H 
ATOM     23  H33 1KR d   1      11.697-138.118  10.877  0.00  0.00     0.074 H 
BRANCH  21  24
ATOM     24  O40 1KR d   1      13.490-137.806  11.553  0.00  0.00    -0.400 OA
ATOM     25  H31 1KR d   1      13.855-138.019  10.702  0.00  0.00     0.209 HD
ENDBRANCH  21  24
ENDBRANCH  19  21
BRANCH  19  26
ATOM     26  C35 1KR d   1      10.396-137.207  12.805  0.00  0.00    -0.050 C 
ATOM     27  H35 1KR d   1       9.704-137.579  12.035  0.00  0.00     0.040 H 
BRANCH  26  28
ATOM     28  C37 1KR d   1      10.944-135.829  12.298  0.00  0.00    -0.065 C 
ATOM     29  H36 1KR d   1      10.142-135.083  12.398  0.00  0.00     0.033 H 
ATOM     30  H37 1KR d   1      11.215-135.937  11.237  0.00  0.00     0.033 H 
BRANCH  28  31
ATOM     31  C38 1KR d   1      12.192-135.304  13.066  0.00  0.00    -0.076 C 
ATOM     32  H38 1KR d   1      12.503-134.338  12.643  0.00  0.00     0.027 H 
ATOM     33  H39 1KR d   1      13.014-136.029  12.969  0.00  0.00     0.027 H 
ATOM     34  H40 1KR d   1      11.941-135.175  14.129  0.00  0.00     0.027 H 
ENDBRANCH  28  31
ENDBRANCH  26  28
BRANCH  26  35
ATOM     35  C36 1KR d   1       9.561-136.948  14.087  0.00  0.00    -0.072 C 
ATOM     36  H41 1KR d   1       9.164-137.902  14.465  0.00  0.00     0.028 H 
ATOM     37  H42 1KR d   1       8.727-136.271  13.851  0.00  0.00     0.028 H 
ATOM     38  H43 1KR d   1      10.201-136.488  14.854  0.00  0.00     0.028 H 
ENDBRANCH  26  35
ENDBRANCH  19  26
ENDBRANCH  17  19
BRANCH  17  39
ATOM     39  O33 1KR d   1      10.080-140.284  12.338  0.00  0.00    -0.386 OA
ATOM     40  H45 1KR d   1      10.667-140.467  11.614  0.00  0.00     0.210 HD
ENDBRANCH  17  39
ENDBRANCH  14  17
ENDBRANCH   7  13
ENDBRANCH   3   6
ENDBRANCH   1   3
BRANCH   1  41
ATOM     41  C8  1KR d   1      18.050-139.380  11.803  0.00  0.00    -0.043 C 
ATOM     42  H21 1KR d   1      19.045-139.585  12.226  0.00  0.00     0.036 H 
ATOM     43  H22 1KR d   1      17.479-138.748  12.499  0.00  0.00     0.036 H 
BRANCH  41  44
ATOM     44  C7  1KR d   1      18.283-138.533  10.548  0.00  0.00    -0.039 C 
ATOM     45  H23 1KR d   1      17.339-138.021  10.311  0.00  0.00     0.040 H 
ATOM     46  H24 1KR d   1      18.546-139.217   9.727  0.00  0.00     0.040 H 
BRANCH  44  47
ATOM     47  C6  1KR d   1      19.401-137.448  10.636  0.00  0.00    -0.058 A 
ATOM     48  C1  1KR d   1      19.666-136.674  11.784  0.00  0.00    -0.077 A 
ATOM     49  C2  1KR d   1      20.857-135.931  11.930  0.00  0.00    -0.082 A 
ATOM     50  H25 1KR d   1      18.931-136.649  12.581  0.00  0.00     0.084 H 
ATOM     51  C3  1KR d   1      21.839-135.873  10.919  0.00  0.00    -0.083 A 
ATOM     52  H26 1KR d   1      21.023-135.386  12.852  0.00  0.00     0.083 H 
ATOM     53  C4  1KR d   1      21.616-136.582   9.723  0.00  0.00    -0.082 A 
ATOM     54  H27 1KR d   1      22.745-135.295  11.060  0.00  0.00     0.083 H 
ATOM     55  C5  1KR d   1      20.417-137.346   9.542  0.00  0.00    -0.077 A 
ATOM     56  H28 1KR d   1      22.357-136.550   8.933  0.00  0.00     0.083 H 
ATOM     57  H29 1KR d   1      20.244-137.856   8.601  0.00  0.00     0.084 H 
ENDBRANCH  44  47
ENDBRANCH  41  44
ENDBRANCH   1  41
BRANCH   1  58
ATOM     58  N10 1KR d   1      17.891-141.708  12.735  0.00  0.00    -0.355 N 
ATOM     59  C11 1KR d   1      18.100-143.041  12.473  0.00  0.00     0.240 C 
ATOM     60  O12 1KR d   1      18.612-143.322  11.395  0.00  0.00    -0.271 OA
ATOM     61  H30 1KR d   1      18.138-141.365  13.641  0.00  0.00     0.162 HD
BRANCH  59  62
ATOM     62  C13 1KR d   1      17.576-144.220  13.368  0.00  0.00     0.088 C 
ATOM     63  H9  1KR d   1      16.557-144.410  12.999  0.00  0.00     0.087 H 
BRANCH  62  64
ATOM     64  N15 1KR d   1      18.343-145.472  13.166  0.00  0.00    -0.324 N 
ATOM     65  C16 1KR d   1      17.848-146.535  12.450  0.00  0.00     0.361 C 
ATOM     66  O17 1KR d   1      17.121-147.366  12.986  0.00  0.00    -0.238 OA
ATOM     67  H8  1KR d   1      19.256-145.546  13.566  0.00  0.00     0.165 HD
BRANCH  65  68
ATOM     68  O24 1KR d   1      18.200-146.602  11.122  0.00  0.00    -0.299 OA
BRANCH  68  69
ATOM     69  C41 1KR d   1      19.488-146.048  10.741  0.00  0.00     0.054 C 
ATOM     70  H1  1KR d   1      20.236-146.295  11.509  0.00  0.00     0.082 H 
ATOM     71  H2  1KR d   1      19.405-144.955  10.649  0.00  0.00     0.082 H 
BRANCH  69  72
ATOM     72  C18 1KR d   1      19.916-146.637   9.410  0.00  0.00    -0.034 A 
ATOM     73  C19 1KR d   1      19.791-145.860   8.253  0.00  0.00    -0.075 A 
ATOM     74  C20 1KR d   1      20.265-146.391   7.053  0.00  0.00    -0.082 A 
ATOM     75  H3  1KR d   1      19.340-144.875   8.288  0.00  0.00     0.084 H 
ATOM     76  C21 1KR d   1      20.847-147.678   7.026  0.00  0.00    -0.083 A 
ATOM     77  H4  1KR d   1      20.186-145.814   6.138  0.00  0.00     0.083 H 
ATOM     78  C22 1KR d   1      20.979-148.446   8.188  0.00  0.00    -0.082 A 
ATOM     79  H5  1KR d   1      21.200-148.080   6.083  0.00  0.00     0.083 H 
ATOM     80  C23 1KR d   1      20.501-147.908   9.384  0.00  0.00    -0.075 A 
ATOM     81  H6  1KR d   1      21.438-149.428   8.160  0.00  0.00     0.083 H 
ATOM     82  H7  1KR d   1      20.584-148.480  10.301  0.00  0.00     0.084 H 
ENDBRANCH  69  72
ENDBRANCH  68  69
ENDBRANCH  65  68
ENDBRANCH  62  64
BRANCH  62  83
ATOM     83  C14 1KR d   1      17.424-144.006  14.913  0.00  0.00    -0.049 C 
ATOM     84  H10 1KR d   1      16.858-143.082  15.101  0.00  0.00     0.030 H 
ATOM     85  H11 1KR d   1      18.421-143.925  15.372  0.00  0.00     0.030 H 
ATOM     86  H12 1KR d   1      16.887-144.861  15.351  0.00  0.00     0.030 H 
ENDBRANCH  62  83
ENDBRANCH  59  62
ENDBRANCH   1  58
TORSDOF 22
