REMARK  31 active torsions:
REMARK  status: ('A' for Active; 'I' for Inactive)
REMARK    1  A    between atoms: N_1  and  CA_2 
REMARK    2  A    between atoms: CA_2  and  C_3 
REMARK    3  A    between atoms: CA_2  and  CB_5 
REMARK       I    between atoms: C_3  and  N_6 
REMARK    4  A    between atoms: N_6  and  CA_7 
REMARK    5  A    between atoms: CA_7  and  C_8 
REMARK    6  A    between atoms: CA_7  and  CB_10 
REMARK       I    between atoms: C_8  and  N_11 
REMARK    7  A    between atoms: N_11  and  CA_12 
REMARK    8  A    between atoms: CA_12  and  C_13 
REMARK    9  A    between atoms: CA_12  and  CB_15 
REMARK       I    between atoms: C_13  and  N_20 
REMARK   10  A    between atoms: CB_15  and  CG_16 
REMARK   11  A    between atoms: CG_16  and  CD_17 
REMARK   12  A    between atoms: CD_17  and  CE_18 
REMARK   13  A    between atoms: CE_18  and  NZ_19 
REMARK   14  A    between atoms: N_20  and  CA_21 
REMARK   15  A    between atoms: CA_21  and  C_22 
REMARK   16  A    between atoms: CA_21  and  CB_24 
REMARK       I    between atoms: C_22  and  N_29 
REMARK   17  A    between atoms: CB_24  and  CG_25 
REMARK   18  A    between atoms: CG_25  and  CD_26 
REMARK   19  A    between atoms: CD_26  and  CE_27 
REMARK   20  A    between atoms: CE_27  and  NZ_28 
REMARK   21  A    between atoms: N_29  and  CA_30 
REMARK   22  A    between atoms: CA_30  and  C_31 
REMARK   23  A    between atoms: CA_30  and  CB_33 
REMARK       I    between atoms: C_31  and  N_37 
REMARK   24  A    between atoms: CB_33  and  CG_34 
REMARK   25  A    between atoms: CG_34  and  CD1_35 
REMARK   26  A    between atoms: CG_34  and  CD2_36 
REMARK   27  A    between atoms: N_37  and  CA_38 
REMARK   28  A    between atoms: CA_38  and  C_39 
REMARK   29  A    between atoms: CA_38  and  CB_41 
REMARK   30  A    between atoms: CB_41  and  CG1_42 
REMARK   31  A    between atoms: CB_41  and  CG2_43 
ROOT
ATOM      1  CA  LYS d   1      -9.061  -5.593 -18.373  0.00  0.00     0.089 C 
ATOM      2  H27 LYS d   1      -8.186  -5.871 -17.767  0.00  0.00     0.087 H 
ENDROOT
BRANCH   1   3
ATOM      3  N   LYS d   1      -9.802  -4.573 -17.640  0.00  0.00    -0.346 N 
ATOM      4  C   LYS d   1      -9.196  -3.495 -17.147  0.00  0.00     0.241 C 
ATOM      5  O   LYS d   1      -7.985  -3.292 -17.261  0.00  0.00    -0.271 OA
ATOM      6  H26 LYS d   1     -10.786  -4.686 -17.505  0.00  0.00     0.163 HD
BRANCH   4   7
ATOM      7  CA  LYS d   1     -10.069  -2.484 -16.387  0.00  0.00     0.089 C 
ATOM      8  H14 LYS d   1      -9.554  -1.512 -16.420  0.00  0.00     0.087 H 
BRANCH   7   9
ATOM      9  N   LYS d   1     -11.367  -2.316 -17.017  0.00  0.00    -0.346 N 
ATOM     10  C   ALA d   1     -11.446  -1.865 -18.264  0.00  0.00     0.240 C 
ATOM     11  O   ALA d   1     -10.438  -1.523 -18.891  0.00  0.00    -0.271 OA
ATOM     12  H13 LYS d   1     -12.201  -2.540 -16.512  0.00  0.00     0.163 HD
BRANCH  10  13
ATOM     13  CA  ALA d   1     -12.834  -1.753 -18.893  0.00  0.00     0.086 C 
ATOM     14  H9  ALA d   1     -12.705  -1.821 -19.983  0.00  0.00     0.086 H 
BRANCH  13  15
ATOM     15  N   ALA d   1     -13.756  -2.819 -18.501  0.00  0.00    -0.346 N 
ATOM     16  C   GLU d   1     -13.459  -4.116 -18.624  0.00  0.00     0.248 C 
ATOM     17  O   GLU d   1     -12.362  -4.511 -19.006  0.00  0.00    -0.271 OA
ATOM     18  H8  ALA d   1     -14.647  -2.566 -18.125  0.00  0.00     0.163 HD
BRANCH  16  19
ATOM     19  CA  GLU d   1     -14.490  -5.111 -18.129  0.00  0.00     0.172 C 
ATOM     20  H4  GLU d   1     -13.961  -6.007 -17.772  0.00  0.00     0.098 H 
BRANCH  19  21
ATOM     21  N   GLU d   1     -15.258  -4.553 -17.018  0.00  0.00    -0.067 N 
ATOM     22  H1  GLU d   1     -15.936  -5.230 -16.705  0.00  0.00     0.275 HD
ATOM     23  H2  GLU d   1     -15.733  -3.718 -17.324  0.00  0.00     0.275 HD
ATOM     24  H3  GLU d   1     -14.635  -4.326 -16.259  0.00  0.00     0.275 HD
ENDBRANCH  19  21
BRANCH  19  25
ATOM     25  CB  GLU d   1     -15.445  -5.528 -19.265  0.00  0.00    -0.042 C 
ATOM     26  H5  GLU d   1     -14.862  -5.947 -20.099  0.00  0.00     0.030 H 
ATOM     27  H6  GLU d   1     -16.005  -4.648 -19.615  0.00  0.00     0.030 H 
ATOM     28  H7  GLU d   1     -16.149  -6.286 -18.892  0.00  0.00     0.030 H 
ENDBRANCH  19  25
ENDBRANCH  16  19
ENDBRANCH  13  15
BRANCH  13  29
ATOM     29  CB  ALA d   1     -13.422  -0.411 -18.580  0.00  0.00    -0.049 C 
ATOM     30  H10 ALA d   1     -12.716   0.378 -18.881  0.00  0.00     0.030 H 
ATOM     31  H11 ALA d   1     -13.615  -0.338 -17.500  0.00  0.00     0.030 H 
ATOM     32  H12 ALA d   1     -14.367  -0.287 -19.130  0.00  0.00     0.030 H 
ENDBRANCH  13  29
ENDBRANCH  10  13
ENDBRANCH   7   9
BRANCH   7  33
ATOM     33  CB  LYS d   1     -10.230  -2.878 -14.904  0.00  0.00    -0.038 C 
ATOM     34  H15 LYS d   1     -10.783  -3.828 -14.860  0.00  0.00     0.036 H 
ATOM     35  H16 LYS d   1     -10.812  -2.091 -14.402  0.00  0.00     0.036 H 
BRANCH  33  36
ATOM     36  CG  LYS d   1      -8.908  -3.057 -14.139  0.00  0.00    -0.061 C 
ATOM     37  H17 LYS d   1      -8.355  -3.904 -14.570  0.00  0.00     0.033 H 
ATOM     38  H18 LYS d   1      -9.129  -3.264 -13.082  0.00  0.00     0.033 H 
BRANCH  36  39
ATOM     39  CD  LYS d   1      -8.042  -1.792 -14.233  0.00  0.00    -0.043 C 
ATOM     40  H19 LYS d   1      -8.594  -0.947 -13.797  0.00  0.00     0.035 H 
ATOM     41  H20 LYS d   1      -7.827  -1.583 -15.291  0.00  0.00     0.035 H 
BRANCH  39  42
ATOM     42  CE  LYS d   1      -6.724  -1.964 -13.483  0.00  0.00     0.080 C 
ATOM     43  H21 LYS d   1      -6.067  -2.652 -14.035  0.00  0.00     0.075 H 
ATOM     44  H22 LYS d   1      -6.916  -2.367 -12.478  0.00  0.00     0.075 H 
BRANCH  42  45
ATOM     45  NZ  LYS d   1      -6.077  -0.617 -13.377  0.00  0.00    -0.079 N 
ATOM     46  H23 LYS d   1      -5.202  -0.703 -12.884  0.00  0.00     0.274 HD
ATOM     47  H24 LYS d   1      -6.686   0.010 -12.874  0.00  0.00     0.274 HD
ATOM     48  H25 LYS d   1      -5.908  -0.252 -14.301  0.00  0.00     0.274 HD
ENDBRANCH  42  45
ENDBRANCH  39  42
ENDBRANCH  36  39
ENDBRANCH  33  36
ENDBRANCH   7  33
ENDBRANCH   4   7
ENDBRANCH   1   3
BRANCH   1  49
ATOM     49  C   LYS d   1      -8.572  -5.062 -19.713  0.00  0.00     0.241 C 
ATOM     50  O   LYS d   1      -7.461  -5.373 -20.131  0.00  0.00    -0.271 OA
ATOM     51  N   LEU d   1      -9.370  -4.220 -20.348  0.00  0.00    -0.346 N 
ATOM     52  H39 LEU d   1     -10.127  -3.789 -19.857  0.00  0.00     0.163 HD
BRANCH  51  53
ATOM     53  CA  LEU d   1      -9.156  -3.916 -21.751  0.00  0.00     0.089 C 
ATOM     54  H40 LEU d   1      -8.603  -4.763 -22.182  0.00  0.00     0.087 H 
BRANCH  53  55
ATOM     55  C   LEU d   1      -8.347  -2.664 -22.044  0.00  0.00     0.241 C 
ATOM     56  O   LEU d   1      -7.648  -2.635 -23.052  0.00  0.00    -0.271 OA
ATOM     57  N   VAL d   1      -8.454  -1.641 -21.205  0.00  0.00    -0.344 N 
ATOM     58  H50 VAL d   1      -8.900  -1.770 -20.319  0.00  0.00     0.163 HD
BRANCH  57  59
ATOM     59  CA  VAL d   1      -7.925  -0.329 -21.567  0.00  0.00     0.099 C 
ATOM     60  H51 VAL d   1      -8.323  -0.060 -22.557  0.00  0.00     0.090 H 
BRANCH  59  61
ATOM     61  C   VAL d   1      -6.399  -0.372 -21.662  0.00  0.00     0.197 C 
ATOM     62  O   VAL d   1      -5.748  -1.228 -21.041  0.00  0.00    -0.646 OA
ATOM     63  OXT VAL d   1      -5.778   0.423 -22.378  0.00  0.00    -0.646 OA
ENDBRANCH  59  61
BRANCH  59  64
ATOM     64  CB  VAL d   1      -8.378   0.734 -20.569  0.00  0.00    -0.032 C 
ATOM     65  H52 VAL d   1      -9.468   0.650 -20.445  0.00  0.00     0.042 H 
BRANCH  64  66
ATOM     66  CG1 VAL d   1      -7.721   0.509 -19.206  0.00  0.00    -0.071 C 
ATOM     67  H53 VAL d   1      -8.060   1.284 -18.503  0.00  0.00     0.028 H 
ATOM     68  H54 VAL d   1      -6.628   0.564 -19.312  0.00  0.00     0.028 H 
ATOM     69  H55 VAL d   1      -8.003  -0.483 -18.822  0.00  0.00     0.028 H 
ENDBRANCH  64  66
BRANCH  64  70
ATOM     70  CG2 VAL d   1      -8.063   2.127 -21.097  0.00  0.00    -0.071 C 
ATOM     71  H56 VAL d   1      -8.545   2.266 -22.076  0.00  0.00     0.028 H 
ATOM     72  H57 VAL d   1      -6.974   2.241 -21.205  0.00  0.00     0.028 H 
ATOM     73  H58 VAL d   1      -8.442   2.881 -20.392  0.00  0.00     0.028 H 
ENDBRANCH  64  70
ENDBRANCH  59  64
ENDBRANCH  57  59
ENDBRANCH  53  55
BRANCH  53  74
ATOM     74  CB  LEU d   1     -10.510  -3.818 -22.455  0.00  0.00    -0.035 C 
ATOM     75  H41 LEU d   1     -10.337  -3.498 -23.493  0.00  0.00     0.037 H 
ATOM     76  H42 LEU d   1     -11.116  -3.062 -21.934  0.00  0.00     0.037 H 
BRANCH  74  77
ATOM     77  CG  LEU d   1     -11.297  -5.125 -22.482  0.00  0.00    -0.059 C 
ATOM     78  H43 LEU d   1     -11.455  -5.458 -21.446  0.00  0.00     0.038 H 
BRANCH  77  79
ATOM     79  CD1 LEU d   1     -12.672  -4.908 -23.144  0.00  0.00    -0.073 C 
ATOM     80  H44 LEU d   1     -13.227  -5.858 -23.156  0.00  0.00     0.028 H 
ATOM     81  H45 LEU d   1     -12.530  -4.553 -24.175  0.00  0.00     0.028 H 
ATOM     82  H46 LEU d   1     -13.240  -4.159 -22.573  0.00  0.00     0.028 H 
ENDBRANCH  77  79
BRANCH  77  83
ATOM     83  CD2 LEU d   1     -10.524  -6.203 -23.222  0.00  0.00    -0.073 C 
ATOM     84  H47 LEU d   1      -9.546  -6.348 -22.741  0.00  0.00     0.028 H 
ATOM     85  H48 LEU d   1     -10.376  -5.896 -24.268  0.00  0.00     0.028 H 
ATOM     86  H49 LEU d   1     -11.091  -7.146 -23.193  0.00  0.00     0.028 H 
ENDBRANCH  77  83
ENDBRANCH  74  77
ENDBRANCH  53  74
ENDBRANCH  51  53
ENDBRANCH   1  49
BRANCH   1  87
ATOM     87  CB  LYS d   1      -9.890  -6.856 -18.627  0.00  0.00    -0.038 C 
ATOM     88  H28 LYS d   1     -10.676  -6.622 -19.360  0.00  0.00     0.036 H 
ATOM     89  H29 LYS d   1     -10.354  -7.171 -17.681  0.00  0.00     0.036 H 
BRANCH  87  90
ATOM     90  CG  LYS d   1      -9.029  -8.023 -19.174  0.00  0.00    -0.061 C 
ATOM     91  H30 LYS d   1      -8.267  -8.296 -18.430  0.00  0.00     0.033 H 
ATOM     92  H31 LYS d   1      -8.536  -7.709 -20.106  0.00  0.00     0.033 H 
BRANCH  90  93
ATOM     93  CD  LYS d   1      -9.924  -9.231 -19.453  0.00  0.00    -0.043 C 
ATOM     94  H32 LYS d   1     -10.760  -8.920 -20.097  0.00  0.00     0.035 H 
ATOM     95  H33 LYS d   1     -10.318  -9.616 -18.501  0.00  0.00     0.035 H 
BRANCH  93  96
ATOM     96  CE  LYS d   1      -9.145 -10.325 -20.145  0.00  0.00     0.080 C 
ATOM     97  H34 LYS d   1      -8.506  -9.856 -20.908  0.00  0.00     0.075 H 
ATOM     98  H35 LYS d   1      -9.865 -10.998 -20.633  0.00  0.00     0.075 H 
BRANCH  96  99
ATOM     99  NZ  LYS d   1      -8.261 -11.161 -19.243  0.00  0.00    -0.079 N 
ATOM    100  H36 LYS d   1      -7.785 -11.860 -19.792  0.00  0.00     0.274 HD
ATOM    101  H37 LYS d   1      -8.828 -11.613 -18.543  0.00  0.00     0.274 HD
ATOM    102  H38 LYS d   1      -7.582 -10.567 -18.794  0.00  0.00     0.274 HD
ENDBRANCH  96  99
ENDBRANCH  93  96
ENDBRANCH  90  93
ENDBRANCH  87  90
ENDBRANCH   1  87
TORSDOF 31
