REMARK  3 active torsions:
REMARK  status: ('A' for Active; 'I' for Inactive)
REMARK    1  A    between atoms: C5_2  and  C51_3 
REMARK    2  A    between atoms: C4_4  and  C41_5 
REMARK    3  A    between atoms: C2_7  and  C21_8 
ROOT
ATOM      1  N1  I18 d   1     -13.750  -9.508   2.633  0.00  0.00    -0.368 N 
ATOM      2  C5  I18 d   1     -12.671  -9.726   1.667  0.00  0.00     0.062 A 
ATOM      3  C4  I18 d   1     -11.703 -10.657   2.454  0.00  0.00     0.083 A 
ATOM      4  N3  I18 d   1     -12.385 -10.909   3.723  0.00  0.00    -0.265 NA
ATOM      5  C2  I18 d   1     -13.482 -10.254   3.762  0.00  0.00     0.092 A 
ATOM      6  H1  I18 d   1     -14.570  -8.901   2.493  0.00  0.00     0.161 HD
ATOM      7  H2  I18 d   1     -12.170  -8.781   1.410  0.00  0.00     0.084 H 
ATOM      8  H3  I18 d   1     -10.758 -10.125   2.637  0.00  0.00     0.087 H 
ENDROOT
BRANCH   2   9
ATOM      9  C51 I18 d   1     -13.223 -10.346   0.406  0.00  0.00    -0.033 A 
ATOM     10  C56 I18 d   1     -14.475 -10.965   0.435  0.00  0.00    -0.073 A 
ATOM     11  C55 I18 d   1     -15.014 -11.513  -0.724  0.00  0.00    -0.061 A 
ATOM     12  H7  I18 d   1     -15.029 -11.018   1.365  0.00  0.00     0.084 H 
ATOM     13  C54 I18 d   1     -14.291 -11.452  -1.916  0.00  0.00     0.034 A 
ATOM     14  H8  I18 d   1     -15.990 -11.985  -0.702  0.00  0.00     0.086 H 
ATOM     15 CL5  I18 d   1     -14.946 -12.201  -3.355  0.00  0.00    -0.084 Cl
ATOM     16  C53 I18 d   1     -13.044 -10.819  -1.961  0.00  0.00    -0.061 A 
ATOM     17  C52 I18 d   1     -12.508 -10.273  -0.795  0.00  0.00    -0.073 A 
ATOM     18  H9  I18 d   1     -12.498 -10.754  -2.895  0.00  0.00     0.086 H 
ATOM     19  H10 I18 d   1     -11.537  -9.792  -0.819  0.00  0.00     0.084 H 
ENDBRANCH   2   9
BRANCH   3  20
ATOM     20  C41 I18 d   1     -11.380 -11.948   1.748  0.00  0.00    -0.031 A 
ATOM     21  C42 I18 d   1     -10.183 -12.066   1.040  0.00  0.00    -0.073 A 
ATOM     22  C43 I18 d   1      -9.873 -13.249   0.382  0.00  0.00    -0.061 A 
ATOM     23  H11 I18 d   1      -9.493 -11.231   1.004  0.00  0.00     0.084 H 
ATOM     24  C44 I18 d   1     -10.772 -14.314   0.422  0.00  0.00     0.034 A 
ATOM     25  H12 I18 d   1      -8.938 -13.344  -0.159  0.00  0.00     0.086 H 
ATOM     26 CL4  I18 d   1     -10.430 -15.761  -0.498  0.00  0.00    -0.084 Cl
ATOM     27  C45 I18 d   1     -11.952 -14.222   1.163  0.00  0.00    -0.061 A 
ATOM     28  C46 I18 d   1     -12.256 -13.035   1.823  0.00  0.00    -0.073 A 
ATOM     29  H13 I18 d   1     -12.626 -15.069   1.224  0.00  0.00     0.086 H 
ATOM     30  H14 I18 d   1     -13.173 -12.953   2.396  0.00  0.00     0.084 H 
ENDBRANCH   3  20
BRANCH   5  31
ATOM     31  C21 I18 d   1     -14.460 -10.240   4.903  0.00  0.00    -0.022 C 
ATOM     32  H4  I18 d   1     -14.088 -10.885   5.713  0.00  0.00     0.037 H 
ATOM     33  H5  I18 d   1     -15.435 -10.613   4.555  0.00  0.00     0.037 H 
ATOM     34  H6  I18 d   1     -14.573  -9.212   5.277  0.00  0.00     0.037 H 
ENDBRANCH   5  31
TORSDOF 3
