REMARK  27 active torsions:
REMARK  status: ('A' for Active; 'I' for Inactive)
REMARK    1  A    between atoms: N_1  and  CA_2 
REMARK    2  A    between atoms: CA_2  and  C_3 
REMARK    3  A    between atoms: CA_2  and  CB_5 
REMARK       I    between atoms: C_3  and  N_10 
REMARK    4  A    between atoms: CB_5  and  CG_6 
REMARK    5  A    between atoms: CG_6  and  CD_7 
REMARK    6  A    between atoms: CD_7  and  CE_8 
REMARK    7  A    between atoms: CE_8  and  NZ_9 
REMARK    8  A    between atoms: N_10  and  CA_11 
REMARK    9  A    between atoms: CA_11  and  C_12 
REMARK   10  A    between atoms: CA_11  and  CB_14 
REMARK       I    between atoms: C_12  and  N_19 
REMARK   11  A    between atoms: CB_14  and  CG_15 
REMARK   12  A    between atoms: CG_15  and  CD_16 
REMARK   13  A    between atoms: N_19  and  CA_20 
REMARK   14  A    between atoms: CA_20  and  C_21 
REMARK   15  A    between atoms: CA_20  and  CB_23 
REMARK       I    between atoms: C_21  and  N_28 
REMARK   16  A    between atoms: CB_23  and  CG_24 
REMARK   17  A    between atoms: CG_24  and  CD_25 
REMARK   18  A    between atoms: CD_25  and  CE_26 
REMARK   19  A    between atoms: CE_26  and  NZ_27 
REMARK   20  A    between atoms: N_28  and  CA_29 
REMARK   21  A    between atoms: CA_29  and  C_30 
REMARK   22  A    between atoms: CA_29  and  CB_32 
REMARK       I    between atoms: C_30  and  N_34 
REMARK   23  A    between atoms: CB_32  and  OG_33 
REMARK   24  A    between atoms: N_34  and  CA_35 
REMARK   25  A    between atoms: CA_35  and  C_36 
REMARK   26  A    between atoms: CA_35  and  CB_38 
REMARK   27  A    between atoms: CB_38  and  CG_39 
ROOT
ATOM      1  CA  LYS d   1     -46.989 -13.625 -42.799  0.00  0.00     0.089 C 
ATOM      2  H23 LYS d   1     -46.729 -12.556 -42.786  0.00  0.00     0.087 H 
ENDROOT
BRANCH   1   3
ATOM      3  N   LYS d   1     -46.629 -14.190 -44.095  0.00  0.00    -0.346 N 
ATOM      4  C   GLU d   1     -46.854 -15.468 -44.386  0.00  0.00     0.241 C 
ATOM      5  O   GLU d   1     -47.198 -16.306 -43.546  0.00  0.00    -0.271 OA
ATOM      6  H22 LYS d   1     -46.202 -13.601 -44.782  0.00  0.00     0.163 HD
BRANCH   4   7
ATOM      7  CA  GLU d   1     -46.700 -15.844 -45.855  0.00  0.00     0.090 C 
ATOM      8  H17 GLU d   1     -45.961 -15.181 -46.328  0.00  0.00     0.087 H 
BRANCH   7   9
ATOM      9  N   GLU d   1     -46.248 -17.215 -45.977  0.00  0.00    -0.346 N 
ATOM     10  C   LYS d   1     -45.016 -17.511 -45.590  0.00  0.00     0.248 C 
ATOM     11  O   LYS d   1     -44.179 -16.639 -45.360  0.00  0.00    -0.271 OA
ATOM     12  H16 GLU d   1     -46.852 -17.922 -46.345  0.00  0.00     0.163 HD
BRANCH  10  13
ATOM     13  CA  LYS d   1     -44.675 -18.986 -45.393  0.00  0.00     0.176 C 
ATOM     14  H4  LYS d   1     -45.566 -19.591 -45.618  0.00  0.00     0.099 H 
BRANCH  13  15
ATOM     15  N   LYS d   1     -43.591 -19.418 -46.265  0.00  0.00    -0.067 N 
ATOM     16  H1  LYS d   1     -43.398 -20.394 -46.103  0.00  0.00     0.275 HD
ATOM     17  H2  LYS d   1     -42.765 -18.875 -46.068  0.00  0.00     0.275 HD
ATOM     18  H3  LYS d   1     -43.860 -19.283 -47.227  0.00  0.00     0.275 HD
ENDBRANCH  13  15
BRANCH  13  19
ATOM     19  CB  LYS d   1     -44.282 -19.190 -43.920  0.00  0.00    -0.030 C 
ATOM     20  H5  LYS d   1     -44.498 -18.258 -43.377  0.00  0.00     0.036 H 
ATOM     21  H6  LYS d   1     -43.202 -19.395 -43.881  0.00  0.00     0.036 H 
BRANCH  19  22
ATOM     22  CG  LYS d   1     -45.004 -20.326 -43.211  0.00  0.00    -0.061 C 
ATOM     23  H7  LYS d   1     -44.476 -20.541 -42.270  0.00  0.00     0.033 H 
ATOM     24  H8  LYS d   1     -44.977 -21.215 -43.859  0.00  0.00     0.033 H 
BRANCH  22  25
ATOM     25  CD  LYS d   1     -46.471 -20.007 -42.884  0.00  0.00    -0.043 C 
ATOM     26  H9  LYS d   1     -47.023 -19.815 -43.816  0.00  0.00     0.035 H 
ATOM     27  H10 LYS d   1     -46.519 -19.117 -42.240  0.00  0.00     0.035 H 
BRANCH  25  28
ATOM     28  CE  LYS d   1     -47.096 -21.202 -42.155  0.00  0.00     0.080 C 
ATOM     29  H11 LYS d   1     -46.719 -21.199 -41.121  0.00  0.00     0.075 H 
ATOM     30  H12 LYS d   1     -46.763 -22.118 -42.664  0.00  0.00     0.075 H 
BRANCH  28  31
ATOM     31  NZ  LYS d   1     -48.575 -21.230 -42.097  0.00  0.00    -0.079 N 
ATOM     32  H13 LYS d   1     -48.876 -22.053 -41.599  0.00  0.00     0.274 HD
ATOM     33  H14 LYS d   1     -48.948 -21.249 -43.033  0.00  0.00     0.274 HD
ATOM     34  H15 LYS d   1     -48.908 -20.407 -41.619  0.00  0.00     0.274 HD
ENDBRANCH  28  31
ENDBRANCH  25  28
ENDBRANCH  22  25
ENDBRANCH  19  22
ENDBRANCH  13  19
ENDBRANCH  10  13
ENDBRANCH   7   9
BRANCH   7  35
ATOM     35  CB  GLU d   1     -48.050 -15.658 -46.529  0.00  0.00    -0.029 C 
ATOM     36  H18 GLU d   1     -48.581 -14.842 -46.017  0.00  0.00     0.037 H 
ATOM     37  H19 GLU d   1     -48.621 -16.592 -46.421  0.00  0.00     0.037 H 
BRANCH  35  38
ATOM     38  CG  GLU d   1     -47.969 -15.321 -47.999  0.00  0.00     0.018 C 
ATOM     39  H20 GLU d   1     -47.375 -16.092 -48.512  0.00  0.00     0.049 H 
ATOM     40  H21 GLU d   1     -47.481 -14.342 -48.117  0.00  0.00     0.049 H 
BRANCH  38  41
ATOM     41  CD  GLU d   1     -49.343 -15.264 -48.618  0.00  0.00     0.172 C 
ATOM     42  OE1 GLU d   1     -50.027 -14.242 -48.434  0.00  0.00    -0.648 OA
ATOM     43  OE2 GLU d   1     -49.750 -16.259 -49.242  0.00  0.00    -0.648 OA
ENDBRANCH  38  41
ENDBRANCH  35  38
ENDBRANCH   7  35
ENDBRANCH   4   7
ENDBRANCH   1   3
BRANCH   1  44
ATOM     44  C   LYS d   1     -46.183 -14.333 -41.729  0.00  0.00     0.241 C 
ATOM     45  O   LYS d   1     -46.682 -14.646 -40.636  0.00  0.00    -0.271 OA
ATOM     46  N   SER d   1     -44.928 -14.568 -42.094  0.00  0.00    -0.344 N 
ATOM     47  H35 SER d   1     -44.642 -14.265 -43.003  0.00  0.00     0.163 HD
BRANCH  46  48
ATOM     48  CA  SER d   1     -43.949 -15.233 -41.265  0.00  0.00     0.109 C 
ATOM     49  H36 SER d   1     -44.356 -16.198 -40.928  0.00  0.00     0.090 H 
BRANCH  48  50
ATOM     50  C   SER d   1     -43.613 -14.382 -40.032  0.00  0.00     0.243 C 
ATOM     51  O   SER d   1     -43.452 -14.918 -38.944  0.00  0.00    -0.271 OA
ATOM     52  N   ASP d   1     -43.498 -13.065 -40.194  0.00  0.00    -0.344 N 
ATOM     53  H40 ASP d   1     -43.734 -12.643 -41.069  0.00  0.00     0.163 HD
BRANCH  52  54
ATOM     54  CA  ASP d   1     -43.024 -12.241 -39.081  0.00  0.00     0.105 C 
ATOM     55  H41 ASP d   1     -42.197 -12.782 -38.597  0.00  0.00     0.090 H 
BRANCH  54  56
ATOM     56  C   ASP d   1     -44.113 -11.976 -38.046  0.00  0.00     0.197 C 
ATOM     57  O   ASP d   1     -45.308 -12.228 -38.273  0.00  0.00    -0.646 OA
ATOM     58  OXT ASP d   1     -43.791 -11.416 -36.976  0.00  0.00    -0.646 OA
ENDBRANCH  54  56
BRANCH  54  59
ATOM     59  CB  ASP d   1     -42.520 -10.866 -39.525  0.00  0.00     0.044 C 
ATOM     60  H42 ASP d   1     -42.247 -10.290 -38.628  0.00  0.00     0.053 H 
ATOM     61  H43 ASP d   1     -43.335 -10.353 -40.056  0.00  0.00     0.053 H 
BRANCH  59  62
ATOM     62  CG  ASP d   1     -41.305 -10.925 -40.448  0.00  0.00     0.175 C 
ATOM     63  OD1 ASP d   1     -40.572 -11.934 -40.464  0.00  0.00    -0.648 OA
ATOM     64  OD2 ASP d   1     -41.112  -9.918 -41.160  0.00  0.00    -0.648 OA
ENDBRANCH  59  62
ENDBRANCH  54  59
ENDBRANCH  52  54
ENDBRANCH  48  50
BRANCH  48  65
ATOM     65  CB  SER d   1     -42.691 -15.483 -42.110  0.00  0.00     0.044 C 
ATOM     66  H37 SER d   1     -42.187 -14.520 -42.279  0.00  0.00     0.077 H 
ATOM     67  H38 SER d   1     -42.998 -15.911 -43.076  0.00  0.00     0.077 H 
BRANCH  65  68
ATOM     68  OG  SER d   1     -41.778 -16.365 -41.501  0.00  0.00    -0.398 OA
ATOM     69  H39 SER d   1     -41.497 -16.003 -40.669  0.00  0.00     0.209 HD
ENDBRANCH  65  68
ENDBRANCH  48  65
ENDBRANCH  46  48
ENDBRANCH   1  44
BRANCH   1  70
ATOM     70  CB  LYS d   1     -48.500 -13.757 -42.575  0.00  0.00    -0.038 C 
ATOM     71  H24 LYS d   1     -48.710 -13.622 -41.504  0.00  0.00     0.036 H 
ATOM     72  H25 LYS d   1     -48.815 -14.764 -42.886  0.00  0.00     0.036 H 
BRANCH  70  73
ATOM     73  CG  LYS d   1     -49.312 -12.723 -43.368  0.00  0.00    -0.061 C 
ATOM     74  H26 LYS d   1     -50.364 -13.039 -43.431  0.00  0.00     0.033 H 
ATOM     75  H27 LYS d   1     -48.899 -12.618 -44.382  0.00  0.00     0.033 H 
BRANCH  73  76
ATOM     76  CD  LYS d   1     -49.211 -11.391 -42.622  0.00  0.00    -0.043 C 
ATOM     77  H28 LYS d   1     -48.153 -11.093 -42.578  0.00  0.00     0.035 H 
ATOM     78  H29 LYS d   1     -49.596 -11.531 -41.601  0.00  0.00     0.035 H 
BRANCH  76  79
ATOM     79  CE  LYS d   1     -49.996 -10.284 -43.285  0.00  0.00     0.080 C 
ATOM     80  H30 LYS d   1     -51.068 -10.531 -43.274  0.00  0.00     0.075 H 
ATOM     81  H31 LYS d   1     -49.659 -10.161 -44.325  0.00  0.00     0.075 H 
BRANCH  79  82
ATOM     82  NZ  LYS d   1     -49.766  -9.045 -42.540  0.00  0.00    -0.079 N 
ATOM     83  H32 LYS d   1     -50.283  -8.294 -42.969  0.00  0.00     0.274 HD
ATOM     84  H33 LYS d   1     -48.782  -8.824 -42.550  0.00  0.00     0.274 HD
ATOM     85  H34 LYS d   1     -50.074  -9.164 -41.587  0.00  0.00     0.274 HD
ENDBRANCH  79  82
ENDBRANCH  76  79
ENDBRANCH  73  76
ENDBRANCH  70  73
ENDBRANCH   1  70
TORSDOF 27
