REMARK  31 active torsions:
REMARK  status: ('A' for Active; 'I' for Inactive)
REMARK    1  A    between atoms: N_1  and  CA_2 
REMARK    2  A    between atoms: CA_2  and  C_3 
REMARK    3  A    between atoms: CA_2  and  CB_5 
REMARK       I    between atoms: C_3  and  N_10 
REMARK    4  A    between atoms: CB_5  and  CG_6 
REMARK    5  A    between atoms: CG_6  and  CD_7 
REMARK    6  A    between atoms: CD_7  and  CE_8 
REMARK    7  A    between atoms: CE_8  and  NZ_9 
REMARK    8  A    between atoms: N_10  and  CA_11 
REMARK    9  A    between atoms: CA_11  and  C_12 
REMARK   10  A    between atoms: CA_11  and  CB_14 
REMARK       I    between atoms: C_12  and  N_17 
REMARK   11  A    between atoms: CB_14  and  OG1_15 
REMARK   12  A    between atoms: CB_14  and  CG2_16 
REMARK   13  A    between atoms: N_17  and  CA_18 
REMARK   14  A    between atoms: CA_18  and  C_19 
REMARK   15  A    between atoms: CA_18  and  CB_21 
REMARK       I    between atoms: C_19  and  N_26 
REMARK   16  A    between atoms: CB_21  and  CG_22 
REMARK   17  A    between atoms: CG_22  and  CD_23 
REMARK   18  A    between atoms: CD_23  and  CE_24 
REMARK   19  A    between atoms: CE_24  and  NZ_25 
REMARK   20  A    between atoms: N_26  and  CA_27 
REMARK   21  A    between atoms: CA_27  and  C_28 
REMARK   22  A    between atoms: CA_27  and  CB_30 
REMARK       I    between atoms: C_28  and  N_34 
REMARK   23  A    between atoms: CB_30  and  CG_31 
REMARK   24  A    between atoms: CG_31  and  CD1_32 
REMARK   25  A    between atoms: CG_31  and  CD2_33 
REMARK   26  A    between atoms: N_34  and  CA_35 
REMARK   27  A    between atoms: CA_35  and  C_36 
REMARK   28  A    between atoms: CA_35  and  CB_38 
REMARK   29  A    between atoms: CB_38  and  CG_39 
REMARK   30  A    between atoms: CG_39  and  CD1_40 
REMARK   31  A    between atoms: CG_39  and  CD2_41 
ROOT
ATOM      1  CA  LYS d   1       1.683   5.529  19.974  0.00  0.00     0.089 C 
ATOM      2  H24 LYS d   1       1.960   6.569  20.200  0.00  0.00     0.087 H 
ENDROOT
BRANCH   1   3
ATOM      3  N   LYS d   1       2.809   4.898  19.293  0.00  0.00    -0.346 N 
ATOM      4  C   THR d   1       2.811   3.600  19.019  0.00  0.00     0.243 C 
ATOM      5  O   THR d   1       1.884   2.852  19.332  0.00  0.00    -0.271 OA
ATOM      6  H23 LYS d   1       3.595   5.456  19.027  0.00  0.00     0.163 HD
BRANCH   4   7
ATOM      7  CA  THR d   1       4.046   3.053  18.287  0.00  0.00     0.113 C 
ATOM      8  H17 THR d   1       4.941   3.517  18.728  0.00  0.00     0.091 H 
BRANCH   7   9
ATOM      9  N   THR d   1       4.132   1.611  18.505  0.00  0.00    -0.344 N 
ATOM     10  C   LYS d   1       4.521   1.138  19.687  0.00  0.00     0.249 C 
ATOM     11  O   LYS d   1       4.894   1.872  20.601  0.00  0.00    -0.271 OA
ATOM     12  H16 THR d   1       3.899   0.979  17.766  0.00  0.00     0.163 HD
BRANCH  10  13
ATOM     13  CA  LYS d   1       4.497  -0.377  19.875  0.00  0.00     0.176 C 
ATOM     14  H4  LYS d   1       3.970  -0.824  19.019  0.00  0.00     0.099 H 
BRANCH  13  15
ATOM     15  N   LYS d   1       5.855  -0.914  19.916  0.00  0.00    -0.067 N 
ATOM     16  H1  LYS d   1       5.817  -1.914  20.040  0.00  0.00     0.275 HD
ATOM     17  H2  LYS d   1       6.358  -0.498  20.685  0.00  0.00     0.275 HD
ATOM     18  H3  LYS d   1       6.327  -0.701  19.051  0.00  0.00     0.275 HD
ENDBRANCH  13  15
BRANCH  13  19
ATOM     19  CB  LYS d   1       3.744  -0.752  21.162  0.00  0.00    -0.030 C 
ATOM     20  H5  LYS d   1       4.349  -0.420  22.019  0.00  0.00     0.036 H 
ATOM     21  H6  LYS d   1       3.640  -1.847  21.188  0.00  0.00     0.036 H 
BRANCH  19  22
ATOM     22  CG  LYS d   1       2.342  -0.139  21.305  0.00  0.00    -0.061 C 
ATOM     23  H7  LYS d   1       2.434   0.957  21.283  0.00  0.00     0.033 H 
ATOM     24  H8  LYS d   1       1.918  -0.452  22.271  0.00  0.00     0.033 H 
BRANCH  22  25
ATOM     25  CD  LYS d   1       1.385  -0.573  20.186  0.00  0.00    -0.043 C 
ATOM     26  H9  LYS d   1       1.931  -0.551  19.231  0.00  0.00     0.035 H 
ATOM     27  H10 LYS d   1       0.548   0.139  20.146  0.00  0.00     0.035 H 
BRANCH  25  28
ATOM     28  CE  LYS d   1       0.818  -1.980  20.391  0.00  0.00     0.080 C 
ATOM     29  H11 LYS d   1       0.189  -1.991  21.294  0.00  0.00     0.075 H 
ATOM     30  H12 LYS d   1       1.647  -2.692  20.513  0.00  0.00     0.075 H 
BRANCH  28  31
ATOM     31  NZ  LYS d   1      -0.012  -2.383  19.202  0.00  0.00    -0.079 N 
ATOM     32  H13 LYS d   1      -0.380  -3.310  19.348  0.00  0.00     0.274 HD
ATOM     33  H14 LYS d   1       0.562  -2.376  18.373  0.00  0.00     0.274 HD
ATOM     34  H15 LYS d   1      -0.774  -1.733  19.088  0.00  0.00     0.274 HD
ENDBRANCH  28  31
ENDBRANCH  25  28
ENDBRANCH  22  25
ENDBRANCH  19  22
ENDBRANCH  13  19
ENDBRANCH  10  13
ENDBRANCH   7   9
BRANCH   7  35
ATOM     35  CB  THR d   1       4.018   3.427  16.787  0.00  0.00     0.060 C 
ATOM     36  H18 THR d   1       4.855   2.928  16.277  0.00  0.00     0.086 H 
BRANCH  35  37
ATOM     37  OG1 THR d   1       4.145   4.848  16.636  0.00  0.00    -0.393 OA
ATOM     38  H19 THR d   1       4.127   5.070  15.713  0.00  0.00     0.210 HD
ENDBRANCH  35  37
BRANCH  35  39
ATOM     39  CG2 THR d   1       2.738   3.002  16.162  0.00  0.00    -0.050 C 
ATOM     40  H20 THR d   1       2.741   3.278  15.097  0.00  0.00     0.031 H 
ATOM     41  H21 THR d   1       1.899   3.502  16.668  0.00  0.00     0.031 H 
ATOM     42  H22 THR d   1       2.627   1.912  16.258  0.00  0.00     0.031 H 
ENDBRANCH  35  39
ENDBRANCH   7  35
ENDBRANCH   4   7
ENDBRANCH   1   3
BRANCH   1  43
ATOM     43  C   LYS d   1       1.376   4.822  21.293  0.00  0.00     0.241 C 
ATOM     44  O   LYS d   1       0.221   4.524  21.601  0.00  0.00    -0.271 OA
ATOM     45  N   LEU d   1       2.416   4.552  22.070  0.00  0.00    -0.346 N 
ATOM     46  H36 LEU d   1       3.334   4.800  21.762  0.00  0.00     0.163 HD
BRANCH  45  47
ATOM     47  CA  LEU d   1       2.250   3.901  23.364  0.00  0.00     0.089 C 
ATOM     48  H37 LEU d   1       1.534   3.074  23.245  0.00  0.00     0.087 H 
BRANCH  47  49
ATOM     49  C   LEU d   1       1.697   4.869  24.409  0.00  0.00     0.241 C 
ATOM     50  O   LEU d   1       0.964   4.457  25.309  0.00  0.00    -0.271 OA
ATOM     51  N   LEU d   1       2.047   6.150  24.291  0.00  0.00    -0.345 N 
ATOM     52  H47 LEU d   1       2.640   6.425  23.534  0.00  0.00     0.163 HD
BRANCH  51  53
ATOM     53  CA  LEU d   1       1.584   7.169  25.243  0.00  0.00     0.096 C 
ATOM     54  H48 LEU d   1       1.946   6.898  26.246  0.00  0.00     0.089 H 
BRANCH  53  55
ATOM     55  C   LEU d   1       0.069   7.267  25.271  0.00  0.00     0.196 C 
ATOM     56  O   LEU d   1      -0.585   6.962  24.266  0.00  0.00    -0.646 OA
ATOM     57  OXT LEU d   1      -0.505   7.710  26.278  0.00  0.00    -0.646 OA
ENDBRANCH  53  55
BRANCH  53  58
ATOM     58  CB  LEU d   1       2.124   8.551  24.866  0.00  0.00    -0.034 C 
ATOM     59  H49 LEU d   1       1.523   9.295  25.409  0.00  0.00     0.037 H 
ATOM     60  H50 LEU d   1       1.972   8.677  23.784  0.00  0.00     0.037 H 
BRANCH  58  61
ATOM     61  CG  LEU d   1       3.595   8.856  25.156  0.00  0.00    -0.059 C 
ATOM     62  H51 LEU d   1       4.220   8.107  24.648  0.00  0.00     0.038 H 
BRANCH  61  63
ATOM     63  CD1 LEU d   1       3.938  10.234  24.613  0.00  0.00    -0.073 C 
ATOM     64  H52 LEU d   1       4.995  10.457  24.820  0.00  0.00     0.028 H 
ATOM     65  H53 LEU d   1       3.302  10.989  25.099  0.00  0.00     0.028 H 
ATOM     66  H54 LEU d   1       3.765  10.254  23.527  0.00  0.00     0.028 H 
ENDBRANCH  61  63
BRANCH  61  67
ATOM     67  CD2 LEU d   1       3.873   8.792  26.639  0.00  0.00    -0.073 C 
ATOM     68  H55 LEU d   1       3.620   7.790  27.017  0.00  0.00     0.028 H 
ATOM     69  H56 LEU d   1       3.263   9.545  27.159  0.00  0.00     0.028 H 
ATOM     70  H57 LEU d   1       4.939   8.994  26.821  0.00  0.00     0.028 H 
ENDBRANCH  61  67
ENDBRANCH  58  61
ENDBRANCH  53  58
ENDBRANCH  51  53
ENDBRANCH  47  49
BRANCH  47  71
ATOM     71  CB  LEU d   1       3.588   3.324  23.840  0.00  0.00    -0.035 C 
ATOM     72  H38 LEU d   1       4.293   4.161  23.947  0.00  0.00     0.037 H 
ATOM     73  H39 LEU d   1       3.950   2.636  23.062  0.00  0.00     0.037 H 
BRANCH  71  74
ATOM     74  CG  LEU d   1       3.571   2.558  25.167  0.00  0.00    -0.059 C 
ATOM     75  H40 LEU d   1       3.136   3.219  25.931  0.00  0.00     0.038 H 
BRANCH  74  76
ATOM     76  CD1 LEU d   1       2.699   1.305  25.082  0.00  0.00    -0.073 C 
ATOM     77  H41 LEU d   1       2.712   0.783  26.050  0.00  0.00     0.028 H 
ATOM     78  H42 LEU d   1       3.091   0.637  24.301  0.00  0.00     0.028 H 
ATOM     79  H43 LEU d   1       1.667   1.593  24.834  0.00  0.00     0.028 H 
ENDBRANCH  74  76
BRANCH  74  80
ATOM     80  CD2 LEU d   1       4.994   2.203  25.605  0.00  0.00    -0.073 C 
ATOM     81  H44 LEU d   1       5.600   3.119  25.659  0.00  0.00     0.028 H 
ATOM     82  H45 LEU d   1       5.440   1.510  24.876  0.00  0.00     0.028 H 
ATOM     83  H46 LEU d   1       4.964   1.725  26.595  0.00  0.00     0.028 H 
ENDBRANCH  74  80
ENDBRANCH  71  74
ENDBRANCH  47  71
ENDBRANCH  45  47
ENDBRANCH   1  43
BRANCH   1  84
ATOM     84  CB  LYS d   1       0.444   5.549  19.073  0.00  0.00    -0.038 C 
ATOM     85  H25 LYS d   1      -0.377   6.029  19.625  0.00  0.00     0.036 H 
ATOM     86  H26 LYS d   1       0.170   4.510  18.839  0.00  0.00     0.036 H 
BRANCH  84  87
ATOM     87  CG  LYS d   1       0.641   6.300  17.759  0.00  0.00    -0.061 C 
ATOM     88  H27 LYS d   1      -0.253   6.165  17.132  0.00  0.00     0.033 H 
ATOM     89  H28 LYS d   1       1.519   5.889  17.240  0.00  0.00     0.033 H 
BRANCH  87  90
ATOM     90  CD  LYS d   1       0.857   7.779  17.997  0.00  0.00    -0.043 C 
ATOM     91  H29 LYS d   1       1.719   8.121  17.406  0.00  0.00     0.035 H 
ATOM     92  H30 LYS d   1       1.054   7.951  19.066  0.00  0.00     0.035 H 
BRANCH  90  93
ATOM     93  CE  LYS d   1      -0.376   8.557  17.582  0.00  0.00     0.080 C 
ATOM     94  H31 LYS d   1      -1.266   8.066  18.003  0.00  0.00     0.075 H 
ATOM     95  H32 LYS d   1      -0.444   8.559  16.484  0.00  0.00     0.075 H 
BRANCH  93  96
ATOM     96  NZ  LYS d   1      -0.326   9.959  18.064  0.00  0.00    -0.079 N 
ATOM     97  H33 LYS d   1      -1.159  10.445  17.771  0.00  0.00     0.274 HD
ATOM     98  H34 LYS d   1       0.484  10.418  17.678  0.00  0.00     0.274 HD
ATOM     99  H35 LYS d   1      -0.269   9.966  19.070  0.00  0.00     0.274 HD
ENDBRANCH  93  96
ENDBRANCH  90  93
ENDBRANCH  87  90
ENDBRANCH  84  87
ENDBRANCH   1  84
TORSDOF 31
