REMARK  31 active torsions:
REMARK  status: ('A' for Active; 'I' for Inactive)
REMARK    1  A    between atoms: N_1  and  CA_2 
REMARK    2  A    between atoms: CA_2  and  C_3 
REMARK    3  A    between atoms: CA_2  and  CB_5 
REMARK       I    between atoms: C_3  and  N_10 
REMARK    4  A    between atoms: CB_5  and  CG_6 
REMARK    5  A    between atoms: CG_6  and  CD_7 
REMARK    6  A    between atoms: N_10  and  CA_11 
REMARK    7  A    between atoms: CA_11  and  C_12 
REMARK    8  A    between atoms: CA_11  and  CB_14 
REMARK       I    between atoms: C_12  and  N_19 
REMARK    9  A    between atoms: CB_14  and  CG_15 
REMARK   10  A    between atoms: CG_15  and  CD_16 
REMARK   11  A    between atoms: CD_16  and  CE_17 
REMARK   12  A    between atoms: CE_17  and  NZ_18 
REMARK   13  A    between atoms: N_19  and  CA_20 
REMARK   14  A    between atoms: CA_20  and  C_21 
REMARK   15  A    between atoms: CA_20  and  CB_23 
REMARK       I    between atoms: C_21  and  N_26 
REMARK   16  A    between atoms: CB_23  and  CG1_24 
REMARK   17  A    between atoms: CB_23  and  CG2_25 
REMARK   18  A    between atoms: N_26  and  CA_27 
REMARK   19  A    between atoms: CA_27  and  C_28 
REMARK   20  A    between atoms: CA_27  and  CB_30 
REMARK       I    between atoms: C_28  and  N_36 
REMARK   21  A    between atoms: CB_30  and  CG_31 
REMARK   22  A    between atoms: N_36  and  CA_37 
REMARK   23  A    between atoms: CA_37  and  C_38 
REMARK   24  A    between atoms: CA_37  and  CB_40 
REMARK       I    between atoms: C_38  and  N_43 
REMARK   25  A    between atoms: CB_40  and  CG1_41 
REMARK   26  A    between atoms: CB_40  and  CG2_42 
REMARK   27  A    between atoms: N_43  and  CA_44 
REMARK   28  A    between atoms: CA_44  and  C_45 
REMARK   29  A    between atoms: CA_44  and  CB_47 
REMARK   30  A    between atoms: CB_47  and  CG_48 
REMARK   31  A    between atoms: CG_48  and  CD_49 
REMARK       I    between atoms: CD_49  and  NE2_51 
ROOT
ATOM      1  CA  VAL d   1       3.842 -21.898  18.175  0.00  0.00     0.092 C 
ATOM      2  H23 VAL d   1       4.743 -21.597  18.729  0.00  0.00     0.088 H 
ENDROOT
BRANCH   1   3
ATOM      3  N   VAL d   1       3.862 -23.344  18.006  0.00  0.00    -0.346 N 
ATOM      4  C   LYS d   1       4.520 -24.128  18.854  0.00  0.00     0.241 C 
ATOM      5  O   LYS d   1       5.206 -23.687  19.784  0.00  0.00    -0.271 OA
ATOM      6  H22 VAL d   1       3.372 -23.755  17.238  0.00  0.00     0.163 HD
BRANCH   4   7
ATOM      7  CA  LYS d   1       4.403 -25.626  18.603  0.00  0.00     0.089 C 
ATOM      8  H10 LYS d   1       3.877 -25.777  17.649  0.00  0.00     0.087 H 
BRANCH   7   9
ATOM      9  N   LYS d   1       5.747 -26.198  18.470  0.00  0.00    -0.346 N 
ATOM     10  C   GLU d   1       6.462 -25.931  17.373  0.00  0.00     0.249 C 
ATOM     11  O   GLU d   1       5.993 -25.317  16.410  0.00  0.00    -0.271 OA
ATOM     12  H9  LYS d   1       6.123 -26.780  19.191  0.00  0.00     0.163 HD
BRANCH  10  13
ATOM     13  CA  GLU d   1       7.905 -26.436  17.320  0.00  0.00     0.176 C 
ATOM     14  H4  GLU d   1       8.467 -25.766  16.653  0.00  0.00     0.099 H 
BRANCH  13  15
ATOM     15  N   GLU d   1       8.562 -26.405  18.621  0.00  0.00    -0.066 N 
ATOM     16  H1  GLU d   1       9.506 -26.747  18.529  0.00  0.00     0.275 HD
ATOM     17  H2  GLU d   1       8.055 -26.989  19.267  0.00  0.00     0.275 HD
ATOM     18  H3  GLU d   1       8.580 -25.458  18.966  0.00  0.00     0.275 HD
ENDBRANCH  13  15
BRANCH  13  19
ATOM     19  CB  GLU d   1       7.943 -27.839  16.718  0.00  0.00    -0.021 C 
ATOM     20  H5  GLU d   1       7.088 -28.408  17.112  0.00  0.00     0.037 H 
ATOM     21  H6  GLU d   1       8.880 -28.324  17.028  0.00  0.00     0.037 H 
BRANCH  19  22
ATOM     22  CG  GLU d   1       7.873 -27.859  15.199  0.00  0.00     0.018 C 
ATOM     23  H7  GLU d   1       8.697 -27.248  14.801  0.00  0.00     0.049 H 
ATOM     24  H8  GLU d   1       6.911 -27.427  14.886  0.00  0.00     0.049 H 
BRANCH  22  25
ATOM     25  CD  GLU d   1       7.986 -29.262  14.622  0.00  0.00     0.172 C 
ATOM     26  OE1 GLU d   1       8.384 -30.183  15.371  0.00  0.00    -0.648 OA
ATOM     27  OE2 GLU d   1       7.682 -29.442  13.421  0.00  0.00    -0.648 OA
ENDBRANCH  22  25
ENDBRANCH  19  22
ENDBRANCH  13  19
ENDBRANCH  10  13
ENDBRANCH   7   9
BRANCH   7  28
ATOM     28  CB  LYS d   1       3.562 -26.295  19.708  0.00  0.00    -0.038 C 
ATOM     29  H11 LYS d   1       3.976 -26.011  20.687  0.00  0.00     0.036 H 
ATOM     30  H12 LYS d   1       3.624 -27.386  19.586  0.00  0.00     0.036 H 
BRANCH  28  31
ATOM     31  CG  LYS d   1       2.078 -25.877  19.660  0.00  0.00    -0.061 C 
ATOM     32  H13 LYS d   1       1.667 -26.163  18.680  0.00  0.00     0.033 H 
ATOM     33  H14 LYS d   1       2.020 -24.785  19.778  0.00  0.00     0.033 H 
BRANCH  31  34
ATOM     34  CD  LYS d   1       1.229 -26.525  20.746  0.00  0.00    -0.043 C 
ATOM     35  H15 LYS d   1       0.345 -25.894  20.920  0.00  0.00     0.035 H 
ATOM     36  H16 LYS d   1       1.826 -26.582  21.668  0.00  0.00     0.035 H 
BRANCH  34  37
ATOM     37  CE  LYS d   1       0.760 -27.922  20.391  0.00  0.00     0.080 C 
ATOM     38  H17 LYS d   1       0.061 -28.276  21.163  0.00  0.00     0.075 H 
ATOM     39  H18 LYS d   1       1.629 -28.595  20.346  0.00  0.00     0.075 H 
BRANCH  37  40
ATOM     40  NZ  LYS d   1       0.066 -27.924  19.060  0.00  0.00    -0.079 N 
ATOM     41  H19 LYS d   1      -0.238 -28.860  18.841  0.00  0.00     0.274 HD
ATOM     42  H20 LYS d   1       0.703 -27.603  18.348  0.00  0.00     0.274 HD
ATOM     43  H21 LYS d   1      -0.733 -27.311  19.097  0.00  0.00     0.274 HD
ENDBRANCH  37  40
ENDBRANCH  34  37
ENDBRANCH  31  34
ENDBRANCH  28  31
ENDBRANCH   7  28
ENDBRANCH   4   7
ENDBRANCH   1   3
BRANCH   1  44
ATOM     44  C   VAL d   1       2.602 -21.494  18.992  0.00  0.00     0.241 C 
ATOM     45  O   VAL d   1       1.713 -22.320  19.235  0.00  0.00    -0.271 OA
ATOM     46  N   HIS d   1       2.541 -20.085  19.418  0.00  0.00    -0.346 N 
ATOM     47  H31 HIS d   1       3.224 -19.420  19.116  0.00  0.00     0.163 HD
BRANCH  46  48
ATOM     48  CA  HIS d   1       1.440 -19.699  20.300  0.00  0.00     0.094 C 
ATOM     49  H32 HIS d   1       1.716 -18.741  20.765  0.00  0.00     0.088 H 
BRANCH  48  50
ATOM     50  C   HIS d   1       1.211 -20.698  21.422  0.00  0.00     0.241 C 
ATOM     51  O   HIS d   1       0.070 -21.048  21.741  0.00  0.00    -0.271 OA
ATOM     52  N   VAL d   1       2.200 -21.035  22.111  0.00  0.00    -0.346 N 
ATOM     53  H38 VAL d   1       3.116 -20.741  21.837  0.00  0.00     0.163 HD
BRANCH  52  54
ATOM     54  CA  VAL d   1       2.032 -21.857  23.316  0.00  0.00     0.092 C 
ATOM     55  H39 VAL d   1       1.246 -22.598  23.108  0.00  0.00     0.088 H 
BRANCH  54  56
ATOM     56  C   VAL d   1       1.573 -21.016  24.498  0.00  0.00     0.241 C 
ATOM     57  O   VAL d   1       0.870 -21.506  25.394  0.00  0.00    -0.271 OA
ATOM     58  N   GLN d   1       1.950 -19.743  24.504  0.00  0.00    -0.345 N 
ATOM     59  H47 GLN d   1       2.515 -19.381  23.763  0.00  0.00     0.163 HD
BRANCH  58  60
ATOM     60  CA  GLN d   1       1.531 -18.872  25.606  0.00  0.00     0.096 C 
ATOM     61  H48 GLN d   1       1.664 -19.420  26.550  0.00  0.00     0.089 H 
BRANCH  60  62
ATOM     62  C   GLN d   1       0.067 -18.469  25.472  0.00  0.00     0.196 C 
ATOM     63  O   GLN d   1      -0.498 -17.892  26.418  0.00  0.00    -0.646 OA
ATOM     64  OXT GLN d   1      -0.581 -18.675  24.426  0.00  0.00    -0.646 OA
ENDBRANCH  60  62
BRANCH  60  65
ATOM     65  CB  GLN d   1       2.377 -17.602  25.647  0.00  0.00    -0.029 C 
ATOM     66  H49 GLN d   1       1.919 -16.908  26.367  0.00  0.00     0.037 H 
ATOM     67  H50 GLN d   1       2.365 -17.150  24.644  0.00  0.00     0.037 H 
BRANCH  65  68
ATOM     68  CG  GLN d   1       3.815 -17.814  26.049  0.00  0.00     0.011 C 
ATOM     69  H51 GLN d   1       4.351 -18.298  25.219  0.00  0.00     0.047 H 
ATOM     70  H52 GLN d   1       3.847 -18.465  26.935  0.00  0.00     0.047 H 
BRANCH  68  71
ATOM     71  CD  GLN d   1       4.493 -16.502  26.376  0.00  0.00     0.215 C 
ATOM     72  OE1 GLN d   1       4.594 -16.113  27.546  0.00  0.00    -0.274 OA
ATOM     73  NE2 GLN d   1       4.939 -15.797  25.344  0.00  0.00    -0.370 N 
ATOM     74  H53 GLN d   1       5.396 -14.921  25.497  0.00  0.00     0.159 HD
ATOM     75  H54 GLN d   1       4.818 -16.142  24.413  0.00  0.00     0.159 HD
ENDBRANCH  68  71
ENDBRANCH  65  68
ENDBRANCH  60  65
ENDBRANCH  58  60
ENDBRANCH  54  56
BRANCH  54  76
ATOM     76  CB  VAL d   1       3.330 -22.629  23.654  0.00  0.00    -0.033 C 
ATOM     77  H40 VAL d   1       4.170 -21.920  23.614  0.00  0.00     0.042 H 
BRANCH  76  78
ATOM     78  CG1 VAL d   1       3.279 -23.223  25.042  0.00  0.00    -0.071 C 
ATOM     79  H41 VAL d   1       4.216 -23.762  25.245  0.00  0.00     0.028 H 
ATOM     80  H42 VAL d   1       2.432 -23.922  25.111  0.00  0.00     0.028 H 
ATOM     81  H43 VAL d   1       3.152 -22.418  25.781  0.00  0.00     0.028 H 
ENDBRANCH  76  78
BRANCH  76  82
ATOM     82  CG2 VAL d   1       3.576 -23.726  22.629  0.00  0.00    -0.071 C 
ATOM     83  H44 VAL d   1       3.612 -23.285  21.622  0.00  0.00     0.028 H 
ATOM     84  H45 VAL d   1       2.761 -24.463  22.678  0.00  0.00     0.028 H 
ATOM     85  H46 VAL d   1       4.533 -24.223  22.846  0.00  0.00     0.028 H 
ENDBRANCH  76  82
ENDBRANCH  54  76
ENDBRANCH  52  54
ENDBRANCH  48  50
BRANCH  48  86
ATOM     86  CB  HIS d   1       0.140 -19.475  19.505  0.00  0.00     0.004 C 
ATOM     87  H33 HIS d   1      -0.680 -19.304  20.218  0.00  0.00     0.046 H 
ATOM     88  H34 HIS d   1      -0.069 -20.380  18.915  0.00  0.00     0.046 H 
BRANCH  86  89
ATOM     89  CG  HIS d   1       0.211 -18.305  18.572  0.00  0.00     0.053 A 
ATOM     90  ND1 HIS d   1       0.771 -18.387  17.314  0.00  0.00    -0.247 NA
ATOM     91  CE1 HIS d   1       0.691 -17.206  16.721  0.00  0.00     0.064 A 
ATOM     92  NE2 HIS d   1       0.082 -16.370  17.542  0.00  0.00    -0.359 N 
ATOM     93  H36 HIS d   1       1.064 -16.965  15.726  0.00  0.00     0.143 H 
ATOM     94  CD2 HIS d   1      -0.233 -17.031  18.706  0.00  0.00     0.002 A 
ATOM     95  H37 HIS d   1      -0.124 -15.381  17.342  0.00  0.00     0.166 HD
ATOM     96  H35 HIS d   1      -0.743 -16.611  19.572  0.00  0.00     0.114 H 
ENDBRANCH  86  89
ENDBRANCH  48  86
ENDBRANCH  46  48
ENDBRANCH   1  44
BRANCH   1  97
ATOM     97  CB  VAL d   1       3.847 -21.182  16.817  0.00  0.00    -0.033 C 
ATOM     98  H24 VAL d   1       3.731 -20.101  16.986  0.00  0.00     0.042 H 
BRANCH  97  99
ATOM     99  CG1 VAL d   1       5.179 -21.430  16.093  0.00  0.00    -0.071 C 
ATOM    100  H25 VAL d   1       5.171 -20.913  15.122  0.00  0.00     0.028 H 
ATOM    101  H26 VAL d   1       5.313 -22.510  15.932  0.00  0.00     0.028 H 
ATOM    102  H27 VAL d   1       6.007 -21.045  16.706  0.00  0.00     0.028 H 
ENDBRANCH  97  99
BRANCH  97 103
ATOM    103  CG2 VAL d   1       2.698 -21.668  15.969  0.00  0.00    -0.071 C 
ATOM    104  H28 VAL d   1       1.750 -21.486  16.497  0.00  0.00     0.028 H 
ATOM    105  H29 VAL d   1       2.811 -22.746  15.781  0.00  0.00     0.028 H 
ATOM    106  H30 VAL d   1       2.695 -21.127  15.011  0.00  0.00     0.028 H 
ENDBRANCH  97 103
ENDBRANCH   1  97
TORSDOF 31
