REMARK  25 active torsions:
REMARK  status: ('A' for Active; 'I' for Inactive)
REMARK    1  A    between atoms: N_1  and  CA_2 
REMARK    2  A    between atoms: CA_2  and  C_3 
REMARK    3  A    between atoms: CA_2  and  CB_5 
REMARK       I    between atoms: C_3  and  N_7 
REMARK    4  A    between atoms: CB_5  and  OG_6 
REMARK    5  A    between atoms: N_7  and  CA_8 
REMARK    6  A    between atoms: CA_8  and  C_9 
REMARK    7  A    between atoms: CA_8  and  CB_11 
REMARK       I    between atoms: C_9  and  N_12 
REMARK    8  A    between atoms: N_12  and  CA_13 
REMARK    9  A    between atoms: CA_13  and  C_14 
REMARK   10  A    between atoms: CA_13  and  CB_16 
REMARK       I    between atoms: C_14  and  N_18 
REMARK   11  A    between atoms: CB_16  and  OG_17 
REMARK   12  A    between atoms: N_18  and  CA_19 
REMARK   13  A    between atoms: CA_19  and  C_20 
REMARK   14  A    between atoms: CA_19  and  CB_22 
REMARK       I    between atoms: C_20  and  N_27 
REMARK   15  A    between atoms: CB_22  and  CG_23 
REMARK   16  A    between atoms: CG_23  and  CD_24 
REMARK   17  A    between atoms: CD_24  and  CE_25 
REMARK   18  A    between atoms: CE_25  and  NZ_26 
REMARK   19  A    between atoms: N_27  and  CA_28 
REMARK   20  A    between atoms: CA_28  and  C_29 
REMARK   21  A    between atoms: CA_28  and  CB_31 
REMARK       I    between atoms: C_29  and  N_35 
REMARK   22  A    between atoms: CB_31  and  CG_32 
REMARK   23  A    between atoms: N_35  and  CA_36 
REMARK   24  A    between atoms: CA_36  and  C_37 
REMARK   25  A    between atoms: CA_36  and  CB_39 
ROOT
ATOM      1  CA  LYS d   1      46.423 -12.588 -16.299  0.00  0.00     0.089 C 
ATOM      2  H   LYS d   1      47.332 -12.662 -16.914  0.00  0.00     0.087 H 
ENDROOT
BRANCH   1   3
ATOM      3  N   LYS d   1      46.539 -11.394 -15.476  0.00  0.00    -0.346 N 
ATOM      4  C   SER d   1      46.697 -10.166 -15.990  0.00  0.00     0.243 C 
ATOM      5  O   SER d   1      46.568  -9.904 -17.179  0.00  0.00    -0.271 OA
ATOM      6  H   LYS d   1      46.499 -11.494 -14.482  0.00  0.00     0.163 HD
BRANCH   4   7
ATOM      7  CA  SER d   1      46.995  -9.046 -15.010  0.00  0.00     0.109 C 
ATOM      8  H   SER d   1      47.586  -9.445 -14.172  0.00  0.00     0.090 H 
BRANCH   7   9
ATOM      9  N   SER d   1      47.768  -7.964 -15.666  0.00  0.00    -0.344 N 
ATOM     10  C   LYS d   1      48.423  -7.019 -14.973  0.00  0.00     0.240 C 
ATOM     11  O   LYS d   1      48.515  -7.070 -13.749  0.00  0.00    -0.271 OA
ATOM     12  H   SER d   1      47.803  -7.937 -16.665  0.00  0.00     0.163 HD
BRANCH  10  13
ATOM     13  CA  LYS d   1      49.111  -5.861 -15.811  0.00  0.00     0.086 C 
ATOM     14  H   LYS d   1      49.873  -6.378 -16.413  0.00  0.00     0.086 H 
BRANCH  13  15
ATOM     15  N   LYS d   1      48.242  -5.185 -16.797  0.00  0.00    -0.346 N 
ATOM     16  C   SER d   1      48.181  -5.627 -18.061  0.00  0.00     0.251 C 
ATOM     17  O   SER d   1      48.709  -6.682 -18.410  0.00  0.00    -0.271 OA
ATOM     18  H   LYS d   1      47.697  -4.394 -16.520  0.00  0.00     0.163 HD
BRANCH  16  19
ATOM     19  CA  SER d   1      47.444  -4.759 -19.104  0.00  0.00     0.195 C 
ATOM     20  H   SER d   1      47.532  -5.282 -20.068  0.00  0.00     0.102 H 
BRANCH  19  21
ATOM     21  N   SER d   1      45.977  -4.603 -18.835  0.00  0.00    -0.064 N 
ATOM     22  H   SER d   1      45.563  -4.028 -19.552  0.00  0.00     0.275 HD
ATOM     23  H   SER d   1      45.845  -4.167 -17.936  0.00  0.00     0.275 HD
ATOM     24  H   SER d   1      45.537  -5.510 -18.836  0.00  0.00     0.275 HD
ENDBRANCH  19  21
BRANCH  19  25
ATOM     25  CB  SER d   1      48.138  -3.379 -19.266  0.00  0.00     0.051 C 
ATOM     26  H   SER d   1      48.287  -2.936 -18.270  0.00  0.00     0.077 H 
ATOM     27  H   SER d   1      47.490  -2.723 -19.866  0.00  0.00     0.077 H 
BRANCH  25  28
ATOM     28  OG  SER d   1      49.404  -3.495 -19.914  0.00  0.00    -0.398 OA
ATOM     29  H   SER d   1      49.797  -2.634 -19.995  0.00  0.00     0.209 HD
ENDBRANCH  25  28
ENDBRANCH  19  25
ENDBRANCH  16  19
ENDBRANCH  13  15
BRANCH  13  30
ATOM     30  CB  LYS d   1      49.900  -4.827 -14.956  0.00  0.00    -0.049 C 
ATOM     31  H   LYS d   1      50.536  -5.358 -14.233  0.00  0.00     0.030 H 
ATOM     32  H   LYS d   1      49.192  -4.181 -14.416  0.00  0.00     0.030 H 
ATOM     33  H   LYS d   1      50.529  -4.211 -15.615  0.00  0.00     0.030 H 
ENDBRANCH  13  30
ENDBRANCH  10  13
ENDBRANCH   7   9
BRANCH   7  34
ATOM     34  CB  SER d   1      45.669  -8.516 -14.482  0.00  0.00     0.044 C 
ATOM     35  H   SER d   1      45.863  -7.734 -13.733  0.00  0.00     0.077 H 
ATOM     36  H   SER d   1      45.109  -9.339 -14.015  0.00  0.00     0.077 H 
BRANCH  34  37
ATOM     37  OG  SER d   1      44.908  -7.974 -15.534  0.00  0.00    -0.398 OA
ATOM     38  H   SER d   1      44.738  -8.649 -16.181  0.00  0.00     0.209 HD
ENDBRANCH  34  37
ENDBRANCH   7  34
ENDBRANCH   4   7
ENDBRANCH   1   3
BRANCH   1  39
ATOM     39  C   LYS d   1      45.208 -12.565 -17.248  0.00  0.00     0.241 C 
ATOM     40  O   LYS d   1      44.155 -11.952 -16.955  0.00  0.00    -0.271 OA
ATOM     41  N   ASP d   1      45.359 -13.214 -18.404  0.00  0.00    -0.346 N 
ATOM     42  H   ASP d   1      46.278 -13.362 -18.769  0.00  0.00     0.163 HD
BRANCH  41  43
ATOM     43  CA  ASP d   1      44.200 -13.713 -19.147  0.00  0.00     0.098 C 
ATOM     44  H   ASP d   1      44.593 -14.181 -20.061  0.00  0.00     0.088 H 
BRANCH  43  45
ATOM     45  C   ASP d   1      43.174 -12.621 -19.644  0.00  0.00     0.241 C 
ATOM     46  O   ASP d   1      41.979 -12.906 -19.769  0.00  0.00    -0.271 OA
ATOM     47  N   ARG d   1      43.656 -11.410 -20.002  0.00  0.00    -0.345 N 
ATOM     48  H   ARG d   1      44.628 -11.223 -19.859  0.00  0.00     0.163 HD
BRANCH  47  49
ATOM     49  CA  ARG d   1      42.790 -10.320 -20.611  0.00  0.00     0.093 C 
ATOM     50  H   ARG d   1      42.025 -10.102 -19.851  0.00  0.00     0.089 H 
BRANCH  49  51
ATOM     51  C   ARG d   1      41.995 -10.685 -21.910  0.00  0.00     0.196 C 
ATOM     52  O   ARG d   1      42.543 -11.206 -22.895  0.00  0.00    -0.646 OA
ATOM     53  O1  ARG d   1      40.760 -10.442 -21.957  0.00  0.00    -0.646 OA
ENDBRANCH  49  51
BRANCH  49  54
ATOM     54  CB  ARG d   1      43.583  -9.011 -20.824  0.00  0.00    -0.048 C 
ATOM     55  H   ARG d   1      42.923  -8.250 -21.265  0.00  0.00     0.030 H 
ATOM     56  H   ARG d   1      44.428  -9.200 -21.502  0.00  0.00     0.030 H 
ATOM     57  H   ARG d   1      43.963  -8.651 -19.857  0.00  0.00     0.030 H 
ENDBRANCH  49  54
ENDBRANCH  47  49
ENDBRANCH  43  45
BRANCH  43  58
ATOM     58  CB  ASP d   1      43.544 -14.847 -18.300  0.00  0.00     0.043 C 
ATOM     59  H   ASP d   1      43.191 -14.414 -17.352  0.00  0.00     0.052 H 
ATOM     60  H   ASP d   1      44.306 -15.613 -18.093  0.00  0.00     0.052 H 
BRANCH  58  61
ATOM     61  CG  ASP d   1      42.368 -15.514 -18.991  0.00  0.00     0.175 C 
ATOM     62  OD1 ASP d   1      42.584 -16.285 -19.947  0.00  0.00    -0.648 OA
ATOM     63  OD2 ASP d   1      41.214 -15.280 -18.550  0.00  0.00    -0.648 OA
ENDBRANCH  58  61
ENDBRANCH  43  58
ENDBRANCH  41  43
ENDBRANCH   1  39
BRANCH   1  64
ATOM     64  CB  LYS d   1      46.334 -13.826 -15.407  0.00  0.00    -0.038 C 
ATOM     65  H   LYS d   1      46.256 -14.710 -16.057  0.00  0.00     0.036 H 
ATOM     66  H   LYS d   1      45.424 -13.740 -14.794  0.00  0.00     0.036 H 
BRANCH  64  67
ATOM     67  CG  LYS d   1      47.511 -14.031 -14.474  0.00  0.00    -0.061 C 
ATOM     68  H   LYS d   1      47.776 -13.064 -14.022  0.00  0.00     0.033 H 
ATOM     69  H   LYS d   1      48.363 -14.409 -15.058  0.00  0.00     0.033 H 
BRANCH  67  70
ATOM     70  CD  LYS d   1      47.200 -15.030 -13.354  0.00  0.00    -0.043 C 
ATOM     71  H   LYS d   1      47.056 -16.028 -13.795  0.00  0.00     0.035 H 
ATOM     72  H   LYS d   1      46.277 -14.718 -12.843  0.00  0.00     0.035 H 
BRANCH  70  73
ATOM     73  CE  LYS d   1      48.345 -15.098 -12.322  0.00  0.00     0.080 C 
ATOM     74  H   LYS d   1      48.504 -14.084 -11.927  0.00  0.00     0.075 H 
ATOM     75  H   LYS d   1      49.252 -15.433 -12.846  0.00  0.00     0.075 H 
BRANCH  73  76
ATOM     76  NZ  LYS d   1      48.118 -16.026 -11.145  0.00  0.00    -0.079 N 
ATOM     77  H   LYS d   1      48.920 -15.997 -10.535  0.00  0.00     0.274 HD
ATOM     78  H   LYS d   1      47.985 -16.967 -11.480  0.00  0.00     0.274 HD
ATOM     79  H   LYS d   1      47.299 -15.731 -10.637  0.00  0.00     0.274 HD
ENDBRANCH  73  76
ENDBRANCH  70  73
ENDBRANCH  67  70
ENDBRANCH  64  67
ENDBRANCH   1  64
TORSDOF 25
