REMARK  20 active torsions:
REMARK  status: ('A' for Active; 'I' for Inactive)
REMARK    1  A    between atoms: N_1  and  CA_2 
REMARK    2  A    between atoms: CA_2  and  C_3 
REMARK    3  A    between atoms: CA_2  and  CB_5 
REMARK       I    between atoms: C_3  and  N_10 
REMARK    4  A    between atoms: CB_5  and  CG_6 
REMARK    5  A    between atoms: CG_6  and  CD_7 
REMARK    6  A    between atoms: CD_7  and  CE_8 
REMARK    7  A    between atoms: CE_8  and  NZ_9 
REMARK    8  A    between atoms: CA_11  and  C_12 
REMARK       I    between atoms: C_12  and  N_17 
REMARK    9  A    between atoms: N_17  and  CA_18 
REMARK   10  A    between atoms: CA_18  and  C_19 
REMARK   11  A    between atoms: CA_18  and  CB_21 
REMARK       I    between atoms: C_19  and  N_27 
REMARK   12  A    between atoms: CB_21  and  CG_22 
REMARK   13  A    between atoms: N_27  and  CA_28 
REMARK   14  A    between atoms: CA_28  and  C_29 
REMARK   15  A    between atoms: CA_28  and  CB_31 
REMARK       I    between atoms: C_29  and  N_33 
REMARK   16  A    between atoms: CB_31  and  OG_32 
REMARK   17  A    between atoms: N_33  and  CA_34 
REMARK   18  A    between atoms: CA_34  and  C_35 
REMARK   19  A    between atoms: CA_34  and  CB_37 
REMARK   20  A    between atoms: CB_37  and  CG_38 
ROOT
ATOM      1  C   PRO d   1     -95.095  73.131 122.279  0.00  0.00     0.241 C 
ATOM      2  O   PRO d   1     -95.334  71.989 121.908  0.00  0.00    -0.271 OA
ATOM      3  N   HIS d   1     -96.035  73.994 122.645  0.00  0.00    -0.346 N 
ATOM      4  H23 HIS d   1     -95.761  74.895 122.980  0.00  0.00     0.163 HD
ENDROOT
BRANCH   3   5
ATOM      5  CA  HIS d   1     -97.444  73.672 122.574  0.00  0.00     0.094 C 
ATOM      6  H24 HIS d   1     -97.997  74.490 123.059  0.00  0.00     0.088 H 
BRANCH   5   7
ATOM      7  C   HIS d   1     -97.783  72.408 123.299  0.00  0.00     0.241 C 
ATOM      8  O   HIS d   1     -98.492  71.538 122.764  0.00  0.00    -0.271 OA
ATOM      9  N   SER d   1     -97.297  72.294 124.530  0.00  0.00    -0.344 N 
ATOM     10  H30 SER d   1     -96.725  73.027 124.897  0.00  0.00     0.163 HD
BRANCH   9  11
ATOM     11  CA  SER d   1     -97.575  71.131 125.357  0.00  0.00     0.109 C 
ATOM     12  H31 SER d   1     -97.470  70.236 124.727  0.00  0.00     0.090 H 
BRANCH  11  13
ATOM     13  C   SER d   1     -98.995  71.148 125.914  0.00  0.00     0.243 C 
ATOM     14  O   SER d   1     -99.575  70.100 126.167  0.00  0.00    -0.271 OA
ATOM     15  N   ASP d   1     -99.542  72.345 126.106  0.00  0.00    -0.344 N 
ATOM     16  H35 ASP d   1     -99.007  73.162 125.891  0.00  0.00     0.163 HD
BRANCH  15  17
ATOM     17  CA  ASP d   1    -100.899  72.503 126.621  0.00  0.00     0.105 C 
ATOM     18  H36 ASP d   1    -101.027  71.822 127.475  0.00  0.00     0.090 H 
BRANCH  17  19
ATOM     19  C   ASP d   1    -101.930  72.157 125.560  0.00  0.00     0.197 C 
ATOM     20  O   ASP d   1    -103.119  71.985 125.858  0.00  0.00    -0.646 OA
ATOM     21  OXT ASP d   1    -101.598  72.059 124.368  0.00  0.00    -0.646 OA
ENDBRANCH  17  19
BRANCH  17  22
ATOM     22  CB  ASP d   1    -101.140  73.943 127.096  0.00  0.00     0.044 C 
ATOM     23  H37 ASP d   1    -102.222  74.095 127.219  0.00  0.00     0.053 H 
ATOM     24  H38 ASP d   1    -100.757  74.633 126.330  0.00  0.00     0.053 H 
BRANCH  22  25
ATOM     25  CG  ASP d   1    -100.454  74.256 128.417  0.00  0.00     0.175 C 
ATOM     26  OD1 ASP d   1     -99.839  73.352 129.020  0.00  0.00    -0.648 OA
ATOM     27  OD2 ASP d   1    -100.549  75.420 128.856  0.00  0.00    -0.648 OA
ENDBRANCH  22  25
ENDBRANCH  17  22
ENDBRANCH  15  17
ENDBRANCH  11  13
BRANCH  11  28
ATOM     28  CB  SER d   1     -96.560  71.035 126.497  0.00  0.00     0.044 C 
ATOM     29  H32 SER d   1     -97.024  70.524 127.353  0.00  0.00     0.077 H 
ATOM     30  H33 SER d   1     -96.254  72.048 126.796  0.00  0.00     0.077 H 
BRANCH  28  31
ATOM     31  OG  SER d   1     -95.420  70.308 126.083  0.00  0.00    -0.398 OA
ATOM     32  H34 SER d   1     -95.016  70.749 125.345  0.00  0.00     0.209 HD
ENDBRANCH  28  31
ENDBRANCH  11  28
ENDBRANCH   9  11
ENDBRANCH   5   7
BRANCH   5  33
ATOM     33  CB  HIS d   1     -97.893  73.598 121.123  0.00  0.00     0.004 C 
ATOM     34  H25 HIS d   1     -98.857  73.070 121.083  0.00  0.00     0.046 H 
ATOM     35  H26 HIS d   1     -97.141  73.032 120.554  0.00  0.00     0.046 H 
BRANCH  33  36
ATOM     36  CG  HIS d   1     -98.061  74.947 120.481  0.00  0.00     0.053 A 
ATOM     37  ND1 HIS d   1     -99.263  75.466 120.194  0.00  0.00    -0.247 NA
ATOM     38  CE1 HIS d   1     -99.107  76.680 119.645  0.00  0.00     0.064 A 
ATOM     39  NE2 HIS d   1     -97.797  76.944 119.588  0.00  0.00    -0.359 N 
ATOM     40  H28 HIS d   1     -99.907  77.336 119.305  0.00  0.00     0.143 H 
ATOM     41  CD2 HIS d   1     -97.123  75.896 120.097  0.00  0.00     0.002 A 
ATOM     42  H29 HIS d   1     -97.374  77.806 119.216  0.00  0.00     0.166 HD
ATOM     43  H27 HIS d   1     -96.041  75.808 120.190  0.00  0.00     0.114 H 
ENDBRANCH  33  36
ENDBRANCH   5  33
ENDBRANCH   3   5
BRANCH   1  44
ATOM     44  CA  PRO d   1     -93.658  73.632 122.332  0.00  0.00     0.091 C 
ATOM     45  N   PRO d   1     -92.741  72.551 122.705  0.00  0.00    -0.337 N 
ATOM     46  C   LYS d   1     -92.852  71.934 123.876  0.00  0.00     0.251 C 
ATOM     47  CD  PRO d   1     -91.661  72.377 121.719  0.00  0.00    -0.001 C 
ATOM     48  O   LYS d   1     -93.687  72.256 124.719  0.00  0.00    -0.271 OA
ATOM     49  CG  PRO d   1     -91.765  73.611 120.876  0.00  0.00    -0.048 C 
ATOM     50  H21 PRO d   1     -91.821  71.472 121.115  0.00  0.00     0.064 H 
ATOM     51  H22 PRO d   1     -90.680  72.319 122.214  0.00  0.00     0.064 H 
ATOM     52  CB  PRO d   1     -93.197  74.012 120.927  0.00  0.00    -0.036 C 
ATOM     53  H19 PRO d   1     -91.128  74.409 121.284  0.00  0.00     0.035 H 
ATOM     54  H20 PRO d   1     -91.464  73.395 119.840  0.00  0.00     0.035 H 
ATOM     55  H17 PRO d   1     -93.302  75.095 120.764  0.00  0.00     0.036 H 
ATOM     56  H18 PRO d   1     -93.779  73.469 120.168  0.00  0.00     0.036 H 
ATOM     57  H16 PRO d   1     -93.580  74.481 123.027  0.00  0.00     0.087 H 
BRANCH  46  58
ATOM     58  CA  LYS d   1     -91.897  70.764 124.140  0.00  0.00     0.176 C 
ATOM     59  H4  LYS d   1     -91.137  70.748 123.345  0.00  0.00     0.099 H 
BRANCH  58  60
ATOM     60  N   LYS d   1     -91.224  70.932 125.425  0.00  0.00    -0.067 N 
ATOM     61  H1  LYS d   1     -90.601  70.155 125.582  0.00  0.00     0.275 HD
ATOM     62  H2  LYS d   1     -91.911  70.966 126.162  0.00  0.00     0.275 HD
ATOM     63  H3  LYS d   1     -90.695  71.790 125.418  0.00  0.00     0.275 HD
ENDBRANCH  58  60
BRANCH  58  64
ATOM     64  CB  LYS d   1     -92.656  69.434 124.117  0.00  0.00    -0.030 C 
ATOM     65  H5  LYS d   1     -93.428  69.467 124.900  0.00  0.00     0.036 H 
ATOM     66  H6  LYS d   1     -91.941  68.628 124.340  0.00  0.00     0.036 H 
BRANCH  64  67
ATOM     67  CG  LYS d   1     -93.334  69.112 122.798  0.00  0.00    -0.061 C 
ATOM     68  H7  LYS d   1     -92.565  68.906 122.039  0.00  0.00     0.033 H 
ATOM     69  H8  LYS d   1     -93.938  69.976 122.483  0.00  0.00     0.033 H 
BRANCH  67  70
ATOM     70  CD  LYS d   1     -94.238  67.895 122.935  0.00  0.00    -0.043 C 
ATOM     71  H9  LYS d   1     -95.101  68.019 122.265  0.00  0.00     0.035 H 
ATOM     72  H10 LYS d   1     -94.588  67.831 123.976  0.00  0.00     0.035 H 
BRANCH  70  73
ATOM     73  CE  LYS d   1     -93.527  66.601 122.579  0.00  0.00     0.080 C 
ATOM     74  H11 LYS d   1     -94.157  65.751 122.879  0.00  0.00     0.075 H 
ATOM     75  H12 LYS d   1     -92.570  66.557 123.120  0.00  0.00     0.075 H 
BRANCH  73  76
ATOM     76  NZ  LYS d   1     -93.263  66.516 121.119  0.00  0.00    -0.079 N 
ATOM     77  H13 LYS d   1     -92.792  65.649 120.913  0.00  0.00     0.274 HD
ATOM     78  H14 LYS d   1     -92.682  67.290 120.837  0.00  0.00     0.274 HD
ATOM     79  H15 LYS d   1     -94.136  66.551 120.617  0.00  0.00     0.274 HD
ENDBRANCH  73  76
ENDBRANCH  70  73
ENDBRANCH  67  70
ENDBRANCH  64  67
ENDBRANCH  58  64
ENDBRANCH  46  58
ENDBRANCH   1  44
TORSDOF 20
