REMARK  25 active torsions:
REMARK  status: ('A' for Active; 'I' for Inactive)
REMARK    1  A    between atoms: N_1  and  CA_2 
REMARK    2  A    between atoms: CA_2  and  C_3 
REMARK    3  A    between atoms: CA_2  and  CB_5 
REMARK       I    between atoms: C_3  and  N_10 
REMARK    4  A    between atoms: CB_5  and  CG_6 
REMARK    5  A    between atoms: CG_6  and  CD_7 
REMARK    6  A    between atoms: CD_7  and  CE_8 
REMARK    7  A    between atoms: CE_8  and  NZ_9 
REMARK    8  A    between atoms: N_10  and  CA_11 
REMARK    9  A    between atoms: CA_11  and  C_12 
REMARK   10  A    between atoms: CA_11  and  CB_14 
REMARK       I    between atoms: C_12  and  N_16 
REMARK   11  A    between atoms: CB_14  and  OG_15 
REMARK   12  A    between atoms: N_16  and  CA_17 
REMARK   13  A    between atoms: CA_17  and  C_18 
REMARK   14  A    between atoms: CA_17  and  CB_20 
REMARK       I    between atoms: C_18  and  N_26 
REMARK   15  A    between atoms: CB_20  and  CG_21 
REMARK   16  A    between atoms: N_26  and  CA_27 
REMARK   17  A    between atoms: CA_27  and  C_28 
REMARK   18  A    between atoms: CA_27  and  CB_30 
REMARK       I    between atoms: C_28  and  N_35 
REMARK   19  A    between atoms: CB_30  and  CG_31 
REMARK   20  A    between atoms: CG_31  and  CD_32 
REMARK       I    between atoms: CD_32  and  NE2_34 
REMARK   21  A    between atoms: N_35  and  CA_36 
REMARK   22  A    between atoms: CA_36  and  C_37 
REMARK   23  A    between atoms: CA_36  and  CB_39 
REMARK   24  A    between atoms: CB_39  and  CG_40 
REMARK   25  A    between atoms: CG_40  and  CD_41 
ROOT
ATOM      1  CA  HIS d   1     -24.362 111.634-130.517  0.00  0.00     0.094 C 
ATOM      2  H22 HIS d   1     -24.881 112.495-130.963  0.00  0.00     0.088 H 
ENDROOT
BRANCH   1   3
ATOM      3  N   HIS d   1     -25.246 110.479-130.623  0.00  0.00    -0.346 N 
ATOM      4  C   SER d   1     -24.893 109.270-130.197  0.00  0.00     0.243 C 
ATOM      5  O   SER d   1     -23.777 109.003-129.749  0.00  0.00    -0.271 OA
ATOM      6  H21 HIS d   1     -26.151 110.601-131.031  0.00  0.00     0.163 HD
BRANCH   4   7
ATOM      7  CA  SER d   1     -25.962 108.197-130.302  0.00  0.00     0.109 C 
ATOM      8  H17 SER d   1     -26.702 108.506-131.055  0.00  0.00     0.090 H 
BRANCH   7   9
ATOM      9  N   SER d   1     -25.364 106.940-130.727  0.00  0.00    -0.344 N 
ATOM     10  C   LYS d   1     -24.900 106.783-131.963  0.00  0.00     0.249 C 
ATOM     11  O   LYS d   1     -25.007 107.650-132.837  0.00  0.00    -0.271 OA
ATOM     12  H16 SER d   1     -25.301 106.181-130.078  0.00  0.00     0.163 HD
BRANCH  10  13
ATOM     13  CA  LYS d   1     -24.212 105.460-132.263  0.00  0.00     0.176 C 
ATOM     14  H4  LYS d   1     -24.030 104.935-131.314  0.00  0.00     0.099 H 
BRANCH  13  15
ATOM     15  N   LYS d   1     -25.047 104.609-133.106  0.00  0.00    -0.067 N 
ATOM     16  H1  LYS d   1     -24.567 103.742-133.288  0.00  0.00     0.275 HD
ATOM     17  H2  LYS d   1     -25.233 105.079-133.978  0.00  0.00     0.275 HD
ATOM     18  H3  LYS d   1     -25.917 104.419-132.634  0.00  0.00     0.275 HD
ENDBRANCH  13  15
BRANCH  13  19
ATOM     19  CB  LYS d   1     -22.866 105.734-132.939  0.00  0.00    -0.030 C 
ATOM     20  H5  LYS d   1     -22.706 106.822-132.955  0.00  0.00     0.036 H 
ATOM     21  H6  LYS d   1     -22.918 105.356-133.970  0.00  0.00     0.036 H 
BRANCH  19  22
ATOM     22  CG  LYS d   1     -21.663 105.088-132.256  0.00  0.00    -0.061 C 
ATOM     23  H7  LYS d   1     -20.805 105.122-132.944  0.00  0.00     0.033 H 
ATOM     24  H8  LYS d   1     -21.907 104.040-132.026  0.00  0.00     0.033 H 
BRANCH  22  25
ATOM     25  CD  LYS d   1     -21.282 105.798-130.963  0.00  0.00    -0.043 C 
ATOM     26  H9  LYS d   1     -22.041 105.585-130.196  0.00  0.00     0.035 H 
ATOM     27  H10 LYS d   1     -21.238 106.882-131.145  0.00  0.00     0.035 H 
BRANCH  25  28
ATOM     28  CE  LYS d   1     -19.918 105.315-130.468  0.00  0.00     0.080 C 
ATOM     29  H11 LYS d   1     -19.183 106.118-130.627  0.00  0.00     0.075 H 
ATOM     30  H12 LYS d   1     -19.627 104.430-131.053  0.00  0.00     0.075 H 
BRANCH  28  31
ATOM     31  NZ  LYS d   1     -19.916 104.949-129.019  0.00  0.00    -0.079 N 
ATOM     32  H13 LYS d   1     -18.995 104.640-128.752  0.00  0.00     0.274 HD
ATOM     33  H14 LYS d   1     -20.579 104.207-128.859  0.00  0.00     0.274 HD
ATOM     34  H15 LYS d   1     -20.173 105.754-128.469  0.00  0.00     0.274 HD
ENDBRANCH  28  31
ENDBRANCH  25  28
ENDBRANCH  22  25
ENDBRANCH  19  22
ENDBRANCH  13  19
ENDBRANCH  10  13
ENDBRANCH   7   9
BRANCH   7  35
ATOM     35  CB  SER d   1     -26.672 108.035-128.957  0.00  0.00     0.044 C 
ATOM     36  H18 SER d   1     -25.956 107.653-128.214  0.00  0.00     0.077 H 
ATOM     37  H19 SER d   1     -27.500 107.320-129.070  0.00  0.00     0.077 H 
BRANCH  35  38
ATOM     38  OG  SER d   1     -27.188 109.279-128.510  0.00  0.00    -0.398 OA
ATOM     39  H20 SER d   1     -26.475 109.898-128.409  0.00  0.00     0.209 HD
ENDBRANCH  35  38
ENDBRANCH   7  35
ENDBRANCH   4   7
ENDBRANCH   1   3
BRANCH   1  40
ATOM     40  C   HIS d   1     -23.064 111.436-131.271  0.00  0.00     0.241 C 
ATOM     41  O   HIS d   1     -21.995 111.760-130.762  0.00  0.00    -0.271 OA
ATOM     42  N   GLN d   1     -23.163 110.917-132.492  0.00  0.00    -0.346 N 
ATOM     43  H28 GLN d   1     -24.058 110.623-132.828  0.00  0.00     0.163 HD
BRANCH  42  44
ATOM     44  CA  GLN d   1     -21.995 110.769-133.349  0.00  0.00     0.090 C 
ATOM     45  H29 GLN d   1     -21.222 110.213-132.798  0.00  0.00     0.087 H 
BRANCH  44  46
ATOM     46  C   GLN d   1     -21.436 112.138-133.735  0.00  0.00     0.241 C 
ATOM     47  O   GLN d   1     -20.220 112.339-133.769  0.00  0.00    -0.271 OA
ATOM     48  N   GLU d   1     -22.329 113.082-134.008  0.00  0.00    -0.345 N 
ATOM     49  H36 GLU d   1     -23.302 112.883-133.892  0.00  0.00     0.163 HD
BRANCH  48  50
ATOM     50  CA  GLU d   1     -21.919 114.405-134.474  0.00  0.00     0.097 C 
ATOM     51  H37 GLU d   1     -21.191 114.246-135.283  0.00  0.00     0.089 H 
BRANCH  50  52
ATOM     52  C   GLU d   1     -21.228 115.261-133.416  0.00  0.00     0.196 C 
ATOM     53  O   GLU d   1     -21.311 115.029-132.203  0.00  0.00    -0.646 OA
ATOM     54  OXT GLU d   1     -20.554 116.227-133.785  0.00  0.00    -0.646 OA
ENDBRANCH  50  52
BRANCH  50  55
ATOM     55  CB  GLU d   1     -23.110 115.161-135.062  0.00  0.00    -0.028 C 
ATOM     56  H38 GLU d   1     -22.786 116.181-135.315  0.00  0.00     0.037 H 
ATOM     57  H39 GLU d   1     -23.904 115.206-134.303  0.00  0.00     0.037 H 
BRANCH  55  58
ATOM     58  CG  GLU d   1     -23.675 114.511-136.313  0.00  0.00     0.018 C 
ATOM     59  H40 GLU d   1     -24.061 113.515-136.050  0.00  0.00     0.049 H 
ATOM     60  H41 GLU d   1     -22.867 114.408-137.053  0.00  0.00     0.049 H 
BRANCH  58  61
ATOM     61  CD  GLU d   1     -24.795 115.318-136.927  0.00  0.00     0.172 C 
ATOM     62  OE1 GLU d   1     -25.906 115.321-136.354  0.00  0.00    -0.648 OA
ATOM     63  OE2 GLU d   1     -24.561 115.952-137.980  0.00  0.00    -0.648 OA
ENDBRANCH  58  61
ENDBRANCH  55  58
ENDBRANCH  50  55
ENDBRANCH  48  50
ENDBRANCH  44  46
BRANCH  44  64
ATOM     64  CB  GLN d   1     -22.363 109.985-134.611  0.00  0.00    -0.030 C 
ATOM     65  H30 GLN d   1     -23.214 110.488-135.094  0.00  0.00     0.037 H 
ATOM     66  H31 GLN d   1     -22.659 108.969-134.312  0.00  0.00     0.037 H 
BRANCH  64  67
ATOM     67  CG  GLN d   1     -21.233 109.875-135.626  0.00  0.00     0.011 C 
ATOM     68  H32 GLN d   1     -21.019 110.877-136.025  0.00  0.00     0.047 H 
ATOM     69  H33 GLN d   1     -21.557 109.216-136.445  0.00  0.00     0.047 H 
BRANCH  67  70
ATOM     70  CD  GLN d   1     -19.959 109.309-135.021  0.00  0.00     0.215 C 
ATOM     71  OE1 GLN d   1     -19.993 108.352-134.243  0.00  0.00    -0.274 OA
ATOM     72  NE2 GLN d   1     -18.824 109.905-135.373  0.00  0.00    -0.370 N 
ATOM     73  H34 GLN d   1     -17.953 109.577-135.007  0.00  0.00     0.159 HD
ATOM     74  H35 GLN d   1     -18.841 110.681-136.003  0.00  0.00     0.159 HD
ENDBRANCH  67  70
ENDBRANCH  64  67
ENDBRANCH  44  64
ENDBRANCH  42  44
ENDBRANCH   1  40
BRANCH   1  75
ATOM     75  CB  HIS d   1     -24.077 111.957-129.046  0.00  0.00     0.004 C 
ATOM     76  H23 HIS d   1     -23.289 112.723-129.003  0.00  0.00     0.046 H 
ATOM     77  H24 HIS d   1     -23.725 111.041-128.549  0.00  0.00     0.046 H 
BRANCH  75  78
ATOM     78  CG  HIS d   1     -25.274 112.466-128.308  0.00  0.00     0.053 A 
ATOM     79  ND1 HIS d   1     -26.411 111.710-128.121  0.00  0.00    -0.247 NA
ATOM     80  CE1 HIS d   1     -27.300 112.415-127.447  0.00  0.00     0.064 A 
ATOM     81  NE2 HIS d   1     -26.783 113.604-127.192  0.00  0.00    -0.359 N 
ATOM     82  H26 HIS d   1     -28.291 112.075-127.151  0.00  0.00     0.143 H 
ATOM     83  CD2 HIS d   1     -25.515 113.661-127.719  0.00  0.00     0.002 A 
ATOM     84  H27 HIS d   1     -27.254 114.365-126.681  0.00  0.00     0.166 HD
ATOM     85  H25 HIS d   1     -24.832 114.508-127.672  0.00  0.00     0.114 H 
ENDBRANCH  75  78
ENDBRANCH   1  75
TORSDOF 25
