REMARK  26 active torsions:
REMARK  status: ('A' for Active; 'I' for Inactive)
REMARK    1  A    between atoms: N_1  and  CA_2 
REMARK    2  A    between atoms: CA_2  and  C_3 
REMARK    3  A    between atoms: CA_2  and  CB_5 
REMARK       I    between atoms: C_3  and  N_6 
REMARK    4  A    between atoms: N_6  and  CA_7 
REMARK    5  A    between atoms: CA_7  and  C_8 
REMARK    6  A    between atoms: CA_7  and  CB_10 
REMARK       I    between atoms: C_8  and  N_17 
REMARK    7  A    between atoms: CB_10  and  CG_11 
REMARK    8  A    between atoms: CG_11  and  CD_12 
REMARK    9  A    between atoms: CD_12  and  NE_13 
REMARK       I    between atoms: NE_13  and  CZ_14 
REMARK       I    between atoms: CZ_14  and  NH1_15 
REMARK   10  A    between atoms: N_17  and  CA_18 
REMARK   11  A    between atoms: CA_18  and  C_19 
REMARK   12  A    between atoms: CA_18  and  CB_21 
REMARK       I    between atoms: C_19  and  N_26 
REMARK   13  A    between atoms: CB_21  and  CG_22 
REMARK   14  A    between atoms: CG_22  and  CD_23 
REMARK   15  A    between atoms: CD_23  and  CE_24 
REMARK   16  A    between atoms: CE_24  and  NZ_25 
REMARK   17  A    between atoms: N_26  and  CA_27 
REMARK   18  A    between atoms: CA_27  and  C_28 
REMARK   19  A    between atoms: CA_27  and  CB_30 
REMARK       I    between atoms: C_28  and  N_34 
REMARK   20  A    between atoms: CB_30  and  CG_31 
REMARK   21  A    between atoms: CG_31  and  CD1_32 
REMARK   22  A    between atoms: CG_31  and  CD2_33 
REMARK   23  A    between atoms: N_34  and  CA_35 
REMARK   24  A    between atoms: CA_35  and  C_36 
REMARK   25  A    between atoms: CA_35  and  CB_38 
REMARK   26  A    between atoms: CB_38  and  CG_39 
ROOT
ATOM      1  CA  LYS d   1       0.405-126.788 118.413  0.00  0.00     0.089 C 
ATOM      2  H22 LYS d   1       0.823-127.786 118.610  0.00  0.00     0.087 H 
ENDROOT
BRANCH   1   3
ATOM      3  N   LYS d   1      -0.842-126.965 117.674  0.00  0.00    -0.346 N 
ATOM      4  C   ARG d   1      -1.630-125.953 117.314  0.00  0.00     0.241 C 
ATOM      5  O   ARG d   1      -1.452-124.781 117.667  0.00  0.00    -0.271 OA
ATOM      6  H21 LYS d   1      -1.119-127.893 117.425  0.00  0.00     0.163 HD
BRANCH   4   7
ATOM      7  CA  ARG d   1      -2.801-126.347 116.417  0.00  0.00     0.089 C 
ATOM      8  H9  ARG d   1      -2.985-127.413 116.618  0.00  0.00     0.087 H 
BRANCH   7   9
ATOM      9  N   ARG d   1      -4.073-125.674 116.672  0.00  0.00    -0.346 N 
ATOM     10  C   ALA d   1      -4.905-126.136 117.599  0.00  0.00     0.248 C 
ATOM     11  O   ALA d   1      -4.577-126.996 118.416  0.00  0.00    -0.271 OA
ATOM     12  H8  ARG d   1      -4.319-124.860 116.145  0.00  0.00     0.163 HD
BRANCH  10  13
ATOM     13  CA  ALA d   1      -6.304-125.532 117.634  0.00  0.00     0.172 C 
ATOM     14  H4  ALA d   1      -6.276-124.554 117.131  0.00  0.00     0.098 H 
BRANCH  13  15
ATOM     15  N   ALA d   1      -7.254-126.390 116.930  0.00  0.00    -0.067 N 
ATOM     16  H1  ALA d   1      -8.172-125.974 116.964  0.00  0.00     0.275 HD
ATOM     17  H2  ALA d   1      -7.279-127.296 117.371  0.00  0.00     0.275 HD
ATOM     18  H3  ALA d   1      -6.967-126.492 115.969  0.00  0.00     0.275 HD
ENDBRANCH  13  15
BRANCH  13  19
ATOM     19  CB  ALA d   1      -6.749-125.327 119.066  0.00  0.00    -0.042 C 
ATOM     20  H5  ALA d   1      -6.027-124.680 119.585  0.00  0.00     0.030 H 
ATOM     21  H6  ALA d   1      -6.803-126.300 119.576  0.00  0.00     0.030 H 
ATOM     22  H7  ALA d   1      -7.741-124.852 119.077  0.00  0.00     0.030 H 
ENDBRANCH  13  19
ENDBRANCH  10  13
ENDBRANCH   7   9
BRANCH   7  23
ATOM     23  CB  ARG d   1      -2.403-126.237 114.943  0.00  0.00    -0.036 C 
ATOM     24  H10 ARG d   1      -1.307-126.161 114.882  0.00  0.00     0.036 H 
ATOM     25  H11 ARG d   1      -2.857-125.326 114.526  0.00  0.00     0.036 H 
BRANCH  23  26
ATOM     26  CG  ARG d   1      -2.853-127.430 114.105  0.00  0.00    -0.048 C 
ATOM     27  H12 ARG d   1      -3.925-127.328 113.883  0.00  0.00     0.035 H 
ATOM     28  H13 ARG d   1      -2.683-128.354 114.677  0.00  0.00     0.035 H 
BRANCH  26  29
ATOM     29  CD  ARG d   1      -2.085-127.508 112.803  0.00  0.00     0.009 C 
ATOM     30  H14 ARG d   1      -1.812-126.489 112.493  0.00  0.00     0.064 H 
ATOM     31  H15 ARG d   1      -2.732-127.963 112.038  0.00  0.00     0.064 H 
BRANCH  29  32
ATOM     32  NE  ARG d   1      -0.865-128.305 112.921  0.00  0.00    -0.227 N 
ATOM     33  CZ  ARG d   1      -0.010-128.489 111.922  0.00  0.00     0.665 C 
ATOM     34  NH1 ARG d   1      -0.250-127.927 110.750  0.00  0.00    -0.235 N 
ATOM     35  NH2 ARG d   1       1.077-129.231 112.090  0.00  0.00    -0.235 N 
ATOM     36  H17 ARG d   1       0.407-128.064 109.969  0.00  0.00     0.174 HD
ATOM     37  H18 ARG d   1      -1.094-127.352 110.618  0.00  0.00     0.174 HD
ATOM     38  H19 ARG d   1       1.265-129.669 113.003  0.00  0.00     0.174 HD
ATOM     39  H20 ARG d   1       1.733-129.369 111.308  0.00  0.00     0.174 HD
ATOM     40  H16 ARG d   1      -0.658-128.748 113.828  0.00  0.00     0.177 HD
ENDBRANCH  29  32
ENDBRANCH  26  29
ENDBRANCH  23  26
ENDBRANCH   7  23
ENDBRANCH   4   7
ENDBRANCH   1   3
BRANCH   1  41
ATOM     41  C   LYS d   1       0.212-126.088 119.752  0.00  0.00     0.241 C 
ATOM     42  O   LYS d   1       0.999-125.213 120.105  0.00  0.00    -0.271 OA
ATOM     43  N   LEU d   1      -0.815-126.470 120.507  0.00  0.00    -0.346 N 
ATOM     44  H34 LEU d   1      -1.427-127.194 120.188  0.00  0.00     0.163 HD
BRANCH  43  45
ATOM     45  CA  LEU d   1      -1.051-125.834 121.803  0.00  0.00     0.089 C 
ATOM     46  H35 LEU d   1      -0.832-124.763 121.685  0.00  0.00     0.087 H 
BRANCH  45  47
ATOM     47  C   LEU d   1      -0.119-126.374 122.882  0.00  0.00     0.241 C 
ATOM     48  O   LEU d   1       0.276-125.630 123.786  0.00  0.00    -0.271 OA
ATOM     49  N   ASP d   1       0.240-127.655 122.781  0.00  0.00    -0.344 N 
ATOM     50  H45 ASP d   1      -0.110-128.199 122.018  0.00  0.00     0.163 HD
BRANCH  49  51
ATOM     51  CA  ASP d   1       1.134-128.289 123.758  0.00  0.00     0.105 C 
ATOM     52  H46 ASP d   1       0.741-128.068 124.761  0.00  0.00     0.090 H 
BRANCH  51  53
ATOM     53  C   ASP d   1       2.570-127.760 123.683  0.00  0.00     0.197 C 
ATOM     54  O   ASP d   1       3.349-127.978 124.613  0.00  0.00    -0.646 OA
ATOM     55  OXT ASP d   1       2.986-127.134 122.703  0.00  0.00    -0.646 OA
ENDBRANCH  51  53
BRANCH  51  56
ATOM     56  CB  ASP d   1       1.164-129.808 123.573  0.00  0.00     0.044 C 
ATOM     57  H47 ASP d   1       2.001-130.217 124.158  0.00  0.00     0.053 H 
ATOM     58  H48 ASP d   1       1.320-130.029 122.507  0.00  0.00     0.053 H 
BRANCH  56  59
ATOM     59  CG  ASP d   1      -0.110-130.478 124.022  0.00  0.00     0.175 C 
ATOM     60  OD1 ASP d   1      -1.093-129.768 124.321  0.00  0.00    -0.648 OA
ATOM     61  OD2 ASP d   1      -0.126-131.725 124.071  0.00  0.00    -0.648 OA
ENDBRANCH  56  59
ENDBRANCH  51  56
ENDBRANCH  49  51
ENDBRANCH  45  47
BRANCH  45  62
ATOM     62  CB  LEU d   1      -2.519-125.960 122.236  0.00  0.00    -0.035 C 
ATOM     63  H36 LEU d   1      -2.594-125.579 123.265  0.00  0.00     0.037 H 
ATOM     64  H37 LEU d   1      -2.777-127.029 122.222  0.00  0.00     0.037 H 
BRANCH  62  65
ATOM     65  CG  LEU d   1      -3.570-125.221 121.393  0.00  0.00    -0.059 C 
ATOM     66  H38 LEU d   1      -3.588-125.683 120.395  0.00  0.00     0.038 H 
BRANCH  65  67
ATOM     67  CD1 LEU d   1      -4.961-125.362 122.007  0.00  0.00    -0.073 C 
ATOM     68  H39 LEU d   1      -5.692-124.825 121.385  0.00  0.00     0.028 H 
ATOM     69  H40 LEU d   1      -4.959-124.936 123.021  0.00  0.00     0.028 H 
ATOM     70  H41 LEU d   1      -5.234-126.427 122.057  0.00  0.00     0.028 H 
ENDBRANCH  65  67
BRANCH  65  71
ATOM     71  CD2 LEU d   1      -3.216-123.754 121.226  0.00  0.00    -0.073 C 
ATOM     72  H42 LEU d   1      -2.213-123.667 120.783  0.00  0.00     0.028 H 
ATOM     73  H43 LEU d   1      -3.227-123.260 122.209  0.00  0.00     0.028 H 
ATOM     74  H44 LEU d   1      -3.951-123.272 120.565  0.00  0.00     0.028 H 
ENDBRANCH  65  71
ENDBRANCH  62  65
ENDBRANCH  45  62
ENDBRANCH  43  45
ENDBRANCH   1  41
BRANCH   1  75
ATOM     75  CB  LYS d   1       1.412-125.996 117.569  0.00  0.00    -0.038 C 
ATOM     76  H23 LYS d   1       2.267-125.740 118.212  0.00  0.00     0.036 H 
ATOM     77  H24 LYS d   1       0.919-125.073 117.229  0.00  0.00     0.036 H 
BRANCH  75  78
ATOM     78  CG  LYS d   1       1.946-126.723 116.343  0.00  0.00    -0.061 C 
ATOM     79  H25 LYS d   1       2.458-126.002 115.689  0.00  0.00     0.033 H 
ATOM     80  H26 LYS d   1       1.106-127.179 115.799  0.00  0.00     0.033 H 
BRANCH  78  81
ATOM     81  CD  LYS d   1       2.923-127.807 116.751  0.00  0.00    -0.043 C 
ATOM     82  H27 LYS d   1       2.427-128.485 117.462  0.00  0.00     0.035 H 
ATOM     83  H28 LYS d   1       3.793-127.339 117.236  0.00  0.00     0.035 H 
BRANCH  81  84
ATOM     84  CE  LYS d   1       3.402-128.615 115.550  0.00  0.00     0.080 C 
ATOM     85  H29 LYS d   1       3.993-127.967 114.886  0.00  0.00     0.075 H 
ATOM     86  H30 LYS d   1       2.532-129.005 115.002  0.00  0.00     0.075 H 
BRANCH  84  87
ATOM     87  NZ  LYS d   1       4.241-129.744 116.006  0.00  0.00    -0.079 N 
ATOM     88  H31 LYS d   1       4.554-130.274 115.208  0.00  0.00     0.274 HD
ATOM     89  H32 LYS d   1       3.701-130.340 116.614  0.00  0.00     0.274 HD
ATOM     90  H33 LYS d   1       5.040-129.388 116.507  0.00  0.00     0.274 HD
ENDBRANCH  84  87
ENDBRANCH  81  84
ENDBRANCH  78  81
ENDBRANCH  75  78
ENDBRANCH   1  75
TORSDOF 26
