REMARK  32 active torsions:
REMARK  status: ('A' for Active; 'I' for Inactive)
REMARK    1  A    between atoms: N_1  and  CA_2 
REMARK    2  A    between atoms: CA_2  and  C_3 
REMARK    3  A    between atoms: CA_2  and  CB_5 
REMARK       I    between atoms: C_3  and  N_8 
REMARK    4  A    between atoms: CB_5  and  OG1_6 
REMARK    5  A    between atoms: CB_5  and  CG2_7 
REMARK    6  A    between atoms: N_8  and  CA_9 
REMARK    7  A    between atoms: CA_9  and  C_10 
REMARK    8  A    between atoms: CA_9  and  CB_12 
REMARK       I    between atoms: C_10  and  N_19 
REMARK    9  A    between atoms: CB_12  and  CG_13 
REMARK   10  A    between atoms: N_19  and  CA_20 
REMARK   11  A    between atoms: CA_20  and  C_21 
REMARK   12  A    between atoms: CA_20  and  CB_23 
REMARK       I    between atoms: C_21  and  N_28 
REMARK   13  A    between atoms: CB_23  and  CG_24 
REMARK   14  A    between atoms: CG_24  and  CD_25 
REMARK   15  A    between atoms: CD_25  and  CE_26 
REMARK   16  A    between atoms: CE_26  and  NZ_27 
REMARK   17  A    between atoms: N_28  and  CA_29 
REMARK   18  A    between atoms: CA_29  and  C_30 
REMARK   19  A    between atoms: CA_29  and  CB_32 
REMARK       I    between atoms: C_30  and  N_37 
REMARK   20  A    between atoms: CB_32  and  CG_33 
REMARK   21  A    between atoms: CG_33  and  CD_34 
REMARK   22  A    between atoms: CD_34  and  CE_35 
REMARK   23  A    between atoms: CE_35  and  NZ_36 
REMARK   24  A    between atoms: N_37  and  CA_38 
REMARK   25  A    between atoms: CA_38  and  C_39 
REMARK   26  A    between atoms: CA_38  and  CB_41 
REMARK       I    between atoms: C_39  and  N_44 
REMARK   27  A    between atoms: CB_41  and  OG1_42 
REMARK   28  A    between atoms: CB_41  and  CG2_43 
REMARK   29  A    between atoms: N_44  and  CA_45 
REMARK   30  A    between atoms: CA_45  and  C_46 
REMARK   31  A    between atoms: CA_45  and  CB_48 
REMARK   32  A    between atoms: CB_48  and  CG_49 
REMARK       I    between atoms: CG_49  and  ND2_51 
ROOT
ATOM      1  CA  LYS d   1     -23.619  -9.117 -18.034  0.00  0.00     0.089 C 
ATOM      2  H20 LYS d   1     -23.201  -8.132 -18.289  0.00  0.00     0.087 H 
ENDROOT
BRANCH   1   3
ATOM      3  N   LYS d   1     -24.924  -9.229 -18.709  0.00  0.00    -0.346 N 
ATOM      4  C   PHE d   1     -24.969  -9.091 -20.037  0.00  0.00     0.241 C 
ATOM      5  O   PHE d   1     -23.965  -8.833 -20.711  0.00  0.00    -0.271 OA
ATOM      6  H19 LYS d   1     -25.757  -9.404 -18.185  0.00  0.00     0.163 HD
BRANCH   4   7
ATOM      7  CA  PHE d   1     -26.325  -9.250 -20.728  0.00  0.00     0.093 C 
ATOM      8  H11 PHE d   1     -26.159  -9.553 -21.772  0.00  0.00     0.088 H 
BRANCH   7   9
ATOM      9  N   PHE d   1     -27.095 -10.271 -20.065  0.00  0.00    -0.346 N 
ATOM     10  C   THR d   1     -26.656 -11.521 -20.016  0.00  0.00     0.251 C 
ATOM     11  O   THR d   1     -25.623 -11.886 -20.574  0.00  0.00    -0.271 OA
ATOM     12  H10 PHE d   1     -27.968 -10.035 -19.638  0.00  0.00     0.163 HD
BRANCH  10  13
ATOM     13  CA  THR d   1     -27.483 -12.496 -19.199  0.00  0.00     0.199 C 
ATOM     14  H4  THR d   1     -28.555 -12.335 -19.386  0.00  0.00     0.103 H 
BRANCH  13  15
ATOM     15  N   THR d   1     -27.122 -13.886 -19.565  0.00  0.00    -0.064 N 
ATOM     16  H1  THR d   1     -27.342 -14.046 -20.536  0.00  0.00     0.275 HD
ATOM     17  H2  THR d   1     -27.644 -14.531 -18.992  0.00  0.00     0.275 HD
ATOM     18  H3  THR d   1     -26.135 -14.027 -19.416  0.00  0.00     0.275 HD
ENDBRANCH  13  15
BRANCH  13  19
ATOM     19  CB  THR d   1     -27.163 -12.221 -17.735  0.00  0.00     0.068 C 
ATOM     20  H5  THR d   1     -27.400 -11.172 -17.503  0.00  0.00     0.086 H 
BRANCH  19  21
ATOM     21  OG1 THR d   1     -25.766 -12.454 -17.526  0.00  0.00    -0.393 OA
ATOM     22  H6  THR d   1     -25.262 -11.873 -18.084  0.00  0.00     0.210 HD
ENDBRANCH  19  21
BRANCH  19  23
ATOM     23  CG2 THR d   1     -27.981 -13.134 -16.812  0.00  0.00    -0.050 C 
ATOM     24  H7  THR d   1     -27.731 -12.915 -15.764  0.00  0.00     0.031 H 
ATOM     25  H8  THR d   1     -27.745 -14.185 -17.033  0.00  0.00     0.031 H 
ATOM     26  H9  THR d   1     -29.054 -12.957 -16.978  0.00  0.00     0.031 H 
ENDBRANCH  19  23
ENDBRANCH  13  19
ENDBRANCH  10  13
ENDBRANCH   7   9
BRANCH   7  27
ATOM     27  CB  PHE d   1     -27.072  -7.926 -20.716  0.00  0.00    -0.014 C 
ATOM     28  H12 PHE d   1     -26.384  -7.138 -21.056  0.00  0.00     0.043 H 
ATOM     29  H13 PHE d   1     -27.387  -7.717 -19.683  0.00  0.00     0.043 H 
BRANCH  27  30
ATOM     30  CG  PHE d   1     -28.292  -7.899 -21.596  0.00  0.00    -0.056 A 
ATOM     31  CD1 PHE d   1     -28.232  -8.334 -22.908  0.00  0.00    -0.077 A 
ATOM     32  CE1 PHE d   1     -29.365  -8.293 -23.723  0.00  0.00    -0.082 A 
ATOM     33  H14 PHE d   1     -27.297  -8.710 -23.307  0.00  0.00     0.084 H 
ATOM     34  CZ  PHE d   1     -30.556  -7.808 -23.217  0.00  0.00    -0.083 A 
ATOM     35  H16 PHE d   1     -29.311  -8.640 -24.748  0.00  0.00     0.083 H 
ATOM     36  CE2 PHE d   1     -30.623  -7.373 -21.904  0.00  0.00    -0.082 A 
ATOM     37  H18 PHE d   1     -31.437  -7.768 -23.847  0.00  0.00     0.083 H 
ATOM     38  CD2 PHE d   1     -29.495  -7.420 -21.105  0.00  0.00    -0.077 A 
ATOM     39  H17 PHE d   1     -31.557  -6.997 -21.503  0.00  0.00     0.083 H 
ATOM     40  H15 PHE d   1     -29.553  -7.077 -20.078  0.00  0.00     0.084 H 
ENDBRANCH  27  30
ENDBRANCH   7  27
ENDBRANCH   4   7
ENDBRANCH   1   3
BRANCH   1  41
ATOM     41  C   LYS d   1     -22.651 -10.175 -18.533  0.00  0.00     0.241 C 
ATOM     42  O   LYS d   1     -21.490  -9.883 -18.817  0.00  0.00    -0.271 OA
ATOM     43  N   LYS d   1     -23.129 -11.402 -18.669  0.00  0.00    -0.346 N 
ATOM     44  H32 LYS d   1     -24.077 -11.585 -18.407  0.00  0.00     0.163 HD
BRANCH  43  45
ATOM     45  CA  LYS d   1     -22.321 -12.489 -19.186  0.00  0.00     0.089 C 
ATOM     46  H33 LYS d   1     -21.449 -12.636 -18.532  0.00  0.00     0.087 H 
BRANCH  45  47
ATOM     47  C   LYS d   1     -21.832 -12.188 -20.604  0.00  0.00     0.241 C 
ATOM     48  O   LYS d   1     -20.657 -12.342 -20.904  0.00  0.00    -0.271 OA
ATOM     49  N   THR d   1     -22.726 -11.744 -21.482  0.00  0.00    -0.344 N 
ATOM     50  H45 THR d   1     -23.620 -11.422 -21.170  0.00  0.00     0.163 HD
BRANCH  49  51
ATOM     51  CA  THR d   1     -22.397 -11.729 -22.906  0.00  0.00     0.113 C 
ATOM     52  H46 THR d   1     -21.558 -12.432 -23.019  0.00  0.00     0.091 H 
BRANCH  51  53
ATOM     53  C   THR d   1     -21.923 -10.411 -23.522  0.00  0.00     0.243 C 
ATOM     54  O   THR d   1     -21.256 -10.460 -24.552  0.00  0.00    -0.271 OA
ATOM     55  N   ASN d   1     -22.256  -9.268 -22.913  0.00  0.00    -0.344 N 
ATOM     56  H52 ASN d   1     -22.762  -9.304 -22.052  0.00  0.00     0.163 HD
BRANCH  55  57
ATOM     57  CA  ASN d   1     -21.899  -7.973 -23.474  0.00  0.00     0.104 C 
ATOM     58  H53 ASN d   1     -22.473  -7.819 -24.399  0.00  0.00     0.090 H 
BRANCH  57  59
ATOM     59  C   ASN d   1     -20.415  -7.888 -23.782  0.00  0.00     0.197 C 
ATOM     60  O   ASN d   1     -19.603  -8.428 -23.009  0.00  0.00    -0.646 OA
ATOM     61  OXT ASN d   1     -20.021  -7.242 -24.759  0.00  0.00    -0.646 OA
ENDBRANCH  57  59
BRANCH  57  62
ATOM     62  CB  ASN d   1     -22.217  -6.852 -22.478  0.00  0.00     0.037 C 
ATOM     63  H54 ASN d   1     -21.578  -5.987 -22.711  0.00  0.00     0.051 H 
ATOM     64  H55 ASN d   1     -21.990  -7.213 -21.464  0.00  0.00     0.051 H 
BRANCH  62  65
ATOM     65  CG  ASN d   1     -23.673  -6.401 -22.516  0.00  0.00     0.217 C 
ATOM     66  OD1 ASN d   1     -24.433  -6.782 -23.401  0.00  0.00    -0.274 OA
ATOM     67  ND2 ASN d   1     -24.057  -5.581 -21.539  0.00  0.00    -0.370 N 
ATOM     68  H56 ASN d   1     -25.000  -5.249 -21.507  0.00  0.00     0.159 HD
ATOM     69  H57 ASN d   1     -23.403  -5.298 -20.838  0.00  0.00     0.159 HD
ENDBRANCH  62  65
ENDBRANCH  57  62
ENDBRANCH  55  57
ENDBRANCH  51  53
BRANCH  51  70
ATOM     70  CB  THR d   1     -23.568 -12.274 -23.750  0.00  0.00     0.060 C 
ATOM     71  H47 THR d   1     -23.263 -12.301 -24.806  0.00  0.00     0.086 H 
BRANCH  70  72
ATOM     72  OG1 THR d   1     -24.699 -11.411 -23.618  0.00  0.00    -0.393 OA
ATOM     73  H48 THR d   1     -24.469 -10.541 -23.922  0.00  0.00     0.210 HD
ENDBRANCH  70  72
BRANCH  70  74
ATOM     74  CG2 THR d   1     -23.921 -13.674 -23.311  0.00  0.00    -0.050 C 
ATOM     75  H49 THR d   1     -24.756 -14.050 -23.920  0.00  0.00     0.031 H 
ATOM     76  H50 THR d   1     -24.216 -13.663 -22.251  0.00  0.00     0.031 H 
ATOM     77  H51 THR d   1     -23.048 -14.330 -23.441  0.00  0.00     0.031 H 
ENDBRANCH  70  74
ENDBRANCH  51  70
ENDBRANCH  49  51
ENDBRANCH  45  47
BRANCH  45  78
ATOM     78  CB  LYS d   1     -23.182 -13.762 -19.187  0.00  0.00    -0.038 C 
ATOM     79  H34 LYS d   1     -24.149 -13.508 -19.646  0.00  0.00     0.036 H 
ATOM     80  H35 LYS d   1     -23.340 -14.056 -18.139  0.00  0.00     0.036 H 
BRANCH  78  81
ATOM     81  CG  LYS d   1     -22.631 -14.969 -19.922  0.00  0.00    -0.061 C 
ATOM     82  H36 LYS d   1     -22.195 -14.648 -20.880  0.00  0.00     0.033 H 
ATOM     83  H37 LYS d   1     -23.443 -15.686 -20.111  0.00  0.00     0.033 H 
BRANCH  81  84
ATOM     84  CD  LYS d   1     -21.578 -15.618 -19.088  0.00  0.00    -0.043 C 
ATOM     85  H38 LYS d   1     -21.966 -15.724 -18.064  0.00  0.00     0.035 H 
ATOM     86  H39 LYS d   1     -20.693 -14.964 -19.079  0.00  0.00     0.035 H 
BRANCH  84  87
ATOM     87  CE  LYS d   1     -21.148 -16.999 -19.582  0.00  0.00     0.080 C 
ATOM     88  H40 LYS d   1     -20.734 -16.917 -20.598  0.00  0.00     0.075 H 
ATOM     89  H41 LYS d   1     -22.016 -17.675 -19.593  0.00  0.00     0.075 H 
BRANCH  87  90
ATOM     90  NZ  LYS d   1     -20.098 -17.538 -18.650  0.00  0.00    -0.079 N 
ATOM     91  H42 LYS d   1     -19.805 -18.450 -18.965  0.00  0.00     0.274 HD
ATOM     92  H43 LYS d   1     -20.480 -17.610 -17.720  0.00  0.00     0.274 HD
ATOM     93  H44 LYS d   1     -19.305 -16.915 -18.641  0.00  0.00     0.274 HD
ENDBRANCH  87  90
ENDBRANCH  84  87
ENDBRANCH  81  84
ENDBRANCH  78  81
ENDBRANCH  45  78
ENDBRANCH  43  45
ENDBRANCH   1  41
BRANCH   1  94
ATOM     94  CB  LYS d   1     -23.742  -9.185 -16.503  0.00  0.00    -0.038 C 
ATOM     95  H21 LYS d   1     -24.183 -10.155 -16.229  0.00  0.00     0.036 H 
ATOM     96  H22 LYS d   1     -24.404  -8.373 -16.168  0.00  0.00     0.036 H 
BRANCH  94  97
ATOM     97  CG  LYS d   1     -22.392  -9.042 -15.789  0.00  0.00    -0.061 C 
ATOM     98  H23 LYS d   1     -21.735  -9.867 -16.101  0.00  0.00     0.033 H 
ATOM     99  H24 LYS d   1     -22.556  -9.094 -14.703  0.00  0.00     0.033 H 
BRANCH  97 100
ATOM    100  CD  LYS d   1     -21.716  -7.718 -16.124  0.00  0.00    -0.043 C 
ATOM    101  H25 LYS d   1     -22.390  -6.892 -15.854  0.00  0.00     0.035 H 
ATOM    102  H26 LYS d   1     -21.508  -7.684 -17.204  0.00  0.00     0.035 H 
BRANCH 100 103
ATOM    103  CE  LYS d   1     -20.405  -7.561 -15.359  0.00  0.00     0.080 C 
ATOM    104  H27 LYS d   1     -19.698  -8.338 -15.687  0.00  0.00     0.075 H 
ATOM    105  H28 LYS d   1     -20.598  -7.671 -14.282  0.00  0.00     0.075 H 
BRANCH 103 106
ATOM    106  NZ  LYS d   1     -19.814  -6.217 -15.618  0.00  0.00    -0.079 N 
ATOM    107  H29 LYS d   1     -18.950  -6.126 -15.108  0.00  0.00     0.274 HD
ATOM    108  H30 LYS d   1     -20.459  -5.503 -15.317  0.00  0.00     0.274 HD
ATOM    109  H31 LYS d   1     -19.634  -6.113 -16.604  0.00  0.00     0.274 HD
ENDBRANCH 103 106
ENDBRANCH 100 103
ENDBRANCH  97 100
ENDBRANCH  94  97
ENDBRANCH   1  94
TORSDOF 32
