REMARK WARNING: 32 MAX_TORS EXCEEDED!!!
REMARK  37 active torsions:
REMARK  status: ('A' for Active; 'I' for Inactive)
REMARK    1  A    between atoms: N_1  and  CA_2 
REMARK    2  A    between atoms: CA_2  and  C_3 
REMARK    3  A    between atoms: CA_2  and  CB_5 
REMARK       I    between atoms: C_3  and  N_9 
REMARK    4  A    between atoms: CB_5  and  CG_6 
REMARK    5  A    between atoms: CG_6  and  CD1_7 
REMARK    6  A    between atoms: CG_6  and  CD2_8 
REMARK    7  A    between atoms: N_9  and  CA_10 
REMARK    8  A    between atoms: CA_10  and  C_11 
REMARK    9  A    between atoms: CA_10  and  CB_13 
REMARK       I    between atoms: C_11  and  N_18 
REMARK   10  A    between atoms: CB_13  and  CG_14 
REMARK   11  A    between atoms: CG_14  and  CD_15 
REMARK   12  A    between atoms: CD_15  and  CE_16 
REMARK   13  A    between atoms: CE_16  and  NZ_17 
REMARK   14  A    between atoms: N_18  and  CA_19 
REMARK   15  A    between atoms: CA_19  and  C_20 
REMARK   16  A    between atoms: CA_19  and  CB_22 
REMARK       I    between atoms: C_20  and  N_25 
REMARK   17  A    between atoms: CB_22  and  OG1_23 
REMARK   18  A    between atoms: CB_22  and  CG2_24 
REMARK   19  A    between atoms: N_25  and  CA_26 
REMARK   20  A    between atoms: CA_26  and  C_27 
REMARK   21  A    between atoms: CA_26  and  CB_29 
REMARK       I    between atoms: C_27  and  N_34 
REMARK   22  A    between atoms: CB_29  and  CG_30 
REMARK   23  A    between atoms: CG_30  and  CD_31 
REMARK   24  A    between atoms: CD_31  and  CE_32 
REMARK   25  A    between atoms: CE_32  and  NZ_33 
REMARK   26  A    between atoms: N_34  and  CA_35 
REMARK   27  A    between atoms: CA_35  and  C_36 
REMARK   28  A    between atoms: CA_35  and  CB_38 
REMARK       I    between atoms: C_36  and  N_42 
REMARK   29  A    between atoms: CB_38  and  CG_39 
REMARK   30  A    between atoms: CG_39  and  CD1_40 
REMARK   31  A    between atoms: CG_39  and  CD2_41 
REMARK   32  A    between atoms: N_42  and  CA_43 
REMARK   33  A    between atoms: CA_43  and  C_44 
REMARK   34  A    between atoms: CA_43  and  CB_46 
REMARK   35  A    between atoms: CB_46  and  CG_47 
REMARK   36  A    between atoms: CG_47  and  CD1_48 
REMARK   37  A    between atoms: CG_47  and  CD2_49 
ROOT
ATOM      1  N   LYS d   1     -31.170 -17.639   8.378  0.00  0.00    -0.346 N 
ATOM      2  H34 LYS d   1     -31.886 -17.137   7.894  0.00  0.00     0.163 HD
ATOM      3  C   THR d   1     -31.502 -18.721   9.053  0.00  0.00     0.243 C 
ATOM      4  O   THR d   1     -30.712 -19.369   9.662  0.00  0.00    -0.271 OA
ENDROOT
BRANCH   1   5
ATOM      5  CA  LYS d   1     -29.813 -17.150   8.310  0.00  0.00     0.089 C 
ATOM      6  H35 LYS d   1     -29.793 -16.303   7.608  0.00  0.00     0.087 H 
BRANCH   5   7
ATOM      7  C   LYS d   1     -28.839 -18.230   7.795  0.00  0.00     0.241 C 
ATOM      8  O   LYS d   1     -27.850 -18.506   8.398  0.00  0.00    -0.271 OA
ATOM      9  N   LEU d   1     -29.175 -18.824   6.678  0.00  0.00    -0.346 N 
ATOM     10  H47 LEU d   1     -30.034 -18.579   6.228  0.00  0.00     0.163 HD
BRANCH   9  11
ATOM     11  CA  LEU d   1     -28.332 -19.816   6.095  0.00  0.00     0.089 C 
ATOM     12  H48 LEU d   1     -27.779 -20.303   6.912  0.00  0.00     0.087 H 
BRANCH  11  13
ATOM     13  C   LEU d   1     -27.340 -19.277   5.116  0.00  0.00     0.241 C 
ATOM     14  O   LEU d   1     -26.405 -19.925   4.829  0.00  0.00    -0.271 OA
ATOM     15  N   LEU d   1     -27.565 -18.106   4.571  0.00  0.00    -0.345 N 
ATOM     16  H58 LEU d   1     -28.400 -17.597   4.781  0.00  0.00     0.163 HD
BRANCH  15  17
ATOM     17  CA  LEU d   1     -26.587 -17.571   3.667  0.00  0.00     0.096 C 
ATOM     18  H59 LEU d   1     -26.341 -18.372   2.955  0.00  0.00     0.089 H 
BRANCH  17  19
ATOM     19  C   LEU d   1     -25.292 -17.196   4.386  0.00  0.00     0.196 C 
ATOM     20  O   LEU d   1     -24.282 -17.214   3.747  0.00  0.00    -0.646 OA
ATOM     21  OXT LEU d   1     -25.339 -16.946   5.488  0.00  0.00    -0.646 OA
ENDBRANCH  17  19
BRANCH  17  22
ATOM     22  CB  LEU d   1     -27.124 -16.389   2.843  0.00  0.00    -0.034 C 
ATOM     23  H60 LEU d   1     -26.274 -15.967   2.287  0.00  0.00     0.037 H 
ATOM     24  H61 LEU d   1     -27.504 -15.642   3.555  0.00  0.00     0.037 H 
BRANCH  22  25
ATOM     25  CG  LEU d   1     -28.221 -16.655   1.847  0.00  0.00    -0.059 C 
ATOM     26  H62 LEU d   1     -29.029 -17.187   2.371  0.00  0.00     0.038 H 
BRANCH  25  27
ATOM     27  CD1 LEU d   1     -28.762 -15.369   1.310  0.00  0.00    -0.073 C 
ATOM     28  H63 LEU d   1     -29.561 -15.582   0.585  0.00  0.00     0.028 H 
ATOM     29  H64 LEU d   1     -27.955 -14.811   0.813  0.00  0.00     0.028 H 
ATOM     30  H65 LEU d   1     -29.168 -14.768   2.137  0.00  0.00     0.028 H 
ENDBRANCH  25  27
BRANCH  25  31
ATOM     31  CD2 LEU d   1     -27.777 -17.501   0.688  0.00  0.00    -0.073 C 
ATOM     32  H66 LEU d   1     -27.375 -18.454   1.062  0.00  0.00     0.028 H 
ATOM     33  H67 LEU d   1     -26.996 -16.970   0.124  0.00  0.00     0.028 H 
ATOM     34  H68 LEU d   1     -28.635 -17.699   0.029  0.00  0.00     0.028 H 
ENDBRANCH  25  31
ENDBRANCH  22  25
ENDBRANCH  17  22
ENDBRANCH  15  17
ENDBRANCH  11  13
BRANCH  11  35
ATOM     35  CB  LEU d   1     -29.149 -20.847   5.381  0.00  0.00    -0.035 C 
ATOM     36  H49 LEU d   1     -28.477 -21.657   5.061  0.00  0.00     0.037 H 
ATOM     37  H50 LEU d   1     -29.602 -20.375   4.497  0.00  0.00     0.037 H 
BRANCH  35  38
ATOM     38  CG  LEU d   1     -30.238 -21.442   6.201  0.00  0.00    -0.059 C 
ATOM     39  H51 LEU d   1     -30.798 -20.642   6.707  0.00  0.00     0.038 H 
BRANCH  38  40
ATOM     40  CD1 LEU d   1     -31.133 -22.129   5.227  0.00  0.00    -0.073 C 
ATOM     41  H52 LEU d   1     -31.970 -22.597   5.766  0.00  0.00     0.028 H 
ATOM     42  H53 LEU d   1     -30.565 -22.902   4.689  0.00  0.00     0.028 H 
ATOM     43  H54 LEU d   1     -31.525 -21.395   4.508  0.00  0.00     0.028 H 
ENDBRANCH  38  40
BRANCH  38  44
ATOM     44  CD2 LEU d   1     -29.700 -22.354   7.240  0.00  0.00    -0.073 C 
ATOM     45  H55 LEU d   1     -29.050 -21.788   7.924  0.00  0.00     0.028 H 
ATOM     46  H56 LEU d   1     -29.118 -23.154   6.760  0.00  0.00     0.028 H 
ATOM     47  H57 LEU d   1     -30.533 -22.796   7.807  0.00  0.00     0.028 H 
ENDBRANCH  38  44
ENDBRANCH  35  38
ENDBRANCH  11  35
ENDBRANCH   9  11
ENDBRANCH   5   7
BRANCH   5  48
ATOM     48  CB  LYS d   1     -29.346 -16.666   9.655  0.00  0.00    -0.038 C 
ATOM     49  H36 LYS d   1     -28.270 -16.452   9.581  0.00  0.00     0.036 H 
ATOM     50  H37 LYS d   1     -29.509 -17.477  10.380  0.00  0.00     0.036 H 
BRANCH  48  51
ATOM     51  CG  LYS d   1     -30.023 -15.436  10.182  0.00  0.00    -0.061 C 
ATOM     52  H38 LYS d   1     -29.579 -15.179  11.155  0.00  0.00     0.033 H 
ATOM     53  H39 LYS d   1     -31.093 -15.652  10.313  0.00  0.00     0.033 H 
BRANCH  51  54
ATOM     54  CD  LYS d   1     -29.879 -14.249   9.256  0.00  0.00    -0.043 C 
ATOM     55  H40 LYS d   1     -30.329 -14.496   8.283  0.00  0.00     0.035 H 
ATOM     56  H41 LYS d   1     -28.810 -14.027   9.120  0.00  0.00     0.035 H 
BRANCH  54  57
ATOM     57  CE  LYS d   1     -30.572 -13.023   9.827  0.00  0.00     0.080 C 
ATOM     58  H42 LYS d   1     -30.334 -12.947  10.898  0.00  0.00     0.075 H 
ATOM     59  H43 LYS d   1     -31.659 -13.137   9.700  0.00  0.00     0.075 H 
BRANCH  57  60
ATOM     60  NZ  LYS d   1     -30.142 -11.789   9.156  0.00  0.00    -0.079 N 
ATOM     61  H44 LYS d   1     -30.622 -11.001   9.562  0.00  0.00     0.274 HD
ATOM     62  H45 LYS d   1     -30.361 -11.847   8.174  0.00  0.00     0.274 HD
ATOM     63  H46 LYS d   1     -29.148 -11.672   9.272  0.00  0.00     0.274 HD
ENDBRANCH  57  60
ENDBRANCH  54  57
ENDBRANCH  51  54
ENDBRANCH  48  51
ENDBRANCH   5  48
ENDBRANCH   1   5
BRANCH   3  64
ATOM     64  CA  THR d   1     -32.973 -19.139   8.992  0.00  0.00     0.113 C 
ATOM     65  H28 THR d   1     -33.218 -19.295   7.931  0.00  0.00     0.091 H 
BRANCH  64  66
ATOM     66  N   THR d   1     -33.165 -20.379   9.673  0.00  0.00    -0.344 N 
ATOM     67  C   LYS d   1     -33.754 -21.371   9.083  0.00  0.00     0.241 C 
ATOM     68  O   LYS d   1     -34.222 -21.280   7.989  0.00  0.00    -0.271 OA
ATOM     69  H27 THR d   1     -32.842 -20.483  10.614  0.00  0.00     0.163 HD
BRANCH  67  70
ATOM     70  CA  LYS d   1     -33.799 -22.668   9.857  0.00  0.00     0.089 C 
ATOM     71  H15 LYS d   1     -33.955 -22.446  10.923  0.00  0.00     0.087 H 
BRANCH  70  72
ATOM     72  N   LYS d   1     -34.915 -23.447   9.392  0.00  0.00    -0.346 N 
ATOM     73  C   LEU d   1     -35.971 -23.648  10.153  0.00  0.00     0.249 C 
ATOM     74  O   LEU d   1     -35.906 -23.571  11.316  0.00  0.00    -0.271 OA
ATOM     75  H14 LYS d   1     -34.889 -23.843   8.474  0.00  0.00     0.163 HD
BRANCH  73  76
ATOM     76  CA  LEU d   1     -37.328 -24.053   9.527  0.00  0.00     0.176 C 
ATOM     77  H4  LEU d   1     -38.084 -23.659  10.222  0.00  0.00     0.099 H 
BRANCH  76  78
ATOM     78  N   LEU d   1     -37.727 -23.509   8.227  0.00  0.00    -0.066 N 
ATOM     79  H1  LEU d   1     -38.631 -23.875   7.973  0.00  0.00     0.275 HD
ATOM     80  H2  LEU d   1     -37.049 -23.773   7.530  0.00  0.00     0.275 HD
ATOM     81  H3  LEU d   1     -37.776 -22.504   8.284  0.00  0.00     0.275 HD
ENDBRANCH  76  78
BRANCH  76  82
ATOM     82  CB  LEU d   1     -37.445 -25.561   9.585  0.00  0.00    -0.028 C 
ATOM     83  H5  LEU d   1     -37.101 -25.972   8.624  0.00  0.00     0.037 H 
ATOM     84  H6  LEU d   1     -38.503 -25.820   9.736  0.00  0.00     0.037 H 
BRANCH  82  85
ATOM     85  CG  LEU d   1     -36.646 -26.192  10.679  0.00  0.00    -0.059 C 
ATOM     86  H7  LEU d   1     -36.365 -25.357  11.337  0.00  0.00     0.038 H 
BRANCH  85  87
ATOM     87  CD1 LEU d   1     -37.405 -27.163  11.570  0.00  0.00    -0.073 C 
ATOM     88  H8  LEU d   1     -36.726 -27.566  12.336  0.00  0.00     0.028 H 
ATOM     89  H9  LEU d   1     -37.800 -27.988  10.960  0.00  0.00     0.028 H 
ATOM     90  H10 LEU d   1     -38.238 -26.637  12.059  0.00  0.00     0.028 H 
ENDBRANCH  85  87
BRANCH  85  91
ATOM     91  CD2 LEU d   1     -35.355 -26.787  10.210  0.00  0.00    -0.073 C 
ATOM     92  H11 LEU d   1     -34.829 -26.064   9.569  0.00  0.00     0.028 H 
ATOM     93  H12 LEU d   1     -35.560 -27.703   9.637  0.00  0.00     0.028 H 
ATOM     94  H13 LEU d   1     -34.727 -27.031  11.079  0.00  0.00     0.028 H 
ENDBRANCH  85  91
ENDBRANCH  82  85
ENDBRANCH  76  82
ENDBRANCH  73  76
ENDBRANCH  70  72
BRANCH  70  95
ATOM     95  CB  LYS d   1     -32.456 -23.381   9.709  0.00  0.00    -0.038 C 
ATOM     96  H16 LYS d   1     -31.694 -22.646   9.412  0.00  0.00     0.036 H 
ATOM     97  H17 LYS d   1     -32.547 -24.151   8.929  0.00  0.00     0.036 H 
BRANCH  95  98
ATOM     98  CG  LYS d   1     -32.026 -24.034  10.986  0.00  0.00    -0.061 C 
ATOM     99  H18 LYS d   1     -32.669 -24.907  11.170  0.00  0.00     0.033 H 
ATOM    100  H19 LYS d   1     -32.143 -23.312  11.808  0.00  0.00     0.033 H 
BRANCH  98 101
ATOM    101  CD  LYS d   1     -30.609 -24.486  10.947  0.00  0.00    -0.043 C 
ATOM    102  H20 LYS d   1     -30.317 -24.647   9.899  0.00  0.00     0.035 H 
ATOM    103  H21 LYS d   1     -30.524 -25.432  11.501  0.00  0.00     0.035 H 
BRANCH 101 104
ATOM    104  CE  LYS d   1     -29.687 -23.493  11.552  0.00  0.00     0.080 C 
ATOM    105  H22 LYS d   1     -29.636 -22.618  10.888  0.00  0.00     0.075 H 
ATOM    106  H23 LYS d   1     -28.690 -23.950  11.634  0.00  0.00     0.075 H 
BRANCH 104 107
ATOM    107  NZ  LYS d   1     -30.093 -23.045  12.867  0.00  0.00    -0.079 N 
ATOM    108  H24 LYS d   1     -29.424 -22.376  13.215  0.00  0.00     0.274 HD
ATOM    109  H25 LYS d   1     -30.135 -23.834  13.493  0.00  0.00     0.274 HD
ATOM    110  H26 LYS d   1     -31.002 -22.613  12.809  0.00  0.00     0.274 HD
ENDBRANCH 104 107
ENDBRANCH 101 104
ENDBRANCH  98 101
ENDBRANCH  95  98
ENDBRANCH  70  95
ENDBRANCH  67  70
ENDBRANCH  64  66
BRANCH  64 111
ATOM    111  CB  THR d   1     -33.960 -18.092   9.533  0.00  0.00     0.060 C 
ATOM    112  H29 THR d   1     -34.969 -18.530   9.541  0.00  0.00     0.086 H 
BRANCH 111 113
ATOM    113  OG1 THR d   1     -33.963 -16.948   8.692  0.00  0.00    -0.393 OA
ATOM    114  H30 THR d   1     -34.575 -16.307   9.034  0.00  0.00     0.210 HD
ENDBRANCH 111 113
BRANCH 111 115
ATOM    115  CG2 THR d   1     -33.613 -17.715  10.871  0.00  0.00    -0.050 C 
ATOM    116  H31 THR d   1     -34.330 -16.966  11.239  0.00  0.00     0.031 H 
ATOM    117  H32 THR d   1     -32.600 -17.287  10.880  0.00  0.00     0.031 H 
ATOM    118  H33 THR d   1     -33.643 -18.602  11.521  0.00  0.00     0.031 H 
ENDBRANCH 111 115
ENDBRANCH  64 111
ENDBRANCH   3  64
TORSDOF 37
