REMARK WARNING: 32 MAX_TORS EXCEEDED!!!
REMARK  48 active torsions:
REMARK  status: ('A' for Active; 'I' for Inactive)
REMARK    1  A    between atoms: N_1  and  CA_2 
REMARK    2  A    between atoms: CA_2  and  C_3 
REMARK    3  A    between atoms: CA_2  and  CB_5 
REMARK       I    between atoms: C_3  and  N_6 
REMARK    4  A    between atoms: N_6  and  CA_7 
REMARK    5  A    between atoms: CA_7  and  C_8 
REMARK    6  A    between atoms: CA_7  and  CB_10 
REMARK       I    between atoms: C_8  and  N_11 
REMARK    7  A    between atoms: N_11  and  CA_12 
REMARK    8  A    between atoms: CA_12  and  C_13 
REMARK    9  A    between atoms: CA_12  and  CB_15 
REMARK       I    between atoms: C_13  and  N_17 
REMARK   10  A    between atoms: CB_15  and  OG_16 
REMARK   11  A    between atoms: N_17  and  CA_18 
REMARK   12  A    between atoms: CA_18  and  C_19 
REMARK   13  A    between atoms: CA_18  and  CB_21 
REMARK       I    between atoms: C_19  and  N_28 
REMARK   14  A    between atoms: CB_21  and  CG_22 
REMARK   15  A    between atoms: N_28  and  CA_29 
REMARK   16  A    between atoms: CA_29  and  C_30 
REMARK   17  A    between atoms: CA_29  and  CB_32 
REMARK       I    between atoms: C_30  and  N_36 
REMARK   18  A    between atoms: CB_32  and  CG1_33 
REMARK   19  A    between atoms: CB_32  and  CG2_34 
REMARK   20  A    between atoms: CG1_33  and  CD1_35 
REMARK   21  A    between atoms: N_36  and  CA_37 
REMARK   22  A    between atoms: CA_37  and  C_38 
REMARK   23  A    between atoms: CA_37  and  CB_40 
REMARK       I    between atoms: C_38  and  N_44 
REMARK   24  A    between atoms: CB_40  and  CG_41 
REMARK   25  A    between atoms: N_44  and  CA_45 
REMARK   26  A    between atoms: CA_45  and  C_46 
REMARK   27  A    between atoms: CA_45  and  CB_48 
REMARK       I    between atoms: C_46  and  N_49 
REMARK   28  A    between atoms: N_49  and  CA_50 
REMARK   29  A    between atoms: CA_50  and  C_51 
REMARK   30  A    between atoms: CA_50  and  CB_53 
REMARK       I    between atoms: C_51  and  N_58 
REMARK   31  A    between atoms: CB_53  and  CG_54 
REMARK   32  A    between atoms: CG_54  and  CD_55 
REMARK   33  A    between atoms: CD_55  and  CE_56 
REMARK   34  A    between atoms: CE_56  and  NZ_57 
REMARK   35  A    between atoms: N_58  and  CA_59 
REMARK   36  A    between atoms: CA_59  and  C_60 
REMARK   37  A    between atoms: CA_59  and  CB_62 
REMARK       I    between atoms: C_60  and  N_67 
REMARK   38  A    between atoms: CB_62  and  CG_63 
REMARK   39  A    between atoms: CG_63  and  CD_64 
REMARK   40  A    between atoms: CD_64  and  CE_65 
REMARK   41  A    between atoms: CE_65  and  NZ_66 
REMARK   42  A    between atoms: N_67  and  CA_68 
REMARK   43  A    between atoms: CA_68  and  C_69 
REMARK   44  A    between atoms: CA_68  and  CB_71 
REMARK       I    between atoms: C_69  and  N_75 
REMARK   45  A    between atoms: CB_71  and  CG_72 
REMARK   46  A    between atoms: CG_72  and  SD_73 
REMARK   47  A    between atoms: SD_73  and  CE_74 
REMARK   48  A    between atoms: CA_76  and  C_77 
ROOT
ATOM      1  C   NON d   1     -19.967  17.600 -86.652  0.00  0.00     0.241 C 
ATOM      2  O   NON d   1     -20.628  17.899 -85.659  0.00  0.00    -0.271 OA
ATOM      3  N   NON d   1     -19.358  16.420 -86.773  0.00  0.00    -0.346 N 
ATOM      4  H42 NON d   1     -18.791  16.236 -87.576  0.00  0.00     0.163 HD
ENDROOT
BRANCH   3   5
ATOM      5  CA  NON d   1     -19.510  15.383 -85.737  0.00  0.00     0.086 C 
ATOM      6  H43 NON d   1     -20.519  15.489 -85.311  0.00  0.00     0.086 H 
BRANCH   5   7
ATOM      7  C   NON d   1     -18.518  15.516 -84.599  0.00  0.00     0.240 C 
ATOM      8  O   NON d   1     -18.830  15.203 -83.436  0.00  0.00    -0.271 OA
ATOM      9  N   NON d   1     -17.309  15.950 -84.926  0.00  0.00    -0.346 N 
ATOM     10  H47 NON d   1     -17.123  16.252 -85.861  0.00  0.00     0.163 HD
BRANCH   9  11
ATOM     11  CA  NON d   1     -16.257  15.987 -83.932  0.00  0.00     0.089 C 
ATOM     12  H48 NON d   1     -16.646  15.473 -83.041  0.00  0.00     0.087 H 
BRANCH  11  13
ATOM     13  C   NON d   1     -15.849  17.385 -83.494  0.00  0.00     0.241 C 
ATOM     14  O   NON d   1     -15.675  17.626 -82.300  0.00  0.00    -0.271 OA
ATOM     15  N   NON d   1     -15.646  18.304 -84.438  0.00  0.00    -0.346 N 
ATOM     16  H60 NON d   1     -15.904  18.131 -85.388  0.00  0.00     0.163 HD
BRANCH  15  17
ATOM     17  CA  NON d   1     -15.034  19.573 -84.043  0.00  0.00     0.089 C 
ATOM     18  H61 NON d   1     -14.227  19.334 -83.335  0.00  0.00     0.087 H 
BRANCH  17  19
ATOM     19  C   NON d   1     -16.028  20.474 -83.315  0.00  0.00     0.241 C 
ATOM     20  O   NON d   1     -15.711  21.031 -82.248  0.00  0.00    -0.271 OA
ATOM     21  N   NON d   1     -17.230  20.577 -83.879  0.00  0.00    -0.346 N 
ATOM     22  H73 NON d   1     -17.467  19.950 -84.621  0.00  0.00     0.163 HD
BRANCH  21  23
ATOM     23  CA  NON d   1     -18.218  21.569 -83.458  0.00  0.00     0.090 C 
ATOM     24  H74 NON d   1     -17.631  22.466 -83.212  0.00  0.00     0.087 H 
BRANCH  23  25
ATOM     25  C   NON d   1     -19.063  21.283 -82.200  0.00  0.00     0.243 C 
ATOM     26  O   NON d   1     -19.248  22.190 -81.407  0.00  0.00    -0.271 OA
ATOM     27  N   NON d   1     -19.588  20.050 -82.024  0.00  0.00    -0.336 N 
ATOM     28  CA  NON d   1     -20.581  19.908 -80.945  0.00  0.00     0.098 C 
ATOM     29  CD  NON d   1     -19.452  18.804 -82.800  0.00  0.00    -0.001 C 
ATOM     30  CB  NON d   1     -21.222  18.544 -81.221  0.00  0.00    -0.035 C 
ATOM     31  H82 NON d   1     -21.334  20.704 -81.040  0.00  0.00     0.089 H 
ATOM     32  CG  NON d   1     -20.221  17.778 -81.961  0.00  0.00    -0.048 C 
ATOM     33  H83 NON d   1     -22.135  18.664 -81.823  0.00  0.00     0.036 H 
ATOM     34  H84 NON d   1     -21.470  18.039 -80.276  0.00  0.00     0.036 H 
ATOM     35  H85 NON d   1     -20.709  17.038 -82.612  0.00  0.00     0.035 H 
ATOM     36  H86 NON d   1     -19.541  17.263 -81.266  0.00  0.00     0.035 H 
ATOM     37  H87 NON d   1     -18.395  18.517 -82.901  0.00  0.00     0.064 H 
ATOM     38  H88 NON d   1     -19.900  18.911 -83.799  0.00  0.00     0.064 H 
BRANCH  28  39
ATOM     39  C   NON d   1     -20.009  19.969 -79.513  0.00  0.00     0.196 C 
ATOM     40  O   NON d   1     -18.795  19.852 -79.316  0.00  0.00    -0.646 OA
ATOM     41  OXT NON d   1     -20.764  20.148 -78.526  0.00  0.00    -0.646 OA
ENDBRANCH  28  39
ENDBRANCH  23  25
BRANCH  23  42
ATOM     42  CB  NON d   1     -19.146  21.956 -84.630  0.00  0.00    -0.030 C 
ATOM     43  H75 NON d   1     -19.868  22.703 -84.270  0.00  0.00     0.037 H 
ATOM     44  H76 NON d   1     -19.684  21.055 -84.960  0.00  0.00     0.037 H 
BRANCH  42  45
ATOM     45  CG  NON d   1     -18.395  22.547 -85.841  0.00  0.00    -0.021 C 
ATOM     46  H77 NON d   1     -19.139  22.982 -86.525  0.00  0.00     0.049 H 
ATOM     47  H78 NON d   1     -17.866  21.727 -86.348  0.00  0.00     0.049 H 
BRANCH  45  48
ATOM     48  SD  NON d   1     -17.182  23.835 -85.434  0.00  0.00    -0.173 SA
BRANCH  48  49
ATOM     49  CE  NON d   1     -18.280  25.265 -85.464  0.00  0.00    -0.035 C 
ATOM     50  H79 NON d   1     -17.705  26.174 -85.232  0.00  0.00     0.041 H 
ATOM     51  H80 NON d   1     -19.075  25.133 -84.715  0.00  0.00     0.041 H 
ATOM     52  H81 NON d   1     -18.730  25.361 -86.463  0.00  0.00     0.041 H 
ENDBRANCH  48  49
ENDBRANCH  45  48
ENDBRANCH  42  45
ENDBRANCH  23  42
ENDBRANCH  21  23
ENDBRANCH  17  19
BRANCH  17  53
ATOM     53  CB  NON d   1     -14.397  20.319 -85.221  0.00  0.00    -0.038 C 
ATOM     54  H62 NON d   1     -15.197  20.730 -85.854  0.00  0.00     0.036 H 
ATOM     55  H63 NON d   1     -13.796  19.608 -85.806  0.00  0.00     0.036 H 
BRANCH  53  56
ATOM     56  CG  NON d   1     -13.491  21.470 -84.761  0.00  0.00    -0.061 C 
ATOM     57  H64 NON d   1     -12.568  21.044 -84.341  0.00  0.00     0.033 H 
ATOM     58  H65 NON d   1     -14.018  22.042 -83.983  0.00  0.00     0.033 H 
BRANCH  56  59
ATOM     59  CD  NON d   1     -13.116  22.421 -85.895  0.00  0.00    -0.043 C 
ATOM     60  H66 NON d   1     -14.027  22.923 -86.251  0.00  0.00     0.035 H 
ATOM     61  H67 NON d   1     -12.675  21.836 -86.716  0.00  0.00     0.035 H 
BRANCH  59  62
ATOM     62  CE  NON d   1     -12.106  23.488 -85.452  0.00  0.00     0.080 C 
ATOM     63  H68 NON d   1     -12.593  24.152 -84.722  0.00  0.00     0.075 H 
ATOM     64  H69 NON d   1     -11.802  24.072 -86.333  0.00  0.00     0.075 H 
BRANCH  62  65
ATOM     65  NZ  NON d   1     -10.882  22.902 -84.822  0.00  0.00    -0.079 N 
ATOM     66  H70 NON d   1     -10.256  23.644 -84.551  0.00  0.00     0.274 HD
ATOM     67  H71 NON d   1     -10.421  22.297 -85.483  0.00  0.00     0.274 HD
ATOM     68  H72 NON d   1     -11.145  22.370 -84.007  0.00  0.00     0.274 HD
ENDBRANCH  62  65
ENDBRANCH  59  62
ENDBRANCH  56  59
ENDBRANCH  53  56
ENDBRANCH  17  53
ENDBRANCH  15  17
ENDBRANCH  11  13
BRANCH  11  69
ATOM     69  CB  NON d   1     -15.018  15.213 -84.413  0.00  0.00    -0.038 C 
ATOM     70  H49 NON d   1     -14.184  15.448 -83.735  0.00  0.00     0.036 H 
ATOM     71  H50 NON d   1     -14.773  15.557 -85.429  0.00  0.00     0.036 H 
BRANCH  69  72
ATOM     72  CG  NON d   1     -15.182  13.702 -84.453  0.00  0.00    -0.061 C 
ATOM     73  H51 NON d   1     -14.232  13.256 -84.781  0.00  0.00     0.033 H 
ATOM     74  H52 NON d   1     -15.972  13.455 -85.178  0.00  0.00     0.033 H 
BRANCH  72  75
ATOM     75  CD  NON d   1     -15.561  13.098 -83.094  0.00  0.00    -0.043 C 
ATOM     76  H53 NON d   1     -15.500  12.003 -83.175  0.00  0.00     0.035 H 
ATOM     77  H54 NON d   1     -16.596  13.392 -82.863  0.00  0.00     0.035 H 
BRANCH  75  78
ATOM     78  CE  NON d   1     -14.672  13.541 -81.942  0.00  0.00     0.080 C 
ATOM     79  H55 NON d   1     -14.809  14.617 -81.760  0.00  0.00     0.075 H 
ATOM     80  H56 NON d   1     -13.618  13.342 -82.188  0.00  0.00     0.075 H 
BRANCH  78  81
ATOM     81  NZ  NON d   1     -15.063  12.764 -80.714  0.00  0.00    -0.079 N 
ATOM     82  H57 NON d   1     -14.483  13.046 -79.939  0.00  0.00     0.274 HD
ATOM     83  H58 NON d   1     -14.939  11.779 -80.886  0.00  0.00     0.274 HD
ATOM     84  H59 NON d   1     -16.029  12.947 -80.494  0.00  0.00     0.274 HD
ENDBRANCH  78  81
ENDBRANCH  75  78
ENDBRANCH  72  75
ENDBRANCH  69  72
ENDBRANCH  11  69
ENDBRANCH   9  11
ENDBRANCH   5   7
BRANCH   5  85
ATOM     85  CB  NON d   1     -19.399  13.992 -86.353  0.00  0.00    -0.049 C 
ATOM     86  H44 NON d   1     -19.515  13.232 -85.566  0.00  0.00     0.030 H 
ATOM     87  H45 NON d   1     -18.414  13.879 -86.829  0.00  0.00     0.030 H 
ATOM     88  H46 NON d   1     -20.188  13.861 -87.108  0.00  0.00     0.030 H 
ENDBRANCH   5  85
ENDBRANCH   3   5
BRANCH   1  89
ATOM     89  CA  NON d   1     -19.848  18.592 -87.823  0.00  0.00     0.098 C 
ATOM     90  H39 NON d   1     -20.031  19.598 -87.418  0.00  0.00     0.088 H 
BRANCH  89  91
ATOM     91  N   NON d   1     -18.534  18.619 -88.463  0.00  0.00    -0.345 N 
ATOM     92  C   NON d   1     -17.489  19.085 -87.804  0.00  0.00     0.241 C 
ATOM     93  O   NON d   1     -17.555  19.465 -86.639  0.00  0.00    -0.271 OA
ATOM     94  H38 NON d   1     -18.427  18.285 -89.399  0.00  0.00     0.163 HD
BRANCH  92  95
ATOM     95  CA  NON d   1     -16.178  19.102 -88.562  0.00  0.00     0.092 C 
ATOM     96  H28 NON d   1     -15.357  19.271 -87.850  0.00  0.00     0.088 H 
BRANCH  95  97
ATOM     97  N   NON d   1     -15.958  17.800 -89.210  0.00  0.00    -0.346 N 
ATOM     98  C   NON d   1     -15.915  16.671 -88.499  0.00  0.00     0.241 C 
ATOM     99  O   NON d   1     -15.998  16.658 -87.257  0.00  0.00    -0.271 OA
ATOM    100  H27 NON d   1     -15.838  17.760 -90.202  0.00  0.00     0.163 HD
BRANCH  98 101
ATOM    101  CA  NON d   1     -15.743  15.359 -89.284  0.00  0.00     0.093 C 
ATOM    102  H19 NON d   1     -16.029  14.536 -88.613  0.00  0.00     0.088 H 
BRANCH 101 103
ATOM    103  N   NON d   1     -16.585  15.272 -90.473  0.00  0.00    -0.346 N 
ATOM    104  C   NON d   1     -17.903  15.183 -90.381  0.00  0.00     0.243 C 
ATOM    105  O   NON d   1     -18.500  15.179 -89.299  0.00  0.00    -0.271 OA
ATOM    106  H18 NON d   1     -16.157  15.280 -91.377  0.00  0.00     0.163 HD
BRANCH 104 107
ATOM    107  CA  NON d   1     -18.655  15.098 -91.716  0.00  0.00     0.109 C 
ATOM    108  H14 NON d   1     -19.717  15.293 -91.504  0.00  0.00     0.090 H 
BRANCH 107 109
ATOM    109  N   NON d   1     -18.221  16.095 -92.720  0.00  0.00    -0.344 N 
ATOM    110  C   NON d   1     -18.289  17.408 -92.496  0.00  0.00     0.240 C 
ATOM    111  O   NON d   1     -18.450  17.873 -91.372  0.00  0.00    -0.271 OA
ATOM    112  H13 NON d   1     -17.864  15.773 -93.597  0.00  0.00     0.163 HD
BRANCH 110 113
ATOM    113  CA  NON d   1     -18.173  18.358 -93.715  0.00  0.00     0.086 C 
ATOM    114  H9  NON d   1     -18.846  17.984 -94.501  0.00  0.00     0.086 H 
BRANCH 113 115
ATOM    115  N   NON d   1     -18.612  19.725 -93.356  0.00  0.00    -0.346 N 
ATOM    116  C   NON d   1     -19.820  20.197 -93.685  0.00  0.00     0.248 C 
ATOM    117  O   NON d   1     -20.528  19.655 -94.531  0.00  0.00    -0.271 OA
ATOM    118  H8  NON d   1     -17.984  20.316 -92.850  0.00  0.00     0.163 HD
BRANCH 116 119
ATOM    119  CA  NON d   1     -20.312  21.487 -92.985  0.00  0.00     0.172 C 
ATOM    120  H4  NON d   1     -21.410  21.485 -93.042  0.00  0.00     0.098 H 
BRANCH 119 121
ATOM    121  N   NON d   1     -19.952  21.559 -91.579  0.00  0.00    -0.067 N 
ATOM    122  H1  NON d   1     -20.301  22.419 -91.186  0.00  0.00     0.275 HD
ATOM    123  H2  NON d   1     -18.949  21.531 -91.487  0.00  0.00     0.275 HD
ATOM    124  H3  NON d   1     -20.357  20.777 -91.088  0.00  0.00     0.275 HD
ENDBRANCH 119 121
BRANCH 119 125
ATOM    125  CB  NON d   1     -19.817  22.720 -93.696  0.00  0.00    -0.042 C 
ATOM    126  H5  NON d   1     -20.090  22.664 -94.760  0.00  0.00     0.030 H 
ATOM    127  H6  NON d   1     -18.723  22.784 -93.601  0.00  0.00     0.030 H 
ATOM    128  H7  NON d   1     -20.277  23.612 -93.246  0.00  0.00     0.030 H 
ENDBRANCH 119 125
ENDBRANCH 116 119
ENDBRANCH 113 115
BRANCH 113 129
ATOM    129  CB  NON d   1     -16.764  18.355 -94.274  0.00  0.00    -0.049 C 
ATOM    130  H10 NON d   1     -16.473  17.325 -94.529  0.00  0.00     0.030 H 
ATOM    131  H11 NON d   1     -16.070  18.757 -93.521  0.00  0.00     0.030 H 
ATOM    132  H12 NON d   1     -16.727  18.981 -95.178  0.00  0.00     0.030 H 
ENDBRANCH 113 129
ENDBRANCH 110 113
ENDBRANCH 107 109
BRANCH 107 133
ATOM    133  CB  NON d   1     -18.540  13.670 -92.293  0.00  0.00     0.044 C 
ATOM    134  H15 NON d   1     -17.495  13.484 -92.581  0.00  0.00     0.077 H 
ATOM    135  H16 NON d   1     -19.184  13.590 -93.181  0.00  0.00     0.077 H 
BRANCH 133 136
ATOM    136  OG  NON d   1     -18.941  12.687 -91.339  0.00  0.00    -0.398 OA
ATOM    137  H17 NON d   1     -18.859  11.822 -91.724  0.00  0.00     0.209 HD
ENDBRANCH 133 136
ENDBRANCH 107 133
ENDBRANCH 104 107
ENDBRANCH 101 103
BRANCH 101 138
ATOM    138  CB  NON d   1     -14.285  15.162 -89.685  0.00  0.00    -0.014 C 
ATOM    139  H20 NON d   1     -14.036  15.893 -90.469  0.00  0.00     0.043 H 
ATOM    140  H21 NON d   1     -14.166  14.143 -90.083  0.00  0.00     0.043 H 
BRANCH 138 141
ATOM    141  CG  NON d   1     -13.335  15.341 -88.552  0.00  0.00    -0.056 A 
ATOM    142  CD1 NON d   1     -12.704  16.557 -88.353  0.00  0.00    -0.077 A 
ATOM    143  CE1 NON d   1     -11.825  16.737 -87.297  0.00  0.00    -0.082 A 
ATOM    144  H22 NON d   1     -12.900  17.379 -89.032  0.00  0.00     0.084 H 
ATOM    145  CZ  NON d   1     -11.583  15.697 -86.410  0.00  0.00    -0.083 A 
ATOM    146  H24 NON d   1     -11.326  17.690 -87.163  0.00  0.00     0.083 H 
ATOM    147  CE2 NON d   1     -12.223  14.469 -86.593  0.00  0.00    -0.082 A 
ATOM    148  H26 NON d   1     -10.901  15.837 -85.579  0.00  0.00     0.083 H 
ATOM    149  CD2 NON d   1     -13.105  14.303 -87.660  0.00  0.00    -0.077 A 
ATOM    150  H25 NON d   1     -12.035  13.649 -85.909  0.00  0.00     0.083 H 
ATOM    151  H23 NON d   1     -13.615  13.356 -87.794  0.00  0.00     0.084 H 
ENDBRANCH 138 141
ENDBRANCH 101 138
ENDBRANCH  98 101
ENDBRANCH  95  97
BRANCH  95 152
ATOM    152  CB  NON d   1     -16.202  20.292 -89.573  0.00  0.00    -0.030 C 
ATOM    153  H29 NON d   1     -16.724  19.966 -90.485  0.00  0.00     0.043 H 
BRANCH 152 154
ATOM    154  CG1 NON d   1     -14.785  20.717 -89.933  0.00  0.00    -0.063 C 
ATOM    155  H30 NON d   1     -14.241  20.931 -89.001  0.00  0.00     0.033 H 
ATOM    156  H31 NON d   1     -14.842  21.631 -90.542  0.00  0.00     0.033 H 
BRANCH 154 157
ATOM    157  CD1 NON d   1     -14.016  19.687 -90.701  0.00  0.00    -0.076 C 
ATOM    158  H35 NON d   1     -13.008  20.070 -90.920  0.00  0.00     0.027 H 
ATOM    159  H36 NON d   1     -14.538  19.467 -91.644  0.00  0.00     0.027 H 
ATOM    160  H37 NON d   1     -13.937  18.767 -90.103  0.00  0.00     0.027 H 
ENDBRANCH 154 157
ENDBRANCH 152 154
BRANCH 152 161
ATOM    161  CG2 NON d   1     -16.928  21.498 -88.990  0.00  0.00    -0.071 C 
ATOM    162  H32 NON d   1     -17.956  21.213 -88.722  0.00  0.00     0.028 H 
ATOM    163  H33 NON d   1     -16.954  22.306 -89.736  0.00  0.00     0.028 H 
ATOM    164  H34 NON d   1     -16.398  21.846 -88.091  0.00  0.00     0.028 H 
ENDBRANCH 152 161
ENDBRANCH  95 152
ENDBRANCH  92  95
ENDBRANCH  89  91
BRANCH  89 165
ATOM    165  CB  NON d   1     -20.928  18.293 -88.854  0.00  0.00     0.043 C 
ATOM    166  H40 NON d   1     -21.888  18.168 -88.331  0.00  0.00     0.052 H 
ATOM    167  H41 NON d   1     -20.669  17.359 -89.374  0.00  0.00     0.052 H 
BRANCH 165 168
ATOM    168  CG  NON d   1     -21.078  19.397 -89.886  0.00  0.00     0.175 C 
ATOM    169  OD1 NON d   1     -20.719  20.563 -89.597  0.00  0.00    -0.648 OA
ATOM    170  OD2 NON d   1     -21.575  19.093 -90.992  0.00  0.00    -0.648 OA
ENDBRANCH 165 168
ENDBRANCH  89 165
ENDBRANCH   1  89
TORSDOF 48
