REMARK  8 active torsions:
REMARK  status: ('A' for Active; 'I' for Inactive)
REMARK       I    between atoms: C02_2  and  N03_3 
REMARK       I    between atoms: C02_2  and  N14_14 
REMARK    1  A    between atoms: N03_3  and  C04_4 
REMARK    2  A    between atoms: C08_8  and  C09_9 
REMARK    3  A    between atoms: N14_14  and  C15_15 
REMARK    4  A    between atoms: C20_20  and  N21_21 
REMARK    5  A    between atoms: N21_21  and  C22_22 
REMARK    6  A    between atoms: C26_26  and  N27_27 
REMARK    7  A    between atoms: N27_27  and  C28_28 
REMARK    8  A    between atoms: C31_31  and  C32_32 
ROOT
ATOM      1  N21 CJ5 d   1     119.423 102.520 160.363  0.00  0.00    -0.188 N 
ATOM      2  H   CJ5 d   1     119.588 101.506 160.290  0.00  0.00     0.184 HD
ENDROOT
BRANCH   1   3
ATOM      3  C20 CJ5 d   1     118.696 103.179 159.337  0.00  0.00     0.049 A 
ATOM      4  C17 CJ5 d   1     119.353 103.582 158.192  0.00  0.00    -0.054 A 
ATOM      5  C16 CJ5 d   1     118.653 104.201 157.185  0.00  0.00    -0.055 A 
ATOM      6  H   CJ5 d   1     120.418 103.411 158.088  0.00  0.00     0.087 H 
ATOM      7  C15 CJ5 d   1     117.287 104.412 157.323  0.00  0.00     0.036 A 
ATOM      8  H   CJ5 d   1     119.165 104.524 156.286  0.00  0.00     0.087 H 
ATOM      9  C18 CJ5 d   1     116.627 104.004 158.472  0.00  0.00    -0.055 A 
ATOM     10  C19 CJ5 d   1     117.334 103.384 159.483  0.00  0.00    -0.054 A 
ATOM     11  H   CJ5 d   1     115.561 104.171 158.576  0.00  0.00     0.087 H 
ATOM     12  H   CJ5 d   1     116.827 103.060 160.385  0.00  0.00     0.087 H 
BRANCH   7  13
ATOM     13  N14 CJ5 d   1     116.511 105.056 156.321  0.00  0.00    -0.309 N 
ATOM     14  C02 CJ5 d   1     116.916 105.222 154.930  0.00  0.00     0.325 C 
ATOM     15  O01 CJ5 d   1     117.987 104.807 154.495  0.00  0.00    -0.247 OA
ATOM     16  N03 CJ5 d   1     115.947 105.943 154.146  0.00  0.00    -0.309 N 
ATOM     17  H   CJ5 d   1     115.130 106.256 154.631  0.00  0.00     0.170 HD
ATOM     18  H   CJ5 d   1     115.621 105.423 156.590  0.00  0.00     0.170 HD
BRANCH  16  19
ATOM     19  C04 CJ5 d   1     116.019 106.268 152.735  0.00  0.00     0.037 A 
ATOM     20  C05 CJ5 d   1     114.850 106.622 152.072  0.00  0.00    -0.057 A 
ATOM     21  C06 CJ5 d   1     114.886 106.918 150.700  0.00  0.00    -0.080 A 
ATOM     22  H   CJ5 d   1     113.912 106.669 152.613  0.00  0.00     0.086 H 
ATOM     23  C07 CJ5 d   1     116.106 106.865 150.003  0.00  0.00    -0.068 A 
ATOM     24  H   CJ5 d   1     113.974 107.187 150.179  0.00  0.00     0.083 H 
ATOM     25  C08 CJ5 d   1     117.281 106.501 150.670  0.00  0.00     0.050 A 
ATOM     26  H   CJ5 d   1     116.136 107.107 148.947  0.00  0.00     0.084 H 
ATOM     27  C13 CJ5 d   1     117.242 106.200 152.030  0.00  0.00    -0.043 A 
ATOM     28  H   CJ5 d   1     118.150 105.913 152.548  0.00  0.00     0.088 H 
BRANCH  25  29
ATOM     29  C09 CJ5 d   1     118.598 106.449 149.926  0.00  0.00     0.417 C 
ATOM     30  F10 CJ5 d   1     119.208 105.288 150.152  0.00  0.00    -0.166 F 
ATOM     31  F11 CJ5 d   1     119.365 107.429 150.400  0.00  0.00    -0.166 F 
ATOM     32  F12 CJ5 d   1     118.399 106.621 148.614  0.00  0.00    -0.166 F 
ENDBRANCH  25  29
ENDBRANCH  16  19
ENDBRANCH   7  13
ENDBRANCH   1   3
BRANCH   1  33
ATOM     33  C22 CJ5 d   1     119.931 103.229 161.495  0.00  0.00     0.728 A 
ATOM     34  N23 CJ5 d   1     120.680 102.555 162.395  0.00  0.00    -0.075 NA
ATOM     35  C24 CJ5 d   1     121.172 103.179 163.463  0.00  0.00     0.025 A 
ATOM     36  C25 CJ5 d   1     120.915 104.527 163.671  0.00  0.00    -0.020 A 
ATOM     37  H   CJ5 d   1     121.778 102.630 164.175  0.00  0.00     0.115 H 
ATOM     38  C26 CJ5 d   1     120.130 105.171 162.700  0.00  0.00     0.149 A 
ATOM     39  H   CJ5 d   1     121.299 105.055 164.536  0.00  0.00     0.091 H 
ATOM     40  N38 CJ5 d   1     119.641 104.527 161.632  0.00  0.00    -0.045 NA
BRANCH  38  41
ATOM     41  N27 CJ5 d   1     119.849 106.556 162.929  0.00  0.00    -0.324 N 
ATOM     42  H   CJ5 d   1     120.136 106.963 163.831  0.00  0.00     0.169 HD
BRANCH  41  43
ATOM     43  C28 CJ5 d   1     119.190 107.420 161.978  0.00  0.00     0.151 A 
ATOM     44  N29 CJ5 d   1     118.921 108.676 162.352  0.00  0.00    -0.156 NA
ATOM     45  N30 CJ5 d   1     118.320 109.306 161.302  0.00  0.00    -0.280 N 
ATOM     46  C31 CJ5 d   1     118.165 108.443 160.298  0.00  0.00     0.035 A 
ATOM     47  H   CJ5 d   1     118.031 110.294 161.287  0.00  0.00     0.189 HD
ATOM     48  C37 CJ5 d   1     118.713 107.219 160.652  0.00  0.00    -0.013 A 
ATOM     49  H   CJ5 d   1     118.766 106.311 160.052  0.00  0.00     0.092 H 
BRANCH  46  50
ATOM     50  C32 CJ5 d   1     117.512 108.887 158.987  0.00  0.00    -0.012 C 
ATOM     51  C33 CJ5 d   1     118.313 108.779 157.755  0.00  0.00    -0.057 C 
ATOM     52  C34 CJ5 d   1     117.315 108.584 156.639  0.00  0.00    -0.064 C 
ATOM     53  H   CJ5 d   1     118.996 107.918 157.815  0.00  0.00     0.034 H 
ATOM     54  H   CJ5 d   1     118.895 109.698 157.593  0.00  0.00     0.034 H 
ATOM     55  C35 CJ5 d   1     115.997 108.238 157.294  0.00  0.00    -0.064 C 
ATOM     56  H   CJ5 d   1     117.638 107.765 155.980  0.00  0.00     0.033 H 
ATOM     57  H   CJ5 d   1     117.216 109.509 156.052  0.00  0.00     0.033 H 
ATOM     58  C36 CJ5 d   1     116.178 108.305 158.762  0.00  0.00    -0.057 C 
ATOM     59  H   CJ5 d   1     115.692 107.222 157.002  0.00  0.00     0.033 H 
ATOM     60  H   CJ5 d   1     115.225 108.957 156.981  0.00  0.00     0.033 H 
ATOM     61  H   CJ5 d   1     115.403 108.943 159.213  0.00  0.00     0.034 H 
ATOM     62  H   CJ5 d   1     116.123 107.297 159.199  0.00  0.00     0.034 H 
ATOM     63  H   CJ5 d   1     117.346 109.966 159.122  0.00  0.00     0.049 H 
ENDBRANCH  46  50
ENDBRANCH  41  43
ENDBRANCH  38  41
ENDBRANCH   1  33
TORSDOF 8
