REMARK  25 active torsions:
REMARK  status: ('A' for Active; 'I' for Inactive)
REMARK    1  A    between atoms: CA_2  and  C_3 
REMARK       I    between atoms: C_3  and  N_8 
REMARK    2  A    between atoms: N_8  and  CA_9 
REMARK    3  A    between atoms: CA_9  and  C_10 
REMARK    4  A    between atoms: CA_9  and  CB_12 
REMARK       I    between atoms: C_10  and  N_18 
REMARK    5  A    between atoms: CB_12  and  CG_13 
REMARK    6  A    between atoms: N_18  and  CA_19 
REMARK    7  A    between atoms: CA_19  and  C_20 
REMARK       I    between atoms: C_20  and  N_22 
REMARK    8  A    between atoms: N_22  and  CA_23 
REMARK    9  A    between atoms: CA_23  and  C_24 
REMARK       I    between atoms: C_24  and  N_26 
REMARK   10  A    between atoms: N_26  and  CA_27 
REMARK   11  A    between atoms: CA_27  and  C_28 
REMARK   12  A    between atoms: CA_27  and  CB_30 
REMARK       I    between atoms: C_28  and  N_32 
REMARK   13  A    between atoms: CB_30  and  OG_31 
REMARK   14  A    between atoms: N_32  and  CA_33 
REMARK   15  A    between atoms: CA_33  and  C_34 
REMARK   16  A    between atoms: CA_33  and  CB_36 
REMARK       I    between atoms: C_34  and  N_46 
REMARK   17  A    between atoms: CB_36  and  CG_37 
REMARK   18  A    between atoms: N_46  and  CA_47 
REMARK   19  A    between atoms: CA_47  and  C_48 
REMARK       I    between atoms: C_48  and  N_50 
REMARK   20  A    between atoms: N_50  and  CA_51 
REMARK   21  A    between atoms: CA_51  and  C_52 
REMARK   22  A    between atoms: CA_51  and  CB_54 
REMARK       I    between atoms: C_52  and  N_59 
REMARK   23  A    between atoms: CB_54  and  CG_55 
REMARK   24  A    between atoms: CG_55  and  CD_56 
REMARK       I    between atoms: CD_56  and  NE2_58 
REMARK   25  A    between atoms: CA_60  and  C_61 
ROOT
ATOM      1  CA  TRP d   1     -11.259  -7.930  51.311  0.00  0.00     0.093 C 
ATOM      2  H29 TRP d   1     -11.698  -8.623  52.044  0.00  0.00     0.088 H 
ENDROOT
BRANCH   1   3
ATOM      3  N   TRP d   1     -11.302  -6.649  52.034  0.00  0.00    -0.346 N 
ATOM      4  C   SER d   1     -10.966  -5.447  51.599  0.00  0.00     0.243 C 
ATOM      5  O   SER d   1     -10.257  -5.257  50.646  0.00  0.00    -0.271 OA
ATOM      6  H28 TRP d   1     -11.628  -6.694  52.978  0.00  0.00     0.163 HD
BRANCH   4   7
ATOM      7  CA  SER d   1     -11.464  -4.309  52.498  0.00  0.00     0.109 C 
ATOM      8  H24 SER d   1     -10.972  -4.496  53.464  0.00  0.00     0.090 H 
BRANCH   7   9
ATOM      9  N   SER d   1     -11.189  -2.899  52.233  0.00  0.00    -0.344 N 
ATOM     10  C   GLY d   1     -11.210  -2.051  53.247  0.00  0.00     0.236 C 
ATOM     11  O   GLY d   1     -11.237  -2.471  54.394  0.00  0.00    -0.272 OA
ATOM     12  H23 SER d   1     -10.989  -2.582  51.306  0.00  0.00     0.163 HD
BRANCH  10  13
ATOM     13  CA  GLY d   1     -11.178  -0.538  52.962  0.00  0.00     0.069 C 
ATOM     14  H21 GLY d   1     -10.137  -0.208  53.099  0.00  0.00     0.078 H 
ATOM     15  H22 GLY d   1     -11.470  -0.404  51.910  0.00  0.00     0.078 H 
BRANCH  13  16
ATOM     16  N   GLY d   1     -12.019   0.363  53.756  0.00  0.00    -0.351 N 
ATOM     17  C   GLY d   1     -12.794   1.314  53.220  0.00  0.00     0.235 C 
ATOM     18  O   GLY d   1     -12.882   1.507  52.039  0.00  0.00    -0.272 OA
ATOM     19  H20 GLY d   1     -12.013   0.262  54.751  0.00  0.00     0.163 HD
BRANCH  17  20
ATOM     20  CA  GLY d   1     -13.669   2.190  54.075  0.00  0.00     0.069 C 
ATOM     21  H18 GLY d   1     -14.416   1.589  54.615  0.00  0.00     0.078 H 
ATOM     22  H19 GLY d   1     -13.066   2.760  54.797  0.00  0.00     0.078 H 
BRANCH  20  23
ATOM     23  N   GLY d   1     -14.311   3.078  53.122  0.00  0.00    -0.351 N 
ATOM     24  C   HIS d   1     -15.551   3.558  53.212  0.00  0.00     0.241 C 
ATOM     25  O   HIS d   1     -16.324   3.234  54.088  0.00  0.00    -0.271 OA
ATOM     26  H17 GLY d   1     -13.774   3.355  52.325  0.00  0.00     0.163 HD
BRANCH  24  27
ATOM     27  CA  HIS d   1     -15.966   4.621  52.179  0.00  0.00     0.094 C 
ATOM     28  H11 HIS d   1     -15.035   4.884  51.656  0.00  0.00     0.088 H 
BRANCH  27  29
ATOM     29  N   HIS d   1     -16.911   4.290  51.116  0.00  0.00    -0.346 N 
ATOM     30  C   PRO d   1     -16.883   5.031  50.020  0.00  0.00     0.249 C 
ATOM     31  O   PRO d   1     -16.279   6.064  49.998  0.00  0.00    -0.271 OA
ATOM     32  H10 HIS d   1     -17.555   3.531  51.213  0.00  0.00     0.163 HD
BRANCH  30  33
ATOM     33  CA  PRO d   1     -17.596   4.659  48.699  0.00  0.00     0.178 C 
ATOM     34  N   PRO d   1     -17.044   3.568  47.909  0.00  0.00    -0.062 N 
ATOM     35  CD  PRO d   1     -18.052   3.045  46.988  0.00  0.00     0.083 C 
ATOM     36  H1  PRO d   1     -16.743   2.830  48.526  0.00  0.00     0.278 HD
ATOM     37  H2  PRO d   1     -16.255   3.906  47.381  0.00  0.00     0.278 HD
ATOM     38  CG  PRO d   1     -19.319   3.677  47.487  0.00  0.00    -0.040 C 
ATOM     39  H8  PRO d   1     -18.108   1.948  47.044  0.00  0.00     0.075 H 
ATOM     40  H9  PRO d   1     -17.839   3.349  45.953  0.00  0.00     0.075 H 
ATOM     41  CB  PRO d   1     -19.031   4.255  48.833  0.00  0.00    -0.028 C 
ATOM     42  H6  PRO d   1     -19.639   4.472  46.797  0.00  0.00     0.035 H 
ATOM     43  H7  PRO d   1     -20.112   2.918  47.566  0.00  0.00     0.035 H 
ATOM     44  H4  PRO d   1     -19.673   5.124  49.040  0.00  0.00     0.036 H 
ATOM     45  H5  PRO d   1     -19.162   3.505  49.626  0.00  0.00     0.036 H 
ATOM     46  H3  PRO d   1     -17.553   5.570  48.084  0.00  0.00     0.099 H 
ENDBRANCH  30  33
ENDBRANCH  27  29
BRANCH  27  47
ATOM     47  CB  HIS d   1     -16.434   5.863  52.899  0.00  0.00     0.004 C 
ATOM     48  H12 HIS d   1     -15.736   6.065  53.725  0.00  0.00     0.046 H 
ATOM     49  H13 HIS d   1     -17.437   5.667  53.306  0.00  0.00     0.046 H 
BRANCH  47  50
ATOM     50  CG  HIS d   1     -16.508   7.080  52.045  0.00  0.00     0.053 A 
ATOM     51  ND1 HIS d   1     -15.488   7.995  51.965  0.00  0.00    -0.247 NA
ATOM     52  CE1 HIS d   1     -15.836   8.977  51.160  0.00  0.00     0.064 A 
ATOM     53  NE2 HIS d   1     -17.050   8.731  50.714  0.00  0.00    -0.359 N 
ATOM     54  H15 HIS d   1     -15.226   9.843  50.907  0.00  0.00     0.143 H 
ATOM     55  CD2 HIS d   1     -17.494   7.551  51.259  0.00  0.00     0.002 A 
ATOM     56  H16 HIS d   1     -17.581   9.327  50.062  0.00  0.00     0.166 HD
ATOM     57  H14 HIS d   1     -18.463   7.084  51.087  0.00  0.00     0.114 H 
ENDBRANCH  47  50
ENDBRANCH  27  47
ENDBRANCH  24  27
ENDBRANCH  20  23
ENDBRANCH  17  20
ENDBRANCH  13  16
ENDBRANCH  10  13
ENDBRANCH   7   9
BRANCH   7  58
ATOM     58  CB  SER d   1     -12.934  -4.496  52.716  0.00  0.00     0.044 C 
ATOM     59  H25 SER d   1     -13.190  -4.213  53.748  0.00  0.00     0.077 H 
ATOM     60  H26 SER d   1     -13.197  -5.551  52.549  0.00  0.00     0.077 H 
BRANCH  58  61
ATOM     61  OG  SER d   1     -13.638  -3.704  51.837  0.00  0.00    -0.398 OA
ATOM     62  H27 SER d   1     -14.569  -3.826  51.979  0.00  0.00     0.209 HD
ENDBRANCH  58  61
ENDBRANCH   7  58
ENDBRANCH   4   7
ENDBRANCH   1   3
BRANCH   1  63
ATOM     63  C   TRP d   1      -9.938  -8.539  51.082  0.00  0.00     0.241 C 
ATOM     64  O   TRP d   1      -9.042  -8.254  51.834  0.00  0.00    -0.271 OA
ATOM     65  N   GLY d   1      -9.807  -9.452  50.129  0.00  0.00    -0.351 N 
ATOM     66  H38 GLY d   1      -8.874  -9.765  49.950  0.00  0.00     0.163 HD
BRANCH  65  67
ATOM     67  CA  GLY d   1     -10.851 -10.058  49.308  0.00  0.00     0.069 C 
ATOM     68  H39 GLY d   1     -10.392 -10.454  48.390  0.00  0.00     0.078 H 
ATOM     69  H40 GLY d   1     -11.587  -9.283  49.045  0.00  0.00     0.078 H 
BRANCH  67  70
ATOM     70  C   GLY d   1     -11.569 -11.188  50.017  0.00  0.00     0.236 C 
ATOM     71  O   GLY d   1     -11.382 -11.391  51.195  0.00  0.00    -0.272 OA
ATOM     72  N   GLN d   1     -12.464 -11.896  49.363  0.00  0.00    -0.346 N 
ATOM     73  H41 GLN d   1     -12.602 -11.797  48.378  0.00  0.00     0.163 HD
BRANCH  72  74
ATOM     74  CA  GLN d   1     -13.241 -12.833  50.162  0.00  0.00     0.090 C 
ATOM     75  H42 GLN d   1     -12.940 -12.625  51.199  0.00  0.00     0.087 H 
BRANCH  74  76
ATOM     76  C   GLN d   1     -13.087 -14.355  50.018  0.00  0.00     0.243 C 
ATOM     77  O   GLN d   1     -12.766 -15.035  50.985  0.00  0.00    -0.271 OA
ATOM     78  N   PRO d   1     -13.315 -14.900  48.835  0.00  0.00    -0.336 N 
ATOM     79  CA  PRO d   1     -13.453 -16.348  48.730  0.00  0.00     0.098 C 
ATOM     80  CD  PRO d   1     -13.117 -14.294  47.516  0.00  0.00    -0.001 C 
ATOM     81  CB  PRO d   1     -13.424 -16.598  47.221  0.00  0.00    -0.035 C 
ATOM     82  H49 PRO d   1     -14.404 -16.687  49.167  0.00  0.00     0.089 H 
ATOM     83  CG  PRO d   1     -13.759 -15.291  46.616  0.00  0.00    -0.048 C 
ATOM     84  H50 PRO d   1     -14.168 -17.358  46.940  0.00  0.00     0.036 H 
ATOM     85  H51 PRO d   1     -12.424 -16.928  46.902  0.00  0.00     0.036 H 
ATOM     86  H52 PRO d   1     -14.849 -15.143  46.585  0.00  0.00     0.035 H 
ATOM     87  H53 PRO d   1     -13.350 -15.217  45.597  0.00  0.00     0.035 H 
ATOM     88  H54 PRO d   1     -12.047 -14.179  47.286  0.00  0.00     0.064 H 
ATOM     89  H55 PRO d   1     -13.614 -13.315  47.447  0.00  0.00     0.064 H 
BRANCH  79  90
ATOM     90  C   PRO d   1     -12.302 -17.048  49.417  0.00  0.00     0.196 C 
ATOM     91  O   PRO d   1     -11.929 -18.164  48.967  0.00  0.00    -0.646 OA
ATOM     92  O   PRO d   1     -11.731 -16.529  50.413  0.00  0.00    -0.646 OA
ENDBRANCH  79  90
ENDBRANCH  74  76
BRANCH  74  93
ATOM     93  CB  GLN d   1     -14.698 -12.470  50.044  0.00  0.00    -0.030 C 
ATOM     94  H43 GLN d   1     -15.193 -13.205  49.392  0.00  0.00     0.037 H 
ATOM     95  H44 GLN d   1     -14.777 -11.469  49.595  0.00  0.00     0.037 H 
BRANCH  93  96
ATOM     96  CG  GLN d   1     -15.392 -12.458  51.367  0.00  0.00     0.011 C 
ATOM     97  H45 GLN d   1     -14.641 -12.529  52.168  0.00  0.00     0.047 H 
ATOM     98  H46 GLN d   1     -16.072 -13.321  51.424  0.00  0.00     0.047 H 
BRANCH  96  99
ATOM     99  CD  GLN d   1     -16.182 -11.200  51.547  0.00  0.00     0.215 C 
ATOM    100  OE1 GLN d   1     -16.026 -10.243  50.779  0.00  0.00    -0.274 OA
ATOM    101  NE2 GLN d   1     -17.034 -11.178  52.570  0.00  0.00    -0.370 N 
ATOM    102  H47 GLN d   1     -17.590 -10.364  52.741  0.00  0.00     0.159 HD
ATOM    103  H48 GLN d   1     -17.118 -11.975  53.168  0.00  0.00     0.159 HD
ENDBRANCH  96  99
ENDBRANCH  93  96
ENDBRANCH  74  93
ENDBRANCH  72  74
ENDBRANCH  67  70
ENDBRANCH  65  67
ENDBRANCH   1  63
BRANCH   1 104
ATOM    104  CB  TRP d   1     -12.244  -8.010  50.159  0.00  0.00    -0.012 C 
ATOM    105  H30 TRP d   1     -12.883  -7.119  50.246  0.00  0.00     0.044 H 
ATOM    106  H31 TRP d   1     -12.847  -8.912  50.340  0.00  0.00     0.044 H 
BRANCH 104 107
ATOM    107  CG  TRP d   1     -11.827  -8.077  48.727  0.00  0.00    -0.028 A 
ATOM    108  CD1 TRP d   1     -12.297  -8.967  47.818  0.00  0.00    -0.015 A 
ATOM    109  NE1 TRP d   1     -11.762  -8.719  46.593  0.00  0.00    -0.365 N 
ATOM    110  H32 TRP d   1     -13.003  -9.767  48.038  0.00  0.00     0.112 H 
ATOM    111  CE2 TRP d   1     -10.927  -7.642  46.685  0.00  0.00     0.042 A 
ATOM    112  H33 TRP d   1     -11.955  -9.256  45.735  0.00  0.00     0.165 HD
ATOM    113  CD2 TRP d   1     -10.945  -7.209  48.002  0.00  0.00    -0.002 A 
ATOM    114  CZ2 TRP d   1     -10.189  -7.020  45.726  0.00  0.00    -0.056 A 
ATOM    115  CE3 TRP d   1     -10.170  -6.116  48.343  0.00  0.00    -0.070 A 
ATOM    116  CZ3 TRP d   1      -9.436  -5.528  47.383  0.00  0.00    -0.082 A 
ATOM    117  H34 TRP d   1     -10.155  -5.742  49.360  0.00  0.00     0.084 H 
ATOM    118  CH2 TRP d   1      -9.449  -5.975  46.101  0.00  0.00    -0.081 A 
ATOM    119  H36 TRP d   1      -8.818  -4.675  47.639  0.00  0.00     0.083 H 
ATOM    120  H37 TRP d   1      -8.841  -5.468  45.361  0.00  0.00     0.083 H 
ATOM    121  H35 TRP d   1     -10.202  -7.360  44.697  0.00  0.00     0.086 H 
ENDBRANCH 104 107
ENDBRANCH   1 104
TORSDOF 25
