REMARK WARNING: 32 MAX_TORS EXCEEDED!!!
REMARK  58 active torsions:
REMARK  status: ('A' for Active; 'I' for Inactive)
REMARK    1  A    between atoms: N_1  and  CA_2 
REMARK    2  A    between atoms: CA_2  and  C_3 
REMARK    3  A    between atoms: CA_2  and  CB_5 
REMARK       I    between atoms: C_3  and  N_12 
REMARK    4  A    between atoms: CB_5  and  CG_6 
REMARK    5  A    between atoms: CG_6  and  CD_7 
REMARK    6  A    between atoms: CD_7  and  NE_8 
REMARK       I    between atoms: NE_8  and  CZ_9 
REMARK       I    between atoms: CZ_9  and  NH1_10 
REMARK       I    between atoms: CZ_9  and  NH2_11 
REMARK    7  A    between atoms: N_12  and  CA_13 
REMARK    8  A    between atoms: CA_13  and  C_14 
REMARK    9  A    between atoms: CA_13  and  CB_16 
REMARK       I    between atoms: C_14  and  N_23 
REMARK   10  A    between atoms: CB_16  and  CG_17 
REMARK   11  A    between atoms: CG_17  and  CD_18 
REMARK   12  A    between atoms: CD_18  and  NE_19 
REMARK       I    between atoms: NE_19  and  CZ_20 
REMARK       I    between atoms: CZ_20  and  NH1_21 
REMARK       I    between atoms: CZ_20  and  NH2_22 
REMARK   13  A    between atoms: N_23  and  CA_24 
REMARK   14  A    between atoms: CA_24  and  C_25 
REMARK   15  A    between atoms: CA_24  and  CB_27 
REMARK       I    between atoms: C_25  and  N_31 
REMARK   16  A    between atoms: CB_27  and  CG_28 
REMARK   17  A    between atoms: CG_28  and  CD1_29 
REMARK   18  A    between atoms: CG_28  and  CD2_30 
REMARK   19  A    between atoms: CA_32  and  C_33 
REMARK       I    between atoms: C_33  and  N_38 
REMARK   20  A    between atoms: N_38  and  CA_39 
REMARK   21  A    between atoms: CA_39  and  C_40 
REMARK   22  A    between atoms: CA_39  and  CB_42 
REMARK       I    between atoms: C_40  and  N_46 
REMARK   23  A    between atoms: CB_42  and  CG1_43 
REMARK   24  A    between atoms: CB_42  and  CG2_44 
REMARK   25  A    between atoms: CG1_43  and  CD1_45 
REMARK   26  A    between atoms: N_46  and  CA_47 
REMARK   27  A    between atoms: CA_47  and  C_48 
REMARK   28  A    between atoms: CA_47  and  CB_50 
REMARK       I    between atoms: C_48  and  N_57 
REMARK   29  A    between atoms: CB_50  and  CG_51 
REMARK   30  A    between atoms: N_57  and  CA_58 
REMARK   31  A    between atoms: CA_58  and  C_59 
REMARK   32  A    between atoms: CA_58  and  CB_61 
REMARK       I    between atoms: C_59  and  N_65 
REMARK   33  A    between atoms: CB_61  and  CG_62 
REMARK       I    between atoms: CG_62  and  ND2_64 
REMARK   34  A    between atoms: N_65  and  CA_66 
REMARK   35  A    between atoms: CA_66  and  C_67 
REMARK   36  A    between atoms: CA_66  and  CB_69 
REMARK       I    between atoms: C_67  and  N_76 
REMARK   37  A    between atoms: CB_69  and  CG_70 
REMARK   38  A    between atoms: CG_70  and  CD_71 
REMARK   39  A    between atoms: CD_71  and  NE_72 
REMARK       I    between atoms: NE_72  and  CZ_73 
REMARK       I    between atoms: CZ_73  and  NH1_74 
REMARK   40  A    between atoms: N_76  and  CA_77 
REMARK   41  A    between atoms: CA_77  and  C_78 
REMARK   42  A    between atoms: CA_77  and  CB_80 
REMARK       I    between atoms: C_78  and  N_84 
REMARK   43  A    between atoms: CB_80  and  CG1_81 
REMARK   44  A    between atoms: CB_80  and  CG2_82 
REMARK   45  A    between atoms: CG1_81  and  CD1_83 
REMARK   46  A    between atoms: N_84  and  CA_85 
REMARK   47  A    between atoms: CA_85  and  C_86 
REMARK   48  A    between atoms: CA_85  and  CB_88 
REMARK       I    between atoms: C_86  and  N_90 
REMARK   49  A    between atoms: CB_88  and  OG_89 
REMARK   50  A    between atoms: N_90  and  CA_91 
REMARK   51  A    between atoms: CA_91  and  C_92 
REMARK   52  A    between atoms: CA_91  and  CB_94 
REMARK       I    between atoms: C_92  and  N_97 
REMARK   53  A    between atoms: CB_94  and  CG1_95 
REMARK   54  A    between atoms: CB_94  and  CG2_96 
REMARK   55  A    between atoms: N_97  and  CA_98 
REMARK   56  A    between atoms: CA_98  and  C_99 
REMARK   57  A    between atoms: CA_98  and  CB_101 
REMARK   58  A    between atoms: CB_101  and  OG_102 
ROOT
ATOM      1  CA  PHE d   1      16.699  -2.077  35.993  0.00  0.00     0.093 C 
ATOM      2  H59 PHE d   1      17.391  -2.039  36.847  0.00  0.00     0.088 H 
ENDROOT
BRANCH   1   3
ATOM      3  N   PHE d   1      17.338  -2.859  34.938  0.00  0.00    -0.346 N 
ATOM      4  C   ILE d   1      18.017  -3.956  35.259  0.00  0.00     0.241 C 
ATOM      5  O   ILE d   1      18.048  -4.393  36.417  0.00  0.00    -0.271 OA
ATOM      6  H58 PHE d   1      17.265  -2.572  33.983  0.00  0.00     0.163 HD
BRANCH   4   7
ATOM      7  CA  ILE d   1      18.703  -4.709  34.111  0.00  0.00     0.092 C 
ATOM      8  H48 ILE d   1      18.797  -5.764  34.409  0.00  0.00     0.088 H 
BRANCH   7   9
ATOM      9  N   ILE d   1      17.888  -4.663  32.890  0.00  0.00    -0.346 N 
ATOM     10  C   PRO d   1      16.650  -5.138  32.874  0.00  0.00     0.241 C 
ATOM     11  O   PRO d   1      16.094  -5.610  33.869  0.00  0.00    -0.271 OA
ATOM     12  H47 ILE d   1      18.273  -4.267  32.057  0.00  0.00     0.163 HD
BRANCH  10  13
ATOM     13  CA  PRO d   1      15.897  -5.101  31.563  0.00  0.00     0.091 C 
ATOM     14  N   PRO d   1      16.175  -3.910  30.757  0.00  0.00    -0.337 N 
ATOM     15  C   LEU d   1      16.017  -2.697  31.271  0.00  0.00     0.243 C 
ATOM     16  CD  PRO d   1      16.544  -4.254  29.379  0.00  0.00    -0.001 C 
ATOM     17  O   LEU d   1      15.745  -2.522  32.461  0.00  0.00    -0.271 OA
ATOM     18  CG  PRO d   1      16.240  -5.711  29.276  0.00  0.00    -0.048 C 
ATOM     19  H45 PRO d   1      17.613  -4.064  29.202  0.00  0.00     0.064 H 
ATOM     20  H46 PRO d   1      15.945  -3.678  28.659  0.00  0.00     0.064 H 
ATOM     21  CB  PRO d   1      16.331  -6.258  30.652  0.00  0.00    -0.036 C 
ATOM     22  H43 PRO d   1      15.227  -5.860  28.874  0.00  0.00     0.035 H 
ATOM     23  H44 PRO d   1      16.972  -6.207  28.621  0.00  0.00     0.035 H 
ATOM     24  H41 PRO d   1      15.658  -7.119  30.772  0.00  0.00     0.036 H 
ATOM     25  H42 PRO d   1      17.363  -6.565  30.880  0.00  0.00     0.036 H 
ATOM     26  H40 PRO d   1      14.820  -5.164  31.778  0.00  0.00     0.087 H 
BRANCH  15  27
ATOM     27  CA  LEU d   1      16.233  -1.494  30.332  0.00  0.00     0.090 C 
ATOM     28  H30 LEU d   1      16.017  -1.796  29.296  0.00  0.00     0.087 H 
BRANCH  27  29
ATOM     29  N   LEU d   1      15.302  -0.438  30.730  0.00  0.00    -0.346 N 
ATOM     30  C   ARG d   1      14.000  -0.569  30.504  0.00  0.00     0.241 C 
ATOM     31  O   ARG d   1      13.506  -1.546  29.907  0.00  0.00    -0.271 OA
ATOM     32  H29 LEU d   1      15.648   0.388  31.175  0.00  0.00     0.163 HD
BRANCH  30  33
ATOM     33  CA  ARG d   1      13.119   0.548  31.053  0.00  0.00     0.089 C 
ATOM     34  H17 ARG d   1      13.749   1.444  31.159  0.00  0.00     0.087 H 
BRANCH  33  35
ATOM     35  N   ARG d   1      11.984   0.928  30.198  0.00  0.00    -0.346 N 
ATOM     36  C   ARG d   1      12.186   1.489  29.004  0.00  0.00     0.248 C 
ATOM     37  O   ARG d   1      13.294   1.479  28.451  0.00  0.00    -0.271 OA
ATOM     38  H16 ARG d   1      11.050   0.764  30.515  0.00  0.00     0.163 HD
BRANCH  36  39
ATOM     39  CA  ARG d   1      10.980   2.150  28.299  0.00  0.00     0.176 C 
ATOM     40  H4  ARG d   1      10.675   1.508  27.459  0.00  0.00     0.099 H 
BRANCH  39  41
ATOM     41  N   ARG d   1       9.825   2.318  29.181  0.00  0.00    -0.067 N 
ATOM     42  H1  ARG d   1       9.072   2.752  28.670  0.00  0.00     0.275 HD
ATOM     43  H2  ARG d   1      10.081   2.901  29.962  0.00  0.00     0.275 HD
ATOM     44  H3  ARG d   1       9.526   1.417  29.519  0.00  0.00     0.275 HD
ENDBRANCH  39  41
BRANCH  39  45
ATOM     45  CB  ARG d   1      11.435   3.518  27.744  0.00  0.00    -0.029 C 
ATOM     46  H5  ARG d   1      11.863   3.350  26.745  0.00  0.00     0.036 H 
ATOM     47  H6  ARG d   1      12.213   3.911  28.415  0.00  0.00     0.036 H 
BRANCH  45  48
ATOM     48  CG  ARG d   1      10.341   4.591  27.613  0.00  0.00    -0.047 C 
ATOM     49  H7  ARG d   1       9.721   4.588  28.522  0.00  0.00     0.035 H 
ATOM     50  H8  ARG d   1       9.713   4.362  26.740  0.00  0.00     0.035 H 
BRANCH  48  51
ATOM     51  CD  ARG d   1      10.971   5.995  27.432  0.00  0.00     0.009 C 
ATOM     52  H9  ARG d   1      12.028   5.873  27.155  0.00  0.00     0.064 H 
ATOM     53  H10 ARG d   1      10.902   6.537  28.387  0.00  0.00     0.064 H 
BRANCH  51  54
ATOM     54  NE  ARG d   1      10.301   6.788  26.392  0.00  0.00    -0.227 N 
ATOM     55  CZ  ARG d   1      10.359   6.518  25.090  0.00  0.00     0.665 C 
ATOM     56  NH1 ARG d   1      11.030   5.458  24.653  0.00  0.00    -0.235 N 
ATOM     57  NH2 ARG d   1       9.724   7.294  24.215  0.00  0.00    -0.235 N 
ATOM     58  H12 ARG d   1      11.071   5.255  23.644  0.00  0.00     0.174 HD
ATOM     59  H13 ARG d   1      11.509   4.840  25.323  0.00  0.00     0.174 HD
ATOM     60  H14 ARG d   1       9.201   8.118  24.543  0.00  0.00     0.174 HD
ATOM     61  H15 ARG d   1       9.756   7.070  23.210  0.00  0.00     0.174 HD
ATOM     62  H11 ARG d   1       9.751   7.606  26.690  0.00  0.00     0.177 HD
ENDBRANCH  51  54
ENDBRANCH  48  51
ENDBRANCH  45  48
ENDBRANCH  39  45
ENDBRANCH  36  39
ENDBRANCH  33  35
BRANCH  33  63
ATOM     63  CB  ARG d   1      12.652   0.123  32.447  0.00  0.00    -0.036 C 
ATOM     64  H18 ARG d   1      13.540  -0.120  33.049  0.00  0.00     0.036 H 
ATOM     65  H19 ARG d   1      12.023  -0.773  32.342  0.00  0.00     0.036 H 
BRANCH  63  66
ATOM     66  CG  ARG d   1      11.863   1.168  33.174  0.00  0.00    -0.048 C 
ATOM     67  H20 ARG d   1      10.986   1.458  32.576  0.00  0.00     0.035 H 
ATOM     68  H21 ARG d   1      12.492   2.052  33.355  0.00  0.00     0.035 H 
BRANCH  66  69
ATOM     69  CD  ARG d   1      11.422   0.590  34.467  0.00  0.00     0.009 C 
ATOM     70  H22 ARG d   1      11.177  -0.472  34.317  0.00  0.00     0.064 H 
ATOM     71  H23 ARG d   1      10.526   1.128  34.811  0.00  0.00     0.064 H 
BRANCH  69  72
ATOM     72  NE  ARG d   1      12.456   0.696  35.487  0.00  0.00    -0.227 N 
ATOM     73  CZ  ARG d   1      12.414   0.049  36.641  0.00  0.00     0.665 C 
ATOM     74  NH1 ARG d   1      11.406  -0.774  36.910  0.00  0.00    -0.235 N 
ATOM     75  NH2 ARG d   1      13.363   0.245  37.537  0.00  0.00    -0.235 N 
ATOM     76  H25 ARG d   1      11.377  -1.276  37.809  0.00  0.00     0.174 HD
ATOM     77  H26 ARG d   1      10.654  -0.910  36.219  0.00  0.00     0.174 HD
ATOM     78  H27 ARG d   1      14.144   0.883  37.328  0.00  0.00     0.174 HD
ATOM     79  H28 ARG d   1      13.322  -0.240  38.445  0.00  0.00     0.174 HD
ATOM     80  H24 ARG d   1      13.264   1.307  35.300  0.00  0.00     0.177 HD
ENDBRANCH  69  72
ENDBRANCH  66  69
ENDBRANCH  63  66
ENDBRANCH  33  63
ENDBRANCH  30  33
ENDBRANCH  27  29
BRANCH  27  81
ATOM     81  CB  LEU d   1      17.682  -1.011  30.412  0.00  0.00    -0.035 C 
ATOM     82  H31 LEU d   1      18.330  -1.871  30.190  0.00  0.00     0.037 H 
ATOM     83  H32 LEU d   1      17.862  -0.673  31.443  0.00  0.00     0.037 H 
BRANCH  81  84
ATOM     84  CG  LEU d   1      18.091   0.126  29.478  0.00  0.00    -0.059 C 
ATOM     85  H33 LEU d   1      17.417   0.974  29.668  0.00  0.00     0.038 H 
BRANCH  84  86
ATOM     86  CD1 LEU d   1      19.513   0.582  29.797  0.00  0.00    -0.073 C 
ATOM     87  H34 LEU d   1      19.796   1.400  29.119  0.00  0.00     0.028 H 
ATOM     88  H35 LEU d   1      20.207  -0.261  29.664  0.00  0.00     0.028 H 
ATOM     89  H36 LEU d   1      19.560   0.935  30.838  0.00  0.00     0.028 H 
ENDBRANCH  84  86
BRANCH  84  90
ATOM     90  CD2 LEU d   1      17.934  -0.265  27.995  0.00  0.00    -0.073 C 
ATOM     91  H37 LEU d   1      16.899  -0.586  27.808  0.00  0.00     0.028 H 
ATOM     92  H38 LEU d   1      18.622  -1.090  27.758  0.00  0.00     0.028 H 
ATOM     93  H39 LEU d   1      18.169   0.602  27.360  0.00  0.00     0.028 H 
ENDBRANCH  84  90
ENDBRANCH  81  84
ENDBRANCH  27  81
ENDBRANCH  15  27
ENDBRANCH  10  13
ENDBRANCH   7   9
BRANCH   7  94
ATOM     94  CB  ILE d   1      20.123  -4.164  33.870  0.00  0.00    -0.030 C 
ATOM     95  H49 ILE d   1      20.593  -4.771  33.082  0.00  0.00     0.043 H 
BRANCH  94  96
ATOM     96  CG1 ILE d   1      20.971  -4.262  35.146  0.00  0.00    -0.063 C 
ATOM     97  H50 ILE d   1      20.537  -3.590  35.901  0.00  0.00     0.033 H 
ATOM     98  H51 ILE d   1      21.993  -3.933  34.907  0.00  0.00     0.033 H 
BRANCH  96  99
ATOM     99  CD1 ILE d   1      21.047  -5.680  35.747  0.00  0.00    -0.076 C 
ATOM    100  H55 ILE d   1      21.670  -5.661  36.653  0.00  0.00     0.027 H 
ATOM    101  H56 ILE d   1      21.491  -6.367  35.011  0.00  0.00     0.027 H 
ATOM    102  H57 ILE d   1      20.035  -6.024  36.005  0.00  0.00     0.027 H 
ENDBRANCH  96  99
ENDBRANCH  94  96
BRANCH  94 103
ATOM    103  CG2 ILE d   1      20.110  -2.697  33.419  0.00  0.00    -0.071 C 
ATOM    104  H52 ILE d   1      19.507  -2.600  32.504  0.00  0.00     0.028 H 
ATOM    105  H53 ILE d   1      21.139  -2.366  33.217  0.00  0.00     0.028 H 
ATOM    106  H54 ILE d   1      19.674  -2.073  34.213  0.00  0.00     0.028 H 
ENDBRANCH  94 103
ENDBRANCH   7  94
ENDBRANCH   4   7
ENDBRANCH   1   3
BRANCH   1 107
ATOM    107  C   PHE d   1      15.404  -2.712  36.488  0.00  0.00     0.241 C 
ATOM    108  O   PHE d   1      15.050  -2.615  37.676  0.00  0.00    -0.271 OA
ATOM    109  N   ASN d   1      14.662  -3.319  35.575  0.00  0.00    -0.346 N 
ATOM    110  H67 ASN d   1      14.912  -3.244  34.610  0.00  0.00     0.163 HD
BRANCH 109 111
ATOM    111  CA  ASN d   1      13.498  -4.087  35.949  0.00  0.00     0.097 C 
ATOM    112  H68 ASN d   1      12.760  -3.430  36.433  0.00  0.00     0.088 H 
BRANCH 111 113
ATOM    113  C   ASN d   1      13.943  -5.173  36.908  0.00  0.00     0.241 C 
ATOM    114  O   ASN d   1      13.254  -5.474  37.879  0.00  0.00    -0.271 OA
ATOM    115  N   ARG d   1      15.106  -5.765  36.618  0.00  0.00    -0.346 N 
ATOM    116  H73 ARG d   1      15.651  -5.422  35.853  0.00  0.00     0.163 HD
BRANCH 115 117
ATOM    117  CA  ARG d   1      15.597  -6.896  37.388  0.00  0.00     0.089 C 
ATOM    118  H74 ARG d   1      14.787  -7.639  37.439  0.00  0.00     0.087 H 
BRANCH 117 119
ATOM    119  C   ARG d   1      15.976  -6.518  38.820  0.00  0.00     0.241 C 
ATOM    120  O   ARG d   1      15.646  -7.233  39.762  0.00  0.00    -0.271 OA
ATOM    121  N   ILE d   1      16.694  -5.422  38.986  0.00  0.00    -0.346 N 
ATOM    122  H86 ILE d   1      16.882  -4.811  38.217  0.00  0.00     0.163 HD
BRANCH 121 123
ATOM    123  CA  ILE d   1      17.208  -5.123  40.323  0.00  0.00     0.092 C 
ATOM    124  H87 ILE d   1      17.460  -6.085  40.794  0.00  0.00     0.088 H 
BRANCH 123 125
ATOM    125  C   ILE d   1      16.146  -4.460  41.191  0.00  0.00     0.241 C 
ATOM    126  O   ILE d   1      16.168  -4.602  42.414  0.00  0.00    -0.271 OA
ATOM    127  N   SER d   1      15.196  -3.783  40.546  0.00  0.00    -0.344 N 
ATOM    128  H97 SER d   1      15.227  -3.744  39.547  0.00  0.00     0.163 HD
BRANCH 127 129
ATOM    129  CA  SER d   1      14.104  -3.091  41.248  0.00  0.00     0.109 C 
ATOM    130  H98 SER d   1      14.561  -2.409  41.980  0.00  0.00     0.090 H 
BRANCH 129 131
ATOM    131  C   SER d   1      13.147  -4.013  41.998  0.00  0.00     0.243 C 
ATOM    132  O   SER d   1      12.580  -4.943  41.423  0.00  0.00    -0.271 OA
ATOM    133  N   VAL d   1      12.952  -3.740  43.284  0.00  0.00    -0.346 N 
ATOM    134 2H10 VAL d   1      13.542  -3.070  43.734  0.00  0.00     0.163 HD
BRANCH 133 135
ATOM    135  CA  VAL d   1      11.895  -4.395  44.061  0.00  0.00     0.092 C 
ATOM    136 3H10 VAL d   1      11.660  -5.359  43.587  0.00  0.00     0.088 H 
BRANCH 135 137
ATOM    137  C   VAL d   1      10.641  -3.517  44.051  0.00  0.00     0.241 C 
ATOM    138  O   VAL d   1      10.573  -2.510  44.750  0.00  0.00    -0.271 OA
ATOM    139  N   SER d   1       9.657  -3.901  43.237  0.00  0.00    -0.343 N 
ATOM    140 1H11 SER d   1       9.744  -4.765  42.742  0.00  0.00     0.163 HD
BRANCH 139 141
ATOM    141  CA  SER d   1       8.457  -3.093  43.050  0.00  0.00     0.116 C 
ATOM    142 2H11 SER d   1       8.705  -2.042  43.260  0.00  0.00     0.093 H 
BRANCH 141 143
ATOM    143  C   SER d   1       7.346  -3.529  43.995  0.00  0.00     0.198 C 
ATOM    144  O   SER d   1       6.179  -3.073  43.864  0.00  0.00    -0.646 OA
ATOM    145  O   SER d   1       7.596  -4.352  44.916  0.00  0.00    -0.646 OA
ENDBRANCH 141 143
BRANCH 141 146
ATOM    146  CB  SER d   1       7.978  -3.210  41.607  0.00  0.00     0.045 C 
ATOM    147 3H11 SER d   1       8.788  -2.898  40.931  0.00  0.00     0.077 H 
ATOM    148 4H11 SER d   1       7.106  -2.555  41.461  0.00  0.00     0.077 H 
BRANCH 146 149
ATOM    149  OG  SER d   1       7.611  -4.549  41.309  0.00  0.00    -0.398 OA
ATOM    150 5H11 SER d   1       8.363  -5.117  41.431  0.00  0.00     0.209 HD
ENDBRANCH 146 149
ENDBRANCH 141 146
ENDBRANCH 139 141
ENDBRANCH 135 137
BRANCH 135 151
ATOM    151  CB  VAL d   1      12.331  -4.661  45.522  0.00  0.00    -0.033 C 
ATOM    152 4H10 VAL d   1      12.618  -3.704  45.983  0.00  0.00     0.042 H 
BRANCH 151 153
ATOM    153  CG1 VAL d   1      11.175  -5.260  46.317  0.00  0.00    -0.071 C 
ATOM    154 5H10 VAL d   1      11.498  -5.444  47.352  0.00  0.00     0.028 H 
ATOM    155 6H10 VAL d   1      10.866  -6.209  45.855  0.00  0.00     0.028 H 
ATOM    156 7H10 VAL d   1      10.328  -4.559  46.317  0.00  0.00     0.028 H 
ENDBRANCH 151 153
BRANCH 151 157
ATOM    157  CG2 VAL d   1      13.531  -5.600  45.559  0.00  0.00    -0.071 C 
ATOM    158 8H10 VAL d   1      14.359  -5.160  44.984  0.00  0.00     0.028 H 
ATOM    159 9H10 VAL d   1      13.252  -6.569  45.118  0.00  0.00     0.028 H 
ATOM    160 0H11 VAL d   1      13.848  -5.749  46.602  0.00  0.00     0.028 H 
ENDBRANCH 151 157
ENDBRANCH 135 151
ENDBRANCH 133 135
ENDBRANCH 129 131
BRANCH 129 161
ATOM    161  CB  SER d   1      13.278  -2.268  40.254  0.00  0.00     0.044 C 
ATOM    162  H99 SER d   1      12.326  -1.982  40.725  0.00  0.00     0.077 H 
ATOM    163 0H10 SER d   1      13.076  -2.877  39.360  0.00  0.00     0.077 H 
BRANCH 161 164
ATOM    164  OG  SER d   1      13.972  -1.110  39.876  0.00  0.00    -0.398 OA
ATOM    165 1H10 SER d   1      14.794  -1.354  39.467  0.00  0.00     0.209 HD
ENDBRANCH 161 164
ENDBRANCH 129 161
ENDBRANCH 127 129
ENDBRANCH 123 125
BRANCH 123 166
ATOM    166  CB  ILE d   1      18.490  -4.297  40.281  0.00  0.00    -0.030 C 
ATOM    167  H88 ILE d   1      18.851  -4.165  41.312  0.00  0.00     0.043 H 
BRANCH 166 168
ATOM    168  CG1 ILE d   1      18.251  -2.930  39.681  0.00  0.00    -0.063 C 
ATOM    169  H89 ILE d   1      17.406  -2.456  40.203  0.00  0.00     0.033 H 
ATOM    170  H90 ILE d   1      18.004  -3.048  38.616  0.00  0.00     0.033 H 
BRANCH 168 171
ATOM    171  CD1 ILE d   1      19.469  -2.032  39.805  0.00  0.00    -0.076 C 
ATOM    172  H94 ILE d   1      19.249  -1.052  39.356  0.00  0.00     0.027 H 
ATOM    173  H95 ILE d   1      20.319  -2.493  39.281  0.00  0.00     0.027 H 
ATOM    174  H96 ILE d   1      19.721  -1.901  40.868  0.00  0.00     0.027 H 
ENDBRANCH 168 171
ENDBRANCH 166 168
BRANCH 166 175
ATOM    175  CG2 ILE d   1      19.568  -5.042  39.471  0.00  0.00    -0.071 C 
ATOM    176  H91 ILE d   1      19.737  -6.035  39.912  0.00  0.00     0.028 H 
ATOM    177  H92 ILE d   1      20.505  -4.467  39.492  0.00  0.00     0.028 H 
ATOM    178  H93 ILE d   1      19.231  -5.156  38.430  0.00  0.00     0.028 H 
ENDBRANCH 166 175
ENDBRANCH 123 166
ENDBRANCH 121 123
ENDBRANCH 117 119
BRANCH 117 179
ATOM    179  CB  ARG d   1      16.802  -7.547  36.697  0.00  0.00    -0.036 C 
ATOM    180  H75 ARG d   1      17.637  -6.831  36.700  0.00  0.00     0.036 H 
ATOM    181  H76 ARG d   1      16.526  -7.784  35.659  0.00  0.00     0.036 H 
BRANCH 179 182
ATOM    182  CG  ARG d   1      17.257  -8.829  37.384  0.00  0.00    -0.048 C 
ATOM    183  H77 ARG d   1      16.677  -9.673  36.982  0.00  0.00     0.035 H 
ATOM    184  H78 ARG d   1      17.072  -8.738  38.465  0.00  0.00     0.035 H 
BRANCH 182 185
ATOM    185  CD  ARG d   1      18.735  -9.099  37.160  0.00  0.00     0.009 C 
ATOM    186  H79 ARG d   1      19.022  -9.998  37.726  0.00  0.00     0.064 H 
ATOM    187  H80 ARG d   1      19.313  -8.237  37.524  0.00  0.00     0.064 H 
BRANCH 185 188
ATOM    188  NE  ARG d   1      19.043  -9.311  35.752  0.00  0.00    -0.227 N 
ATOM    189  CZ  ARG d   1      20.276  -9.328  35.253  0.00  0.00     0.665 C 
ATOM    190  NH1 ARG d   1      21.327  -9.139  36.050  0.00  0.00    -0.235 N 
ATOM    191  NH2 ARG d   1      20.455  -9.528  33.954  0.00  0.00    -0.235 N 
ATOM    192  H82 ARG d   1      22.279  -9.153  35.658  0.00  0.00     0.174 HD
ATOM    193  H83 ARG d   1      21.187  -8.979  37.058  0.00  0.00     0.174 HD
ATOM    194  H84 ARG d   1      19.642  -9.674  33.339  0.00  0.00     0.174 HD
ATOM    195  H85 ARG d   1      21.407  -9.537  33.561  0.00  0.00     0.174 HD
ATOM    196  H81 ARG d   1      18.257  -9.457  35.102  0.00  0.00     0.177 HD
ENDBRANCH 185 188
ENDBRANCH 182 185
ENDBRANCH 179 182
ENDBRANCH 117 179
ENDBRANCH 115 117
ENDBRANCH 111 113
BRANCH 111 197
ATOM    197  CB  ASN d   1      12.866  -4.759  34.722  0.00  0.00     0.036 C 
ATOM    198  H69 ASN d   1      12.247  -5.601  35.066  0.00  0.00     0.051 H 
ATOM    199  H70 ASN d   1      13.673  -5.137  34.078  0.00  0.00     0.051 H 
BRANCH 197 200
ATOM    200  CG  ASN d   1      11.991  -3.821  33.899  0.00  0.00     0.217 C 
ATOM    201  OD1 ASN d   1      12.107  -3.758  32.666  0.00  0.00    -0.274 OA
ATOM    202  ND2 ASN d   1      11.088  -3.120  34.566  0.00  0.00    -0.370 N 
ATOM    203  H71 ASN d   1      10.486  -2.488  34.078  0.00  0.00     0.159 HD
ATOM    204  H72 ASN d   1      11.008  -3.222  35.558  0.00  0.00     0.159 HD
ENDBRANCH 197 200
ENDBRANCH 111 197
ENDBRANCH 109 111
ENDBRANCH   1 107
BRANCH   1 205
ATOM    205  CB  PHE d   1      16.481  -0.652  35.505  0.00  0.00    -0.014 C 
ATOM    206  H60 PHE d   1      15.873  -0.118  36.250  0.00  0.00     0.043 H 
ATOM    207  H61 PHE d   1      15.939  -0.690  34.548  0.00  0.00     0.043 H 
BRANCH 205 208
ATOM    208  CG  PHE d   1      17.753   0.107  35.299  0.00  0.00    -0.056 A 
ATOM    209  CD1 PHE d   1      18.639   0.310  36.344  0.00  0.00    -0.077 A 
ATOM    210  CE1 PHE d   1      19.813   1.031  36.155  0.00  0.00    -0.082 A 
ATOM    211  H62 PHE d   1      18.414  -0.099  37.322  0.00  0.00     0.084 H 
ATOM    212  CZ  PHE d   1      20.090   1.557  34.923  0.00  0.00    -0.083 A 
ATOM    213  H64 PHE d   1      20.504   1.175  36.978  0.00  0.00     0.083 H 
ATOM    214  CE2 PHE d   1      19.194   1.340  33.868  0.00  0.00    -0.082 A 
ATOM    215  H66 PHE d   1      20.993   2.135  34.765  0.00  0.00     0.083 H 
ATOM    216  CD2 PHE d   1      18.053   0.653  34.070  0.00  0.00    -0.077 A 
ATOM    217  H65 PHE d   1      19.421   1.728  32.882  0.00  0.00     0.083 H 
ATOM    218  H63 PHE d   1      17.357   0.527  33.249  0.00  0.00     0.084 H 
ENDBRANCH 205 208
ENDBRANCH   1 205
TORSDOF 58
