REMARK  6 active torsions:
REMARK  status: ('A' for Active; 'I' for Inactive)
REMARK    1  A    between atoms: C20_6  and  C17_7 
REMARK    2  A    between atoms: C13_9  and  C18_10 
REMARK    3  A    between atoms: C12_11  and  O12_12 
REMARK    4  A    between atoms: C14_13  and  O14_15 
REMARK    5  A    between atoms: C10_20  and  C19_21 
REMARK    6  A    between atoms: C3_25  and  O32_26 
ROOT
ATOM      1  C17 DOG d   1     -12.132 -35.214  10.006  0.00  0.00    -0.018 C 
ATOM      2  C16 DOG d   1     -12.558 -35.895   8.784  0.00  0.00    -0.054 C 
ATOM      3  C13 DOG d   1     -10.982 -36.077  10.605  0.00  0.00     0.021 C 
ATOM      4  C12 DOG d   1     -11.585 -37.011  11.705  0.00  0.00     0.046 C 
ATOM      5  C14 DOG d   1     -10.589 -36.924   9.415  0.00  0.00     0.072 C 
ATOM      6  C15 DOG d   1     -11.893 -37.228   8.807  0.00  0.00    -0.035 C 
ATOM      7  C8  DOG d   1      -9.696 -38.145   9.823  0.00  0.00    -0.019 C 
ATOM      8  C7  DOG d   1      -9.428 -39.014   8.631  0.00  0.00    -0.058 C 
ATOM      9  C9  DOG d   1     -10.271 -38.942  10.973  0.00  0.00    -0.038 C 
ATOM     10  C11 DOG d   1     -10.602 -38.050  12.128  0.00  0.00    -0.036 C 
ATOM     11  C10 DOG d   1      -9.333 -40.101  11.367  0.00  0.00    -0.036 C 
ATOM     12  C5  DOG d   1      -8.994 -40.949  10.144  0.00  0.00    -0.044 C 
ATOM     13  C6  DOG d   1      -8.506 -40.095   8.964  0.00  0.00    -0.060 C 
ATOM     14  C4  DOG d   1     -10.161 -41.780   9.696  0.00  0.00    -0.037 C 
ATOM     15  C3  DOG d   1     -10.825 -42.560  10.819  0.00  0.00     0.036 C 
ATOM     16  C2  DOG d   1     -11.191 -41.609  11.893  0.00  0.00    -0.040 C 
ATOM     17  C1  DOG d   1      -9.993 -40.976  12.406  0.00  0.00    -0.055 C 
ATOM     18  H4  DOG d   1     -12.968 -35.177  10.720  0.00  0.00     0.048 H 
ATOM     19  H5  DOG d   1     -12.242 -35.325   7.898  0.00  0.00     0.034 H 
ATOM     20  H6  DOG d   1     -13.652 -36.013   8.773  0.00  0.00     0.034 H 
ATOM     21  H10 DOG d   1     -12.488 -37.503  11.314  0.00  0.00     0.084 H 
ATOM     22  H12 DOG d   1     -11.773 -37.630   7.790  0.00  0.00     0.037 H 
ATOM     23  H13 DOG d   1     -12.460 -37.944   9.420  0.00  0.00     0.037 H 
ATOM     24  H15 DOG d   1      -8.730 -37.743  10.163  0.00  0.00     0.045 H 
ATOM     25  H16 DOG d   1      -8.988 -38.401   7.831  0.00  0.00     0.033 H 
ATOM     26  H17 DOG d   1     -10.377 -39.447   8.281  0.00  0.00     0.033 H 
ATOM     27  H18 DOG d   1     -11.214 -39.390  10.627  0.00  0.00     0.042 H 
ATOM     28  H19 DOG d   1     -11.035 -38.652  12.941  0.00  0.00     0.037 H 
ATOM     29  H20 DOG d   1      -9.684 -37.559  12.484  0.00  0.00     0.037 H 
ATOM     30  H24 DOG d   1      -8.180 -41.631  10.431  0.00  0.00     0.041 H 
ATOM     31  H25 DOG d   1      -7.531 -39.658   9.226  0.00  0.00     0.033 H 
ATOM     32  H26 DOG d   1      -8.392 -40.744   8.083  0.00  0.00     0.033 H 
ATOM     33  H27 DOG d   1      -9.807 -42.495   8.939  0.00  0.00     0.037 H 
ATOM     34  H28 DOG d   1     -10.911 -41.112   9.247  0.00  0.00     0.037 H 
ATOM     35  H29 DOG d   1     -11.746 -43.022  10.435  0.00  0.00     0.082 H 
ATOM     36  H31 DOG d   1     -11.696 -42.151  12.706  0.00  0.00     0.036 H 
ATOM     37  H32 DOG d   1     -11.867 -40.841  11.488  0.00  0.00     0.036 H 
ATOM     38  H33 DOG d   1     -10.261 -40.357  13.275  0.00  0.00     0.034 H 
ATOM     39  H34 DOG d   1      -9.283 -41.757  12.717  0.00  0.00     0.034 H 
ENDROOT
BRANCH   1  40
ATOM     40  C20 DOG d   1     -11.717 -33.853   9.714  0.00  0.00    -0.045 C 
ATOM     41  C22 DOG d   1     -12.298 -32.833  10.197  0.00  0.00    -0.006 C 
ATOM     42  C23 DOG d   1     -11.726 -31.709   9.527  0.00  0.00     0.283 C 
ATOM     43  H1  DOG d   1     -13.072 -32.818  10.963  0.00  0.00     0.093 H 
ATOM     44  O23 DOG d   1     -12.024 -30.551   9.619  0.00  0.00    -0.260 OA
ATOM     45  O21 DOG d   1     -11.027 -32.086   8.549  0.00  0.00    -0.314 OA
ATOM     46  C21 DOG d   1     -10.814 -33.365   8.667  0.00  0.00     0.050 C 
ATOM     47  H2  DOG d   1      -9.768 -33.549   8.954  0.00  0.00     0.082 H 
ATOM     48  H3  DOG d   1     -11.028 -33.873   7.715  0.00  0.00     0.082 H 
ENDBRANCH   1  40
BRANCH   3  49
ATOM     49  C18 DOG d   1      -9.822 -35.287  11.196  0.00  0.00    -0.063 C 
ATOM     50  H7  DOG d   1     -10.179 -34.697  12.053  0.00  0.00     0.028 H 
ATOM     51  H8  DOG d   1      -9.411 -34.611  10.431  0.00  0.00     0.028 H 
ATOM     52  H9  DOG d   1      -9.038 -35.982  11.530  0.00  0.00     0.028 H 
ENDBRANCH   3  49
BRANCH   4  53
ATOM     53  O12 DOG d   1     -11.898 -36.256  12.756  0.00  0.00    -0.395 OA
ATOM     54  H11 DOG d   1     -12.534 -35.600  12.495  0.00  0.00     0.210 HD
ENDBRANCH   4  53
BRANCH   5  55
ATOM     55  O14 DOG d   1      -9.929 -36.199   8.566  0.00  0.00    -0.389 OA
ATOM     56  H14 DOG d   1      -9.078 -35.984   8.929  0.00  0.00     0.210 HD
ENDBRANCH   5  55
BRANCH  11  57
ATOM     57  C19 DOG d   1      -8.101 -39.598  11.909  0.00  0.00    -0.068 C 
ATOM     58  H21 DOG d   1      -7.449 -40.441  12.182  0.00  0.00     0.028 H 
ATOM     59  H22 DOG d   1      -8.313 -38.994  12.803  0.00  0.00     0.028 H 
ATOM     60  H23 DOG d   1      -7.597 -38.974  11.156  0.00  0.00     0.028 H 
ENDBRANCH  11  57
BRANCH  15  61
ATOM     61  O32 DOG d   1      -9.982 -43.584  11.270  0.00  0.00    -0.396 OA
ATOM     62  H30 DOG d   1     -10.412 -44.061  11.970  0.00  0.00     0.210 HD
ENDBRANCH  15  61
TORSDOF 6
