REMARK  6 active torsions:
REMARK  status: ('A' for Active; 'I' for Inactive)
REMARK    1  A    between atoms: C20_6  and  C17_7 
REMARK    2  A    between atoms: C13_9  and  C18_10 
REMARK    3  A    between atoms: C12_11  and  O12_12 
REMARK    4  A    between atoms: C14_13  and  O14_15 
REMARK    5  A    between atoms: C10_20  and  C19_21 
REMARK    6  A    between atoms: C3_25  and  O32_26 
ROOT
ATOM      1  C17 DOG d   1      -5.289  -1.204  12.983  0.00  0.00    -0.018 C 
ATOM      2  C16 DOG d   1      -6.197  -1.643  14.122  0.00  0.00    -0.054 C 
ATOM      3  C13 DOG d   1      -5.448  -2.266  11.899  0.00  0.00     0.021 C 
ATOM      4  C12 DOG d   1      -4.323  -3.282  12.052  0.00  0.00     0.046 C 
ATOM      5  C14 DOG d   1      -6.737  -2.933  12.254  0.00  0.00     0.072 C 
ATOM      6  C15 DOG d   1      -6.772  -2.990  13.741  0.00  0.00    -0.035 C 
ATOM      7  C8  DOG d   1      -7.012  -4.253  11.508  0.00  0.00    -0.019 C 
ATOM      8  C7  DOG d   1      -8.325  -4.896  11.943  0.00  0.00    -0.058 C 
ATOM      9  C9  DOG d   1      -5.896  -5.267  11.643  0.00  0.00    -0.038 C 
ATOM     10  C11 DOG d   1      -4.558  -4.615  11.321  0.00  0.00    -0.036 C 
ATOM     11  C10 DOG d   1      -6.174  -6.532  10.818  0.00  0.00    -0.036 C 
ATOM     12  C5  DOG d   1      -7.447  -7.179  11.332  0.00  0.00    -0.044 C 
ATOM     13  C6  DOG d   1      -8.622  -6.234  11.264  0.00  0.00    -0.060 C 
ATOM     14  C4  DOG d   1      -7.347  -7.655  12.773  0.00  0.00    -0.037 C 
ATOM     15  C3  DOG d   1      -6.123  -8.545  13.012  0.00  0.00     0.036 C 
ATOM     16  C2  DOG d   1      -4.846  -7.966  12.373  0.00  0.00    -0.040 C 
ATOM     17  C1  DOG d   1      -5.068  -7.551  10.923  0.00  0.00    -0.055 C 
ATOM     18  H4  DOG d   1      -4.244  -1.247  13.323  0.00  0.00     0.048 H 
ATOM     19  H5  DOG d   1      -7.008  -0.913  14.261  0.00  0.00     0.034 H 
ATOM     20  H6  DOG d   1      -5.618  -1.730  15.053  0.00  0.00     0.034 H 
ATOM     21  H10 DOG d   1      -4.199  -3.497  13.124  0.00  0.00     0.084 H 
ATOM     22  H12 DOG d   1      -7.801  -3.105  14.112  0.00  0.00     0.037 H 
ATOM     23  H13 DOG d   1      -6.150  -3.813  14.124  0.00  0.00     0.037 H 
ATOM     24  H15 DOG d   1      -7.101  -4.002  10.441  0.00  0.00     0.045 H 
ATOM     25  H16 DOG d   1      -9.144  -4.201  11.708  0.00  0.00     0.033 H 
ATOM     26  H17 DOG d   1      -8.285  -5.062  13.030  0.00  0.00     0.033 H 
ATOM     27  H18 DOG d   1      -5.859  -5.578  12.697  0.00  0.00     0.042 H 
ATOM     28  H19 DOG d   1      -3.756  -5.312  11.605  0.00  0.00     0.037 H 
ATOM     29  H20 DOG d   1      -4.515  -4.428  10.238  0.00  0.00     0.037 H 
ATOM     30  H24 DOG d   1      -7.656  -8.049  10.693  0.00  0.00     0.041 H 
ATOM     31  H25 DOG d   1      -8.867  -6.049  10.208  0.00  0.00     0.033 H 
ATOM     32  H26 DOG d   1      -9.483  -6.702  11.764  0.00  0.00     0.033 H 
ATOM     33  H27 DOG d   1      -8.253  -8.228  13.019  0.00  0.00     0.037 H 
ATOM     34  H28 DOG d   1      -7.278  -6.776  13.431  0.00  0.00     0.037 H 
ATOM     35  H29 DOG d   1      -5.954  -8.614  14.097  0.00  0.00     0.082 H 
ATOM     36  H31 DOG d   1      -4.055  -8.730  12.406  0.00  0.00     0.036 H 
ATOM     37  H32 DOG d   1      -4.529  -7.085  12.950  0.00  0.00     0.036 H 
ATOM     38  H33 DOG d   1      -4.139  -7.116  10.527  0.00  0.00     0.034 H 
ATOM     39  H34 DOG d   1      -5.339  -8.438  10.332  0.00  0.00     0.034 H 
ENDROOT
BRANCH   1  40
ATOM     40  C20 DOG d   1      -5.563   0.240  12.649  0.00  0.00    -0.045 C 
ATOM     41  C22 DOG d   1      -4.642   1.211  12.738  0.00  0.00    -0.006 C 
ATOM     42  C23 DOG d   1      -5.266   2.481  12.341  0.00  0.00     0.283 C 
ATOM     43  H1  DOG d   1      -3.607   1.080  13.051  0.00  0.00     0.093 H 
ATOM     44  O23 DOG d   1      -4.812   3.604  12.387  0.00  0.00    -0.260 OA
ATOM     45  O21 DOG d   1      -6.606   2.209  11.905  0.00  0.00    -0.314 OA
ATOM     46  C21 DOG d   1      -6.886   0.826  12.189  0.00  0.00     0.050 C 
ATOM     47  H2  DOG d   1      -7.243   0.311  11.285  0.00  0.00     0.082 H 
ATOM     48  H3  DOG d   1      -7.643   0.740  12.983  0.00  0.00     0.082 H 
ENDBRANCH   1  40
BRANCH   3  49
ATOM     49  C18 DOG d   1      -5.465  -1.757  10.469  0.00  0.00    -0.063 C 
ATOM     50  H7  DOG d   1      -4.504  -1.273  10.241  0.00  0.00     0.028 H 
ATOM     51  H8  DOG d   1      -6.280  -1.028  10.349  0.00  0.00     0.028 H 
ATOM     52  H9  DOG d   1      -5.623  -2.601   9.781  0.00  0.00     0.028 H 
ENDBRANCH   3  49
BRANCH   4  53
ATOM     53  O12 DOG d   1      -3.116  -2.696  11.540  0.00  0.00    -0.395 OA
ATOM     54  H11 DOG d   1      -2.914  -1.909  12.032  0.00  0.00     0.210 HD
ENDBRANCH   4  53
BRANCH   5  55
ATOM     55  O14 DOG d   1      -7.725  -1.976  11.981  0.00  0.00    -0.389 OA
ATOM     56  H14 DOG d   1      -7.794  -1.853  11.041  0.00  0.00     0.210 HD
ENDBRANCH   5  55
BRANCH  11  57
ATOM     57  C19 DOG d   1      -6.309  -6.318   9.328  0.00  0.00    -0.068 C 
ATOM     58  H21 DOG d   1      -6.506  -7.282   8.835  0.00  0.00     0.028 H 
ATOM     59  H22 DOG d   1      -5.377  -5.888   8.933  0.00  0.00     0.028 H 
ATOM     60  H23 DOG d   1      -7.143  -5.628   9.131  0.00  0.00     0.028 H 
ENDBRANCH  11  57
BRANCH  15  61
ATOM     61  O32 DOG d   1      -6.406  -9.876  12.505  0.00  0.00    -0.396 OA
ATOM     62  H30 DOG d   1      -6.592  -9.826  11.575  0.00  0.00     0.210 HD
ENDBRANCH  15  61
TORSDOF 6
