REMARK  4 active torsions:
REMARK  status: ('A' for Active; 'I' for Inactive)
REMARK    1  A    between atoms: C12_15  and  N3_16 
REMARK    2  A    between atoms: N3_16  and  C13_17 
REMARK    3  A    between atoms: C16_22  and  N4_23 
REMARK       I    between atoms: N4_23  and  C19_24 
REMARK    4  A    between atoms: C19_24  and  C20_26 
ROOT
ATOM      1  C13 XU2 d   1      -7.155 -28.629   7.703  0.00  0.00     0.032 A 
ATOM      2  C14 XU2 d   1      -8.345 -29.222   8.134  0.00  0.00    -0.055 A 
ATOM      3  C15 XU2 d   1      -9.270 -28.438   8.848  0.00  0.00    -0.055 A 
ATOM      4  C18 XU2 d   1      -6.954 -27.292   8.011  0.00  0.00    -0.055 A 
ATOM      5  C17 XU2 d   1      -7.833 -26.527   8.723  0.00  0.00    -0.055 A 
ATOM      6  C16 XU2 d   1      -9.001 -27.107   9.164  0.00  0.00     0.035 A 
ATOM      7  H9  XU2 d   1      -8.551 -30.265   7.923  0.00  0.00     0.087 H 
ATOM      8  H10 XU2 d   1     -10.211 -28.878   9.159  0.00  0.00     0.087 H 
ATOM      9  H11 XU2 d   1      -6.040 -26.824   7.664  0.00  0.00     0.087 H 
ATOM     10  H12 XU2 d   1      -7.616 -25.487   8.936  0.00  0.00     0.087 H 
ENDROOT
BRANCH   1  11
ATOM     11  N3  XU2 d   1      -6.059 -29.209   7.010  0.00  0.00    -0.355 N 
ATOM     12  H8  XU2 d   1      -5.722 -28.780   6.137  0.00  0.00     0.166 HD
BRANCH  11  13
ATOM     13  C12 XU2 d   1      -5.449 -30.332   7.493  0.00  0.00     0.049 A 
ATOM     14  C4  XU2 d   1      -5.165 -31.292   6.615  0.00  0.00     0.048 A 
ATOM     15  C3  XU2 d   1      -5.323 -31.134   5.211  0.00  0.00    -0.004 A 
ATOM     16  C9  XU2 d   1      -4.609 -32.387   7.178  0.00  0.00     0.143 A 
ATOM     17  C7  XU2 d   1      -4.895 -32.121   4.442  0.00  0.00     0.043 A 
ATOM     18  C2  XU2 d   1      -5.848 -30.022   4.594  0.00  0.00    -0.071 A 
ATOM     19  C8  XU2 d   1      -4.349 -33.285   5.107  0.00  0.00     0.258 A 
ATOM     20  C6  XU2 d   1      -5.015 -32.034   3.082  0.00  0.00    -0.067 A 
ATOM     21  O12 XU2 d   1      -3.967 -34.260   4.607  0.00  0.00    -0.267 OA
ATOM     22  N1  XU2 d   1      -4.216 -33.388   6.375  0.00  0.00    -0.307 N 
ATOM     23  H5  XU2 d   1      -3.818 -34.217   6.769  0.00  0.00     0.170 HD
ATOM     24  C5  XU2 d   1      -5.567 -30.948   2.437  0.00  0.00    -0.082 A 
ATOM     25  H1  XU2 d   1      -4.657 -32.862   2.481  0.00  0.00     0.085 H 
ATOM     26  C1  XU2 d   1      -6.016 -29.921   3.216  0.00  0.00    -0.082 A 
ATOM     27  H2  XU2 d   1      -5.641 -30.911   1.356  0.00  0.00     0.083 H 
ATOM     28  H3  XU2 d   1      -6.490 -29.052   2.774  0.00  0.00     0.083 H 
ATOM     29  H4  XU2 d   1      -6.146 -29.183   5.212  0.00  0.00     0.084 H 
ATOM     30  N2  XU2 d   1      -4.385 -32.616   8.476  0.00  0.00    -0.242 NA
ATOM     31  C10 XU2 d   1      -4.679 -31.640   9.275  0.00  0.00     0.007 A 
ATOM     32  C11 XU2 d   1      -5.223 -30.493   8.831  0.00  0.00    -0.039 A 
ATOM     33  H6  XU2 d   1      -4.480 -31.751  10.335  0.00  0.00     0.114 H 
ATOM     34  H7  XU2 d   1      -5.480 -29.704   9.528  0.00  0.00     0.089 H 
ENDBRANCH  11  13
ENDBRANCH   1  11
BRANCH   6  35
ATOM     35  N4  XU2 d   1      -9.820 -26.181   9.875  0.00  0.00    -0.323 N 
ATOM     36  C19 XU2 d   1      -9.661 -24.770  10.167  0.00  0.00     0.256 C 
ATOM     37  O38 XU2 d   1      -9.164 -23.758   9.559  0.00  0.00    -0.267 OA
ATOM     38  H13 XU2 d   1     -10.661 -26.579  10.240  0.00  0.00     0.169 HD
BRANCH  36  39
ATOM     39  C20 XU2 d   1     -10.434 -24.571  11.436  0.00  0.00     0.032 A 
ATOM     40  C21 XU2 d   1     -11.063 -23.326  11.719  0.00  0.00    -0.068 A 
ATOM     41  C22 XU2 d   1     -11.863 -23.155  12.844  0.00  0.00    -0.082 A 
ATOM     42  H14 XU2 d   1     -10.915 -22.492  11.042  0.00  0.00     0.085 H 
ATOM     43  C23 XU2 d   1     -12.009 -24.261  13.673  0.00  0.00    -0.083 A 
ATOM     44  H15 XU2 d   1     -12.347 -22.210  13.062  0.00  0.00     0.083 H 
ATOM     45  C24 XU2 d   1     -11.398 -25.490  13.415  0.00  0.00    -0.082 A 
ATOM     46  H16 XU2 d   1     -12.625 -24.165  14.560  0.00  0.00     0.083 H 
ATOM     47  C25 XU2 d   1     -10.633 -25.687  12.272  0.00  0.00    -0.068 A 
ATOM     48  H17 XU2 d   1     -11.523 -26.305  14.119  0.00  0.00     0.083 H 
ATOM     49  H18 XU2 d   1     -10.209 -26.656  12.034  0.00  0.00     0.085 H 
ENDBRANCH  36  39
ENDBRANCH   6  35
TORSDOF 4
