REMARK  0 active torsions:
REMARK  status: ('A' for Active; 'I' for Inactive)
ROOT
ATOM      1  C11 XU1 d   1      -5.712 -30.124   3.473  0.00  0.00    -0.082 A 
ATOM      2  C12 XU1 d   1      -5.620 -30.033   4.869  0.00  0.00    -0.071 A 
ATOM      3  C8  XU1 d   1      -4.941 -31.061   5.439  0.00  0.00    -0.006 A 
ATOM      4  C1  XU1 d   1      -4.858 -31.016   6.883  0.00  0.00     0.021 A 
ATOM      5  C10 XU1 d   1      -5.124 -31.193   2.748  0.00  0.00    -0.082 A 
ATOM      6  C9  XU1 d   1      -4.430 -32.210   3.407  0.00  0.00    -0.067 A 
ATOM      7  C7  XU1 d   1      -4.353 -32.103   4.767  0.00  0.00     0.043 A 
ATOM      8  C6  XU1 d   1      -3.648 -33.094   5.619  0.00  0.00     0.258 A 
ATOM      9  O1  XU1 d   1      -3.029 -34.086   5.204  0.00  0.00    -0.267 OA
ATOM     10  N2  XU1 d   1      -3.626 -32.977   6.932  0.00  0.00    -0.307 N 
ATOM     11  C5  XU1 d   1      -4.197 -31.990   7.585  0.00  0.00     0.141 A 
ATOM     12  N1  XU1 d   1      -4.092 -31.949   8.917  0.00  0.00    -0.242 NA
ATOM     13  C4  XU1 d   1      -4.673 -30.945   9.572  0.00  0.00     0.004 A 
ATOM     14  C3  XU1 d   1      -5.349 -29.952   8.878  0.00  0.00    -0.065 A 
ATOM     15  C2  XU1 d   1      -5.444 -29.972   7.529  0.00  0.00    -0.067 A 
ATOM     16  H1  XU1 d   1      -6.249 -29.354   2.931  0.00  0.00     0.083 H 
ATOM     17  H2  XU1 d   1      -6.051 -29.218   5.440  0.00  0.00     0.084 H 
ATOM     18  H3  XU1 d   1      -5.215 -31.221   1.668  0.00  0.00     0.083 H 
ATOM     19  H4  XU1 d   1      -3.978 -33.037   2.870  0.00  0.00     0.085 H 
ATOM     20  H5  XU1 d   1      -3.148 -33.679   7.460  0.00  0.00     0.170 HD
ATOM     21  H6  XU1 d   1      -4.617 -30.904  10.654  0.00  0.00     0.114 H 
ATOM     22  H7  XU1 d   1      -5.812 -29.142   9.430  0.00  0.00     0.085 H 
ATOM     23  H8  XU1 d   1      -5.964 -29.191   6.987  0.00  0.00     0.085 H 
ENDROOT
TORSDOF 0
