REMARK  5 active torsions:
REMARK  status: ('A' for Active; 'I' for Inactive)
REMARK    1  A    between atoms: C1_1  and  O3_17 
REMARK    2  A    between atoms: C3_3  and  O2_16 
REMARK    3  A    between atoms: C5_5  and  C7_7 
REMARK    4  A    between atoms: C8_8  and  C9_9 
REMARK    5  A    between atoms: C12_12  and  O1_15 
ROOT
ATOM      1  C7  STL d   1      17.023  22.737   8.441  0.00  0.00    -0.072 C 
ATOM      2  C8  STL d   1      16.537  23.932   7.839  0.00  0.00    -0.072 C 
ATOM      3  H   STL d   1      18.097  22.593   8.546  0.00  0.00     0.084 H 
ATOM      4  H   STL d   1      15.458  24.060   7.766  0.00  0.00     0.084 H 
ENDROOT
BRANCH   1   5
ATOM      5  C5  STL d   1      16.115  21.700   8.921  0.00  0.00    -0.031 A 
ATOM      6  C4  STL d   1      14.670  21.845   8.941  0.00  0.00    -0.041 A 
ATOM      7  C3  STL d   1      13.834  20.740   9.401  0.00  0.00     0.069 A 
ATOM      8  H   STL d   1      14.213  22.772   8.615  0.00  0.00     0.089 H 
ATOM      9  C2  STL d   1      14.427  19.498   9.860  0.00  0.00    -0.019 A 
ATOM     10  C1  STL d   1      15.867  19.406   9.837  0.00  0.00     0.069 A 
ATOM     11  H   STL d   1      13.814  18.674  10.206  0.00  0.00     0.092 H 
ATOM     12  C6  STL d   1      16.716  20.474   9.374  0.00  0.00    -0.041 A 
ATOM     13  H   STL d   1      17.794  20.355   9.367  0.00  0.00     0.089 H 
BRANCH   7  14
ATOM     14  O2  STL d   1      12.471  20.507   9.439  0.00  0.00    -0.361 OA
ATOM     15  H   STL d   1      12.051  21.175   9.968  0.00  0.00     0.217 HD
ENDBRANCH   7  14
BRANCH  10  16
ATOM     16  O3  STL d   1      16.343  18.224  10.283  0.00  0.00    -0.361 OA
ATOM     17  H   STL d   1      16.839  17.802   9.591  0.00  0.00     0.217 HD
ENDBRANCH  10  16
ENDBRANCH   1   5
BRANCH   2  18
ATOM     18  C9  STL d   1      17.380  24.992   7.316  0.00  0.00    -0.036 A 
ATOM     19  C10 STL d   1      18.839  24.917   7.358  0.00  0.00    -0.070 A 
ATOM     20  C11 STL d   1      19.629  26.023   6.804  0.00  0.00    -0.050 A 
ATOM     21  H   STL d   1      19.332  24.055   7.793  0.00  0.00     0.084 H 
ATOM     22  C12 STL d   1      18.947  27.154   6.231  0.00  0.00     0.065 A 
ATOM     23  H   STL d   1      20.712  25.989   6.826  0.00  0.00     0.087 H 
ATOM     24  C13 STL d   1      17.492  27.247   6.179  0.00  0.00    -0.050 A 
ATOM     25  C14 STL d   1      16.742  26.133   6.738  0.00  0.00    -0.070 A 
ATOM     26  H   STL d   1      16.993  28.106   5.744  0.00  0.00     0.087 H 
ATOM     27  H   STL d   1      15.659  26.169   6.715  0.00  0.00     0.084 H 
BRANCH  22  28
ATOM     28  O1  STL d   1      19.627  28.212   5.699  0.00  0.00    -0.361 OA
ATOM     29  H   STL d   1      20.561  28.059   5.779  0.00  0.00     0.217 HD
ENDBRANCH  22  28
ENDBRANCH   2  18
TORSDOF 5
