REMARK  6 active torsions:
REMARK  status: ('A' for Active; 'I' for Inactive)
REMARK    1  A    between atoms: N_1  and  CA_2 
REMARK    2  A    between atoms: CA_2  and  C_3 
REMARK    3  A    between atoms: CA_2  and  CB_5 
REMARK    4  A    between atoms: CB_5  and  CG_6 
REMARK    5  A    between atoms: CG_6  and  SD_7 
REMARK    6  A    between atoms: SD_7  and  CE_8 
ROOT
ATOM      1  CB  MET d   1     -16.544  24.385   1.427  0.00  0.00    -0.021 C 
ATOM      2  H5  MET d   1     -16.778  23.623   2.185  0.00  0.00     0.037 H 
ATOM      3  H6  MET d   1     -16.275  23.892   0.481  0.00  0.00     0.037 H 
ENDROOT
BRANCH   1   4
ATOM      4  CA  MET d   1     -15.406  25.242   1.898  0.00  0.00     0.183 C 
ATOM      5  H4  MET d   1     -15.714  25.714   2.843  0.00  0.00     0.101 H 
BRANCH   4   6
ATOM      6  N   MET d   1     -15.182  26.345   0.865  0.00  0.00    -0.065 N 
ATOM      7  H1  MET d   1     -16.049  26.832   0.700  0.00  0.00     0.275 HD
ATOM      8  H2  MET d   1     -14.856  25.937   0.003  0.00  0.00     0.275 HD
ATOM      9  H3  MET d   1     -14.493  26.994   1.211  0.00  0.00     0.275 HD
ENDBRANCH   4   6
BRANCH   4  10
ATOM     10  C   MET d   1     -14.119  24.475   2.182  0.00  0.00     0.204 C 
ATOM     11  O   MET d   1     -14.086  23.280   2.446  0.00  0.00    -0.646 OA
ATOM     12  OXT MET d   1     -13.038  25.076   2.126  0.00  0.00    -0.646 OA
ENDBRANCH   4  10
ENDBRANCH   1   4
BRANCH   1  13
ATOM     13  CG  MET d   1     -17.754  25.296   1.214  0.00  0.00    -0.021 C 
ATOM     14  H7  MET d   1     -17.423  26.206   0.692  0.00  0.00     0.049 H 
ATOM     15  H8  MET d   1     -18.169  25.567   2.196  0.00  0.00     0.049 H 
BRANCH  13  16
ATOM     16  SD  MET d   1     -19.050  24.504   0.235  0.00  0.00    -0.173 SA
BRANCH  16  17
ATOM     17  CE  MET d   1     -18.421  24.560  -1.479  0.00  0.00    -0.035 C 
ATOM     18  H9  MET d   1     -19.154  24.094  -2.154  0.00  0.00     0.041 H 
ATOM     19  H10 MET d   1     -17.468  24.013  -1.538  0.00  0.00     0.041 H 
ATOM     20  H11 MET d   1     -18.262  25.607  -1.777  0.00  0.00     0.041 H 
ENDBRANCH  16  17
ENDBRANCH  13  16
ENDBRANCH   1  13
TORSDOF 6
