REMARK  13 active torsions:
REMARK  status: ('A' for Active; 'I' for Inactive)
REMARK    1  A    between atoms: C35_1  and  N36_2 
REMARK    2  A    between atoms: N36_2  and  C39_3 
REMARK    3  A    between atoms: N36_2  and  C37_4 
REMARK    4  A    between atoms: C37_4  and  C38_5 
REMARK    5  A    between atoms: C38_5  and  O34_6 
REMARK    6  A    between atoms: O34_6  and  C9_7 
REMARK    7  A    between atoms: C6_12  and  C2_13 
REMARK    8  A    between atoms: C15_21  and  N40_22 
REMARK    9  A    between atoms: N40_22  and  C16_23 
REMARK   10  A    between atoms: C16_23  and  C17_24 
REMARK   11  A    between atoms: C17_24  and  C18_25 
REMARK   12  A    between atoms: C21_30  and  N24_31 
REMARK       I    between atoms: N24_31  and  C25_32 
REMARK       I    between atoms: C25_32  and  N26_34 
REMARK   13  A    between atoms: N26_34  and  C27_35 
ROOT
ATOM      1  C2  WPH d   1      -3.220 -31.941   6.339  0.00  0.00     0.089 A 
ATOM      2  O3  WPH d   1      -2.948 -32.106   7.665  0.00  0.00    -0.290 OA
ATOM      3  C1  WPH d   1      -4.158 -30.988   6.199  0.00  0.00    -0.032 A 
ATOM      4  C5  WPH d   1      -4.477 -30.527   7.418  0.00  0.00     0.066 A 
ATOM      5  C4  WPH d   1      -3.715 -31.230   8.349  0.00  0.00     0.185 A 
ATOM      6  N12 WPH d   1      -3.828 -30.978   9.660  0.00  0.00    -0.217 NA
ATOM      7  C13 WPH d   1      -4.673 -30.052  10.085  0.00  0.00     0.091 A 
ATOM      8  N14 WPH d   1      -5.418 -29.356   9.240  0.00  0.00    -0.224 NA
ATOM      9  C15 WPH d   1      -5.357 -29.558   7.912  0.00  0.00     0.139 A 
ATOM     10  H16 WPH d   1      -4.586 -30.648   5.257  0.00  0.00     0.089 H 
ATOM     11  H17 WPH d   1      -4.757 -29.859  11.148  0.00  0.00     0.146 H 
ENDROOT
BRANCH   9  12
ATOM     12  N40 WPH d   1      -6.147 -28.832   7.121  0.00  0.00    -0.374 N 
ATOM     13  H18 WPH d   1      -6.164 -29.026   6.109  0.00  0.00     0.161 HD
BRANCH  12  14
ATOM     14  C16 WPH d   1      -6.999 -27.754   7.668  0.00  0.00    -0.002 C 
ATOM     15  H19 WPH d   1      -7.077 -26.953   6.919  0.00  0.00     0.064 H 
ATOM     16  H20 WPH d   1      -6.526 -27.359   8.579  0.00  0.00     0.064 H 
BRANCH  14  17
ATOM     17  C17 WPH d   1      -8.413 -28.239   8.019  0.00  0.00    -0.026 C 
ATOM     18  H21 WPH d   1      -8.354 -28.997   8.814  0.00  0.00     0.042 H 
ATOM     19  H22 WPH d   1      -8.882 -28.679   7.127  0.00  0.00     0.042 H 
BRANCH  17  20
ATOM     20  C18 WPH d   1      -9.253 -27.050   8.506  0.00  0.00    -0.057 A 
ATOM     21  C23 WPH d   1     -10.215 -26.472   7.681  0.00  0.00    -0.075 A 
ATOM     22  C22 WPH d   1     -10.961 -25.380   8.122  0.00  0.00    -0.057 A 
ATOM     23  H23 WPH d   1     -10.385 -26.874   6.689  0.00  0.00     0.084 H 
ATOM     24  C21 WPH d   1     -10.739 -24.843   9.395  0.00  0.00     0.036 A 
ATOM     25  H24 WPH d   1     -11.716 -24.945   7.476  0.00  0.00     0.086 H 
ATOM     26  C20 WPH d   1      -9.786 -25.435  10.222  0.00  0.00    -0.057 A 
ATOM     27  C19 WPH d   1      -9.039 -26.522   9.776  0.00  0.00    -0.075 A 
ATOM     28  H26 WPH d   1      -9.625 -25.046  11.221  0.00  0.00     0.086 H 
ATOM     29  H25 WPH d   1      -8.286 -26.960  10.422  0.00  0.00     0.084 H 
BRANCH  24  30
ATOM     30  N24 WPH d   1     -11.457 -23.812   9.875  0.00  0.00    -0.309 N 
ATOM     31  C25 WPH d   1     -11.759 -22.686   9.209  0.00  0.00     0.325 C 
ATOM     32  O33 WPH d   1     -11.365 -22.467   8.064  0.00  0.00    -0.247 OA
ATOM     33  N26 WPH d   1     -12.521 -21.819   9.896  0.00  0.00    -0.309 N 
ATOM     34  H28 WPH d   1     -12.775 -22.082  10.827  0.00  0.00     0.170 HD
ATOM     35  H27 WPH d   1     -11.796 -23.891  10.812  0.00  0.00     0.170 HD
BRANCH  33  36
ATOM     36  C27 WPH d   1     -12.976 -20.632   9.457  0.00  0.00     0.036 A 
ATOM     37  C28 WPH d   1     -13.642 -19.814  10.371  0.00  0.00    -0.057 A 
ATOM     38  C29 WPH d   1     -14.156 -18.576   9.996  0.00  0.00    -0.081 A 
ATOM     39  H29 WPH d   1     -13.761 -20.150  11.395  0.00  0.00     0.086 H 
ATOM     40  C30 WPH d   1     -14.011 -18.145   8.683  0.00  0.00    -0.083 A 
ATOM     41  H30 WPH d   1     -14.665 -17.953  10.722  0.00  0.00     0.083 H 
ATOM     42  C31 WPH d   1     -13.357 -18.953   7.757  0.00  0.00    -0.081 A 
ATOM     43  H31 WPH d   1     -14.406 -17.182   8.380  0.00  0.00     0.083 H 
ATOM     44  C32 WPH d   1     -12.845 -20.193   8.139  0.00  0.00    -0.057 A 
ATOM     45  H32 WPH d   1     -13.245 -18.616   6.733  0.00  0.00     0.083 H 
ATOM     46  H33 WPH d   1     -12.343 -20.818   7.409  0.00  0.00     0.086 H 
ENDBRANCH  33  36
ENDBRANCH  24  30
ENDBRANCH  17  20
ENDBRANCH  14  17
ENDBRANCH  12  14
ENDBRANCH   9  12
BRANCH   1  47
ATOM     47  C6  WPH d   1      -2.569 -32.748   5.403  0.00  0.00    -0.002 A 
ATOM     48  C11 WPH d   1      -1.723 -33.760   5.870  0.00  0.00    -0.068 A 
ATOM     49  C10 WPH d   1      -1.063 -34.613   4.989  0.00  0.00    -0.050 A 
ATOM     50  H13 WPH d   1      -1.579 -33.882   6.937  0.00  0.00     0.085 H 
ATOM     51  C9  WPH d   1      -1.247 -34.465   3.617  0.00  0.00     0.068 A 
ATOM     52  H12 WPH d   1      -0.409 -35.389   5.370  0.00  0.00     0.087 H 
ATOM     53  C8  WPH d   1      -2.091 -33.458   3.143  0.00  0.00    -0.050 A 
ATOM     54  C7  WPH d   1      -2.757 -32.602   4.025  0.00  0.00    -0.068 A 
ATOM     55  H14 WPH d   1      -2.232 -33.338   2.075  0.00  0.00     0.087 H 
ATOM     56  H15 WPH d   1      -3.415 -31.830   3.643  0.00  0.00     0.085 H 
BRANCH  51  57
ATOM     57  O34 WPH d   1      -0.612 -35.272   2.717  0.00  0.00    -0.350 OA
BRANCH  57  58
ATOM     58  C38 WPH d   1       0.017 -36.467   3.233  0.00  0.00     0.049 C 
ATOM     59  H10 WPH d   1       0.943 -36.200   3.764  0.00  0.00     0.077 H 
ATOM     60  H11 WPH d   1      -0.668 -36.979   3.925  0.00  0.00     0.077 H 
BRANCH  58  61
ATOM     61  C37 WPH d   1       0.344 -37.386   2.054  0.00  0.00     0.102 C 
ATOM     62  H8  WPH d   1       1.224 -37.000   1.519  0.00  0.00     0.079 H 
ATOM     63  H9  WPH d   1       0.555 -38.400   2.424  0.00  0.00     0.079 H 
BRANCH  61  64
ATOM     64  N36 WPH d   1      -0.814 -37.424   1.139  0.00  0.00    -0.077 N 
ATOM     65  H4  WPH d   1      -1.244 -36.512   1.125  0.00  0.00     0.279 HD
BRANCH  64  66
ATOM     66  C35 WPH d   1      -0.358 -37.743  -0.228  0.00  0.00     0.066 C 
ATOM     67  H1  WPH d   1      -1.224 -37.770  -0.906  0.00  0.00     0.068 H 
ATOM     68  H2  WPH d   1       0.140 -38.724  -0.229  0.00  0.00     0.068 H 
ATOM     69  H3  WPH d   1       0.350 -36.972  -0.568  0.00  0.00     0.068 H 
ENDBRANCH  64  66
BRANCH  64  70
ATOM     70  C39 WPH d   1      -1.814 -38.401   1.624  0.00  0.00     0.066 C 
ATOM     71  H5  WPH d   1      -2.128 -38.129   2.643  0.00  0.00     0.068 H 
ATOM     72  H6  WPH d   1      -1.369 -39.407   1.633  0.00  0.00     0.068 H 
ATOM     73  H7  WPH d   1      -2.688 -38.393   0.957  0.00  0.00     0.068 H 
ENDBRANCH  64  70
ENDBRANCH  61  64
ENDBRANCH  58  61
ENDBRANCH  57  58
ENDBRANCH  51  57
ENDBRANCH   1  47
TORSDOF 13
