REMARK  12 active torsions:
REMARK  status: ('A' for Active; 'I' for Inactive)
REMARK    1  A    between atoms: C40_3  and  O43_4 
REMARK    2  A    between atoms: N35_7  and  C36_8 
REMARK    3  A    between atoms: C36_8  and  C37_9 
REMARK    4  A    between atoms: C37_9  and  O34_10 
REMARK    5  A    between atoms: O34_10  and  C9_11 
REMARK    6  A    between atoms: C6_16  and  C2_17 
REMARK    7  A    between atoms: C15_25  and  N44_26 
REMARK    8  A    between atoms: N44_26  and  C16_27 
REMARK    9  A    between atoms: C16_27  and  C17_28 
REMARK   10  A    between atoms: C17_28  and  C18_29 
REMARK   11  A    between atoms: C21_34  and  N24_35 
REMARK       I    between atoms: N24_35  and  C25_36 
REMARK       I    between atoms: C25_36  and  N26_38 
REMARK   12  A    between atoms: N26_38  and  C27_39 
ROOT
ATOM      1  C2  YPH d   1       3.507  32.008   6.438  0.00  0.00     0.089 A 
ATOM      2  O3  YPH d   1       3.280  32.224   7.760  0.00  0.00    -0.290 OA
ATOM      3  C1  YPH d   1       4.399  31.002   6.297  0.00  0.00    -0.032 A 
ATOM      4  C5  YPH d   1       4.732  30.571   7.530  0.00  0.00     0.066 A 
ATOM      5  C4  YPH d   1       4.022  31.344   8.457  0.00  0.00     0.185 A 
ATOM      6  N12 YPH d   1       4.136  31.147   9.772  0.00  0.00    -0.217 NA
ATOM      7  C13 YPH d   1       4.940  30.192  10.217  0.00  0.00     0.091 A 
ATOM      8  N14 YPH d   1       5.639  29.433   9.382  0.00  0.00    -0.224 NA
ATOM      9  C15 YPH d   1       5.579  29.586   8.044  0.00  0.00     0.139 A 
ATOM     10  H20 YPH d   1       4.780  30.610   5.355  0.00  0.00     0.089 H 
ATOM     11  H21 YPH d   1       5.029  30.027  11.285  0.00  0.00     0.146 H 
ENDROOT
BRANCH   1  12
ATOM     12  C6  YPH d   1       2.849  32.826   5.514  0.00  0.00    -0.002 A 
ATOM     13  C7  YPH d   1       3.010  32.674   4.133  0.00  0.00    -0.068 A 
ATOM     14  C8  YPH d   1       2.332  33.513   3.251  0.00  0.00    -0.050 A 
ATOM     15  H17 YPH d   1       3.665  31.901   3.748  0.00  0.00     0.085 H 
ATOM     16  C9  YPH d   1       1.490  34.508   3.743  0.00  0.00     0.068 A 
ATOM     17  H16 YPH d   1       2.460  33.392   2.181  0.00  0.00     0.087 H 
ATOM     18  C10 YPH d   1       1.318  34.662   5.120  0.00  0.00    -0.050 A 
ATOM     19  C11 YPH d   1       2.008  33.832   5.995  0.00  0.00    -0.068 A 
ATOM     20  H18 YPH d   1       0.650  35.425   5.504  0.00  0.00     0.087 H 
ATOM     21  H19 YPH d   1       1.892  33.967   7.064  0.00  0.00     0.085 H 
BRANCH  16  22
ATOM     22  O34 YPH d   1       0.832  35.313   2.870  0.00  0.00    -0.350 OA
BRANCH  22  23
ATOM     23  C37 YPH d   1       0.052  36.378   3.502  0.00  0.00     0.049 C 
ATOM     24  H14 YPH d   1      -0.773  35.930   4.076  0.00  0.00     0.077 H 
ATOM     25  H15 YPH d   1       0.703  36.949   4.181  0.00  0.00     0.077 H 
BRANCH  23  26
ATOM     26  C36 YPH d   1      -0.522  37.318   2.451  0.00  0.00     0.103 C 
ATOM     27  H12 YPH d   1      -1.319  36.801   1.897  0.00  0.00     0.079 H 
ATOM     28  H13 YPH d   1      -0.938  38.208   2.947  0.00  0.00     0.079 H 
BRANCH  26  29
ATOM     29  N35 YPH d   1       0.530  37.731   1.516  0.00  0.00    -0.069 N 
ATOM     30  C38 YPH d   1       1.562  38.513   2.214  0.00  0.00     0.086 C 
ATOM     31  C39 YPH d   1       2.708  38.814   1.254  0.00  0.00    -0.018 C 
ATOM     32  H1  YPH d   1       1.126  39.457   2.573  0.00  0.00     0.076 H 
ATOM     33  H2  YPH d   1       1.943  37.936   3.070  0.00  0.00     0.076 H 
ATOM     34  C40 YPH d   1       2.222  39.547  -0.012  0.00  0.00     0.038 C 
ATOM     35  H3  YPH d   1       3.180  37.866   0.957  0.00  0.00     0.039 H 
ATOM     36  H4  YPH d   1       3.446  39.446   1.769  0.00  0.00     0.039 H 
ATOM     37  C41 YPH d   1       1.018  38.817  -0.628  0.00  0.00    -0.018 C 
ATOM     38  H5  YPH d   1       1.919  40.568   0.261  0.00  0.00     0.083 H 
ATOM     39  C42 YPH d   1      -0.052  38.545   0.435  0.00  0.00     0.086 C 
ATOM     40  H7  YPH d   1       1.355  37.861  -1.054  0.00  0.00     0.039 H 
ATOM     41  H8  YPH d   1       0.586  39.441  -1.424  0.00  0.00     0.039 H 
ATOM     42  H9  YPH d   1      -0.893  38.002  -0.021  0.00  0.00     0.076 H 
ATOM     43  H10 YPH d   1      -0.411  39.499   0.847  0.00  0.00     0.076 H 
ATOM     44  H11 YPH d   1       0.955  36.908   1.118  0.00  0.00     0.280 HD
BRANCH  34  45
ATOM     45  O43 YPH d   1       3.286  39.614  -0.972  0.00  0.00    -0.395 OA
ATOM     46  H6  YPH d   1       2.981  40.066  -1.750  0.00  0.00     0.210 HD
ENDBRANCH  34  45
ENDBRANCH  26  29
ENDBRANCH  23  26
ENDBRANCH  22  23
ENDBRANCH  16  22
ENDBRANCH   1  12
BRANCH   9  47
ATOM     47  N44 YPH d   1       6.333  28.787   7.276  0.00  0.00    -0.374 N 
ATOM     48  H22 YPH d   1       6.323  28.913   6.254  0.00  0.00     0.161 HD
BRANCH  47  49
ATOM     49  C16 YPH d   1       7.185  27.722   7.872  0.00  0.00    -0.002 C 
ATOM     50  H23 YPH d   1       7.377  26.955   7.107  0.00  0.00     0.064 H 
ATOM     51  H24 YPH d   1       6.645  27.270   8.717  0.00  0.00     0.064 H 
BRANCH  49  52
ATOM     52  C17 YPH d   1       8.544  28.265   8.384  0.00  0.00    -0.026 C 
ATOM     53  H25 YPH d   1       8.368  28.956   9.222  0.00  0.00     0.042 H 
ATOM     54  H26 YPH d   1       9.053  28.800   7.569  0.00  0.00     0.042 H 
BRANCH  52  55
ATOM     55  C18 YPH d   1       9.429  27.105   8.860  0.00  0.00    -0.057 A 
ATOM     56  C19 YPH d   1       9.282  26.607  10.149  0.00  0.00    -0.075 A 
ATOM     57  C20 YPH d   1      10.059  25.551  10.612  0.00  0.00    -0.057 A 
ATOM     58  H27 YPH d   1       8.545  27.052  10.808  0.00  0.00     0.084 H 
ATOM     59  C21 YPH d   1      10.988  24.955   9.774  0.00  0.00     0.036 A 
ATOM     60  H28 YPH d   1       9.938  25.194  11.628  0.00  0.00     0.086 H 
ATOM     61  C22 YPH d   1      11.142  25.459   8.476  0.00  0.00    -0.057 A 
ATOM     62  C23 YPH d   1      10.372  26.527   8.018  0.00  0.00    -0.075 A 
ATOM     63  H30 YPH d   1      11.874  25.010   7.815  0.00  0.00     0.086 H 
ATOM     64  H29 YPH d   1      10.508  26.905   7.011  0.00  0.00     0.084 H 
BRANCH  59  65
ATOM     65  N24 YPH d   1      11.744  23.945  10.247  0.00  0.00    -0.309 N 
ATOM     66  C25 YPH d   1      11.934  22.772   9.615  0.00  0.00     0.325 C 
ATOM     67  O33 YPH d   1      11.393  22.511   8.546  0.00  0.00    -0.247 OA
ATOM     68  N26 YPH d   1      12.755  21.900  10.222  0.00  0.00    -0.309 N 
ATOM     69  H32 YPH d   1      13.152  22.177  11.097  0.00  0.00     0.170 HD
ATOM     70  H31 YPH d   1      12.196  24.076  11.130  0.00  0.00     0.170 HD
BRANCH  68  71
ATOM     71  C27 YPH d   1      13.086  20.689   9.752  0.00  0.00     0.036 A 
ATOM     72  C28 YPH d   1      14.017  19.940  10.475  0.00  0.00    -0.057 A 
ATOM     73  C29 YPH d   1      14.417  18.675  10.045  0.00  0.00    -0.081 A 
ATOM     74  H33 YPH d   1      14.436  20.349  11.387  0.00  0.00     0.086 H 
ATOM     75  C30 YPH d   1      13.887  18.147   8.871  0.00  0.00    -0.083 A 
ATOM     76  H34 YPH d   1      15.137  18.106  10.622  0.00  0.00     0.083 H 
ATOM     77  C31 YPH d   1      12.957  18.888   8.142  0.00  0.00    -0.081 A 
ATOM     78  H35 YPH d   1      14.195  17.167   8.526  0.00  0.00     0.083 H 
ATOM     79  C32 YPH d   1      12.560  20.154   8.578  0.00  0.00    -0.057 A 
ATOM     80  H36 YPH d   1      12.539  18.478   7.230  0.00  0.00     0.083 H 
ATOM     81  H37 YPH d   1      11.840  20.723   8.001  0.00  0.00     0.086 H 
ENDBRANCH  68  71
ENDBRANCH  59  65
ENDBRANCH  52  55
ENDBRANCH  49  52
ENDBRANCH  47  49
ENDBRANCH   9  47
TORSDOF 12
