REMARK  16 active torsions:
REMARK  status: ('A' for Active; 'I' for Inactive)
REMARK    1  A    between atoms: C1_3  and  C2_4 
REMARK    2  A    between atoms: C8_11  and  C1_3 
REMARK    3  A    between atoms: C9_13  and  N1_9 
REMARK    4  A    between atoms: C9_13  and  C8_11 
REMARK    5  A    between atoms: P1_24  and  C9_13 
REMARK    6  A    between atoms: C10_14  and  C12_16 
REMARK       I    between atoms: N2_17  and  C10_14 
REMARK    7  A    between atoms: C12_16  and  C11_15 
REMARK    8  A    between atoms: C11_15  and  P1_24 
REMARK    9  A    between atoms: C12_16  and  C13_18 
REMARK   10  A    between atoms: C17_22  and  N2_17 
REMARK   11  A    between atoms: C13_18  and  C14_19 
REMARK   12  A    between atoms: C14_19  and  C15_20 
REMARK   13  A    between atoms: C14_19  and  C16_21 
REMARK   14  A    between atoms: C17_22  and  C18_25 
REMARK   15  A    between atoms: C19_26  and  C17_22 
REMARK       I    between atoms: C18_25  and  N4_36 
REMARK   16  A    between atoms: C20_27  and  C19_26 
ROOT
ATOM      1  C12 P52 d   1      21.381   2.553   2.566  0.00  0.00     0.033 C 
ATOM      2  H16 P52 d   1      21.697   2.397   1.524  0.00  0.00     0.055 H 
ENDROOT
BRANCH   1   3
ATOM      3  C10 P52 d   1      20.506   1.372   2.970  0.00  0.00     0.223 C 
ATOM      4  O3  P52 d   1      19.530   1.065   2.308  0.00  0.00    -0.273 OA
ATOM      5  N2  P52 d   1      20.653   0.781   4.264  0.00  0.00    -0.347 N 
ATOM      6  H17 P52 d   1      20.324   1.457   4.923  0.00  0.00     0.163 HD
BRANCH   5   7
ATOM      7  C17 P52 d   1      21.076  -0.383   5.041  0.00  0.00     0.093 C 
ATOM      8  H27 P52 d   1      21.134  -0.085   6.098  0.00  0.00     0.088 H 
BRANCH   7   9
ATOM      9  C18 P52 d   1      22.455  -0.876   4.606  0.00  0.00     0.238 C 
ATOM     10  O4  P52 d   1      22.820  -0.770   3.438  0.00  0.00    -0.271 OA
ATOM     11  N4  P52 d   1      23.275  -1.605   5.522  0.00  0.00    -0.368 N 
ATOM     12  H36 P52 d   1      24.178  -1.928   5.237  0.00  0.00     0.159 HD
ATOM     13  H37 P52 d   1      22.946  -1.792   6.448  0.00  0.00     0.159 HD
ENDBRANCH   7   9
BRANCH   7  14
ATOM     14  C19 P52 d   1      20.055  -1.514   4.913  0.00  0.00    -0.012 C 
ATOM     15  H29 P52 d   1      19.113  -1.191   5.379  0.00  0.00     0.044 H 
ATOM     16  H30 P52 d   1      20.442  -2.397   5.442  0.00  0.00     0.044 H 
BRANCH  14  17
ATOM     17  C20 P52 d   1      19.778  -1.893   3.487  0.00  0.00    -0.028 A 
ATOM     18  C21 P52 d   1      18.728  -1.477   2.722  0.00  0.00    -0.015 A 
ATOM     19  N3  P52 d   1      18.814  -2.022   1.460  0.00  0.00    -0.365 N 
ATOM     20  H31 P52 d   1      17.936  -0.810   3.060  0.00  0.00     0.112 H 
ATOM     21  C23 P52 d   1      19.936  -2.808   1.390  0.00  0.00     0.042 A 
ATOM     22  H28 P52 d   1      18.145  -1.865   0.693  0.00  0.00     0.165 HD
ATOM     23  C22 P52 d   1      20.572  -2.749   2.648  0.00  0.00    -0.002 A 
ATOM     24  C25 P52 d   1      20.445  -3.565   0.326  0.00  0.00    -0.056 A 
ATOM     25  C24 P52 d   1      21.754  -3.477   2.841  0.00  0.00    -0.070 A 
ATOM     26  C26 P52 d   1      22.255  -4.228   1.778  0.00  0.00    -0.082 A 
ATOM     27  H32 P52 d   1      22.267  -3.457   3.796  0.00  0.00     0.084 H 
ATOM     28  C27 P52 d   1      21.600  -4.263   0.542  0.00  0.00    -0.081 A 
ATOM     29  H34 P52 d   1      23.169  -4.795   1.912  0.00  0.00     0.083 H 
ATOM     30  H35 P52 d   1      22.018  -4.857  -0.262  0.00  0.00     0.083 H 
ATOM     31  H33 P52 d   1      19.941  -3.596  -0.633  0.00  0.00     0.086 H 
ENDBRANCH  14  17
ENDBRANCH   7  14
ENDBRANCH   5   7
ENDBRANCH   1   3
BRANCH   1  32
ATOM     32  C11 P52 d   1      20.663   3.937   2.654  0.00  0.00     0.020 C 
ATOM     33  H14 P52 d   1      21.403   4.709   2.913  0.00  0.00     0.050 H 
ATOM     34  H15 P52 d   1      19.892   3.891   3.437  0.00  0.00     0.050 H 
BRANCH  32  35
ATOM     35  P1  P52 d   1      19.971   4.324   1.262  0.00  0.00     0.138 P 
ATOM     36  O1  P52 d   1      20.536   5.582   0.793  0.00  0.00    -0.666 OA
ATOM     37  O2  P52 d   1      20.178   3.270   0.271  0.00  0.00    -0.666 OA
BRANCH  35  38
ATOM     38  C9  P52 d   1      18.234   4.518   1.538  0.00  0.00     0.173 C 
ATOM     39  H13 P52 d   1      18.112   5.131   2.443  0.00  0.00     0.100 H 
BRANCH  38  40
ATOM     40  N1  P52 d   1      17.630   5.139   0.584  0.00  0.00    -0.066 N 
ATOM     41  H7  P52 d   1      16.649   5.216   0.802  0.00  0.00     0.275 HD
ATOM     42  H8  P52 d   1      17.744   4.626  -0.276  0.00  0.00     0.275 HD
ATOM     43  H9  P52 d   1      18.024   6.061   0.480  0.00  0.00     0.275 HD
ENDBRANCH  38  40
BRANCH  38  44
ATOM     44  C8  P52 d   1      17.683   3.306   1.787  0.00  0.00    -0.026 C 
ATOM     45  H11 P52 d   1      17.051   3.005   0.938  0.00  0.00     0.037 H 
ATOM     46  H12 P52 d   1      18.478   2.561   1.935  0.00  0.00     0.037 H 
BRANCH  44  47
ATOM     47  C1  P52 d   1      16.834   3.409   3.048  0.00  0.00    -0.039 C 
ATOM     48  H1  P52 d   1      17.474   3.316   3.937  0.00  0.00     0.040 H 
ATOM     49  H2  P52 d   1      16.315   4.379   3.070  0.00  0.00     0.040 H 
BRANCH  47  50
ATOM     50  C2  P52 d   1      15.814   2.278   3.025  0.00  0.00    -0.058 A 
ATOM     51  C3  P52 d   1      14.453   2.432   2.805  0.00  0.00    -0.077 A 
ATOM     52  C4  P52 d   1      13.646   1.287   2.793  0.00  0.00    -0.082 A 
ATOM     53  H3  P52 d   1      14.024   3.415   2.646  0.00  0.00     0.084 H 
ATOM     54  C5  P52 d   1      14.120   0.027   2.984  0.00  0.00    -0.083 A 
ATOM     55  H4  P52 d   1      12.583   1.413   2.622  0.00  0.00     0.083 H 
ATOM     56  C6  P52 d   1      15.495  -0.141   3.204  0.00  0.00    -0.082 A 
ATOM     57  H5  P52 d   1      13.452  -0.826   2.967  0.00  0.00     0.083 H 
ATOM     58  C7  P52 d   1      16.315   0.997   3.219  0.00  0.00    -0.077 A 
ATOM     59  H6  P52 d   1      15.915  -1.128   3.359  0.00  0.00     0.083 H 
ATOM     60  H10 P52 d   1      17.378   0.872   3.388  0.00  0.00     0.084 H 
ENDBRANCH  47  50
ENDBRANCH  44  47
ENDBRANCH  38  44
ENDBRANCH  35  38
ENDBRANCH  32  35
ENDBRANCH   1  32
BRANCH   1  61
ATOM     61  C13 P52 d   1      22.646   2.605   3.480  0.00  0.00    -0.051 C 
ATOM     62  H18 P52 d   1      22.464   1.960   4.352  0.00  0.00     0.034 H 
ATOM     63  H19 P52 d   1      22.783   3.644   3.815  0.00  0.00     0.034 H 
BRANCH  61  64
ATOM     64  C14 P52 d   1      23.949   2.144   2.808  0.00  0.00    -0.060 C 
ATOM     65  H20 P52 d   1      24.421   1.373   3.435  0.00  0.00     0.038 H 
BRANCH  64  66
ATOM     66  C15 P52 d   1      24.939   3.300   2.639  0.00  0.00    -0.073 C 
ATOM     67  H21 P52 d   1      25.855   2.930   2.156  0.00  0.00     0.028 H 
ATOM     68  H22 P52 d   1      25.188   3.717   3.626  0.00  0.00     0.028 H 
ATOM     69  H23 P52 d   1      24.485   4.083   2.014  0.00  0.00     0.028 H 
ENDBRANCH  64  66
BRANCH  64  70
ATOM     70  C16 P52 d   1      23.585   1.533   1.451  0.00  0.00    -0.073 C 
ATOM     71  H24 P52 d   1      22.874   0.707   1.600  0.00  0.00     0.028 H 
ATOM     72  H25 P52 d   1      24.495   1.151   0.965  0.00  0.00     0.028 H 
ATOM     73  H26 P52 d   1      23.125   2.303   0.814  0.00  0.00     0.028 H 
ENDBRANCH  64  70
ENDBRANCH  61  64
ENDBRANCH   1  61
TORSDOF 16
