REMARK  12 active torsions:
REMARK  status: ('A' for Active; 'I' for Inactive)
REMARK    1  A    between atoms: C1_1  and  S1_2 
REMARK    2  A    between atoms: S1_2  and  C1'_13 
REMARK    3  A    between atoms: C2_3  and  O2_4 
REMARK    4  A    between atoms: C3_5  and  O3_6 
REMARK    5  A    between atoms: C4_7  and  O4_8 
REMARK    6  A    between atoms: C5_9  and  C6_11 
REMARK    7  A    between atoms: C6_11  and  O6_12 
REMARK    8  A    between atoms: C2'_14  and  O2'_15 
REMARK    9  A    between atoms: C3'_16  and  O3'_17 
REMARK   10  A    between atoms: C4'_18  and  O4'_19 
REMARK   11  A    between atoms: C5'_20  and  C6'_22 
REMARK   12  A    between atoms: C6'_22  and  O6'_23 
ROOT
ATOM      1  S1  TDG d   1      21.248 -10.515  -0.559  0.00  0.00    -0.100 SA
ENDROOT
BRANCH   1   2
ATOM      2  C1  TDG d   1      20.384  -9.148  -1.264  0.00  0.00     0.112 C 
ATOM      3  C2  TDG d   1      18.888  -9.456  -1.330  0.00  0.00     0.096 C 
ATOM      4  C3  TDG d   1      18.083  -8.212  -1.695  0.00  0.00     0.090 C 
ATOM      5  H2  TDG d   1      18.555  -9.824  -0.348  0.00  0.00     0.092 H 
ATOM      6  C4  TDG d   1      18.471  -7.033  -0.812  0.00  0.00     0.089 C 
ATOM      7  H4  TDG d   1      18.293  -7.953  -2.743  0.00  0.00     0.091 H 
ATOM      8  C5  TDG d   1      19.975  -6.813  -0.854  0.00  0.00     0.087 C 
ATOM      9  H6  TDG d   1      17.965  -6.129  -1.182  0.00  0.00     0.091 H 
ATOM     10  O5  TDG d   1      20.645  -8.010  -0.445  0.00  0.00    -0.363 OA
ATOM     11  H8  TDG d   1      20.272  -6.559  -1.882  0.00  0.00     0.090 H 
ATOM     12  H1  TDG d   1      20.755  -8.959  -2.282  0.00  0.00     0.104 H 
BRANCH   3  13
ATOM     13  O2  TDG d   1      18.659 -10.467  -2.323  0.00  0.00    -0.389 OA
ATOM     14  H3  TDG d   1      18.958 -10.153  -3.168  0.00  0.00     0.210 HD
ENDBRANCH   3  13
BRANCH   4  15
ATOM     15  O3  TDG d   1      16.685  -8.472  -1.553  0.00  0.00    -0.390 OA
ATOM     16  H5  TDG d   1      16.498  -8.712  -0.653  0.00  0.00     0.210 HD
ENDBRANCH   4  15
BRANCH   6  17
ATOM     17  O4  TDG d   1      18.068  -7.275   0.541  0.00  0.00    -0.390 OA
ATOM     18  H7  TDG d   1      17.126  -7.392   0.574  0.00  0.00     0.210 HD
ENDBRANCH   6  17
BRANCH   8  19
ATOM     19  C6  TDG d   1      20.390  -5.680   0.084  0.00  0.00     0.043 C 
ATOM     20  H9  TDG d   1      20.177  -5.963   1.125  0.00  0.00     0.078 H 
ATOM     21  H10 TDG d   1      19.834  -4.765  -0.169  0.00  0.00     0.078 H 
BRANCH  19  22
ATOM     22  O6  TDG d   1      21.791  -5.454  -0.078  0.00  0.00    -0.398 OA
ATOM     23  H11 TDG d   1      22.266  -6.248   0.139  0.00  0.00     0.209 HD
ENDBRANCH  19  22
ENDBRANCH   8  19
ENDBRANCH   1   2
BRANCH   1  24
ATOM     24  C1' TDG d   1      22.923 -10.007  -0.781  0.00  0.00     0.112 C 
ATOM     25  C2' TDG d   1      23.719 -10.315   0.484  0.00  0.00     0.096 C 
ATOM     26  C3' TDG d   1      25.188  -9.963   0.287  0.00  0.00     0.090 C 
ATOM     27  H13 TDG d   1      23.633 -11.392   0.689  0.00  0.00     0.092 H 
ATOM     28  C4' TDG d   1      25.724 -10.642  -0.966  0.00  0.00     0.089 C 
ATOM     29  H15 TDG d   1      25.287  -8.873   0.174  0.00  0.00     0.091 H 
ATOM     30  C5' TDG d   1      24.836 -10.323  -2.164  0.00  0.00     0.087 C 
ATOM     31  H17 TDG d   1      26.740 -10.272  -1.167  0.00  0.00     0.091 H 
ATOM     32  O5' TDG d   1      23.497 -10.722  -1.884  0.00  0.00    -0.363 OA
ATOM     33  H19 TDG d   1      24.861  -9.238  -2.345  0.00  0.00     0.090 H 
ATOM     34  H12 TDG d   1      22.956  -8.927  -0.984  0.00  0.00     0.104 H 
BRANCH  25  35
ATOM     35  O2' TDG d   1      23.237  -9.593   1.626  0.00  0.00    -0.389 OA
ATOM     36  H14 TDG d   1      23.301  -8.660   1.460  0.00  0.00     0.210 HD
ENDBRANCH  25  35
BRANCH  26  37
ATOM     37  O3' TDG d   1      25.933 -10.387   1.435  0.00  0.00    -0.390 OA
ATOM     38  H16 TDG d   1      25.841 -11.327   1.541  0.00  0.00     0.210 HD
ENDBRANCH  26  37
BRANCH  28  39
ATOM     39  O4' TDG d   1      25.774 -12.062  -0.761  0.00  0.00    -0.390 OA
ATOM     40  H18 TDG d   1      26.346 -12.255  -0.028  0.00  0.00     0.210 HD
ENDBRANCH  28  39
BRANCH  30  41
ATOM     41  C6' TDG d   1      25.318 -11.047  -3.422  0.00  0.00     0.043 C 
ATOM     42  H20 TDG d   1      25.046 -12.111  -3.353  0.00  0.00     0.078 H 
ATOM     43  H21 TDG d   1      26.411 -10.952  -3.498  0.00  0.00     0.078 H 
BRANCH  41  44
ATOM     44  O6' TDG d   1      24.714 -10.481  -4.592  0.00  0.00    -0.398 OA
ATOM     45  H22 TDG d   1      25.025 -10.943  -5.362  0.00  0.00     0.209 HD
ENDBRANCH  41  44
ENDBRANCH  30  41
ENDBRANCH   1  24
TORSDOF 12
