REMARK  12 active torsions:
REMARK  status: ('A' for Active; 'I' for Inactive)
REMARK    1  A    between atoms: C4_1  and  O4_8 
REMARK    2  A    between atoms: C5_2  and  C6_3 
REMARK    3  A    between atoms: C6_3  and  O6_9 
REMARK    4  A    between atoms: C2_5  and  O2_4 
REMARK    5  A    between atoms: C3_6  and  O3_7 
REMARK    6  A    between atoms: C1_11  and  SAW_12 
REMARK    7  A    between atoms: SAW_12  and  CAL_13 
REMARK    8  A    between atoms: CAN_15  and  CAU_16 
REMARK    9  A    between atoms: CAU_16  and  OAV_17 
REMARK   10  A    between atoms: CAO_18  and  OAT_19 
REMARK   11  A    between atoms: CAP_20  and  OAS_21 
REMARK   12  A    between atoms: CAQ_22  and  OAR_23 
ROOT
ATOM      1  SAW 1LL d   1      20.517  39.479  32.996  0.00  0.00    -0.100 SA
ENDROOT
BRANCH   1   2
ATOM      2  C1  1LL d   1      22.152  39.076  33.540  0.00  0.00     0.112 C 
ATOM      3  C2  1LL d   1      23.082  40.135  32.986  0.00  0.00     0.096 C 
ATOM      4  C3  1LL d   1      24.505  39.878  33.469  0.00  0.00     0.090 C 
ATOM      5  H6  1LL d   1      23.062  40.099  31.887  0.00  0.00     0.092 H 
ATOM      6  C4  1LL d   1      24.526  39.742  34.992  0.00  0.00     0.089 C 
ATOM      7  H7  1LL d   1      24.869  38.941  33.023  0.00  0.00     0.091 H 
ATOM      8  C5  1LL d   1      23.456  38.750  35.450  0.00  0.00     0.087 C 
ATOM      9  H1  1LL d   1      25.513  39.366  35.301  0.00  0.00     0.091 H 
ATOM     10  O5  1LL d   1      22.153  39.138  34.962  0.00  0.00    -0.363 OA
ATOM     11  H2  1LL d   1      23.704  37.752  35.059  0.00  0.00     0.090 H 
ATOM     12  H11 1LL d   1      22.451  38.075  33.194  0.00  0.00     0.104 H 
BRANCH   3  13
ATOM     13  O2  1LL d   1      22.633  41.429  33.427  0.00  0.00    -0.389 OA
ATOM     14  H5  1LL d   1      22.650  41.462  34.376  0.00  0.00     0.210 HD
ENDBRANCH   3  13
BRANCH   4  15
ATOM     15  O3  1LL d   1      25.367  40.958  33.057  0.00  0.00    -0.390 OA
ATOM     16  H8  1LL d   1      25.364  41.020  32.109  0.00  0.00     0.210 HD
ENDBRANCH   4  15
BRANCH   6  17
ATOM     17  O4  1LL d   1      24.305  41.027  35.606  0.00  0.00    -0.390 OA
ATOM     18  H9  1LL d   1      23.460  41.366  35.334  0.00  0.00     0.210 HD
ENDBRANCH   6  17
BRANCH   8  19
ATOM     19  C6  1LL d   1      23.420  38.701  36.975  0.00  0.00     0.043 C 
ATOM     20  H3  1LL d   1      23.281  39.716  37.375  0.00  0.00     0.078 H 
ATOM     21  H4  1LL d   1      24.364  38.283  37.354  0.00  0.00     0.078 H 
BRANCH  19  22
ATOM     22  O6  1LL d   1      22.327  37.869  37.383  0.00  0.00    -0.398 OA
ATOM     23  H10 1LL d   1      21.514  38.232  37.052  0.00  0.00     0.209 HD
ENDBRANCH  19  22
ENDBRANCH   8  19
ENDBRANCH   1   2
BRANCH   1  24
ATOM     24  CAL 1LL d   1      19.668  37.947  33.289  0.00  0.00     0.112 C 
ATOM     25  OAM 1LL d   1      20.154  36.940  32.381  0.00  0.00    -0.363 OA
ATOM     26  CAN 1LL d   1      19.529  35.677  32.639  0.00  0.00     0.087 C 
ATOM     27  CAO 1LL d   1      18.029  35.784  32.372  0.00  0.00     0.089 C 
ATOM     28  H13 1LL d   1      19.688  35.386  33.688  0.00  0.00     0.090 H 
ATOM     29  CAP 1LL d   1      17.430  36.828  33.316  0.00  0.00     0.090 C 
ATOM     30  H17 1LL d   1      17.554  34.810  32.560  0.00  0.00     0.091 H 
ATOM     31  CAQ 1LL d   1      18.154  38.165  33.166  0.00  0.00     0.096 C 
ATOM     32  H19 1LL d   1      17.554  36.477  34.351  0.00  0.00     0.091 H 
ATOM     33  H21 1LL d   1      17.823  38.836  33.972  0.00  0.00     0.092 H 
ATOM     34  H12 1LL d   1      19.884  37.615  34.315  0.00  0.00     0.104 H 
BRANCH  26  35
ATOM     35  CAU 1LL d   1      20.186  34.655  31.720  0.00  0.00     0.043 C 
ATOM     36  H14 1LL d   1      20.119  35.002  30.678  0.00  0.00     0.078 H 
ATOM     37  H15 1LL d   1      19.671  33.688  31.819  0.00  0.00     0.078 H 
BRANCH  35  38
ATOM     38  OAV 1LL d   1      21.560  34.502  32.084  0.00  0.00    -0.398 OA
ATOM     39  H16 1LL d   1      22.004  35.337  31.999  0.00  0.00     0.209 HD
ENDBRANCH  35  38
ENDBRANCH  26  35
BRANCH  27  40
ATOM     40  OAT 1LL d   1      17.805  36.158  31.017  0.00  0.00    -0.390 OA
ATOM     41  H18 1LL d   1      16.871  36.223  30.858  0.00  0.00     0.210 HD
ENDBRANCH  27  40
BRANCH  29  42
ATOM     42  OAS 1LL d   1      16.036  36.986  33.052  0.00  0.00    -0.390 OA
ATOM     43  H20 1LL d   1      15.915  37.271  32.154  0.00  0.00     0.210 HD
ENDBRANCH  29  42
BRANCH  31  44
ATOM     44  OAR 1LL d   1      17.853  38.782  31.903  0.00  0.00    -0.389 OA
ATOM     45  H22 1LL d   1      18.128  38.208  31.198  0.00  0.00     0.210 HD
ENDBRANCH  31  44
ENDBRANCH   1  24
TORSDOF 12
