REMARK  9 active torsions:
REMARK  status: ('A' for Active; 'I' for Inactive)
REMARK    1  A    between atoms: N1_1  and  C2_2 
REMARK    2  A    between atoms: C2_2  and  C3_3 
REMARK    3  A    between atoms: C3_3  and  C4_4 
REMARK    4  A    between atoms: C4_4  and  C5_5 
REMARK    5  A    between atoms: C5_5  and  N6_6 
REMARK    6  A    between atoms: N6_6  and  C7_7 
REMARK    7  A    between atoms: C7_7  and  C8_8 
REMARK    8  A    between atoms: C8_8  and  C9_9 
REMARK    9  A    between atoms: C9_9  and  N10_10 
ROOT
ATOM      1  N6  SPD d   1       1.340   0.685  -8.210  0.00  0.00    -0.075 N 
ATOM      2  H9  SPD d   1       0.718   1.127  -7.551  0.00  0.00     0.277 HD
ATOM      3  H10 SPD d   1       2.197   0.431  -7.745  0.00  0.00     0.277 HD
ENDROOT
BRANCH   1   4
ATOM      4  C5  SPD d   1       1.637   1.610  -9.265  0.00  0.00     0.085 C 
ATOM      5  H7  SPD d   1       2.583   1.287  -9.725  0.00  0.00     0.076 H 
ATOM      6  H8  SPD d   1       0.825   1.533 -10.003  0.00  0.00     0.076 H 
BRANCH   4   7
ATOM      7  C4  SPD d   1       1.785   3.054  -8.920  0.00  0.00    -0.026 C 
ATOM      8  H5  SPD d   1       0.777   3.495  -8.918  0.00  0.00     0.041 H 
ATOM      9  H6  SPD d   1       2.211   3.107  -7.907  0.00  0.00     0.041 H 
BRANCH   7  10
ATOM     10  C3  SPD d   1       2.639   3.899  -9.806  0.00  0.00    -0.087 C 
ATOM     11  H4  SPD d   1       3.195   3.468 -10.637  0.00  0.00     0.079 H 
BRANCH  10  12
ATOM     12  C2  SPD d   1       2.699   5.356  -9.505  0.00  0.00    -0.033 C 
ATOM     13  H3  SPD d   1       2.125   5.783  -8.684  0.00  0.00     0.109 H 
BRANCH  12  14
ATOM     14  N1  SPD d   1       3.537   6.183 -10.330  0.00  0.00    -0.408 N 
ATOM     15  H1  SPD d   1       3.601   7.195 -10.148  0.00  0.00     0.155 HD
ATOM     16  H2  SPD d   1       4.074   5.764 -11.103  0.00  0.00     0.155 HD
ENDBRANCH  12  14
ENDBRANCH  10  12
ENDBRANCH   7  10
ENDBRANCH   4   7
ENDBRANCH   1   4
BRANCH   1  17
ATOM     17  C7  SPD d   1       0.716  -0.501  -8.717  0.00  0.00     0.083 C 
ATOM     18  H11 SPD d   1      -0.174  -0.186  -9.281  0.00  0.00     0.075 H 
ATOM     19  H12 SPD d   1       0.407  -1.103  -7.850  0.00  0.00     0.075 H 
BRANCH  17  20
ATOM     20  C8  SPD d   1       1.514  -1.387  -9.609  0.00  0.00    -0.020 C 
ATOM     21  H13 SPD d   1       2.462  -1.605  -9.096  0.00  0.00     0.037 H 
ATOM     22  H14 SPD d   1       1.718  -0.829 -10.535  0.00  0.00     0.037 H 
BRANCH  20  23
ATOM     23  C9  SPD d   1       0.902  -2.692  -9.997  0.00  0.00     0.081 C 
ATOM     24  H15 SPD d   1       1.627  -3.227 -10.628  0.00  0.00     0.075 H 
ATOM     25  H16 SPD d   1      -0.004  -2.476 -10.582  0.00  0.00     0.075 H 
BRANCH  23  26
ATOM     26  N10 SPD d   1       0.527  -3.571  -8.918  0.00  0.00    -0.079 N 
ATOM     27  H17 SPD d   1       0.127  -4.416  -9.296  0.00  0.00     0.274 HD
ATOM     28  H18 SPD d   1      -0.152  -3.112  -8.331  0.00  0.00     0.274 HD
ATOM     29  H19 SPD d   1       1.343  -3.800  -8.372  0.00  0.00     0.274 HD
ENDBRANCH  23  26
ENDBRANCH  20  23
ENDBRANCH  17  20
ENDBRANCH   1  17
TORSDOF 9
