REMARK WARNING: 32 MAX_TORS EXCEEDED!!!
REMARK  47 active torsions:
REMARK  status: ('A' for Active; 'I' for Inactive)
REMARK    1  A    between atoms: N_1  and  CA_2 
REMARK    2  A    between atoms: CA_2  and  C_3 
REMARK    3  A    between atoms: CA_2  and  CB_5 
REMARK       I    between atoms: C_3  and  N_10 
REMARK    4  A    between atoms: CB_5  and  CG_6 
REMARK    5  A    between atoms: CG_6  and  CD_7 
REMARK    6  A    between atoms: N_10  and  CA_11 
REMARK    7  A    between atoms: CA_11  and  C_12 
REMARK    8  A    between atoms: CA_11  and  CB_14 
REMARK       I    between atoms: C_12  and  N_18 
REMARK    9  A    between atoms: CB_14  and  CG_15 
REMARK   10  A    between atoms: CG_15  and  CD1_16 
REMARK   11  A    between atoms: CG_15  and  CD2_17 
REMARK   12  A    between atoms: N_18  and  CA_19 
REMARK   13  A    between atoms: CA_19  and  C_20 
REMARK   14  A    between atoms: CA_19  and  CB_22 
REMARK       I    between atoms: C_20  and  N_23 
REMARK   15  A    between atoms: N_23  and  CA_24 
REMARK   16  A    between atoms: CA_24  and  C_25 
REMARK   17  A    between atoms: CA_24  and  CB_27 
REMARK       I    between atoms: C_25  and  N_28 
REMARK   18  A    between atoms: N_28  and  CA_29 
REMARK   19  A    between atoms: CA_29  and  C_30 
REMARK   20  A    between atoms: CA_29  and  CB_32 
REMARK       I    between atoms: C_30  and  N_36 
REMARK   21  A    between atoms: CB_32  and  CG1_33 
REMARK   22  A    between atoms: CB_32  and  CG2_34 
REMARK   23  A    between atoms: CG1_33  and  CD1_35 
REMARK   24  A    between atoms: N_36  and  CA_37 
REMARK   25  A    between atoms: CA_37  and  C_38 
REMARK       I    between atoms: C_38  and  N_40 
REMARK   26  A    between atoms: N_40  and  CA_41 
REMARK   27  A    between atoms: CA_41  and  C_42 
REMARK   28  A    between atoms: CA_41  and  CB_44 
REMARK       I    between atoms: C_42  and  N_48 
REMARK   29  A    between atoms: CB_44  and  CG1_45 
REMARK   30  A    between atoms: CB_44  and  CG2_46 
REMARK   31  A    between atoms: CG1_45  and  CD1_47 
REMARK   32  A    between atoms: N_48  and  CA_49 
REMARK   33  A    between atoms: CA_49  and  C_50 
REMARK   34  A    between atoms: CA_49  and  CB_52 
REMARK       I    between atoms: C_50  and  N_56 
REMARK   35  A    between atoms: CB_52  and  CG_53 
REMARK   36  A    between atoms: CG_53  and  CD1_54 
REMARK   37  A    between atoms: CG_53  and  CD2_55 
REMARK   38  A    between atoms: N_56  and  CA_57 
REMARK   39  A    between atoms: CA_57  and  C_58 
REMARK   40  A    between atoms: CA_57  and  CB_60 
REMARK       I    between atoms: C_58  and  N_63 
REMARK   41  A    between atoms: CB_60  and  OG1_61 
REMARK   42  A    between atoms: CB_60  and  CG2_62 
REMARK   43  A    between atoms: N_63  and  CA_64 
REMARK   44  A    between atoms: CA_64  and  C_65 
REMARK   45  A    between atoms: CA_64  and  CB_67 
REMARK   46  A    between atoms: CB_67  and  CG1_68 
REMARK   47  A    between atoms: CB_67  and  CG2_69 
ROOT
ATOM      1  C   ILE d   1      51.054  -1.610  33.600  0.00  0.00     0.241 C 
ATOM      2  O   ILE d   1      51.712  -2.523  33.137  0.00  0.00    -0.271 OA
ATOM      3  N   GLY d   1      51.515  -0.372  33.698  0.00  0.00    -0.351 N 
ATOM      4  H41 GLY d   1      50.909   0.345  34.042  0.00  0.00     0.163 HD
ENDROOT
BRANCH   3   5
ATOM      5  CA  GLY d   1      52.864  -0.026  33.324  0.00  0.00     0.069 C 
ATOM      6  H42 GLY d   1      53.542  -0.724  33.836  0.00  0.00     0.078 H 
ATOM      7  H43 GLY d   1      53.057   0.998  33.677  0.00  0.00     0.078 H 
BRANCH   5   8
ATOM      8  C   GLY d   1      53.187  -0.071  31.849  0.00  0.00     0.236 C 
ATOM      9  O   GLY d   1      54.353  -0.026  31.478  0.00  0.00    -0.272 OA
ATOM     10  N   ILE d   1      52.157  -0.074  31.007  0.00  0.00    -0.346 N 
ATOM     11  H44 ILE d   1      51.229  -0.041  31.377  0.00  0.00     0.163 HD
BRANCH  10  12
ATOM     12  CA  ILE d   1      52.339  -0.124  29.567  0.00  0.00     0.092 C 
ATOM     13  H45 ILE d   1      53.414  -0.222  29.355  0.00  0.00     0.088 H 
BRANCH  12  14
ATOM     14  C   ILE d   1      51.822   1.161  28.919  0.00  0.00     0.241 C 
ATOM     15  O   ILE d   1      50.625   1.291  28.630  0.00  0.00    -0.271 OA
ATOM     16  N   LEU d   1      52.737   2.094  28.674  0.00  0.00    -0.346 N 
ATOM     17  H55 LEU d   1      53.693   1.905  28.900  0.00  0.00     0.163 HD
BRANCH  16  18
ATOM     18  CA  LEU d   1      52.397   3.368  28.093  0.00  0.00     0.089 C 
ATOM     19  H56 LEU d   1      51.310   3.387  27.924  0.00  0.00     0.087 H 
BRANCH  18  20
ATOM     20  C   LEU d   1      53.076   3.600  26.806  0.00  0.00     0.241 C 
ATOM     21  O   LEU d   1      54.067   2.951  26.493  0.00  0.00    -0.271 OA
ATOM     22  N   THR d   1      52.595   4.611  26.077  0.00  0.00    -0.344 N 
ATOM     23  H66 THR d   1      51.809   5.128  26.418  0.00  0.00     0.163 HD
BRANCH  22  24
ATOM     24  CA  THR d   1      53.173   4.970  24.829  0.00  0.00     0.113 C 
ATOM     25  H67 THR d   1      53.404   4.056  24.263  0.00  0.00     0.091 H 
BRANCH  24  26
ATOM     26  C   THR d   1      54.454   5.703  25.139  0.00  0.00     0.243 C 
ATOM     27  O   THR d   1      54.618   6.217  26.232  0.00  0.00    -0.271 OA
ATOM     28  N   VAL d   1      55.378   5.693  24.187  0.00  0.00    -0.344 N 
ATOM     29  H73 VAL d   1      55.171   5.242  23.319  0.00  0.00     0.163 HD
BRANCH  28  30
ATOM     30  CA  VAL d   1      56.692   6.320  24.362  0.00  0.00     0.099 C 
ATOM     31  H74 VAL d   1      57.059   6.075  25.369  0.00  0.00     0.090 H 
BRANCH  30  32
ATOM     32  C   VAL d   1      56.603   7.831  24.237  0.00  0.00     0.197 C 
ATOM     33  O   VAL d   1      57.610   8.568  24.468  0.00  0.00    -0.646 OA
ATOM     34  OXT VAL d   1      55.505   8.372  23.912  0.00  0.00    -0.646 OA
ENDBRANCH  30  32
BRANCH  30  35
ATOM     35  CB  VAL d   1      57.694   5.777  23.328  0.00  0.00    -0.032 C 
ATOM     36  H75 VAL d   1      58.684   6.210  23.536  0.00  0.00     0.042 H 
BRANCH  35  37
ATOM     37  CG1 VAL d   1      57.794   4.225  23.436  0.00  0.00    -0.071 C 
ATOM     38  H76 VAL d   1      58.513   3.851  22.692  0.00  0.00     0.028 H 
ATOM     39  H77 VAL d   1      56.806   3.780  23.247  0.00  0.00     0.028 H 
ATOM     40  H78 VAL d   1      58.134   3.949  24.445  0.00  0.00     0.028 H 
ENDBRANCH  35  37
BRANCH  35  41
ATOM     41  CG2 VAL d   1      57.287   6.164  21.972  0.00  0.00    -0.071 C 
ATOM     42  H79 VAL d   1      57.220   7.260  21.908  0.00  0.00     0.028 H 
ATOM     43  H80 VAL d   1      56.306   5.723  21.744  0.00  0.00     0.028 H 
ATOM     44  H81 VAL d   1      58.030   5.799  21.248  0.00  0.00     0.028 H 
ENDBRANCH  35  41
ENDBRANCH  30  35
ENDBRANCH  28  30
ENDBRANCH  24  26
BRANCH  24  45
ATOM     45  CB  THR d   1      52.219   5.851  23.966  0.00  0.00     0.060 C 
ATOM     46  H68 THR d   1      52.690   6.040  22.990  0.00  0.00     0.086 H 
BRANCH  45  47
ATOM     47  OG1 THR d   1      51.968   7.108  24.626  0.00  0.00    -0.393 OA
ATOM     48  H69 THR d   1      51.386   7.635  24.091  0.00  0.00     0.210 HD
ENDBRANCH  45  47
BRANCH  45  49
ATOM     49  CG2 THR d   1      50.949   5.165  23.764  0.00  0.00    -0.050 C 
ATOM     50  H70 THR d   1      50.285   5.795  23.154  0.00  0.00     0.031 H 
ATOM     51  H71 THR d   1      50.478   4.971  24.739  0.00  0.00     0.031 H 
ATOM     52  H72 THR d   1      51.126   4.211  23.246  0.00  0.00     0.031 H 
ENDBRANCH  45  49
ENDBRANCH  24  45
ENDBRANCH  22  24
ENDBRANCH  18  20
BRANCH  18  53
ATOM     53  CB  LEU d   1      52.775   4.514  29.045  0.00  0.00    -0.035 C 
ATOM     54  H57 LEU d   1      52.868   5.431  28.444  0.00  0.00     0.037 H 
ATOM     55  H58 LEU d   1      53.749   4.268  29.493  0.00  0.00     0.037 H 
BRANCH  53  56
ATOM     56  CG  LEU d   1      51.809   4.802  30.175  0.00  0.00    -0.059 C 
ATOM     57  H59 LEU d   1      50.835   5.061  29.734  0.00  0.00     0.038 H 
BRANCH  56  58
ATOM     58  CD1 LEU d   1      51.604   3.563  31.071  0.00  0.00    -0.073 C 
ATOM     59  H60 LEU d   1      50.899   3.807  31.879  0.00  0.00     0.028 H 
ATOM     60  H61 LEU d   1      52.568   3.261  31.505  0.00  0.00     0.028 H 
ATOM     61  H62 LEU d   1      51.199   2.737  30.468  0.00  0.00     0.028 H 
ENDBRANCH  56  58
BRANCH  56  62
ATOM     62  CD2 LEU d   1      52.300   6.010  30.983  0.00  0.00    -0.073 C 
ATOM     63  H63 LEU d   1      52.434   6.871  30.311  0.00  0.00     0.028 H 
ATOM     64  H64 LEU d   1      53.260   5.766  31.461  0.00  0.00     0.028 H 
ATOM     65  H65 LEU d   1      51.558   6.260  31.756  0.00  0.00     0.028 H 
ENDBRANCH  56  62
ENDBRANCH  53  56
ENDBRANCH  18  53
ENDBRANCH  16  18
ENDBRANCH  12  14
BRANCH  12  66
ATOM     66  CB  ILE d   1      51.612  -1.313  28.961  0.00  0.00    -0.030 C 
ATOM     67  H46 ILE d   1      50.539  -1.215  29.181  0.00  0.00     0.043 H 
BRANCH  66  68
ATOM     68  CG1 ILE d   1      52.116  -2.615  29.580  0.00  0.00    -0.063 C 
ATOM     69  H47 ILE d   1      51.572  -3.450  29.115  0.00  0.00     0.033 H 
ATOM     70  H48 ILE d   1      51.898  -2.590  30.658  0.00  0.00     0.033 H 
BRANCH  68  71
ATOM     71  CD1 ILE d   1      53.626  -2.864  29.400  0.00  0.00    -0.076 C 
ATOM     72  H52 ILE d   1      53.899  -3.818  29.874  0.00  0.00     0.027 H 
ATOM     73  H53 ILE d   1      54.191  -2.046  29.870  0.00  0.00     0.027 H 
ATOM     74  H54 ILE d   1      53.865  -2.906  28.327  0.00  0.00     0.027 H 
ENDBRANCH  68  71
ENDBRANCH  66  68
BRANCH  66  75
ATOM     75  CG2 ILE d   1      51.794  -1.335  27.445  0.00  0.00    -0.071 C 
ATOM     76  H49 ILE d   1      51.426  -0.391  27.018  0.00  0.00     0.028 H 
ATOM     77  H50 ILE d   1      51.226  -2.176  27.020  0.00  0.00     0.028 H 
ATOM     78  H51 ILE d   1      52.861  -1.455  27.206  0.00  0.00     0.028 H 
ENDBRANCH  66  75
ENDBRANCH  12  66
ENDBRANCH  10  12
ENDBRANCH   5   8
ENDBRANCH   3   5
BRANCH   1  79
ATOM     79  CA  ILE d   1      49.600  -1.846  34.050  0.00  0.00     0.092 C 
ATOM     80  H31 ILE d   1      48.952  -1.072  33.612  0.00  0.00     0.088 H 
BRANCH  79  81
ATOM     81  N   ILE d   1      49.193  -3.128  33.557  0.00  0.00    -0.346 N 
ATOM     82  C   ALA d   1      47.960  -3.386  33.178  0.00  0.00     0.240 C 
ATOM     83  O   ALA d   1      47.056  -2.681  33.429  0.00  0.00    -0.271 OA
ATOM     84  H30 ILE d   1      49.875  -3.857  33.498  0.00  0.00     0.163 HD
BRANCH  82  85
ATOM     85  CA  ALA d   1      47.716  -4.758  32.581  0.00  0.00     0.086 C 
ATOM     86  H26 ALA d   1      47.536  -4.648  31.501  0.00  0.00     0.086 H 
BRANCH  85  87
ATOM     87  N   ALA d   1      48.905  -5.599  32.772  0.00  0.00    -0.346 N 
ATOM     88  C   ALA d   1      49.586  -6.089  31.754  0.00  0.00     0.240 C 
ATOM     89  O   ALA d   1      49.252  -5.936  30.589  0.00  0.00    -0.271 OA
ATOM     90  H25 ALA d   1      49.208  -5.806  33.702  0.00  0.00     0.163 HD
BRANCH  88  91
ATOM     91  CA  ALA d   1      50.801  -6.876  32.080  0.00  0.00     0.086 C 
ATOM     92  H21 ALA d   1      50.773  -7.204  33.130  0.00  0.00     0.086 H 
BRANCH  91  93
ATOM     93  N   ALA d   1      50.831  -8.057  31.181  0.00  0.00    -0.346 N 
ATOM     94  C   LEU d   1      49.898  -9.017  31.248  0.00  0.00     0.241 C 
ATOM     95  O   LEU d   1      48.963  -9.017  32.094  0.00  0.00    -0.271 OA
ATOM     96  H20 ALA d   1      51.566  -8.138  30.508  0.00  0.00     0.163 HD
BRANCH  94  97
ATOM     97  CA  LEU d   1      49.989 -10.095  30.197  0.00  0.00     0.089 C 
ATOM     98  H10 LEU d   1      51.047 -10.261  29.944  0.00  0.00     0.087 H 
BRANCH  97  99
ATOM     99  N   LEU d   1      49.420 -11.366  30.687  0.00  0.00    -0.346 N 
ATOM    100  C   GLU d   1      49.984 -12.017  31.693  0.00  0.00     0.249 C 
ATOM    101  O   GLU d   1      50.985 -11.583  32.287  0.00  0.00    -0.271 OA
ATOM    102  H9  LEU d   1      48.599 -11.740  30.254  0.00  0.00     0.163 HD
BRANCH 100 103
ATOM    103  CA  GLU d   1      49.296 -13.322  32.150  0.00  0.00     0.176 C 
ATOM    104  H4  GLU d   1      48.288 -13.362  31.713  0.00  0.00     0.099 H 
BRANCH 103 105
ATOM    105  N   GLU d   1      50.050 -14.510  31.716  0.00  0.00    -0.066 N 
ATOM    106  H1  GLU d   1      49.575 -15.342  32.029  0.00  0.00     0.275 HD
ATOM    107  H2  GLU d   1      50.977 -14.483  32.111  0.00  0.00     0.275 HD
ATOM    108  H3  GLU d   1      50.114 -14.518  30.710  0.00  0.00     0.275 HD
ENDBRANCH 103 105
BRANCH 103 109
ATOM    109  CB  GLU d   1      49.185 -13.333  33.675  0.00  0.00    -0.021 C 
ATOM    110  H5  GLU d   1      50.202 -13.376  34.092  0.00  0.00     0.037 H 
ATOM    111  H6  GLU d   1      48.629 -14.234  33.971  0.00  0.00     0.037 H 
BRANCH 109 112
ATOM    112  CG  GLU d   1      48.470 -12.107  34.279  0.00  0.00     0.018 C 
ATOM    113  H7  GLU d   1      48.918 -11.198  33.851  0.00  0.00     0.049 H 
ATOM    114  H8  GLU d   1      48.627 -12.115  35.368  0.00  0.00     0.049 H 
BRANCH 112 115
ATOM    115  CD  GLU d   1      46.987 -12.077  34.012  0.00  0.00     0.172 C 
ATOM    116  OE1 GLU d   1      46.406 -13.138  33.658  0.00  0.00    -0.648 OA
ATOM    117  OE2 GLU d   1      46.372 -11.031  34.297  0.00  0.00    -0.648 OA
ENDBRANCH 112 115
ENDBRANCH 109 112
ENDBRANCH 103 109
ENDBRANCH 100 103
ENDBRANCH  97  99
BRANCH  97 118
ATOM    118  CB  LEU d   1      49.240  -9.604  28.937  0.00  0.00    -0.035 C 
ATOM    119  H11 LEU d   1      49.593  -8.582  28.735  0.00  0.00     0.037 H 
ATOM    120  H12 LEU d   1      48.170  -9.579  29.192  0.00  0.00     0.037 H 
BRANCH 118 121
ATOM    121  CG  LEU d   1      49.363 -10.379  27.631  0.00  0.00    -0.059 C 
ATOM    122  H13 LEU d   1      49.161 -11.439  27.846  0.00  0.00     0.038 H 
BRANCH 121 123
ATOM    123  CD1 LEU d   1      48.319  -9.895  26.607  0.00  0.00    -0.073 C 
ATOM    124  H14 LEU d   1      48.427 -10.468  25.674  0.00  0.00     0.028 H 
ATOM    125  H15 LEU d   1      48.476  -8.826  26.401  0.00  0.00     0.028 H 
ATOM    126  H16 LEU d   1      47.308 -10.046  27.015  0.00  0.00     0.028 H 
ENDBRANCH 121 123
BRANCH 121 127
ATOM    127  CD2 LEU d   1      50.739 -10.279  27.078  0.00  0.00    -0.073 C 
ATOM    128  H17 LEU d   1      51.462 -10.630  27.829  0.00  0.00     0.028 H 
ATOM    129  H18 LEU d   1      50.956  -9.232  26.822  0.00  0.00     0.028 H 
ATOM    130  H19 LEU d   1      50.817 -10.901  26.174  0.00  0.00     0.028 H 
ENDBRANCH 121 127
ENDBRANCH 118 121
ENDBRANCH  97 118
ENDBRANCH  94  97
ENDBRANCH  91  93
BRANCH  91 131
ATOM    131  CB  ALA d   1      51.996  -6.022  31.852  0.00  0.00    -0.049 C 
ATOM    132  H22 ALA d   1      51.959  -5.152  32.525  0.00  0.00     0.030 H 
ATOM    133  H23 ALA d   1      52.007  -5.677  30.808  0.00  0.00     0.030 H 
ATOM    134  H24 ALA d   1      52.907  -6.604  32.055  0.00  0.00     0.030 H 
ENDBRANCH  91 131
ENDBRANCH  88  91
ENDBRANCH  85  87
BRANCH  85 135
ATOM    135  CB  ALA d   1      46.451  -5.405  33.229  0.00  0.00    -0.049 C 
ATOM    136  H27 ALA d   1      45.581  -4.751  33.068  0.00  0.00     0.030 H 
ATOM    137  H28 ALA d   1      46.617  -5.534  34.309  0.00  0.00     0.030 H 
ATOM    138  H29 ALA d   1      46.263  -6.385  32.767  0.00  0.00     0.030 H 
ENDBRANCH  85 135
ENDBRANCH  82  85
ENDBRANCH  79  81
BRANCH  79 139
ATOM    139  CB  ILE d   1      49.505  -1.758  35.545  0.00  0.00    -0.030 C 
ATOM    140  H32 ILE d   1      49.813  -0.746  35.846  0.00  0.00     0.043 H 
BRANCH 139 141
ATOM    141  CG1 ILE d   1      50.472  -2.768  36.226  0.00  0.00    -0.063 C 
ATOM    142  H33 ILE d   1      51.490  -2.582  35.855  0.00  0.00     0.033 H 
ATOM    143  H34 ILE d   1      50.163  -3.787  35.952  0.00  0.00     0.033 H 
BRANCH 141 144
ATOM    144  CD1 ILE d   1      50.484  -2.653  37.818  0.00  0.00    -0.076 C 
ATOM    145  H38 ILE d   1      51.185  -3.392  38.234  0.00  0.00     0.027 H 
ATOM    146  H39 ILE d   1      49.474  -2.847  38.207  0.00  0.00     0.027 H 
ATOM    147  H40 ILE d   1      50.801  -1.641  38.110  0.00  0.00     0.027 H 
ENDBRANCH 141 144
ENDBRANCH 139 141
BRANCH 139 148
ATOM    148  CG2 ILE d   1      47.998  -1.969  36.014  0.00  0.00    -0.071 C 
ATOM    149  H35 ILE d   1      47.351  -1.236  35.510  0.00  0.00     0.028 H 
ATOM    150  H36 ILE d   1      47.930  -1.830  37.103  0.00  0.00     0.028 H 
ATOM    151  H37 ILE d   1      47.672  -2.987  35.753  0.00  0.00     0.028 H 
ENDBRANCH 139 148
ENDBRANCH  79 139
ENDBRANCH   1  79
TORSDOF 47
