REMARK WARNING: 32 MAX_TORS EXCEEDED!!!
REMARK  43 active torsions:
REMARK  status: ('A' for Active; 'I' for Inactive)
REMARK    1  A    between atoms: N_1  and  CA_2 
REMARK    2  A    between atoms: CA_2  and  C_3 
REMARK    3  A    between atoms: CA_2  and  CB_5 
REMARK       I    between atoms: C_3  and  N_10 
REMARK    4  A    between atoms: CB_5  and  CG_6 
REMARK    5  A    between atoms: CG_6  and  CD_7 
REMARK    6  A    between atoms: N_10  and  CA_11 
REMARK    7  A    between atoms: CA_11  and  C_12 
REMARK    8  A    between atoms: CA_11  and  CB_14 
REMARK       I    between atoms: C_12  and  N_18 
REMARK    9  A    between atoms: CB_14  and  CG_15 
REMARK   10  A    between atoms: CG_15  and  CD1_16 
REMARK   11  A    between atoms: CG_15  and  CD2_17 
REMARK   12  A    between atoms: N_18  and  CA_19 
REMARK   13  A    between atoms: CA_19  and  C_20 
REMARK   14  A    between atoms: CA_19  and  CB_22 
REMARK       I    between atoms: C_20  and  N_23 
REMARK   15  A    between atoms: N_23  and  CA_24 
REMARK   16  A    between atoms: CA_24  and  C_25 
REMARK       I    between atoms: C_25  and  N_27 
REMARK   17  A    between atoms: N_27  and  CA_28 
REMARK   18  A    between atoms: CA_28  and  C_29 
REMARK   19  A    between atoms: CA_28  and  CB_31 
REMARK       I    between atoms: C_29  and  N_35 
REMARK   20  A    between atoms: CB_31  and  CG1_32 
REMARK   21  A    between atoms: CB_31  and  CG2_33 
REMARK   22  A    between atoms: CG1_32  and  CD1_34 
REMARK   23  A    between atoms: N_35  and  CA_36 
REMARK   24  A    between atoms: CA_36  and  C_37 
REMARK       I    between atoms: C_37  and  N_39 
REMARK   25  A    between atoms: N_39  and  CA_40 
REMARK   26  A    between atoms: CA_40  and  C_41 
REMARK   27  A    between atoms: CA_40  and  CB_43 
REMARK       I    between atoms: C_41  and  N_44 
REMARK   28  A    between atoms: N_44  and  CA_45 
REMARK   29  A    between atoms: CA_45  and  C_46 
REMARK   30  A    between atoms: CA_45  and  CB_48 
REMARK       I    between atoms: C_46  and  N_52 
REMARK   31  A    between atoms: CB_48  and  CG_49 
REMARK   32  A    between atoms: CG_49  and  CD1_50 
REMARK   33  A    between atoms: CG_49  and  CD2_51 
REMARK   34  A    between atoms: N_52  and  CA_53 
REMARK   35  A    between atoms: CA_53  and  C_54 
REMARK   36  A    between atoms: CA_53  and  CB_56 
REMARK       I    between atoms: C_54  and  N_59 
REMARK   37  A    between atoms: CB_56  and  OG1_57 
REMARK   38  A    between atoms: CB_56  and  CG2_58 
REMARK   39  A    between atoms: N_59  and  CA_60 
REMARK   40  A    between atoms: CA_60  and  C_61 
REMARK   41  A    between atoms: CA_60  and  CB_63 
REMARK   42  A    between atoms: CB_63  and  CG1_64 
REMARK   43  A    between atoms: CB_63  and  CG2_65 
ROOT
ATOM      1  CA  ILE d   1      49.437  -1.874  33.559  0.00  0.00     0.092 C 
ATOM      2  H29 ILE d   1      48.755  -1.142  33.102  0.00  0.00     0.088 H 
ENDROOT
BRANCH   1   3
ATOM      3  N   ILE d   1      49.030  -3.196  33.175  0.00  0.00    -0.346 N 
ATOM      4  C   GLY d   1      47.772  -3.498  32.949  0.00  0.00     0.236 C 
ATOM      5  O   GLY d   1      46.896  -2.725  33.091  0.00  0.00    -0.272 OA
ATOM      6  H28 ILE d   1      49.725  -3.908  33.077  0.00  0.00     0.163 HD
BRANCH   4   7
ATOM      7  CA  GLY d   1      47.493  -4.904  32.525  0.00  0.00     0.069 C 
ATOM      8  H26 GLY d   1      46.662  -5.303  33.126  0.00  0.00     0.078 H 
ATOM      9  H27 GLY d   1      47.212  -4.910  31.461  0.00  0.00     0.078 H 
BRANCH   7  10
ATOM     10  N   GLY d   1      48.677  -5.758  32.715  0.00  0.00    -0.351 N 
ATOM     11  C   ALA d   1      49.409  -6.195  31.686  0.00  0.00     0.240 C 
ATOM     12  O   ALA d   1      49.133  -5.948  30.514  0.00  0.00    -0.271 OA
ATOM     13  H25 GLY d   1      48.942  -6.019  33.643  0.00  0.00     0.163 HD
BRANCH  11  14
ATOM     14  CA  ALA d   1      50.612  -7.077  32.027  0.00  0.00     0.086 C 
ATOM     15  H21 ALA d   1      50.503  -7.481  33.044  0.00  0.00     0.086 H 
BRANCH  14  16
ATOM     16  N   ALA d   1      50.614  -8.154  31.071  0.00  0.00    -0.346 N 
ATOM     17  C   LEU d   1      49.707  -9.108  31.129  0.00  0.00     0.241 C 
ATOM     18  O   LEU d   1      48.875  -9.172  32.008  0.00  0.00    -0.271 OA
ATOM     19  H20 ALA d   1      51.312  -8.178  30.355  0.00  0.00     0.163 HD
BRANCH  17  20
ATOM     20  CA  LEU d   1      49.762 -10.128  30.066  0.00  0.00     0.089 C 
ATOM     21  H10 LEU d   1      50.811 -10.261  29.761  0.00  0.00     0.087 H 
BRANCH  20  22
ATOM     22  N   LEU d   1      49.252 -11.415  30.532  0.00  0.00    -0.346 N 
ATOM     23  C   GLU d   1      49.831 -12.077  31.539  0.00  0.00     0.249 C 
ATOM     24  O   GLU d   1      50.859 -11.661  32.136  0.00  0.00    -0.271 OA
ATOM     25  H9  LEU d   1      48.449 -11.811  30.086  0.00  0.00     0.163 HD
BRANCH  23  26
ATOM     26  CA  GLU d   1      49.195 -13.409  31.922  0.00  0.00     0.176 C 
ATOM     27  H4  GLU d   1      48.223 -13.524  31.421  0.00  0.00     0.099 H 
BRANCH  26  28
ATOM     28  N   GLU d   1      50.126 -14.456  31.484  0.00  0.00    -0.066 N 
ATOM     29  H1  GLU d   1      49.748 -15.361  31.716  0.00  0.00     0.275 HD
ATOM     30  H2  GLU d   1      51.012 -14.333  31.948  0.00  0.00     0.275 HD
ATOM     31  H3  GLU d   1      50.257 -14.393  30.487  0.00  0.00     0.275 HD
ENDBRANCH  26  28
BRANCH  26  32
ATOM     32  CB  GLU d   1      49.007 -13.498  33.427  0.00  0.00    -0.021 C 
ATOM     33  H5  GLU d   1      49.685 -12.771  33.898  0.00  0.00     0.037 H 
ATOM     34  H6  GLU d   1      49.281 -14.515  33.745  0.00  0.00     0.037 H 
BRANCH  32  35
ATOM     35  CG  GLU d   1      47.565 -13.208  33.932  0.00  0.00     0.018 C 
ATOM     36  H7  GLU d   1      47.531 -13.421  35.011  0.00  0.00     0.049 H 
ATOM     37  H8  GLU d   1      46.875 -13.882  33.403  0.00  0.00     0.049 H 
BRANCH  35  38
ATOM     38  CD  GLU d   1      47.105 -11.822  33.722  0.00  0.00     0.172 C 
ATOM     39  OE1 GLU d   1      46.050 -11.461  34.302  0.00  0.00    -0.648 OA
ATOM     40  OE2 GLU d   1      47.778 -11.074  32.999  0.00  0.00    -0.648 OA
ENDBRANCH  35  38
ENDBRANCH  32  35
ENDBRANCH  26  32
ENDBRANCH  23  26
ENDBRANCH  20  22
BRANCH  20  41
ATOM     41  CB  LEU d   1      48.952  -9.639  28.855  0.00  0.00    -0.035 C 
ATOM     42  H11 LEU d   1      49.139  -8.561  28.744  0.00  0.00     0.037 H 
ATOM     43  H12 LEU d   1      47.888  -9.806  29.078  0.00  0.00     0.037 H 
BRANCH  41  44
ATOM     44  CG  LEU d   1      49.250 -10.299  27.511  0.00  0.00    -0.059 C 
ATOM     45  H13 LEU d   1      49.293 -11.388  27.658  0.00  0.00     0.038 H 
BRANCH  44  46
ATOM     46  CD1 LEU d   1      48.183 -10.006  26.530  0.00  0.00    -0.073 C 
ATOM     47  H14 LEU d   1      48.422 -10.492  25.573  0.00  0.00     0.028 H 
ATOM     48  H15 LEU d   1      48.110  -8.919  26.381  0.00  0.00     0.028 H 
ATOM     49  H16 LEU d   1      47.223 -10.389  26.907  0.00  0.00     0.028 H 
ENDBRANCH  44  46
BRANCH  44  50
ATOM     50  CD2 LEU d   1      50.555  -9.843  27.018  0.00  0.00    -0.073 C 
ATOM     51  H17 LEU d   1      51.330 -10.072  27.765  0.00  0.00     0.028 H 
ATOM     52  H18 LEU d   1      50.523  -8.757  26.845  0.00  0.00     0.028 H 
ATOM     53  H19 LEU d   1      50.791 -10.358  26.075  0.00  0.00     0.028 H 
ENDBRANCH  44  50
ENDBRANCH  41  44
ENDBRANCH  20  41
ENDBRANCH  17  20
ENDBRANCH  14  16
BRANCH  14  54
ATOM     54  CB  ALA d   1      51.890  -6.290  31.946  0.00  0.00    -0.049 C 
ATOM     55  H22 ALA d   1      51.866  -5.474  32.684  0.00  0.00     0.030 H 
ATOM     56  H23 ALA d   1      51.997  -5.868  30.936  0.00  0.00     0.030 H 
ATOM     57  H24 ALA d   1      52.742  -6.952  32.159  0.00  0.00     0.030 H 
ENDBRANCH  14  54
ENDBRANCH  11  14
ENDBRANCH   7  10
ENDBRANCH   4   7
ENDBRANCH   1   3
BRANCH   1  58
ATOM     58  C   ILE d   1      50.816  -1.640  33.078  0.00  0.00     0.241 C 
ATOM     59  O   ILE d   1      51.492  -2.563  32.665  0.00  0.00    -0.271 OA
ATOM     60  N   GLY d   1      51.240  -0.388  33.108  0.00  0.00    -0.351 N 
ATOM     61  H39 GLY d   1      50.609   0.330  33.401  0.00  0.00     0.163 HD
BRANCH  60  62
ATOM     62  CA  GLY d   1      52.626  -0.014  32.720  0.00  0.00     0.069 C 
ATOM     63  H40 GLY d   1      53.312  -0.724  33.206  0.00  0.00     0.078 H 
ATOM     64  H41 GLY d   1      52.817   1.000  33.101  0.00  0.00     0.078 H 
BRANCH  62  65
ATOM     65  C   GLY d   1      52.936  -0.015  31.250  0.00  0.00     0.236 C 
ATOM     66  O   GLY d   1      54.080   0.190  30.863  0.00  0.00    -0.272 OA
ATOM     67  N   ALA d   1      51.925  -0.230  30.420  0.00  0.00    -0.347 N 
ATOM     68  H42 ALA d   1      51.011  -0.389  30.793  0.00  0.00     0.163 HD
BRANCH  67  69
ATOM     69  CA  ALA d   1      52.118  -0.239  28.980  0.00  0.00     0.086 C 
ATOM     70  H43 ALA d   1      53.192  -0.338  28.763  0.00  0.00     0.086 H 
BRANCH  69  71
ATOM     71  C   ALA d   1      51.619   1.054  28.394  0.00  0.00     0.240 C 
ATOM     72  O   ALA d   1      50.420   1.243  28.224  0.00  0.00    -0.271 OA
ATOM     73  N   LEU d   1      52.535   1.959  28.099  0.00  0.00    -0.346 N 
ATOM     74  H47 LEU d   1      53.498   1.758  28.279  0.00  0.00     0.163 HD
BRANCH  73  75
ATOM     75  CA  LEU d   1      52.176   3.220  27.528  0.00  0.00     0.089 C 
ATOM     76  H48 LEU d   1      51.086   3.231  27.379  0.00  0.00     0.087 H 
BRANCH  75  77
ATOM     77  C   LEU d   1      52.845   3.444  26.202  0.00  0.00     0.241 C 
ATOM     78  O   LEU d   1      53.777   2.700  25.825  0.00  0.00    -0.271 OA
ATOM     79  N   THR d   1      52.373   4.476  25.471  0.00  0.00    -0.344 N 
ATOM     80  H58 THR d   1      51.599   5.007  25.814  0.00  0.00     0.163 HD
BRANCH  79  81
ATOM     81  CA  THR d   1      52.967   4.826  24.202  0.00  0.00     0.113 C 
ATOM     82  H59 THR d   1      53.209   3.905  23.652  0.00  0.00     0.091 H 
BRANCH  81  83
ATOM     83  C   THR d   1      54.203   5.573  24.505  0.00  0.00     0.243 C 
ATOM     84  O   THR d   1      54.277   6.273  25.517  0.00  0.00    -0.271 OA
ATOM     85  N   VAL d   1      55.191   5.423  23.632  0.00  0.00    -0.344 N 
ATOM     86  H65 VAL d   1      55.043   4.828  22.842  0.00  0.00     0.163 HD
BRANCH  85  87
ATOM     87  CA  VAL d   1      56.458   6.073  23.769  0.00  0.00     0.099 C 
ATOM     88  H66 VAL d   1      56.853   5.851  24.771  0.00  0.00     0.090 H 
BRANCH  87  89
ATOM     89  C   VAL d   1      56.325   7.629  23.624  0.00  0.00     0.197 C 
ATOM     90  O   VAL d   1      57.288   8.421  23.899  0.00  0.00    -0.646 OA
ATOM     91  OXT VAL d   1      55.263   8.135  23.243  0.00  0.00    -0.646 OA
ENDBRANCH  87  89
BRANCH  87  92
ATOM     92  CB  VAL d   1      57.460   5.526  22.707  0.00  0.00    -0.032 C 
ATOM     93  H67 VAL d   1      58.406   6.080  22.802  0.00  0.00     0.042 H 
BRANCH  92  94
ATOM     94  CG1 VAL d   1      57.741   4.043  22.951  0.00  0.00    -0.071 C 
ATOM     95  H68 VAL d   1      58.449   3.675  22.194  0.00  0.00     0.028 H 
ATOM     96  H69 VAL d   1      56.801   3.475  22.882  0.00  0.00     0.028 H 
ATOM     97  H70 VAL d   1      58.175   3.912  23.953  0.00  0.00     0.028 H 
ENDBRANCH  92  94
BRANCH  92  98
ATOM     98  CG2 VAL d   1      56.928   5.736  21.339  0.00  0.00    -0.071 C 
ATOM     99  H71 VAL d   1      56.732   6.807  21.182  0.00  0.00     0.028 H 
ATOM    100  H72 VAL d   1      55.992   5.171  21.219  0.00  0.00     0.028 H 
ATOM    101  H73 VAL d   1      57.665   5.386  20.601  0.00  0.00     0.028 H 
ENDBRANCH  92  98
ENDBRANCH  87  92
ENDBRANCH  85  87
ENDBRANCH  81  83
BRANCH  81 102
ATOM    102  CB  THR d   1      52.032   5.727  23.292  0.00  0.00     0.060 C 
ATOM    103  H60 THR d   1      52.580   5.995  22.376  0.00  0.00     0.086 H 
BRANCH 102 104
ATOM    104  OG1 THR d   1      51.671   6.916  23.987  0.00  0.00    -0.393 OA
ATOM    105  H61 THR d   1      52.456   7.404  24.207  0.00  0.00     0.210 HD
ENDBRANCH 102 104
BRANCH 102 106
ATOM    106  CG2 THR d   1      50.823   5.016  22.930  0.00  0.00    -0.050 C 
ATOM    107  H62 THR d   1      50.193   5.661  22.300  0.00  0.00     0.031 H 
ATOM    108  H63 THR d   1      50.272   4.742  23.842  0.00  0.00     0.031 H 
ATOM    109  H64 THR d   1      51.086   4.105  22.373  0.00  0.00     0.031 H 
ENDBRANCH 102 106
ENDBRANCH  81 102
ENDBRANCH  79  81
ENDBRANCH  75  77
BRANCH  75 110
ATOM    110  CB  LEU d   1      52.555   4.360  28.453  0.00  0.00    -0.035 C 
ATOM    111  H49 LEU d   1      52.262   5.295  27.953  0.00  0.00     0.037 H 
ATOM    112  H50 LEU d   1      53.648   4.334  28.570  0.00  0.00     0.037 H 
BRANCH 110 113
ATOM    113  CG  LEU d   1      51.963   4.389  29.829  0.00  0.00    -0.059 C 
ATOM    114  H51 LEU d   1      52.529   3.720  30.494  0.00  0.00     0.038 H 
BRANCH 113 115
ATOM    115  CD1 LEU d   1      52.056   5.835  30.343  0.00  0.00    -0.073 C 
ATOM    116  H52 LEU d   1      51.629   5.893  31.355  0.00  0.00     0.028 H 
ATOM    117  H53 LEU d   1      51.495   6.500  29.670  0.00  0.00     0.028 H 
ATOM    118  H54 LEU d   1      53.111   6.147  30.372  0.00  0.00     0.028 H 
ENDBRANCH 113 115
BRANCH 113 119
ATOM    119  CD2 LEU d   1      50.558   3.954  29.782  0.00  0.00    -0.073 C 
ATOM    120  H55 LEU d   1      50.507   2.919  29.413  0.00  0.00     0.028 H 
ATOM    121  H56 LEU d   1      49.993   4.613  29.106  0.00  0.00     0.028 H 
ATOM    122  H57 LEU d   1      50.124   4.005  30.792  0.00  0.00     0.028 H 
ENDBRANCH 113 119
ENDBRANCH 110 113
ENDBRANCH  75 110
ENDBRANCH  73  75
ENDBRANCH  69  71
BRANCH  69 123
ATOM    123  CB  ALA d   1      51.399  -1.389  28.378  0.00  0.00    -0.049 C 
ATOM    124  H44 ALA d   1      51.551  -1.387  27.289  0.00  0.00     0.030 H 
ATOM    125  H45 ALA d   1      50.325  -1.306  28.598  0.00  0.00     0.030 H 
ATOM    126  H46 ALA d   1      51.788  -2.327  28.801  0.00  0.00     0.030 H 
ENDBRANCH  69 123
ENDBRANCH  67  69
ENDBRANCH  62  65
ENDBRANCH  60  62
ENDBRANCH   1  58
BRANCH   1 127
ATOM    127  CB  ILE d   1      49.424  -1.689  35.090  0.00  0.00    -0.030 C 
ATOM    128  H30 ILE d   1      49.728  -0.655  35.312  0.00  0.00     0.043 H 
BRANCH 127 129
ATOM    129  CG1 ILE d   1      50.429  -2.631  35.757  0.00  0.00    -0.063 C 
ATOM    130  H31 ILE d   1      51.430  -2.405  35.361  0.00  0.00     0.033 H 
ATOM    131  H32 ILE d   1      50.157  -3.665  35.499  0.00  0.00     0.033 H 
BRANCH 129 132
ATOM    132  CD1 ILE d   1      50.478  -2.511  37.294  0.00  0.00    -0.076 C 
ATOM    133  H36 ILE d   1      51.221  -3.217  37.693  0.00  0.00     0.027 H 
ATOM    134  H37 ILE d   1      49.488  -2.745  37.712  0.00  0.00     0.027 H 
ATOM    135  H38 ILE d   1      50.761  -1.485  37.573  0.00  0.00     0.027 H 
ENDBRANCH 129 132
ENDBRANCH 127 129
BRANCH 127 136
ATOM    136  CG2 ILE d   1      48.021  -1.897  35.647  0.00  0.00    -0.071 C 
ATOM    137  H33 ILE d   1      47.323  -1.208  35.149  0.00  0.00     0.028 H 
ATOM    138  H34 ILE d   1      48.023  -1.699  36.729  0.00  0.00     0.028 H 
ATOM    139  H35 ILE d   1      47.704  -2.934  35.465  0.00  0.00     0.028 H 
ENDBRANCH 127 136
ENDBRANCH   1 127
TORSDOF 43
