REMARK WARNING: 32 MAX_TORS EXCEEDED!!!
REMARK  46 active torsions:
REMARK  status: ('A' for Active; 'I' for Inactive)
REMARK    1  A    between atoms: N_1  and  CA_2 
REMARK    2  A    between atoms: CA_2  and  C_3 
REMARK    3  A    between atoms: CA_2  and  CB_5 
REMARK       I    between atoms: C_3  and  N_10 
REMARK    4  A    between atoms: CB_5  and  CG_6 
REMARK    5  A    between atoms: CG_6  and  CD_7 
REMARK    6  A    between atoms: N_10  and  CA_11 
REMARK    7  A    between atoms: CA_11  and  C_12 
REMARK    8  A    between atoms: CA_11  and  CB_14 
REMARK       I    between atoms: C_12  and  N_18 
REMARK    9  A    between atoms: CB_14  and  CG_15 
REMARK   10  A    between atoms: CG_15  and  CD1_16 
REMARK   11  A    between atoms: CG_15  and  CD2_17 
REMARK   12  A    between atoms: N_18  and  CA_19 
REMARK   13  A    between atoms: CA_19  and  C_20 
REMARK   14  A    between atoms: CA_19  and  CB_22 
REMARK       I    between atoms: C_20  and  N_23 
REMARK   15  A    between atoms: N_23  and  CA_24 
REMARK   16  A    between atoms: CA_24  and  C_25 
REMARK       I    between atoms: C_25  and  N_27 
REMARK   17  A    between atoms: N_27  and  CA_28 
REMARK   18  A    between atoms: CA_28  and  C_29 
REMARK   19  A    between atoms: CA_28  and  CB_31 
REMARK       I    between atoms: C_29  and  N_35 
REMARK   20  A    between atoms: CB_31  and  CG1_32 
REMARK   21  A    between atoms: CB_31  and  CG2_33 
REMARK   22  A    between atoms: CG1_32  and  CD1_34 
REMARK   23  A    between atoms: N_35  and  CA_36 
REMARK   24  A    between atoms: CA_36  and  C_37 
REMARK       I    between atoms: C_37  and  N_39 
REMARK   25  A    between atoms: N_39  and  CA_40 
REMARK   26  A    between atoms: CA_40  and  C_41 
REMARK   27  A    between atoms: CA_40  and  CB_43 
REMARK       I    between atoms: C_41  and  N_47 
REMARK   28  A    between atoms: CB_43  and  CG1_44 
REMARK   29  A    between atoms: CB_43  and  CG2_45 
REMARK   30  A    between atoms: CG1_44  and  CD1_46 
REMARK   31  A    between atoms: N_47  and  CA_48 
REMARK   32  A    between atoms: CA_48  and  C_49 
REMARK   33  A    between atoms: CA_48  and  CB_51 
REMARK       I    between atoms: C_49  and  N_55 
REMARK   34  A    between atoms: CB_51  and  CG_52 
REMARK   35  A    between atoms: CG_52  and  CD1_53 
REMARK   36  A    between atoms: CG_52  and  CD2_54 
REMARK   37  A    between atoms: N_55  and  CA_56 
REMARK   38  A    between atoms: CA_56  and  C_57 
REMARK   39  A    between atoms: CA_56  and  CB_59 
REMARK       I    between atoms: C_57  and  N_62 
REMARK   40  A    between atoms: CB_59  and  OG1_60 
REMARK   41  A    between atoms: CB_59  and  CG2_61 
REMARK   42  A    between atoms: N_62  and  CA_63 
REMARK   43  A    between atoms: CA_63  and  C_64 
REMARK   44  A    between atoms: CA_63  and  CB_66 
REMARK   45  A    between atoms: CB_66  and  CG1_67 
REMARK   46  A    between atoms: CB_66  and  CG2_68 
ROOT
ATOM      1  N   GLY d   1      51.402  -0.323  33.335  0.00  0.00    -0.351 N 
ATOM      2  H39 GLY d   1      50.788   0.396  33.660  0.00  0.00     0.163 HD
ATOM      3  C   ILE d   1      50.952  -1.567  33.255  0.00  0.00     0.241 C 
ATOM      4  O   ILE d   1      51.606  -2.471  32.731  0.00  0.00    -0.271 OA
ENDROOT
BRANCH   1   5
ATOM      5  CA  GLY d   1      52.778   0.030  32.960  0.00  0.00     0.069 C 
ATOM      6  H40 GLY d   1      53.453  -0.663  33.482  0.00  0.00     0.078 H 
ATOM      7  H41 GLY d   1      52.965   1.056  33.309  0.00  0.00     0.078 H 
BRANCH   5   8
ATOM      8  C   GLY d   1      53.119  -0.022  31.484  0.00  0.00     0.236 C 
ATOM      9  O   GLY d   1      54.328   0.084  31.108  0.00  0.00    -0.272 OA
ATOM     10  N   ILE d   1      52.076  -0.108  30.626  0.00  0.00    -0.346 N 
ATOM     11  H42 ILE d   1      51.149  -0.154  30.997  0.00  0.00     0.163 HD
BRANCH  10  12
ATOM     12  CA  ILE d   1      52.255  -0.136  29.185  0.00  0.00     0.092 C 
ATOM     13  H43 ILE d   1      53.321  -0.282  28.958  0.00  0.00     0.088 H 
BRANCH  12  14
ATOM     14  C   ILE d   1      51.765   1.198  28.562  0.00  0.00     0.241 C 
ATOM     15  O   ILE d   1      50.554   1.392  28.362  0.00  0.00    -0.271 OA
ATOM     16  N   LEU d   1      52.692   2.081  28.213  0.00  0.00    -0.346 N 
ATOM     17  H53 LEU d   1      53.659   1.857  28.337  0.00  0.00     0.163 HD
BRANCH  16  18
ATOM     18  CA  LEU d   1      52.324   3.360  27.657  0.00  0.00     0.089 C 
ATOM     19  H54 LEU d   1      51.239   3.352  27.475  0.00  0.00     0.087 H 
BRANCH  18  20
ATOM     20  C   LEU d   1      53.038   3.657  26.345  0.00  0.00     0.241 C 
ATOM     21  O   LEU d   1      54.061   3.078  26.058  0.00  0.00    -0.271 OA
ATOM     22  N   THR d   1      52.535   4.658  25.620  0.00  0.00    -0.344 N 
ATOM     23  H64 THR d   1      51.721   5.135  25.953  0.00  0.00     0.163 HD
BRANCH  22  24
ATOM     24  CA  THR d   1      53.127   5.074  24.372  0.00  0.00     0.113 C 
ATOM     25  H65 THR d   1      53.281   4.188  23.738  0.00  0.00     0.091 H 
BRANCH  24  26
ATOM     26  C   THR d   1      54.490   5.747  24.668  0.00  0.00     0.243 C 
ATOM     27  O   THR d   1      54.701   6.320  25.777  0.00  0.00    -0.271 OA
ATOM     28  N   VAL d   1      55.419   5.629  23.731  0.00  0.00    -0.344 N 
ATOM     29  H71 VAL d   1      55.212   5.123  22.894  0.00  0.00     0.163 HD
BRANCH  28  30
ATOM     30  CA  VAL d   1      56.729   6.222  23.901  0.00  0.00     0.099 C 
ATOM     31  H72 VAL d   1      57.095   5.978  24.909  0.00  0.00     0.090 H 
BRANCH  30  32
ATOM     32  C   VAL d   1      56.615   7.719  23.770  0.00  0.00     0.197 C 
ATOM     33  O   VAL d   1      57.576   8.472  24.137  0.00  0.00    -0.646 OA
ATOM     34  OXT VAL d   1      55.502   8.236  23.386  0.00  0.00    -0.646 OA
ENDBRANCH  30  32
BRANCH  30  35
ATOM     35  CB  VAL d   1      57.710   5.704  22.904  0.00  0.00    -0.032 C 
ATOM     36  H73 VAL d   1      58.700   6.120  23.141  0.00  0.00     0.042 H 
BRANCH  35  37
ATOM     37  CG1 VAL d   1      57.793   4.143  23.001  0.00  0.00    -0.071 C 
ATOM     38  H74 VAL d   1      58.518   3.768  22.264  0.00  0.00     0.028 H 
ATOM     39  H75 VAL d   1      56.803   3.710  22.795  0.00  0.00     0.028 H 
ATOM     40  H76 VAL d   1      58.117   3.855  24.012  0.00  0.00     0.028 H 
ENDBRANCH  35  37
BRANCH  35  41
ATOM     41  CG2 VAL d   1      57.335   6.142  21.504  0.00  0.00    -0.071 C 
ATOM     42  H77 VAL d   1      57.284   7.240  21.465  0.00  0.00     0.028 H 
ATOM     43  H78 VAL d   1      56.355   5.720  21.238  0.00  0.00     0.028 H 
ATOM     44  H79 VAL d   1      58.094   5.785  20.792  0.00  0.00     0.028 H 
ENDBRANCH  35  41
ENDBRANCH  30  35
ENDBRANCH  28  30
ENDBRANCH  24  26
BRANCH  24  45
ATOM     45  CB  THR d   1      52.243   6.084  23.616  0.00  0.00     0.060 C 
ATOM     46  H66 THR d   1      52.232   7.036  24.166  0.00  0.00     0.086 H 
BRANCH  45  47
ATOM     47  OG1 THR d   1      50.914   5.584  23.507  0.00  0.00    -0.393 OA
ATOM     48  H67 THR d   1      50.377   6.213  23.040  0.00  0.00     0.210 HD
ENDBRANCH  45  47
BRANCH  45  49
ATOM     49  CG2 THR d   1      52.786   6.314  22.223  0.00  0.00    -0.050 C 
ATOM     50  H68 THR d   1      52.146   7.036  21.695  0.00  0.00     0.031 H 
ATOM     51  H69 THR d   1      52.797   5.362  21.672  0.00  0.00     0.031 H 
ATOM     52  H70 THR d   1      53.810   6.711  22.289  0.00  0.00     0.031 H 
ENDBRANCH  45  49
ENDBRANCH  24  45
ENDBRANCH  22  24
ENDBRANCH  18  20
BRANCH  18  53
ATOM     53  CB  LEU d   1      52.658   4.490  28.619  0.00  0.00    -0.035 C 
ATOM     54  H55 LEU d   1      52.206   5.399  28.196  0.00  0.00     0.037 H 
ATOM     55  H56 LEU d   1      53.754   4.588  28.612  0.00  0.00     0.037 H 
BRANCH  53  56
ATOM     56  CG  LEU d   1      52.247   4.447  30.064  0.00  0.00    -0.059 C 
ATOM     57  H57 LEU d   1      53.035   3.953  30.651  0.00  0.00     0.038 H 
BRANCH  56  58
ATOM     58  CD1 LEU d   1      52.109   5.919  30.509  0.00  0.00    -0.073 C 
ATOM     59  H58 LEU d   1      51.808   5.956  31.566  0.00  0.00     0.028 H 
ATOM     60  H59 LEU d   1      51.347   6.418  29.893  0.00  0.00     0.028 H 
ATOM     61  H60 LEU d   1      53.074   6.432  30.385  0.00  0.00     0.028 H 
ENDBRANCH  56  58
BRANCH  56  62
ATOM     62  CD2 LEU d   1      50.950   3.703  30.288  0.00  0.00    -0.073 C 
ATOM     63  H61 LEU d   1      51.067   2.658  29.966  0.00  0.00     0.028 H 
ATOM     64  H62 LEU d   1      50.148   4.179  29.704  0.00  0.00     0.028 H 
ATOM     65  H63 LEU d   1      50.691   3.731  31.357  0.00  0.00     0.028 H 
ENDBRANCH  56  62
ENDBRANCH  53  56
ENDBRANCH  18  53
ENDBRANCH  16  18
ENDBRANCH  12  14
BRANCH  12  66
ATOM     66  CB  ILE d   1      51.437  -1.268  28.555  0.00  0.00    -0.030 C 
ATOM     67  H44 ILE d   1      50.377  -1.101  28.795  0.00  0.00     0.043 H 
BRANCH  66  68
ATOM     68  CG1 ILE d   1      51.846  -2.621  29.137  0.00  0.00    -0.063 C 
ATOM     69  H45 ILE d   1      51.289  -3.406  28.605  0.00  0.00     0.033 H 
ATOM     70  H46 ILE d   1      51.571  -2.634  30.202  0.00  0.00     0.033 H 
BRANCH  68  71
ATOM     71  CD1 ILE d   1      53.334  -2.934  29.026  0.00  0.00    -0.076 C 
ATOM     72  H50 ILE d   1      53.535  -3.921  29.468  0.00  0.00     0.027 H 
ATOM     73  H51 ILE d   1      53.911  -2.167  29.564  0.00  0.00     0.027 H 
ATOM     74  H52 ILE d   1      53.630  -2.939  27.966  0.00  0.00     0.027 H 
ENDBRANCH  68  71
ENDBRANCH  66  68
BRANCH  66  75
ATOM     75  CG2 ILE d   1      51.586  -1.251  27.064  0.00  0.00    -0.071 C 
ATOM     76  H47 ILE d   1      51.285  -0.267  26.677  0.00  0.00     0.028 H 
ATOM     77  H48 ILE d   1      50.947  -2.030  26.623  0.00  0.00     0.028 H 
ATOM     78  H49 ILE d   1      52.636  -1.444  26.798  0.00  0.00     0.028 H 
ENDBRANCH  66  75
ENDBRANCH  12  66
ENDBRANCH  10  12
ENDBRANCH   5   8
ENDBRANCH   1   5
BRANCH   3  79
ATOM     79  CA  ILE d   1      49.478  -1.823  33.743  0.00  0.00     0.092 C 
ATOM     80  H29 ILE d   1      48.803  -1.071  33.310  0.00  0.00     0.088 H 
BRANCH  79  81
ATOM     81  N   ILE d   1      49.082  -3.137  33.294  0.00  0.00    -0.346 N 
ATOM     82  C   GLY d   1      47.851  -3.451  32.905  0.00  0.00     0.236 C 
ATOM     83  O   GLY d   1      46.903  -2.721  33.047  0.00  0.00    -0.272 OA
ATOM     84  H28 ILE d   1      49.778  -3.855  33.275  0.00  0.00     0.163 HD
BRANCH  82  85
ATOM     85  CA  GLY d   1      47.655  -4.881  32.402  0.00  0.00     0.069 C 
ATOM     86  H26 GLY d   1      46.872  -5.367  33.002  0.00  0.00     0.078 H 
ATOM     87  H27 GLY d   1      47.344  -4.850  31.347  0.00  0.00     0.078 H 
BRANCH  85  88
ATOM     88  N   GLY d   1      48.868  -5.643  32.510  0.00  0.00    -0.351 N 
ATOM     89  C   ALA d   1      49.542  -6.051  31.434  0.00  0.00     0.240 C 
ATOM     90  O   ALA d   1      49.149  -5.884  30.285  0.00  0.00    -0.271 OA
ATOM     91  H25 GLY d   1      49.217  -5.874  33.418  0.00  0.00     0.163 HD
BRANCH  89  92
ATOM     92  CA  ALA d   1      50.791  -6.804  31.683  0.00  0.00     0.086 C 
ATOM     93  H21 ALA d   1      50.842  -7.129  32.733  0.00  0.00     0.086 H 
BRANCH  92  94
ATOM     94  N   ALA d   1      50.764  -7.947  30.807  0.00  0.00    -0.346 N 
ATOM     95  C   LEU d   1      49.895  -8.917  30.951  0.00  0.00     0.241 C 
ATOM     96  O   LEU d   1      49.072  -8.958  31.876  0.00  0.00    -0.271 OA
ATOM     97  H20 ALA d   1      51.431  -8.002  30.064  0.00  0.00     0.163 HD
BRANCH  95  98
ATOM     98  CA  LEU d   1      49.943 -10.001  29.887  0.00  0.00     0.089 C 
ATOM     99  H10 LEU d   1      50.990 -10.180  29.602  0.00  0.00     0.087 H 
BRANCH  98 100
ATOM    100  N   LEU d   1      49.381 -11.229  30.388  0.00  0.00    -0.346 N 
ATOM    101  C   GLU d   1      49.993 -11.946  31.342  0.00  0.00     0.249 C 
ATOM    102  O   GLU d   1      51.034 -11.593  31.874  0.00  0.00    -0.271 OA
ATOM    103  H9  LEU d   1      48.512 -11.555  30.015  0.00  0.00     0.163 HD
BRANCH 101 104
ATOM    104  CA  GLU d   1      49.272 -13.203  31.816  0.00  0.00     0.176 C 
ATOM    105  H4  GLU d   1      48.261 -13.225  31.384  0.00  0.00     0.099 H 
BRANCH 104 106
ATOM    106  N   GLU d   1      49.998 -14.425  31.403  0.00  0.00    -0.066 N 
ATOM    107  H1  GLU d   1      49.500 -15.238  31.729  0.00  0.00     0.275 HD
ATOM    108  H2  GLU d   1      50.924 -14.416  31.801  0.00  0.00     0.275 HD
ATOM    109  H3  GLU d   1      50.065 -14.453  30.398  0.00  0.00     0.275 HD
ENDBRANCH 104 106
BRANCH 104 110
ATOM    110  CB  GLU d   1      49.178 -13.156  33.318  0.00  0.00    -0.021 C 
ATOM    111  H5  GLU d   1      50.197 -13.208  33.728  0.00  0.00     0.037 H 
ATOM    112  H6  GLU d   1      48.603 -14.031  33.654  0.00  0.00     0.037 H 
BRANCH 110 113
ATOM    113  CG  GLU d   1      48.503 -11.899  33.871  0.00  0.00     0.018 C 
ATOM    114  H7  GLU d   1      48.905 -11.023  33.340  0.00  0.00     0.049 H 
ATOM    115  H8  GLU d   1      48.738 -11.818  34.943  0.00  0.00     0.049 H 
BRANCH 113 116
ATOM    116  CD  GLU d   1      47.012 -11.912  33.709  0.00  0.00     0.172 C 
ATOM    117  OE1 GLU d   1      46.471 -12.944  33.273  0.00  0.00    -0.648 OA
ATOM    118  OE2 GLU d   1      46.372 -10.931  34.129  0.00  0.00    -0.648 OA
ENDBRANCH 113 116
ENDBRANCH 110 113
ENDBRANCH 104 110
ENDBRANCH 101 104
ENDBRANCH  98 100
BRANCH  98 119
ATOM    119  CB  LEU d   1      49.157  -9.519  28.654  0.00  0.00    -0.035 C 
ATOM    120  H11 LEU d   1      49.488  -8.492  28.438  0.00  0.00     0.037 H 
ATOM    121  H12 LEU d   1      48.092  -9.511  28.930  0.00  0.00     0.037 H 
BRANCH 119 122
ATOM    122  CG  LEU d   1      49.280 -10.311  27.364  0.00  0.00    -0.059 C 
ATOM    123  H13 LEU d   1      49.273 -11.380  27.621  0.00  0.00     0.038 H 
BRANCH 122 124
ATOM    124  CD1 LEU d   1      48.090 -10.044  26.432  0.00  0.00    -0.073 C 
ATOM    125  H14 LEU d   1      48.208 -10.631  25.509  0.00  0.00     0.028 H 
ATOM    126  H15 LEU d   1      48.052  -8.973  26.183  0.00  0.00     0.028 H 
ATOM    127  H16 LEU d   1      47.157 -10.337  26.936  0.00  0.00     0.028 H 
ENDBRANCH 122 124
BRANCH 122 128
ATOM    128  CD2 LEU d   1      50.557 -10.013  26.694  0.00  0.00    -0.073 C 
ATOM    129  H17 LEU d   1      51.389 -10.213  27.385  0.00  0.00     0.028 H 
ATOM    130  H18 LEU d   1      50.576  -8.955  26.395  0.00  0.00     0.028 H 
ATOM    131  H19 LEU d   1      50.660 -10.648  25.802  0.00  0.00     0.028 H 
ENDBRANCH 122 128
ENDBRANCH 119 122
ENDBRANCH  98 119
ENDBRANCH  95  98
ENDBRANCH  92  94
BRANCH  92 132
ATOM    132  CB  ALA d   1      51.952  -5.942  31.369  0.00  0.00    -0.049 C 
ATOM    133  H22 ALA d   1      51.958  -5.075  32.046  0.00  0.00     0.030 H 
ATOM    134  H23 ALA d   1      51.880  -5.594  30.328  0.00  0.00     0.030 H 
ATOM    135  H24 ALA d   1      52.881  -6.516  31.500  0.00  0.00     0.030 H 
ENDBRANCH  92 132
ENDBRANCH  89  92
ENDBRANCH  85  88
ENDBRANCH  82  85
ENDBRANCH  79  81
BRANCH  79 136
ATOM    136  CB  ILE d   1      49.443  -1.713  35.267  0.00  0.00    -0.030 C 
ATOM    137  H30 ILE d   1      49.744  -0.691  35.541  0.00  0.00     0.043 H 
BRANCH 136 138
ATOM    138  CG1 ILE d   1      50.442  -2.691  35.912  0.00  0.00    -0.063 C 
ATOM    139  H31 ILE d   1      51.452  -2.440  35.556  0.00  0.00     0.033 H 
ATOM    140  H32 ILE d   1      50.184  -3.711  35.592  0.00  0.00     0.033 H 
BRANCH 138 141
ATOM    141  CD1 ILE d   1      50.446  -2.651  37.450  0.00  0.00    -0.076 C 
ATOM    142  H36 ILE d   1      51.181  -3.373  37.834  0.00  0.00     0.027 H 
ATOM    143  H37 ILE d   1      49.446  -2.911  37.826  0.00  0.00     0.027 H 
ATOM    144  H38 ILE d   1      50.714  -1.640  37.790  0.00  0.00     0.027 H 
ENDBRANCH 138 141
ENDBRANCH 136 138
BRANCH 136 145
ATOM    145  CG2 ILE d   1      47.989  -1.954  35.815  0.00  0.00    -0.071 C 
ATOM    146  H33 ILE d   1      47.296  -1.244  35.340  0.00  0.00     0.028 H 
ATOM    147  H34 ILE d   1      47.978  -1.803  36.905  0.00  0.00     0.028 H 
ATOM    148  H35 ILE d   1      47.676  -2.983  35.584  0.00  0.00     0.028 H 
ENDBRANCH 136 145
ENDBRANCH  79 136
ENDBRANCH   3  79
TORSDOF 46
