REMARK  12 active torsions:
REMARK  status: ('A' for Active; 'I' for Inactive)
REMARK    1  A    between atoms: C5_9  and  O2_10 
REMARK    2  A    between atoms: O2_10  and  C27_11 
REMARK    3  A    between atoms: C3_13  and  O1_14 
REMARK    4  A    between atoms: O1_14  and  C26_15 
REMARK       I    between atoms: N17_22  and  C18_23 
REMARK    5  A    between atoms: C18_23  and  C19_25 
REMARK    6  A    between atoms: C19_25  and  C20_27 
REMARK    7  A    between atoms: C24_30  and  O8_31 
REMARK    8  A    between atoms: O8_31  and  C30_32 
REMARK    9  A    between atoms: C23_33  and  O7_34 
REMARK   10  A    between atoms: O7_34  and  C29_35 
REMARK   11  A    between atoms: C22_36  and  O6_37 
REMARK   12  A    between atoms: O6_37  and  C28_38 
ROOT
ATOM      1  O3  1KT d   1      33.084  13.047 -16.990  0.00  0.00    -0.271 OA
ATOM      2  C11 1KT d   1      32.010  12.571 -17.259  0.00  0.00     0.243 C 
ATOM      3  C12 1KT d   1      30.854  13.166 -16.703  0.00  0.00     0.093 C 
ATOM      4  N10 1KT d   1      31.883  11.438 -17.997  0.00  0.00    -0.339 N 
ATOM      5  C9  1KT d   1      32.993  10.904 -18.787  0.00  0.00     0.002 C 
ATOM      6  C8  1KT d   1      32.674  11.593 -20.193  0.00  0.00    -0.025 C 
ATOM      7  C7  1KT d   1      31.354  11.064 -20.697  0.00  0.00    -0.043 A 
ATOM      8  C6  1KT d   1      31.102  10.914 -22.041  0.00  0.00    -0.044 A 
ATOM      9  C5  1KT d   1      29.890  10.382 -22.472  0.00  0.00     0.071 A 
ATOM     10  C4  1KT d   1      28.959   9.865 -21.587  0.00  0.00    -0.018 A 
ATOM     11  C3  1KT d   1      29.228   9.971 -20.234  0.00  0.00     0.079 A 
ATOM     12  C2  1KT d   1      30.409  10.607 -19.759  0.00  0.00     0.007 A 
ATOM     13  C1  1KT d   1      30.630  10.729 -18.268  0.00  0.00     0.063 C 
ATOM     14  C16 1KT d   1      29.454  11.393 -17.504  0.00  0.00     0.040 C 
ATOM     15  C15 1KT d   1      29.247  10.867 -16.104  0.00  0.00    -0.044 C 
ATOM     16  C14 1KT d   1      30.362  11.250 -15.188  0.00  0.00    -0.061 C 
ATOM     17  C13 1KT d   1      30.683  12.736 -15.269  0.00  0.00    -0.037 C 
ATOM     18  N17 1KT d   1      29.657  12.858 -17.474  0.00  0.00    -0.325 N 
ATOM     19  C18 1KT d   1      28.837  13.764 -18.064  0.00  0.00     0.295 C 
ATOM     20  O4  1KT d   1      29.116  15.010 -18.020  0.00  0.00    -0.264 OA
ATOM     21  H1  1KT d   1      30.994  14.257 -16.720  0.00  0.00     0.087 H 
ATOM     22  H2  1KT d   1      32.960   9.806 -18.851  0.00  0.00     0.064 H 
ATOM     23  H3  1KT d   1      33.969  11.219 -18.388  0.00  0.00     0.064 H 
ATOM     24  H4  1KT d   1      33.470  11.352 -20.913  0.00  0.00     0.042 H 
ATOM     25  H5  1KT d   1      32.612  12.684 -20.066  0.00  0.00     0.042 H 
ATOM     26  H6  1KT d   1      31.850  11.211 -22.767  0.00  0.00     0.088 H 
ATOM     27  H10 1KT d   1      28.050   9.393 -21.942  0.00  0.00     0.092 H 
ATOM     28  H14 1KT d   1      30.732   9.707 -17.874  0.00  0.00     0.084 H 
ATOM     29  H15 1KT d   1      28.534  11.184 -18.070  0.00  0.00     0.076 H 
ATOM     30  H16 1KT d   1      29.182   9.770 -16.144  0.00  0.00     0.036 H 
ATOM     31  H17 1KT d   1      28.306  11.276 -15.707  0.00  0.00     0.036 H 
ATOM     32  H18 1KT d   1      31.260  10.677 -15.463  0.00  0.00     0.033 H 
ATOM     33  H19 1KT d   1      30.073  11.005 -14.155  0.00  0.00     0.033 H 
ATOM     34  H20 1KT d   1      29.860  13.308 -14.816  0.00  0.00     0.036 H 
ATOM     35  H21 1KT d   1      31.614  12.935 -14.719  0.00  0.00     0.036 H 
ENDROOT
BRANCH  19  36
ATOM     36  C19 1KT d   1      27.586  13.288 -18.742  0.00  0.00     0.249 C 
ATOM     37  O5  1KT d   1      26.645  13.026 -18.023  0.00  0.00    -0.281 OA
BRANCH  36  38
ATOM     38  C20 1KT d   1      27.569  13.199 -20.202  0.00  0.00     0.025 A 
ATOM     39  C21 1KT d   1      28.688  13.684 -20.928  0.00  0.00    -0.034 A 
ATOM     40  C22 1KT d   1      28.604  13.596 -22.334  0.00  0.00     0.105 A 
ATOM     41  H22 1KT d   1      29.558  14.098 -20.431  0.00  0.00     0.089 H 
ATOM     42  C23 1KT d   1      27.483  13.084 -22.965  0.00  0.00     0.135 A 
ATOM     43  C24 1KT d   1      26.397  12.590 -22.224  0.00  0.00     0.105 A 
ATOM     44  C25 1KT d   1      26.438  12.632 -20.826  0.00  0.00    -0.034 A 
ATOM     45  H23 1KT d   1      25.619  12.238 -20.236  0.00  0.00     0.089 H 
BRANCH  40  46
ATOM     46  O6  1KT d   1      29.599  13.973 -23.160  0.00  0.00    -0.353 OA
BRANCH  46  47
ATOM     47  C28 1KT d   1      30.746  14.513 -22.555  0.00  0.00     0.010 C 
ATOM     48  H30 1KT d   1      31.479  14.779 -23.331  0.00  0.00     0.066 H 
ATOM     49  H31 1KT d   1      31.186  13.769 -21.875  0.00  0.00     0.066 H 
ATOM     50  H32 1KT d   1      30.471  15.413 -21.986  0.00  0.00     0.066 H 
ENDBRANCH  46  47
ENDBRANCH  40  46
BRANCH  42  51
ATOM     51  O7  1KT d   1      27.477  13.068 -24.369  0.00  0.00    -0.351 OA
BRANCH  51  52
ATOM     52  C29 1KT d   1      26.969  11.906 -25.051  0.00  0.00     0.011 C 
ATOM     53  H27 1KT d   1      27.037  12.060 -26.138  0.00  0.00     0.067 H 
ATOM     54  H28 1KT d   1      25.918  11.745 -24.769  0.00  0.00     0.067 H 
ATOM     55  H29 1KT d   1      27.564  11.025 -24.767  0.00  0.00     0.067 H 
ENDBRANCH  51  52
ENDBRANCH  42  51
BRANCH  43  56
ATOM     56  O8  1KT d   1      25.304  12.079 -22.896  0.00  0.00    -0.353 OA
BRANCH  56  57
ATOM     57  C30 1KT d   1      24.143  11.672 -22.180  0.00  0.00     0.010 C 
ATOM     58  H24 1KT d   1      23.389  11.296 -22.887  0.00  0.00     0.066 H 
ATOM     59  H25 1KT d   1      23.733  12.531 -21.628  0.00  0.00     0.066 H 
ATOM     60  H26 1KT d   1      24.410  10.874 -21.471  0.00  0.00     0.066 H 
ENDBRANCH  56  57
ENDBRANCH  43  56
ENDBRANCH  36  38
ENDBRANCH  19  36
BRANCH  11  61
ATOM     61  O1  1KT d   1      28.451   9.433 -19.287  0.00  0.00    -0.355 OA
BRANCH  61  62
ATOM     62  C26 1KT d   1      27.211   8.715 -19.697  0.00  0.00     0.010 C 
ATOM     63  H11 1KT d   1      26.693   8.337 -18.803  0.00  0.00     0.066 H 
ATOM     64  H12 1KT d   1      27.475   7.871 -20.352  0.00  0.00     0.066 H 
ATOM     65  H13 1KT d   1      26.549   9.406 -20.239  0.00  0.00     0.066 H 
ENDBRANCH  61  62
ENDBRANCH  11  61
BRANCH   9  66
ATOM     66  O2  1KT d   1      29.608  10.239 -23.822  0.00  0.00    -0.356 OA
BRANCH  66  67
ATOM     67  C27 1KT d   1      30.578  10.857 -24.673  0.00  0.00     0.010 C 
ATOM     68  H7  1KT d   1      30.293  10.705 -25.724  0.00  0.00     0.066 H 
ATOM     69  H8  1KT d   1      31.565  10.406 -24.492  0.00  0.00     0.066 H 
ATOM     70  H9  1KT d   1      30.622  11.935 -24.457  0.00  0.00     0.066 H 
ENDBRANCH  66  67
ENDBRANCH   9  66
TORSDOF 12
