REMARK  10 active torsions:
REMARK  status: ('A' for Active; 'I' for Inactive)
REMARK    1  A    between atoms: N_2  and  SAY_25 
REMARK    2  A    between atoms: OAB_7  and  CAA_6 
REMARK    3  A    between atoms: CAC_8  and  OAB_7 
REMARK    4  A    between atoms: CAE_10  and  OAF_11 
REMARK    5  A    between atoms: OAF_11  and  CAG_12 
REMARK    6  A    between atoms: OAK_16  and  CAJ_15 
REMARK    7  A    between atoms: CAL_17  and  OAK_16 
REMARK    8  A    between atoms: CAM_18  and  CAL_17 
REMARK    9  A    between atoms: CAM_18  and  NAN_19 
REMARK   10  A    between atoms: SAY_25  and  CBB_28 
ROOT
ATOM      1  C   1KU d   1       9.760  40.078  17.940  0.00  0.00     0.243 C 
ATOM      2  N   1KU d   1      12.196  40.352  18.135  0.00  0.00    -0.288 N 
ATOM      3  O   1KU d   1       8.678  40.393  17.466  0.00  0.00    -0.271 OA
ATOM      4  CA  1KU d   1      11.002  40.708  17.316  0.00  0.00     0.100 C 
ATOM      5  CB  1KU d   1      11.104  40.270  15.860  0.00  0.00    -0.037 C 
ATOM      6  NAN 1KU d   1       9.703  39.224  18.970  0.00  0.00    -0.348 N 
ATOM      7  CAQ 1KU d   1      10.918  38.749  19.659  0.00  0.00    -0.000 C 
ATOM      8  CAR 1KU d   1      11.835  37.997  18.689  0.00  0.00    -0.030 C 
ATOM      9  CAS 1KU d   1      12.736  38.976  17.927  0.00  0.00     0.025 C 
ATOM     10  CAT 1KU d   1      12.778  38.546  16.463  0.00  0.00    -0.045 C 
ATOM     11  CAU 1KU d   1      11.428  38.789  15.806  0.00  0.00    -0.061 C 
ATOM     12  H1  1KU d   1      10.893  41.802  17.334  0.00  0.00     0.088 H 
ATOM     13  H2  1KU d   1      11.901  40.839  15.360  0.00  0.00     0.036 H 
ATOM     14  H3  1KU d   1      10.146  40.456  15.352  0.00  0.00     0.036 H 
ATOM     15  H17 1KU d   1      10.628  38.074  20.477  0.00  0.00     0.064 H 
ATOM     16  H18 1KU d   1      11.460  39.613  20.071  0.00  0.00     0.064 H 
ATOM     17  H19 1KU d   1      11.219  37.438  17.969  0.00  0.00     0.038 H 
ATOM     18  H20 1KU d   1      12.463  37.295  19.257  0.00  0.00     0.038 H 
ATOM     19  H21 1KU d   1      13.757  38.934  18.333  0.00  0.00     0.073 H 
ATOM     20  H22 1KU d   1      13.023  37.475  16.406  0.00  0.00     0.036 H 
ATOM     21  H23 1KU d   1      13.549  39.127  15.935  0.00  0.00     0.036 H 
ATOM     22  H24 1KU d   1      11.465  38.459  14.757  0.00  0.00     0.033 H 
ATOM     23  H25 1KU d   1      10.652  38.223  16.341  0.00  0.00     0.033 H 
ENDROOT
BRANCH   6  24
ATOM     24  CAM 1KU d   1       8.393  38.683  19.404  0.00  0.00     0.018 C 
ATOM     25  H15 1KU d   1       7.640  38.956  18.650  0.00  0.00     0.067 H 
ATOM     26  H16 1KU d   1       8.474  37.587  19.462  0.00  0.00     0.067 H 
BRANCH  24  27
ATOM     27  CAL 1KU d   1       7.922  39.202  20.764  0.00  0.00     0.041 C 
ATOM     28  H13 1KU d   1       7.040  38.623  21.075  0.00  0.00     0.077 H 
ATOM     29  H14 1KU d   1       8.732  39.058  21.495  0.00  0.00     0.077 H 
BRANCH  27  30
ATOM     30  OAK 1KU d   1       7.570  40.596  20.738  0.00  0.00    -0.349 OA
BRANCH  30  31
ATOM     31  CAJ 1KU d   1       6.380  40.946  20.152  0.00  0.00     0.071 A 
ATOM     32  CAD 1KU d   1       5.943  42.260  20.285  0.00  0.00    -0.016 A 
ATOM     33  CAC 1KU d   1       4.751  42.679  19.708  0.00  0.00     0.104 A 
ATOM     34  H7  1KU d   1       6.542  42.967  20.847  0.00  0.00     0.092 H 
ATOM     35  CAE 1KU d   1       3.969  41.784  18.993  0.00  0.00     0.101 A 
ATOM     36  CAH 1KU d   1       4.399  40.466  18.860  0.00  0.00    -0.045 A 
ATOM     37  CAI 1KU d   1       5.599  40.045  19.434  0.00  0.00    -0.048 A 
ATOM     38  H11 1KU d   1       3.794  39.759  18.304  0.00  0.00     0.088 H 
ATOM     39  H12 1KU d   1       5.923  39.017  19.321  0.00  0.00     0.087 H 
BRANCH  33  40
ATOM     40  OAB 1KU d   1       4.327  43.962  19.842  0.00  0.00    -0.353 OA
BRANCH  40  41
ATOM     41  CAA 1KU d   1       5.349  44.820  20.345  0.00  0.00     0.010 C 
ATOM     42  H4  1KU d   1       4.957  45.844  20.435  0.00  0.00     0.066 H 
ATOM     43  H5  1KU d   1       6.205  44.815  19.654  0.00  0.00     0.066 H 
ATOM     44  H6  1KU d   1       5.673  44.464  21.334  0.00  0.00     0.066 H 
ENDBRANCH  40  41
ENDBRANCH  33  40
BRANCH  35  45
ATOM     45  OAF 1KU d   1       2.801  42.225  18.435  0.00  0.00    -0.353 OA
BRANCH  45  46
ATOM     46  CAG 1KU d   1       1.760  41.257  18.546  0.00  0.00     0.010 C 
ATOM     47  H8  1KU d   1       0.842  41.651  18.086  0.00  0.00     0.066 H 
ATOM     48  H9  1KU d   1       1.574  41.039  19.608  0.00  0.00     0.066 H 
ATOM     49  H10 1KU d   1       2.061  40.334  18.030  0.00  0.00     0.066 H 
ENDBRANCH  45  46
ENDBRANCH  35  45
ENDBRANCH  30  31
ENDBRANCH  27  30
ENDBRANCH  24  27
ENDBRANCH   6  24
BRANCH   2  50
ATOM     50  SAY 1KU d   1      13.374  41.550  18.223  0.00  0.00     0.262 S 
ATOM     51  OAZ 1KU d   1      12.770  42.846  17.825  0.00  0.00    -0.200 OA
ATOM     52  OBA 1KU d   1      14.580  41.190  17.414  0.00  0.00    -0.200 OA
BRANCH  50  53
ATOM     53  CBB 1KU d   1      13.803  41.576  19.916  0.00  0.00     0.081 A 
ATOM     54  CBC 1KU d   1      14.920  40.884  20.332  0.00  0.00    -0.042 A 
ATOM     55  CBD 1KU d   1      15.303  40.860  21.670  0.00  0.00     0.036 A 
ATOM     56  H26 1KU d   1      15.513  40.347  19.601  0.00  0.00     0.088 H 
ATOM     57  SBE 1KU d   1      16.590  40.132  22.483  0.00  0.00    -0.081 SA
ATOM     58  CBH 1KU d   1      14.553  41.546  22.631  0.00  0.00     0.074 A 
ATOM     59  CBF 1KU d   1      16.169  40.697  24.019  0.00  0.00     0.041 A 
ATOM     60  NBG 1KU d   1      15.053  41.431  23.881  0.00  0.00    -0.253 NA
ATOM     61  H27 1KU d   1      16.703  40.502  24.948  0.00  0.00     0.126 H 
ATOM     62  CBI 1KU d   1      13.422  42.243  22.205  0.00  0.00    -0.052 A 
ATOM     63  CBJ 1KU d   1      13.049  42.251  20.863  0.00  0.00    -0.058 A 
ATOM     64  H28 1KU d   1      12.825  42.786  22.929  0.00  0.00     0.087 H 
ATOM     65  H29 1KU d   1      12.160  42.791  20.556  0.00  0.00     0.086 H 
ENDBRANCH  50  53
ENDBRANCH   2  50
TORSDOF 10
