REMARK  10 active torsions:
REMARK  status: ('A' for Active; 'I' for Inactive)
REMARK    1  A    between atoms: SBJ_36  and  N_2 
REMARK    2  A    between atoms: OAT_23  and  CAA_6 
REMARK    3  A    between atoms: OAU_24  and  CAB_7 
REMARK    4  A    between atoms: CAQ_20  and  CAN_18 
REMARK    5  A    between atoms: CAN_18  and  OAV_25 
REMARK    6  A    between atoms: NBH_35  and  CAQ_20 
REMARK    7  A    between atoms: CBA_29  and  OAT_23 
REMARK    8  A    between atoms: CBB_30  and  OAU_24 
REMARK    9  A    between atoms: OAV_25  and  CAY_27 
REMARK   10  A    between atoms: CAZ_28  and  SBJ_36 
ROOT
ATOM      1  C   1KY d   1      11.291 -14.279 -17.528  0.00  0.00     0.238 C 
ATOM      2  N   1KY d   1       9.130 -13.832 -18.061  0.00  0.00    -0.187 NA
ATOM      3  O   1KY d   1      12.415 -13.847 -17.291  0.00  0.00    -0.272 OA
ATOM      4  CA  1KY d   1      10.172 -13.593 -17.054  0.00  0.00     0.087 C 
ATOM      5  CB  1KY d   1       9.781 -14.085 -15.684  0.00  0.00    -0.041 C 
ATOM      6  CAM 1KY d   1       9.674 -15.551 -15.742  0.00  0.00    -0.062 C 
ATOM      7  CAO 1KY d   1       8.490 -15.806 -16.662  0.00  0.00    -0.048 C 
ATOM      8  CAR 1KY d   1       9.919 -16.013 -18.702  0.00  0.00     0.013 C 
ATOM      9  CBF 1KY d   1       8.770 -15.249 -18.058  0.00  0.00     0.025 C 
ATOM     10  NBH 1KY d   1      11.194 -15.361 -18.337  0.00  0.00    -0.347 N 
ATOM     11  H1  1KY d   1      10.387 -12.516 -16.991  0.00  0.00     0.080 H 
ATOM     12  H2  1KY d   1       8.813 -13.651 -15.394  0.00  0.00     0.036 H 
ATOM     13  H3  1KY d   1      10.548 -13.795 -14.950  0.00  0.00     0.036 H 
ATOM     14  H16 1KY d   1       9.487 -15.968 -14.741  0.00  0.00     0.033 H 
ATOM     15  H17 1KY d   1      10.592 -15.992 -16.157  0.00  0.00     0.033 H 
ATOM     16  H20 1KY d   1       7.597 -15.315 -16.248  0.00  0.00     0.035 H 
ATOM     17  H21 1KY d   1       8.313 -16.889 -16.733  0.00  0.00     0.035 H 
ATOM     18  H24 1KY d   1       9.800 -16.005 -19.796  0.00  0.00     0.066 H 
ATOM     19  H25 1KY d   1       9.919 -17.052 -18.341  0.00  0.00     0.066 H 
ATOM     20  H27 1KY d   1       7.862 -15.380 -18.665  0.00  0.00     0.068 H 
ENDROOT
BRANCH  10  21
ATOM     21  CAQ 1KY d   1      12.465 -15.990 -18.801  0.00  0.00     0.018 C 
ATOM     22  H22 1KY d   1      13.257 -15.742 -18.079  0.00  0.00     0.067 H 
ATOM     23  H23 1KY d   1      12.321 -17.080 -18.827  0.00  0.00     0.067 H 
BRANCH  21  24
ATOM     24  CAN 1KY d   1      12.924 -15.526 -20.205  0.00  0.00     0.041 C 
ATOM     25  H18 1KY d   1      12.127 -15.720 -20.937  0.00  0.00     0.077 H 
ATOM     26  H19 1KY d   1      13.831 -16.075 -20.497  0.00  0.00     0.077 H 
BRANCH  24  27
ATOM     27  OAV 1KY d   1      13.202 -14.134 -20.159  0.00  0.00    -0.349 OA
BRANCH  27  28
ATOM     28  CAY 1KY d   1      14.467 -13.752 -19.782  0.00  0.00     0.071 A 
ATOM     29  CAG 1KY d   1      15.392 -14.656 -19.274  0.00  0.00    -0.048 A 
ATOM     30  CAH 1KY d   1      16.665 -14.228 -18.895  0.00  0.00    -0.045 A 
ATOM     31  H10 1KY d   1      15.123 -15.701 -19.171  0.00  0.00     0.087 H 
ATOM     32  CBA 1KY d   1      17.021 -12.888 -19.019  0.00  0.00     0.101 A 
ATOM     33  H11 1KY d   1      17.380 -14.942 -18.502  0.00  0.00     0.088 H 
ATOM     34  CBB 1KY d   1      16.107 -11.988 -19.526  0.00  0.00     0.104 A 
ATOM     35  CAK 1KY d   1      14.844 -12.416 -19.901  0.00  0.00    -0.016 A 
ATOM     36  H14 1KY d   1      14.135 -11.697 -20.295  0.00  0.00     0.092 H 
BRANCH  32  37
ATOM     37  OAT 1KY d   1      18.238 -12.369 -18.678  0.00  0.00    -0.353 OA
BRANCH  37  38
ATOM     38  CAA 1KY d   1      18.991 -13.240 -17.835  0.00  0.00     0.010 C 
ATOM     39  H4  1KY d   1      19.957 -12.772 -17.594  0.00  0.00     0.066 H 
ATOM     40  H5  1KY d   1      19.165 -14.194 -18.355  0.00  0.00     0.066 H 
ATOM     41  H6  1KY d   1      18.432 -13.425 -16.906  0.00  0.00     0.066 H 
ENDBRANCH  37  38
ENDBRANCH  32  37
BRANCH  34  42
ATOM     42  OAU 1KY d   1      16.508 -10.690 -19.628  0.00  0.00    -0.353 OA
BRANCH  42  43
ATOM     43  CAB 1KY d   1      16.925 -10.400 -20.967  0.00  0.00     0.010 C 
ATOM     44  H7  1KY d   1      17.245  -9.350 -21.032  0.00  0.00     0.066 H 
ATOM     45  H8  1KY d   1      16.086 -10.571 -21.657  0.00  0.00     0.066 H 
ATOM     46  H9  1KY d   1      17.764 -11.057 -21.240  0.00  0.00     0.066 H 
ENDBRANCH  42  43
ENDBRANCH  34  42
ENDBRANCH  27  28
ENDBRANCH  24  27
ENDBRANCH  21  24
ENDBRANCH  10  21
BRANCH   2  47
ATOM     47  SBJ 1KY d   1       7.784 -12.737 -18.089  0.00  0.00     0.244 S 
ATOM     48  OAE 1KY d   1       8.245 -11.369 -17.621  0.00  0.00    -0.206 OA
ATOM     49  OAF 1KY d   1       6.600 -13.254 -17.277  0.00  0.00    -0.206 OA
BRANCH  47  50
ATOM     50  CAZ 1KY d   1       7.300 -12.714 -19.825  0.00  0.00     0.076 A 
ATOM     51  CAI 1KY d   1       7.951 -11.986 -20.803  0.00  0.00    -0.059 A 
ATOM     52  CAJ 1KY d   1       7.496 -12.056 -22.114  0.00  0.00    -0.054 A 
ATOM     53  H12 1KY d   1       8.805 -11.368 -20.551  0.00  0.00     0.086 H 
ATOM     54  CBD 1KY d   1       6.455 -12.815 -22.454  0.00  0.00     0.052 A 
ATOM     55  H13 1KY d   1       8.001 -11.478 -22.880  0.00  0.00     0.087 H 
ATOM     56  NAS 1KY d   1       5.914 -12.974 -23.681  0.00  0.00    -0.316 N 
ATOM     57  CBE 1KY d   1       5.833 -13.530 -21.503  0.00  0.00     0.038 A 
ATOM     58  CBC 1KY d   1       4.872 -13.808 -23.698  0.00  0.00     0.289 A 
ATOM     59  H26 1KY d   1       6.260 -12.512 -24.497  0.00  0.00     0.170 HD
ATOM     60  OAD 1KY d   1       4.221 -14.107 -24.698  0.00  0.00    -0.260 OA
ATOM     61  SAW 1KY d   1       4.594 -14.360 -22.234  0.00  0.00    -0.027 SA
ATOM     62  CAL 1KY d   1       6.239 -13.487 -20.233  0.00  0.00    -0.042 A 
ATOM     63  H15 1KY d   1       5.713 -14.083 -19.496  0.00  0.00     0.088 H 
ENDBRANCH  47  50
ENDBRANCH   2  47
TORSDOF 10
