REMARK  6 active torsions:
REMARK  status: ('A' for Active; 'I' for Inactive)
REMARK    1  A    between atoms: CAP_1  and  OAO_2 
REMARK    2  A    between atoms: OAO_2  and  CAL_3 
REMARK    3  A    between atoms: CAI_8  and  CAC_9 
REMARK    4  A    between atoms: CAE_11  and  CAF_12 
REMARK    5  A    between atoms: CAA_13  and  OAH_14 
REMARK    6  A    between atoms: CAB_15  and  OAG_16 
ROOT
ATOM      1  CAC 1KN d   1     -16.661  11.321  31.754  0.00  0.00     0.154 C 
ATOM      2  NAD 1KN d   1     -17.362   9.991  32.065  0.00  0.00    -0.058 N 
ATOM      3  CAE 1KN d   1     -16.265   9.007  32.126  0.00  0.00     0.126 C 
ATOM      4  CAA 1KN d   1     -15.252   9.545  31.023  0.00  0.00     0.089 C 
ATOM      5  CAB 1KN d   1     -15.189  10.986  31.633  0.00  0.00     0.093 C 
ATOM      6  H8  1KN d   1     -17.015  11.719  30.791  0.00  0.00     0.096 H 
ATOM      7  H9  1KN d   1     -18.015   9.752  31.335  0.00  0.00     0.278 HD
ATOM      8  H10 1KN d   1     -17.847  10.040  32.947  0.00  0.00     0.278 HD
ATOM      9  H11 1KN d   1     -15.791   9.059  33.117  0.00  0.00     0.087 H 
ATOM     10  H15 1KN d   1     -14.273   9.044  31.048  0.00  0.00     0.090 H 
ATOM     11  H17 1KN d   1     -14.740  10.930  32.636  0.00  0.00     0.090 H 
ENDROOT
BRANCH   1  12
ATOM     12  CAI 1KN d   1     -16.987  12.263  32.771  0.00  0.00    -0.025 A 
ATOM     13  CAN 1KN d   1     -16.662  12.046  34.111  0.00  0.00    -0.072 A 
ATOM     14  CAM 1KN d   1     -17.037  12.966  35.092  0.00  0.00    -0.050 A 
ATOM     15  H5  1KN d   1     -16.113  11.155  34.393  0.00  0.00     0.084 H 
ATOM     16  CAL 1KN d   1     -17.767  14.094  34.743  0.00  0.00     0.068 A 
ATOM     17  H4  1KN d   1     -16.758  12.800  36.126  0.00  0.00     0.087 H 
ATOM     18  CAK 1KN d   1     -18.068  14.301  33.412  0.00  0.00    -0.050 A 
ATOM     19  CAJ 1KN d   1     -17.704  13.398  32.442  0.00  0.00    -0.072 A 
ATOM     20  H6  1KN d   1     -18.605  15.198  33.125  0.00  0.00     0.087 H 
ATOM     21  H7  1KN d   1     -17.982  13.578  31.410  0.00  0.00     0.084 H 
BRANCH  16  22
ATOM     22  OAO 1KN d   1     -18.163  15.056  35.645  0.00  0.00    -0.356 OA
BRANCH  22  23
ATOM     23  CAP 1KN d   1     -18.153  14.774  37.072  0.00  0.00     0.010 C 
ATOM     24  H1  1KN d   1     -18.500  15.660  37.623  0.00  0.00     0.066 H 
ATOM     25  H2  1KN d   1     -17.130  14.523  37.389  0.00  0.00     0.066 H 
ATOM     26  H3  1KN d   1     -18.821  13.926  37.283  0.00  0.00     0.066 H 
ENDBRANCH  22  23
ENDBRANCH  16  22
ENDBRANCH   1  12
BRANCH   5  27
ATOM     27  OAG 1KN d   1     -14.430  11.969  30.894  0.00  0.00    -0.390 OA
ATOM     28  H18 1KN d   1     -13.528  11.680  30.818  0.00  0.00     0.210 HD
ENDBRANCH   5  27
BRANCH   3  29
ATOM     29  CAF 1KN d   1     -16.671   7.567  31.902  0.00  0.00    -0.047 C 
ATOM     30  H12 1KN d   1     -15.783   6.921  31.968  0.00  0.00     0.030 H 
ATOM     31  H13 1KN d   1     -17.125   7.465  30.905  0.00  0.00     0.030 H 
ATOM     32  H14 1KN d   1     -17.400   7.268  32.670  0.00  0.00     0.030 H 
ENDBRANCH   3  29
BRANCH   4  33
ATOM     33  OAH 1KN d   1     -15.807   9.410  29.705  0.00  0.00    -0.391 OA
ATOM     34  H16 1KN d   1     -15.185   9.737  29.066  0.00  0.00     0.210 HD
ENDBRANCH   4  33
TORSDOF 6
