REMARK  9 active torsions:
REMARK  status: ('A' for Active; 'I' for Inactive)
REMARK    1  A    between atoms: CAC_2  and  OAP_1 
REMARK    2  A    between atoms: CAB_3  and  CAO_4 
REMARK    3  A    between atoms: CAF_9  and  CAE_6 
REMARK    4  A    between atoms: CAD_7  and  OAQ_8 
REMARK    5  A    between atoms: CAG_10  and  CAF_9 
REMARK    6  A    between atoms: NAH_11  and  CAG_10 
REMARK    7  A    between atoms: CAN_12  and  NAH_11 
REMARK    8  A    between atoms: CAJ_13  and  CAN_12 
REMARK    9  A    between atoms: CBK_22  and  CBL_21 
ROOT
ATOM      1  CAF H57 d   1      31.259   6.198  57.046  0.00  0.00    -0.013 C 
ATOM      2  H12 H57 d   1      32.283   6.383  56.690  0.00  0.00     0.038 H 
ATOM      3  H13 H57 d   1      31.264   5.360  57.759  0.00  0.00     0.038 H 
ENDROOT
BRANCH   1   4
ATOM      4  CAE H57 d   1      30.423   5.763  55.833  0.00  0.00     0.131 C 
ATOM      5  NAA H57 d   1      28.961   5.933  55.916  0.00  0.00    -0.062 N 
ATOM      6  CAB H57 d   1      28.314   4.608  55.868  0.00  0.00     0.126 C 
ATOM      7  H7  H57 d   1      28.724   6.393  56.781  0.00  0.00     0.278 HD
ATOM      8  H8  H57 d   1      28.642   6.492  55.140  0.00  0.00     0.278 HD
ATOM      9  CAC H57 d   1      29.189   3.914  54.812  0.00  0.00     0.089 C 
ATOM     10  H3  H57 d   1      28.417   4.097  56.837  0.00  0.00     0.087 H 
ATOM     11  CAD H57 d   1      30.514   4.255  55.500  0.00  0.00     0.089 C 
ATOM     12  H2  H57 d   1      29.033   2.827  54.746  0.00  0.00     0.090 H 
ATOM     13  H10 H57 d   1      30.553   3.701  56.450  0.00  0.00     0.090 H 
ATOM     14  H9  H57 d   1      30.798   6.348  54.980  0.00  0.00     0.088 H 
BRANCH   6  15
ATOM     15  CAO H57 d   1      26.833   4.668  55.541  0.00  0.00    -0.047 C 
ATOM     16  H4  H57 d   1      26.298   5.181  56.354  0.00  0.00     0.030 H 
ATOM     17  H5  H57 d   1      26.440   3.647  55.431  0.00  0.00     0.030 H 
ATOM     18  H6  H57 d   1      26.687   5.220  54.601  0.00  0.00     0.030 H 
ENDBRANCH   6  15
BRANCH   9  19
ATOM     19  OAP H57 d   1      28.911   4.506  53.543  0.00  0.00    -0.391 OA
ATOM     20  H1  H57 d   1      29.444   4.089  52.877  0.00  0.00     0.210 HD
ENDBRANCH   9  19
BRANCH  11  21
ATOM     21  OAQ H57 d   1      31.679   3.874  54.774  0.00  0.00    -0.391 OA
ATOM     22  H11 H57 d   1      31.657   2.938  54.611  0.00  0.00     0.210 HD
ENDBRANCH  11  21
ENDBRANCH   1   4
BRANCH   1  23
ATOM     23  CAG H57 d   1      30.810   7.445  57.811  0.00  0.00     0.084 C 
ATOM     24  H14 H57 d   1      29.799   7.255  58.201  0.00  0.00     0.075 H 
ATOM     25  H15 H57 d   1      30.777   8.283  57.099  0.00  0.00     0.075 H 
BRANCH  23  26
ATOM     26  NAH H57 d   1      31.691   7.862  58.981  0.00  0.00    -0.074 N 
ATOM     27  H16 H57 d   1      32.312   7.097  59.195  0.00  0.00     0.277 HD
ATOM     28  H17 H57 d   1      31.095   8.043  59.774  0.00  0.00     0.277 HD
BRANCH  26  29
ATOM     29  CAN H57 d   1      32.513   9.069  58.737  0.00  0.00     0.090 C 
ATOM     30  H18 H57 d   1      31.898   9.743  58.122  0.00  0.00     0.076 H 
ATOM     31  H19 H57 d   1      33.386   8.737  58.156  0.00  0.00     0.076 H 
BRANCH  29  32
ATOM     32  CAJ H57 d   1      33.051   9.903  59.872  0.00  0.00     0.009 C 
ATOM     33  CAK H57 d   1      33.121   9.580  61.250  0.00  0.00     0.000 A 
ATOM     34  CAL H57 d   1      33.551  10.761  61.891  0.00  0.00    -0.001 A 
ATOM     35 FE   H57 d   1      34.991  10.133  60.577  0.00  0.00     0.000 Fe
ATOM     36  CAM H57 d   1      33.801  11.760  60.919  0.00  0.00    -0.006 A 
ATOM     37  CAI H57 d   1      33.519  11.223  59.645  0.00  0.00    -0.029 A 
ATOM     38  H20 H57 d   1      33.407  11.795  58.712  0.00  0.00     0.043 H 
ATOM     39  CBJ H57 d   1      36.106   8.435  60.239  0.00  0.00    -0.006 A 
ATOM     40  CBI H57 d   1      36.411   8.976  61.502  0.00  0.00    -0.001 A 
ATOM     41  CBM H57 d   1      36.902  10.282  61.300  0.00  0.00    -0.001 A 
ATOM     42  CBL H57 d   1      36.880  10.564  59.920  0.00  0.00    -0.006 A 
ATOM     43  CBK H57 d   1      36.396   9.411  59.268  0.00  0.00    -0.030 A 
ATOM     44  H21 H57 d   1      36.468   9.221  58.187  0.00  0.00     0.043 H 
ENDBRANCH  29  32
ENDBRANCH  26  29
ENDBRANCH  23  26
ENDBRANCH   1  23
TORSDOF 9
