REMARK  11 active torsions:
REMARK  status: ('A' for Active; 'I' for Inactive)
REMARK    1  A    between atoms: CAC_2  and  OAP_1 
REMARK    2  A    between atoms: CAB_3  and  CAO_4 
REMARK    3  A    between atoms: CAF_9  and  CAE_6 
REMARK    4  A    between atoms: CAD_7  and  OAQ_8 
REMARK    5  A    between atoms: CAG_10  and  CAF_9 
REMARK    6  A    between atoms: NAH_11  and  CAG_10 
REMARK    7  A    between atoms: CAP_14  and  NAH_11 
REMARK    8  A    between atoms: CAN_12  and  CAQ_13 
REMARK    9  A    between atoms: CAJ_15  and  CAN_12 
REMARK   10  A    between atoms: CAQ_13  and  CAP_14 
REMARK   11  A    between atoms: CBK_24  and  CBL_23 
ROOT
ATOM      1  CAG H58 d   1     -11.033   3.934   6.131  0.00  0.00     0.084 C 
ATOM      2  H14 H58 d   1     -11.490   3.548   5.208  0.00  0.00     0.075 H 
ATOM      3  H15 H58 d   1     -10.889   5.021   6.042  0.00  0.00     0.075 H 
ENDROOT
BRANCH   1   4
ATOM      4  CAF H58 d   1      -9.664   3.280   6.299  0.00  0.00    -0.013 C 
ATOM      5  H12 H58 d   1      -9.156   3.768   7.144  0.00  0.00     0.038 H 
ATOM      6  H13 H58 d   1      -9.821   2.216   6.530  0.00  0.00     0.038 H 
BRANCH   4   7
ATOM      7  CAE H58 d   1      -8.748   3.368   5.083  0.00  0.00     0.131 C 
ATOM      8  NAA H58 d   1      -7.578   2.480   5.280  0.00  0.00    -0.062 N 
ATOM      9  CAB H58 d   1      -6.371   3.331   5.311  0.00  0.00     0.126 C 
ATOM     10  H7  H58 d   1      -7.669   1.980   6.151  0.00  0.00     0.278 HD
ATOM     11  H8  H58 d   1      -7.515   1.821   4.520  0.00  0.00     0.278 HD
ATOM     12  CAC H58 d   1      -6.674   4.496   4.357  0.00  0.00     0.089 C 
ATOM     13  H3  H58 d   1      -6.277   3.749   6.324  0.00  0.00     0.087 H 
ATOM     14  CAD H58 d   1      -8.106   4.754   4.817  0.00  0.00     0.089 C 
ATOM     15  H2  H58 d   1      -6.024   5.366   4.533  0.00  0.00     0.090 H 
ATOM     16  H10 H58 d   1      -8.076   5.305   5.769  0.00  0.00     0.090 H 
ATOM     17  H9  H58 d   1      -9.324   3.059   4.198  0.00  0.00     0.088 H 
BRANCH   9  18
ATOM     18  CAO H58 d   1      -5.081   2.576   5.053  0.00  0.00    -0.047 C 
ATOM     19  H4  H58 d   1      -4.973   1.770   5.794  0.00  0.00     0.030 H 
ATOM     20  H5  H58 d   1      -4.229   3.267   5.136  0.00  0.00     0.030 H 
ATOM     21  H6  H58 d   1      -5.105   2.143   4.042  0.00  0.00     0.030 H 
ENDBRANCH   9  18
BRANCH  12  22
ATOM     22  OAP H58 d   1      -6.556   4.092   3.003  0.00  0.00    -0.391 OA
ATOM     23  H1  H58 d   1      -6.748   4.830   2.436  0.00  0.00     0.210 HD
ENDBRANCH  12  22
BRANCH  14  24
ATOM     24  OAQ H58 d   1      -8.820   5.561   3.887  0.00  0.00    -0.391 OA
ATOM     25  H11 H58 d   1      -8.368   6.389   3.776  0.00  0.00     0.210 HD
ENDBRANCH  14  24
ENDBRANCH   4   7
ENDBRANCH   1   4
BRANCH   1  26
ATOM     26  NAH H58 d   1     -11.972   3.676   7.264  0.00  0.00    -0.075 N 
ATOM     27  H16 H58 d   1     -12.784   4.258   7.130  0.00  0.00     0.277 HD
ATOM     28  H17 H58 d   1     -11.505   3.941   8.117  0.00  0.00     0.277 HD
BRANCH  26  29
ATOM     29  CAP H58 d   1     -12.439   2.274   7.418  0.00  0.00     0.082 C 
ATOM     30  H22 H58 d   1     -11.635   1.682   7.879  0.00  0.00     0.075 H 
ATOM     31  H23 H58 d   1     -12.670   1.867   6.423  0.00  0.00     0.075 H 
BRANCH  29  32
ATOM     32  CAQ H58 d   1     -13.681   2.172   8.288  0.00  0.00    -0.042 C 
ATOM     33  H20 H58 d   1     -13.356   2.260   9.335  0.00  0.00     0.035 H 
ATOM     34  H21 H58 d   1     -14.331   3.022   8.033  0.00  0.00     0.035 H 
BRANCH  32  35
ATOM     35  CAN H58 d   1     -14.529   0.899   8.177  0.00  0.00    -0.055 C 
ATOM     36  H18 H58 d   1     -14.002   0.120   8.747  0.00  0.00     0.034 H 
ATOM     37  H19 H58 d   1     -14.547   0.625   7.112  0.00  0.00     0.034 H 
BRANCH  35  38
ATOM     38  CAJ H58 d   1     -15.964   0.882   8.650  0.00  0.00    -0.017 C 
ATOM     39  CAK H58 d   1     -16.458   1.232   9.940  0.00  0.00    -0.001 A 
ATOM     40  CAL H58 d   1     -17.855   1.004   9.971  0.00  0.00    -0.001 A 
ATOM     41 FE   H58 d   1     -17.423   2.371   8.517  0.00  0.00     0.000 Fe
ATOM     42  CAM H58 d   1     -18.239   0.507   8.721  0.00  0.00    -0.006 A 
ATOM     43  CAI H58 d   1     -17.085   0.425   7.909  0.00  0.00    -0.030 A 
ATOM     44  H24 H58 d   1     -17.023  -0.122   6.957  0.00  0.00     0.043 H 
ATOM     45  CBJ H58 d   1     -16.620   4.255   8.326  0.00  0.00    -0.006 A 
ATOM     46  CBI H58 d   1     -17.774   4.313   9.127  0.00  0.00    -0.001 A 
ATOM     47  CBM H58 d   1     -18.845   3.844   8.361  0.00  0.00    -0.001 A 
ATOM     48  CBL H58 d   1     -18.371   3.503   7.098  0.00  0.00    -0.006 A 
ATOM     49  CBK H58 d   1     -16.993   3.753   7.069  0.00  0.00    -0.030 A 
ATOM     50  H25 H58 d   1     -16.376   3.800   6.160  0.00  0.00     0.043 H 
ENDBRANCH  35  38
ENDBRANCH  32  35
ENDBRANCH  29  32
ENDBRANCH  26  29
ENDBRANCH   1  26
TORSDOF 11
