REMARK WARNING: 32 MAX_TORS EXCEEDED!!!
REMARK  35 active torsions:
REMARK  status: ('A' for Active; 'I' for Inactive)
REMARK    1  A    between atoms: N_1  and  CA_2 
REMARK    2  A    between atoms: CA_2  and  C_3 
REMARK       I    between atoms: C_3  and  N_5 
REMARK    3  A    between atoms: N_5  and  CA_6 
REMARK    4  A    between atoms: CA_6  and  C_7 
REMARK    5  A    between atoms: CA_6  and  CB_9 
REMARK       I    between atoms: C_7  and  N_13 
REMARK    6  A    between atoms: CB_9  and  CG_10 
REMARK       I    between atoms: CG_10  and  ND2_12 
REMARK    7  A    between atoms: N_13  and  CA_14 
REMARK    8  A    between atoms: CA_14  and  C_15 
REMARK    9  A    between atoms: CA_14  and  CB_17 
REMARK       I    between atoms: C_15  and  N_25 
REMARK   10  A    between atoms: CB_17  and  CG_18 
REMARK   11  A    between atoms: CZ_23  and  OH_24 
REMARK   12  A    between atoms: N_25  and  CA_26 
REMARK   13  A    between atoms: CA_26  and  C_27 
REMARK   14  A    between atoms: CA_26  and  CB_29 
REMARK       I    between atoms: C_27  and  N_32 
REMARK   15  A    between atoms: CB_29  and  CG1_30 
REMARK   16  A    between atoms: CB_29  and  CG2_31 
REMARK   17  A    between atoms: N_32  and  CA_33 
REMARK   18  A    between atoms: CA_33  and  C_34 
REMARK   19  A    between atoms: CA_33  and  CB_36 
REMARK       I    between atoms: C_34  and  N_39 
REMARK   20  A    between atoms: CB_36  and  CG1_37 
REMARK   21  A    between atoms: CB_36  and  CG2_38 
REMARK   22  A    between atoms: N_39  and  CA_40 
REMARK   23  A    between atoms: CA_40  and  C_41 
REMARK   24  A    between atoms: CA_40  and  CB_43 
REMARK       I    between atoms: C_41  and  N_46 
REMARK   25  A    between atoms: CB_43  and  OG1_44 
REMARK   26  A    between atoms: CB_43  and  CG2_45 
REMARK   27  A    between atoms: N_46  and  CA_47 
REMARK   28  A    between atoms: CA_47  and  C_48 
REMARK   29  A    between atoms: CA_47  and  CB_50 
REMARK       I    between atoms: C_48  and  N_62 
REMARK   30  A    between atoms: CB_50  and  CG_51 
REMARK   31  A    between atoms: CZ_56  and  OH_57 
REMARK   32  A    between atoms: OH_57  and  P_58 
REMARK   33  A    between atoms: N_62  and  CA_63 
REMARK   34  A    between atoms: CA_63  and  C_64 
REMARK   35  A    between atoms: CA_63  and  CB_66 
ROOT
ATOM      1  CA  VAL d   1      35.451 -49.675 -51.266  0.00  0.00     0.092 C 
ATOM      2  H31 VAL d   1      36.363 -49.321 -50.763  0.00  0.00     0.088 H 
ENDROOT
BRANCH   1   3
ATOM      3  N   VAL d   1      35.811 -50.798 -52.123  0.00  0.00    -0.346 N 
ATOM      4  C   VAL d   1      37.065 -51.221 -52.246  0.00  0.00     0.241 C 
ATOM      5  O   VAL d   1      38.018 -50.699 -51.652  0.00  0.00    -0.271 OA
ATOM      6  H30 VAL d   1      35.091 -51.266 -52.635  0.00  0.00     0.163 HD
BRANCH   4   7
ATOM      7  CA  VAL d   1      37.278 -52.394 -53.194  0.00  0.00     0.092 C 
ATOM      8  H22 VAL d   1      36.629 -52.252 -54.071  0.00  0.00     0.088 H 
BRANCH   7   9
ATOM      9  N   VAL d   1      38.662 -52.421 -53.664  0.00  0.00    -0.346 N 
ATOM     10  C   TYR d   1      38.969 -52.173 -54.934  0.00  0.00     0.241 C 
ATOM     11  O   TYR d   1      38.118 -52.006 -55.802  0.00  0.00    -0.271 OA
ATOM     12  H21 VAL d   1      39.394 -52.631 -53.016  0.00  0.00     0.163 HD
BRANCH  10  13
ATOM     13  CA  TYR d   1      40.461 -52.094 -55.275  0.00  0.00     0.093 C 
ATOM     14  H13 TYR d   1      40.968 -52.877 -54.691  0.00  0.00     0.088 H 
BRANCH  13  15
ATOM     15  N   TYR d   1      40.756 -52.351 -56.685  0.00  0.00    -0.346 N 
ATOM     16  C   ASN d   1      41.906 -52.918 -57.038  0.00  0.00     0.241 C 
ATOM     17  O   ASN d   1      42.776 -53.216 -56.219  0.00  0.00    -0.271 OA
ATOM     18  H12 TYR d   1      40.090 -52.099 -57.387  0.00  0.00     0.163 HD
BRANCH  16  19
ATOM     19  CA  ASN d   1      42.132 -53.181 -58.527  0.00  0.00     0.097 C 
ATOM     20  H7  ASN d   1      41.840 -54.225 -58.714  0.00  0.00     0.088 H 
BRANCH  19  21
ATOM     21  N   ASN d   1      41.325 -52.353 -59.427  0.00  0.00    -0.346 N 
ATOM     22  C   GLY d   1      40.413 -52.886 -60.239  0.00  0.00     0.243 C 
ATOM     23  O   GLY d   1      40.157 -54.094 -60.261  0.00  0.00    -0.272 OA
ATOM     24  H6  ASN d   1      41.462 -51.362 -59.432  0.00  0.00     0.163 HD
BRANCH  22  25
ATOM     25  CA  GLY d   1      39.676 -51.920 -61.152  0.00  0.00     0.152 C 
ATOM     26  H4  GLY d   1      38.866 -51.446 -60.579  0.00  0.00     0.090 H 
ATOM     27  H5  GLY d   1      40.384 -51.150 -61.492  0.00  0.00     0.090 H 
BRANCH  25  28
ATOM     28  N   GLY d   1      39.100 -52.568 -62.320  0.00  0.00    -0.071 N 
ATOM     29  H1  GLY d   1      38.626 -51.881 -62.886  0.00  0.00     0.274 HD
ATOM     30  H2  GLY d   1      38.442 -53.271 -62.024  0.00  0.00     0.274 HD
ATOM     31  H3  GLY d   1      39.833 -53.000 -62.860  0.00  0.00     0.274 HD
ENDBRANCH  25  28
ENDBRANCH  22  25
ENDBRANCH  19  21
BRANCH  19  32
ATOM     32  CB  ASN d   1      43.634 -53.050 -58.856  0.00  0.00     0.036 C 
ATOM     33  H8  ASN d   1      43.770 -53.197 -59.938  0.00  0.00     0.051 H 
ATOM     34  H9  ASN d   1      44.182 -53.831 -58.308  0.00  0.00     0.051 H 
BRANCH  32  35
ATOM     35  CG  ASN d   1      44.216 -51.684 -58.472  0.00  0.00     0.217 C 
ATOM     36  OD1 ASN d   1      43.484 -50.754 -58.144  0.00  0.00    -0.274 OA
ATOM     37  ND2 ASN d   1      45.545 -51.567 -58.519  0.00  0.00    -0.370 N 
ATOM     38  H10 ASN d   1      45.979 -50.699 -58.279  0.00  0.00     0.159 HD
ATOM     39  H11 ASN d   1      46.106 -52.348 -58.794  0.00  0.00     0.159 HD
ENDBRANCH  32  35
ENDBRANCH  19  32
ENDBRANCH  16  19
ENDBRANCH  13  15
BRANCH  13  40
ATOM     40  CB  TYR d   1      41.039 -50.742 -54.841  0.00  0.00    -0.014 C 
ATOM     41  H14 TYR d   1      42.094 -50.708 -55.150  0.00  0.00     0.043 H 
ATOM     42  H15 TYR d   1      40.976 -50.680 -53.745  0.00  0.00     0.043 H 
BRANCH  40  43
ATOM     43  CG  TYR d   1      40.341 -49.530 -55.420  0.00  0.00    -0.056 A 
ATOM     44  CD1 TYR d   1      39.174 -49.046 -54.848  0.00  0.00    -0.074 A 
ATOM     45  CE1 TYR d   1      38.536 -47.948 -55.352  0.00  0.00    -0.051 A 
ATOM     46  H16 TYR d   1      38.759 -49.550 -53.982  0.00  0.00     0.084 H 
ATOM     47  CZ  TYR d   1      39.055 -47.296 -56.444  0.00  0.00     0.065 A 
ATOM     48  H18 TYR d   1      37.622 -47.592 -54.891  0.00  0.00     0.087 H 
ATOM     49  CE2 TYR d   1      40.219 -47.743 -57.042  0.00  0.00    -0.051 A 
ATOM     50  CD2 TYR d   1      40.859 -48.853 -56.525  0.00  0.00    -0.074 A 
ATOM     51  H19 TYR d   1      40.624 -47.229 -57.906  0.00  0.00     0.087 H 
ATOM     52  H17 TYR d   1      41.776 -49.203 -56.984  0.00  0.00     0.084 H 
BRANCH  47  53
ATOM     53  OH  TYR d   1      38.386 -46.191 -56.911  0.00  0.00    -0.361 OA
ATOM     54  H20 TYR d   1      38.124 -46.338 -57.812  0.00  0.00     0.217 HD
ENDBRANCH  47  53
ENDBRANCH  40  43
ENDBRANCH  13  40
ENDBRANCH  10  13
ENDBRANCH   7   9
BRANCH   7  55
ATOM     55  CB  VAL d   1      36.856 -53.716 -52.501  0.00  0.00    -0.033 C 
ATOM     56  H23 VAL d   1      35.824 -53.602 -52.137  0.00  0.00     0.042 H 
BRANCH  55  57
ATOM     57  CG1 VAL d   1      36.890 -54.864 -53.490  0.00  0.00    -0.071 C 
ATOM     58  H24 VAL d   1      36.589 -55.793 -52.984  0.00  0.00     0.028 H 
ATOM     59  H25 VAL d   1      37.910 -54.977 -53.886  0.00  0.00     0.028 H 
ATOM     60  H26 VAL d   1      36.196 -54.656 -54.318  0.00  0.00     0.028 H 
ENDBRANCH  55  57
BRANCH  55  61
ATOM     61  CG2 VAL d   1      37.749 -54.008 -51.315  0.00  0.00    -0.071 C 
ATOM     62  H27 VAL d   1      37.710 -53.164 -50.610  0.00  0.00     0.028 H 
ATOM     63  H28 VAL d   1      38.783 -54.150 -51.661  0.00  0.00     0.028 H 
ATOM     64  H29 VAL d   1      37.402 -54.922 -50.811  0.00  0.00     0.028 H 
ENDBRANCH  55  61
ENDBRANCH   7  55
ENDBRANCH   4   7
ENDBRANCH   1   3
BRANCH   1  65
ATOM     65  C   VAL d   1      34.455 -50.129 -50.197  0.00  0.00     0.241 C 
ATOM     66  O   VAL d   1      34.664 -49.917 -48.999  0.00  0.00    -0.271 OA
ATOM     67  N   THR d   1      33.370 -50.758 -50.632  0.00  0.00    -0.344 N 
ATOM     68  H39 THR d   1      33.204 -50.839 -51.615  0.00  0.00     0.163 HD
BRANCH  67  69
ATOM     69  CA  THR d   1      32.421 -51.330 -49.691  0.00  0.00     0.113 C 
ATOM     70  H40 THR d   1      32.420 -50.719 -48.776  0.00  0.00     0.091 H 
BRANCH  69  71
ATOM     71  C   THR d   1      32.848 -52.747 -49.349  0.00  0.00     0.243 C 
ATOM     72  O   THR d   1      32.695 -53.653 -50.170  0.00  0.00    -0.271 OA
ATOM     73  N   PTR d   1      33.374 -52.939 -48.139  0.00  0.00    -0.346 N 
ATOM     74  H46 PTR d   1      33.410 -52.175 -47.495  0.00  0.00     0.163 HD
BRANCH  73  75
ATOM     75  CA  PTR d   1      33.899 -54.239 -47.732  0.00  0.00     0.093 C 
ATOM     76  H47 PTR d   1      33.368 -55.024 -48.291  0.00  0.00     0.088 H 
BRANCH  75  77
ATOM     77  C   PTR d   1      33.636 -54.386 -46.277  0.00  0.00     0.241 C 
ATOM     78  O   PTR d   1      34.232 -53.683 -45.481  0.00  0.00    -0.271 OA
ATOM     79  N   ALA d   1      32.740 -55.300 -45.917  0.00  0.00    -0.345 N 
ATOM     80  H54 ALA d   1      32.244 -55.803 -46.625  0.00  0.00     0.163 HD
BRANCH  79  81
ATOM     81  CA  ALA d   1      32.464 -55.585 -44.516  0.00  0.00     0.093 C 
ATOM     82  H55 ALA d   1      32.460 -54.638 -43.957  0.00  0.00     0.089 H 
BRANCH  81  83
ATOM     83  C   ALA d   1      33.559 -56.485 -43.946  0.00  0.00     0.196 C 
ATOM     84  O   ALA d   1      34.188 -56.182 -42.930  0.00  0.00    -0.646 OA
ATOM     85  OXT ALA d   1      33.851 -57.543 -44.503  0.00  0.00    -0.646 OA
ENDBRANCH  81  83
BRANCH  81  86
ATOM     86  CB  ALA d   1      31.092 -56.246 -44.364  0.00  0.00    -0.048 C 
ATOM     87  H56 ALA d   1      30.901 -56.454 -43.301  0.00  0.00     0.030 H 
ATOM     88  H57 ALA d   1      31.074 -57.189 -44.931  0.00  0.00     0.030 H 
ATOM     89  H58 ALA d   1      30.315 -55.571 -44.751  0.00  0.00     0.030 H 
ENDBRANCH  81  86
ENDBRANCH  79  81
ENDBRANCH  75  77
BRANCH  75  90
ATOM     90  CB  PTR d   1      35.390 -54.409 -47.960  0.00  0.00    -0.014 C 
ATOM     91  H48 PTR d   1      35.909 -53.848 -47.169  0.00  0.00     0.043 H 
ATOM     92  H49 PTR d   1      35.625 -53.965 -48.939  0.00  0.00     0.043 H 
BRANCH  90  93
ATOM     93  CG  PTR d   1      35.955 -55.835 -47.956  0.00  0.00    -0.056 A 
ATOM     94  CD1 PTR d   1      36.577 -56.393 -46.827  0.00  0.00    -0.074 A 
ATOM     95  CE1 PTR d   1      37.076 -57.707 -46.878  0.00  0.00    -0.050 A 
ATOM     96  H50 PTR d   1      36.672 -55.811 -45.917  0.00  0.00     0.084 H 
ATOM     97  CZ  PTR d   1      36.965 -58.453 -48.061  0.00  0.00     0.082 A 
ATOM     98  H52 PTR d   1      37.546 -58.143 -46.004  0.00  0.00     0.087 H 
ATOM     99  CE2 PTR d   1      36.344 -57.885 -49.176  0.00  0.00    -0.050 A 
ATOM    100  CD2 PTR d   1      35.845 -56.586 -49.124  0.00  0.00    -0.074 A 
ATOM    101  H53 PTR d   1      36.250 -58.461 -50.090  0.00  0.00     0.087 H 
ATOM    102  H51 PTR d   1      35.368 -56.157 -49.998  0.00  0.00     0.084 H 
BRANCH  97 103
ATOM    103  OH  PTR d   1      37.407 -59.729 -48.178  0.00  0.00    -0.240 OA
BRANCH 103 104
ATOM    104  P   PTR d   1      38.595 -60.334 -47.376  0.00  0.00     0.427 P 
ATOM    105  O1P PTR d   1      38.152 -60.596 -45.942  0.00  0.00    -0.617 OA
ATOM    106  O2P PTR d   1      38.980 -61.639 -48.017  0.00  0.00    -0.617 OA
ATOM    107  O3P PTR d   1      39.773 -59.391 -47.403  0.00  0.00    -0.617 OA
ENDBRANCH 103 104
ENDBRANCH  97 103
ENDBRANCH  90  93
ENDBRANCH  75  90
ENDBRANCH  73  75
ENDBRANCH  69  71
BRANCH  69 108
ATOM    108  CB  THR d   1      30.996 -51.365 -50.263  0.00  0.00     0.060 C 
ATOM    109  H41 THR d   1      30.977 -52.024 -51.144  0.00  0.00     0.086 H 
BRANCH 108 110
ATOM    110  OG1 THR d   1      30.608 -50.045 -50.654  0.00  0.00    -0.393 OA
ATOM    111  H42 THR d   1      31.208 -49.723 -51.316  0.00  0.00     0.210 HD
ENDBRANCH 108 110
BRANCH 108 112
ATOM    112  CG2 THR d   1      30.015 -51.905 -49.210  0.00  0.00    -0.050 C 
ATOM    113  H43 THR d   1      28.999 -51.925 -49.632  0.00  0.00     0.031 H 
ATOM    114  H44 THR d   1      30.032 -51.253 -48.325  0.00  0.00     0.031 H 
ATOM    115  H45 THR d   1      30.312 -52.924 -48.920  0.00  0.00     0.031 H 
ENDBRANCH 108 112
ENDBRANCH  69 108
ENDBRANCH  67  69
ENDBRANCH   1  65
BRANCH   1 116
ATOM    116  CB  VAL d   1      34.865 -48.498 -52.082  0.00  0.00    -0.033 C 
ATOM    117  H32 VAL d   1      34.059 -48.886 -52.723  0.00  0.00     0.042 H 
BRANCH 116 118
ATOM    118  CG1 VAL d   1      34.274 -47.448 -51.153  0.00  0.00    -0.071 C 
ATOM    119  H33 VAL d   1      33.863 -46.620 -51.750  0.00  0.00     0.028 H 
ATOM    120  H34 VAL d   1      35.060 -47.064 -50.486  0.00  0.00     0.028 H 
ATOM    121  H35 VAL d   1      33.472 -47.900 -50.552  0.00  0.00     0.028 H 
ENDBRANCH 116 118
BRANCH 116 122
ATOM    122  CG2 VAL d   1      35.941 -47.888 -52.977  0.00  0.00    -0.071 C 
ATOM    123  H36 VAL d   1      36.352 -48.665 -53.638  0.00  0.00     0.028 H 
ATOM    124  H37 VAL d   1      36.746 -47.474 -52.352  0.00  0.00     0.028 H 
ATOM    125  H38 VAL d   1      35.500 -47.085 -53.586  0.00  0.00     0.028 H 
ENDBRANCH 116 122
ENDBRANCH   1 116
TORSDOF 35
