REMARK WARNING: 32 MAX_TORS EXCEEDED!!!
REMARK  42 active torsions:
REMARK  status: ('A' for Active; 'I' for Inactive)
REMARK    1  A    between atoms: N_1  and  CA_2 
REMARK    2  A    between atoms: CA_2  and  C_3 
REMARK    3  A    between atoms: CA_2  and  CB_5 
REMARK       I    between atoms: C_3  and  N_10 
REMARK    4  A    between atoms: CB_5  and  CG_6 
REMARK    5  A    between atoms: CG_6  and  CD_7 
REMARK    6  A    between atoms: CD_7  and  CE_8 
REMARK    7  A    between atoms: CE_8  and  NZ_9 
REMARK    8  A    between atoms: N_10  and  CA_11 
REMARK    9  A    between atoms: CA_11  and  C_12 
REMARK       I    between atoms: C_12  and  N_14 
REMARK   10  A    between atoms: N_14  and  CA_15 
REMARK   11  A    between atoms: CA_15  and  C_16 
REMARK   12  A    between atoms: CA_15  and  CB_18 
REMARK       I    between atoms: C_16  and  N_22 
REMARK   13  A    between atoms: CB_18  and  CG_19 
REMARK       I    between atoms: CG_19  and  ND2_21 
REMARK   14  A    between atoms: N_22  and  CA_23 
REMARK   15  A    between atoms: CA_23  and  C_24 
REMARK   16  A    between atoms: CA_23  and  CB_26 
REMARK       I    between atoms: C_24  and  N_34 
REMARK   17  A    between atoms: CB_26  and  CG_27 
REMARK   18  A    between atoms: CZ_32  and  OH_33 
REMARK   19  A    between atoms: N_34  and  CA_35 
REMARK   20  A    between atoms: CA_35  and  C_36 
REMARK   21  A    between atoms: CA_35  and  CB_38 
REMARK       I    between atoms: C_36  and  N_41 
REMARK   22  A    between atoms: CB_38  and  CG1_39 
REMARK   23  A    between atoms: CB_38  and  CG2_40 
REMARK   24  A    between atoms: N_41  and  CA_42 
REMARK   25  A    between atoms: CA_42  and  C_43 
REMARK   26  A    between atoms: CA_42  and  CB_45 
REMARK       I    between atoms: C_43  and  N_48 
REMARK   27  A    between atoms: CB_45  and  CG1_46 
REMARK   28  A    between atoms: CB_45  and  CG2_47 
REMARK   29  A    between atoms: N_48  and  CA_49 
REMARK   30  A    between atoms: CA_49  and  C_50 
REMARK   31  A    between atoms: CA_49  and  CB_52 
REMARK       I    between atoms: C_50  and  N_55 
REMARK   32  A    between atoms: CB_52  and  OG1_53 
REMARK   33  A    between atoms: CB_52  and  CG2_54 
REMARK   34  A    between atoms: N_55  and  CA_56 
REMARK   35  A    between atoms: CA_56  and  CB_57 
REMARK   36  A    between atoms: CA_56  and  C_59 
REMARK   37  A    between atoms: CB_57  and  OG_58 
REMARK   38  A    between atoms: OG_58  and  P_61 
REMARK       I    between atoms: C_59  and  N_65 
REMARK   39  A    between atoms: N_65  and  CA_66 
REMARK   40  A    between atoms: CA_66  and  C_67 
REMARK   41  A    between atoms: CA_66  and  CB_69 
REMARK   42  A    between atoms: CB_69  and  CG_70 
ROOT
ATOM      1  CA  VAL d   1       5.814  34.568  -0.209  0.00  0.00     0.092 C 
ATOM      2  H35 VAL d   1       5.002  33.892  -0.515  0.00  0.00     0.088 H 
ENDROOT
BRANCH   1   3
ATOM      3  N   VAL d   1       5.284  35.572   0.684  0.00  0.00    -0.346 N 
ATOM      4  C   TYR d   1       4.072  35.498   1.209  0.00  0.00     0.241 C 
ATOM      5  O   TYR d   1       3.321  34.540   1.038  0.00  0.00    -0.271 OA
ATOM      6  H34 VAL d   1       5.858  36.357   0.915  0.00  0.00     0.163 HD
BRANCH   4   7
ATOM      7  CA  TYR d   1       3.712  36.713   2.070  0.00  0.00     0.093 C 
ATOM      8  H26 TYR d   1       4.165  37.572   1.554  0.00  0.00     0.088 H 
BRANCH   7   9
ATOM      9  N   TYR d   1       2.303  37.050   2.203  0.00  0.00    -0.346 N 
ATOM     10  C   ASN d   1       1.970  38.335   2.424  0.00  0.00     0.241 C 
ATOM     11  O   ASN d   1       2.798  39.257   2.471  0.00  0.00    -0.271 OA
ATOM     12  H25 TYR d   1       1.599  36.344   2.132  0.00  0.00     0.163 HD
BRANCH  10  13
ATOM     13  CA  ASN d   1       0.517  38.657   2.622  0.00  0.00     0.097 C 
ATOM     14  H20 ASN d   1       0.060  38.826   1.636  0.00  0.00     0.088 H 
BRANCH  13  15
ATOM     15  N   ASN d   1      -0.182  37.552   3.258  0.00  0.00    -0.346 N 
ATOM     16  C   GLY d   1      -0.697  36.565   2.534  0.00  0.00     0.236 C 
ATOM     17  O   GLY d   1      -0.543  36.473   1.312  0.00  0.00    -0.272 OA
ATOM     18  H19 ASN d   1      -0.276  37.535   4.253  0.00  0.00     0.163 HD
BRANCH  16  19
ATOM     19  CA  GLY d   1      -1.510  35.541   3.304  0.00  0.00     0.069 C 
ATOM     20  H17 GLY d   1      -2.039  34.892   2.590  0.00  0.00     0.078 H 
ATOM     21  H18 GLY d   1      -0.831  34.933   3.920  0.00  0.00     0.078 H 
BRANCH  19  22
ATOM     22  N   GLY d   1      -2.484  36.188   4.169  0.00  0.00    -0.351 N 
ATOM     23  C   LYS d   1      -3.349  37.067   3.669  0.00  0.00     0.248 C 
ATOM     24  O   LYS d   1      -3.271  37.485   2.522  0.00  0.00    -0.271 OA
ATOM     25  H16 GLY d   1      -2.504  35.971   5.145  0.00  0.00     0.163 HD
BRANCH  23  26
ATOM     26  CA  LYS d   1      -4.475  37.543   4.586  0.00  0.00     0.176 C 
ATOM     27  H4  LYS d   1      -4.334  37.084   5.576  0.00  0.00     0.099 H 
BRANCH  26  28
ATOM     28  N   LYS d   1      -4.465  39.030   4.756  0.00  0.00    -0.067 N 
ATOM     29  H1  LYS d   1      -5.220  39.304   5.365  0.00  0.00     0.275 HD
ATOM     30  H2  LYS d   1      -4.582  39.472   3.857  0.00  0.00     0.275 HD
ATOM     31  H3  LYS d   1      -3.587  39.316   5.160  0.00  0.00     0.275 HD
ENDBRANCH  26  28
BRANCH  26  32
ATOM     32  CB  LYS d   1      -5.822  37.074   4.013  0.00  0.00    -0.030 C 
ATOM     33  H5  LYS d   1      -6.032  37.651   3.100  0.00  0.00     0.036 H 
ATOM     34  H6  LYS d   1      -6.605  37.271   4.760  0.00  0.00     0.036 H 
BRANCH  32  35
ATOM     35  CG  LYS d   1      -5.853  35.584   3.661  0.00  0.00    -0.061 C 
ATOM     36  H7  LYS d   1      -5.723  35.001   4.585  0.00  0.00     0.033 H 
ATOM     37  H8  LYS d   1      -5.024  35.367   2.971  0.00  0.00     0.033 H 
BRANCH  35  38
ATOM     38  CD  LYS d   1      -7.170  35.163   2.995  0.00  0.00    -0.043 C 
ATOM     39  H9  LYS d   1      -8.005  35.456   3.648  0.00  0.00     0.035 H 
ATOM     40  H10 LYS d   1      -7.168  34.070   2.870  0.00  0.00     0.035 H 
BRANCH  38  41
ATOM     41  CE  LYS d   1      -7.368  35.816   1.619  0.00  0.00     0.080 C 
ATOM     42  H11 LYS d   1      -7.511  36.897   1.767  0.00  0.00     0.075 H 
ATOM     43  H12 LYS d   1      -8.270  35.386   1.160  0.00  0.00     0.075 H 
BRANCH  41  44
ATOM     44  NZ  LYS d   1      -6.216  35.618   0.671  0.00  0.00    -0.079 N 
ATOM     45  H13 LYS d   1      -6.420  36.073  -0.205  0.00  0.00     0.274 HD
ATOM     46  H14 LYS d   1      -6.076  34.632   0.513  0.00  0.00     0.274 HD
ATOM     47  H15 LYS d   1      -5.380  36.016   1.070  0.00  0.00     0.274 HD
ENDBRANCH  41  44
ENDBRANCH  38  41
ENDBRANCH  35  38
ENDBRANCH  32  35
ENDBRANCH  26  32
ENDBRANCH  23  26
ENDBRANCH  19  22
ENDBRANCH  16  19
ENDBRANCH  13  15
BRANCH  13  48
ATOM     48  CB  ASN d   1       0.390  39.965   3.450  0.00  0.00     0.036 C 
ATOM     49  H21 ASN d   1      -0.678  40.190   3.585  0.00  0.00     0.051 H 
ATOM     50  H22 ASN d   1       0.869  40.781   2.889  0.00  0.00     0.051 H 
BRANCH  48  51
ATOM     51  CG  ASN d   1       1.045  39.876   4.831  0.00  0.00     0.217 C 
ATOM     52  OD1 ASN d   1       1.362  38.797   5.317  0.00  0.00    -0.274 OA
ATOM     53  ND2 ASN d   1       1.240  41.027   5.466  0.00  0.00    -0.370 N 
ATOM     54  H23 ASN d   1       1.664  41.033   6.372  0.00  0.00     0.159 HD
ATOM     55  H24 ASN d   1       0.963  41.887   5.038  0.00  0.00     0.159 HD
ENDBRANCH  48  51
ENDBRANCH  13  48
ENDBRANCH  10  13
ENDBRANCH   7   9
BRANCH   7  56
ATOM     56  CB  TYR d   1       4.383  36.634   3.456  0.00  0.00    -0.014 C 
ATOM     57  H27 TYR d   1       4.082  37.524   4.028  0.00  0.00     0.043 H 
ATOM     58  H28 TYR d   1       5.473  36.647   3.305  0.00  0.00     0.043 H 
BRANCH  56  59
ATOM     59  CG  TYR d   1       4.045  35.417   4.281  0.00  0.00    -0.056 A 
ATOM     60  CD1 TYR d   1       4.725  34.228   4.088  0.00  0.00    -0.074 A 
ATOM     61  CE1 TYR d   1       4.445  33.111   4.847  0.00  0.00    -0.051 A 
ATOM     62  H29 TYR d   1       5.493  34.173   3.325  0.00  0.00     0.084 H 
ATOM     63  CZ  TYR d   1       3.471  33.194   5.833  0.00  0.00     0.065 A 
ATOM     64  H31 TYR d   1       4.977  32.182   4.676  0.00  0.00     0.087 H 
ATOM     65  CE2 TYR d   1       2.792  34.370   6.062  0.00  0.00    -0.051 A 
ATOM     66  CD2 TYR d   1       3.080  35.472   5.281  0.00  0.00    -0.074 A 
ATOM     67  H32 TYR d   1       2.043  34.430   6.843  0.00  0.00     0.087 H 
ATOM     68  H30 TYR d   1       2.543  36.398   5.451  0.00  0.00     0.084 H 
BRANCH  63  69
ATOM     69  OH  TYR d   1       3.219  32.107   6.606  0.00  0.00    -0.361 OA
ATOM     70  H33 TYR d   1       2.304  31.866   6.523  0.00  0.00     0.217 HD
ENDBRANCH  63  69
ENDBRANCH  56  59
ENDBRANCH   7  56
ENDBRANCH   4   7
ENDBRANCH   1   3
BRANCH   1  71
ATOM     71  C   VAL d   1       6.911  33.744   0.480  0.00  0.00     0.241 C 
ATOM     72  O   VAL d   1       7.837  34.294   1.081  0.00  0.00    -0.271 OA
ATOM     73  N   VAL d   1       6.800  32.422   0.385  0.00  0.00    -0.346 N 
ATOM     74  H43 VAL d   1       5.987  32.022  -0.038  0.00  0.00     0.163 HD
BRANCH  73  75
ATOM     75  CA  VAL d   1       7.851  31.552   0.891  0.00  0.00     0.092 C 
ATOM     76  H44 VAL d   1       8.528  32.156   1.513  0.00  0.00     0.088 H 
BRANCH  75  77
ATOM     77  C   VAL d   1       8.674  30.926  -0.239  0.00  0.00     0.241 C 
ATOM     78  O   VAL d   1       9.907  30.851  -0.174  0.00  0.00    -0.271 OA
ATOM     79  N   THR d   1       7.985  30.445  -1.268  0.00  0.00    -0.344 N 
ATOM     80  H52 THR d   1       6.986  30.480  -1.242  0.00  0.00     0.163 HD
BRANCH  79  81
ATOM     81  CA  THR d   1       8.640  29.869  -2.430  0.00  0.00     0.113 C 
ATOM     82  H53 THR d   1       9.685  29.632  -2.181  0.00  0.00     0.091 H 
BRANCH  81  83
ATOM     83  C   THR d   1       8.600  30.903  -3.536  0.00  0.00     0.243 C 
ATOM     84  O   THR d   1       7.536  31.254  -4.019  0.00  0.00    -0.271 OA
ATOM     85  N   SEP d   1       9.770  31.394  -3.927  0.00  0.00    -0.344 N 
ATOM     86  H59 SEP d   1      10.607  31.044  -3.506  0.00  0.00     0.163 HD
BRANCH  85  87
ATOM     87  CA  SEP d   1       9.870  32.409  -4.933  0.00  0.00     0.110 C 
ATOM     88  H60 SEP d   1       9.346  33.306  -4.572  0.00  0.00     0.090 H 
BRANCH  87  89
ATOM     89  CB  SEP d   1      11.302  32.766  -5.197  0.00  0.00     0.059 C 
ATOM     90  H61 SEP d   1      11.311  33.474  -6.039  0.00  0.00     0.079 H 
ATOM     91  H62 SEP d   1      11.819  31.841  -5.490  0.00  0.00     0.079 H 
BRANCH  89  92
ATOM     92  OG  SEP d   1      12.040  33.341  -4.169  0.00  0.00    -0.280 OA
BRANCH  92  93
ATOM     93  P   SEP d   1      12.492  34.835  -4.301  0.00  0.00     0.422 P 
ATOM     94  O1P SEP d   1      13.319  35.195  -3.083  0.00  0.00    -0.617 OA
ATOM     95  O2P SEP d   1      11.197  35.611  -4.403  0.00  0.00    -0.617 OA
ATOM     96  O3P SEP d   1      13.256  34.872  -5.594  0.00  0.00    -0.617 OA
ENDBRANCH  92  93
ENDBRANCH  89  92
ENDBRANCH  87  89
BRANCH  87  97
ATOM     97  C   SEP d   1       9.223  31.956  -6.211  0.00  0.00     0.243 C 
ATOM     98  O   SEP d   1       9.239  30.777  -6.578  0.00  0.00    -0.271 OA
ATOM     99  N   HIS d   1       8.612  32.908  -6.898  0.00  0.00    -0.344 N 
ATOM    100  H63 HIS d   1       8.594  33.841  -6.538  0.00  0.00     0.163 HD
BRANCH  99 101
ATOM    101  CA  HIS d   1       7.958  32.614  -8.185  0.00  0.00     0.101 C 
ATOM    102  H64 HIS d   1       8.400  31.694  -8.596  0.00  0.00     0.090 H 
BRANCH 101 103
ATOM    103  C   HIS d   1       8.200  33.749  -9.174  0.00  0.00     0.197 C 
ATOM    104  O   HIS d   1       9.114  34.563  -8.998  0.00  0.00    -0.646 OA
ATOM    105  OXT HIS d   1       7.493  33.874 -10.177  0.00  0.00    -0.646 OA
ENDBRANCH 101 103
BRANCH 101 106
ATOM    106  CB  HIS d   1       6.456  32.383  -7.992  0.00  0.00     0.005 C 
ATOM    107  H65 HIS d   1       6.318  31.460  -7.409  0.00  0.00     0.046 H 
ATOM    108  H66 HIS d   1       5.992  32.264  -8.982  0.00  0.00     0.046 H 
BRANCH 106 109
ATOM    109  CG  HIS d   1       5.762  33.505  -7.275  0.00  0.00     0.053 A 
ATOM    110  ND1 HIS d   1       5.594  33.522  -5.906  0.00  0.00    -0.247 NA
ATOM    111  CE1 HIS d   1       4.955  34.631  -5.561  0.00  0.00     0.064 A 
ATOM    112  NE2 HIS d   1       4.712  35.332  -6.652  0.00  0.00    -0.359 N 
ATOM    113  H68 HIS d   1       4.677  34.916  -4.547  0.00  0.00     0.143 H 
ATOM    114  CD2 HIS d   1       5.206  34.648  -7.741  0.00  0.00     0.002 A 
ATOM    115  H69 HIS d   1       4.231  36.242  -6.684  0.00  0.00     0.166 HD
ATOM    116  H67 HIS d   1       5.158  34.967  -8.781  0.00  0.00     0.114 H 
ENDBRANCH 106 109
ENDBRANCH 101 106
ENDBRANCH  99 101
ENDBRANCH  87  97
ENDBRANCH  85  87
ENDBRANCH  81  83
BRANCH  81 117
ATOM    117  CB  THR d   1       7.925  28.570  -2.895  0.00  0.00     0.060 C 
ATOM    118  H54 THR d   1       6.860  28.788  -3.060  0.00  0.00     0.086 H 
BRANCH 117 119
ATOM    119  OG1 THR d   1       8.059  27.573  -1.879  0.00  0.00    -0.393 OA
ATOM    120  H55 THR d   1       7.662  27.887  -1.075  0.00  0.00     0.210 HD
ENDBRANCH 117 119
BRANCH 117 121
ATOM    121  CG2 THR d   1       8.540  28.017  -4.208  0.00  0.00    -0.050 C 
ATOM    122  H56 THR d   1       8.009  27.100  -4.504  0.00  0.00     0.031 H 
ATOM    123  H57 THR d   1       9.604  27.788  -4.047  0.00  0.00     0.031 H 
ATOM    124  H58 THR d   1       8.443  28.770  -5.004  0.00  0.00     0.031 H 
ENDBRANCH 117 121
ENDBRANCH  81 117
ENDBRANCH  79  81
ENDBRANCH  75  77
BRANCH  75 125
ATOM    125  CB  VAL d   1       7.230  30.444   1.771  0.00  0.00    -0.033 C 
ATOM    126  H45 VAL d   1       6.478  29.905   1.176  0.00  0.00     0.042 H 
BRANCH 125 127
ATOM    127  CG1 VAL d   1       8.277  29.445   2.246  0.00  0.00    -0.071 C 
ATOM    128  H46 VAL d   1       7.795  28.676   2.867  0.00  0.00     0.028 H 
ATOM    129  H47 VAL d   1       9.041  29.969   2.839  0.00  0.00     0.028 H 
ATOM    130  H48 VAL d   1       8.751  28.969   1.375  0.00  0.00     0.028 H 
ENDBRANCH 125 127
BRANCH 125 131
ATOM    131  CG2 VAL d   1       6.541  31.084   2.985  0.00  0.00    -0.071 C 
ATOM    132  H49 VAL d   1       5.785  31.805   2.640  0.00  0.00     0.028 H 
ATOM    133  H50 VAL d   1       7.290  31.604   3.600  0.00  0.00     0.028 H 
ATOM    134  H51 VAL d   1       6.054  30.301   3.585  0.00  0.00     0.028 H 
ENDBRANCH 125 131
ENDBRANCH  75 125
ENDBRANCH  73  75
ENDBRANCH   1  71
BRANCH   1 135
ATOM    135  CB  VAL d   1       6.379  35.277  -1.448  0.00  0.00    -0.033 C 
ATOM    136  H36 VAL d   1       7.001  36.118  -1.108  0.00  0.00     0.042 H 
BRANCH 135 137
ATOM    137  CG1 VAL d   1       7.267  34.340  -2.290  0.00  0.00    -0.071 C 
ATOM    138  H37 VAL d   1       7.650  34.886  -3.165  0.00  0.00     0.028 H 
ATOM    139  H38 VAL d   1       6.674  33.477  -2.627  0.00  0.00     0.028 H 
ATOM    140  H39 VAL d   1       8.111  33.988  -1.679  0.00  0.00     0.028 H 
ENDBRANCH 135 137
BRANCH 135 141
ATOM    141  CG2 VAL d   1       5.217  35.842  -2.297  0.00  0.00    -0.071 C 
ATOM    142  H40 VAL d   1       4.598  36.507  -1.676  0.00  0.00     0.028 H 
ATOM    143  H41 VAL d   1       4.600  35.012  -2.673  0.00  0.00     0.028 H 
ATOM    144  H42 VAL d   1       5.625  36.409  -3.146  0.00  0.00     0.028 H 
ENDBRANCH 135 141
ENDBRANCH   1 135
TORSDOF 42
