REMARK WARNING: 32 MAX_TORS EXCEEDED!!!
REMARK  38 active torsions:
REMARK  status: ('A' for Active; 'I' for Inactive)
REMARK    1  A    between atoms: N_1  and  CA_2 
REMARK    2  A    between atoms: CA_2  and  C_3 
REMARK    3  A    between atoms: CA_2  and  CB_5 
REMARK       I    between atoms: C_3  and  N_10 
REMARK    4  A    between atoms: CB_5  and  CG_6 
REMARK    5  A    between atoms: CG_6  and  CD_7 
REMARK    6  A    between atoms: CD_7  and  CE_8 
REMARK    7  A    between atoms: CE_8  and  NZ_9 
REMARK    8  A    between atoms: N_10  and  CA_11 
REMARK    9  A    between atoms: CA_11  and  C_12 
REMARK       I    between atoms: C_12  and  N_14 
REMARK   10  A    between atoms: N_14  and  CA_15 
REMARK   11  A    between atoms: CA_15  and  C_16 
REMARK   12  A    between atoms: CA_15  and  CB_18 
REMARK       I    between atoms: C_16  and  N_22 
REMARK   13  A    between atoms: CB_18  and  CG_19 
REMARK       I    between atoms: CG_19  and  ND2_21 
REMARK   14  A    between atoms: N_22  and  CA_23 
REMARK   15  A    between atoms: CA_23  and  C_24 
REMARK   16  A    between atoms: CA_23  and  CB_26 
REMARK       I    between atoms: C_24  and  N_34 
REMARK   17  A    between atoms: CB_26  and  CG_27 
REMARK   18  A    between atoms: CZ_32  and  OH_33 
REMARK   19  A    between atoms: N_34  and  CA_35 
REMARK   20  A    between atoms: CA_35  and  C_36 
REMARK   21  A    between atoms: CA_35  and  CB_38 
REMARK       I    between atoms: C_36  and  N_41 
REMARK   22  A    between atoms: CB_38  and  CG1_39 
REMARK   23  A    between atoms: CB_38  and  CG2_40 
REMARK   24  A    between atoms: N_41  and  CA_42 
REMARK   25  A    between atoms: CA_42  and  C_43 
REMARK   26  A    between atoms: CA_42  and  CB_45 
REMARK       I    between atoms: C_43  and  N_48 
REMARK   27  A    between atoms: CB_45  and  CG1_46 
REMARK   28  A    between atoms: CB_45  and  CG2_47 
REMARK   29  A    between atoms: N_48  and  CA_49 
REMARK   30  A    between atoms: CA_49  and  C_50 
REMARK   31  A    between atoms: CA_49  and  CB_52 
REMARK       I    between atoms: C_50  and  N_55 
REMARK   32  A    between atoms: CB_52  and  OG1_53 
REMARK   33  A    between atoms: CB_52  and  CG2_54 
REMARK   34  A    between atoms: N_55  and  CA_56 
REMARK   35  A    between atoms: CA_56  and  CB_57 
REMARK   36  A    between atoms: CA_56  and  C_59 
REMARK   37  A    between atoms: CB_57  and  OG_58 
REMARK   38  A    between atoms: OG_58  and  P_61 
ROOT
ATOM      1  CA  TYR d   1       3.719  37.489   1.961  0.00  0.00     0.093 C 
ATOM      2  H26 TYR d   1       4.155  38.358   1.447  0.00  0.00     0.088 H 
ENDROOT
BRANCH   1   3
ATOM      3  N   TYR d   1       2.314  37.818   2.193  0.00  0.00    -0.346 N 
ATOM      4  C   ASN d   1       1.951  39.091   2.343  0.00  0.00     0.241 C 
ATOM      5  O   ASN d   1       2.762  40.016   2.309  0.00  0.00    -0.271 OA
ATOM      6  H25 TYR d   1       1.629  37.091   2.239  0.00  0.00     0.163 HD
BRANCH   4   7
ATOM      7  CA  ASN d   1       0.475  39.382   2.565  0.00  0.00     0.097 C 
ATOM      8  H20 ASN d   1       0.015  39.570   1.583  0.00  0.00     0.088 H 
BRANCH   7   9
ATOM      9  N   ASN d   1      -0.239  38.276   3.186  0.00  0.00    -0.346 N 
ATOM     10  C   GLY d   1      -0.855  37.346   2.464  0.00  0.00     0.236 C 
ATOM     11  O   GLY d   1      -0.785  37.288   1.238  0.00  0.00    -0.272 OA
ATOM     12  H19 ASN d   1      -0.267  38.214   4.184  0.00  0.00     0.163 HD
BRANCH  10  13
ATOM     13  CA  GLY d   1      -1.673  36.342   3.249  0.00  0.00     0.069 C 
ATOM     14  H17 GLY d   1      -2.229  35.692   2.557  0.00  0.00     0.078 H 
ATOM     15  H18 GLY d   1      -1.008  35.728   3.874  0.00  0.00     0.078 H 
BRANCH  13  16
ATOM     16  N   GLY d   1      -2.601  37.072   4.089  0.00  0.00    -0.351 N 
ATOM     17  C   LYS d   1      -3.541  37.847   3.559  0.00  0.00     0.248 C 
ATOM     18  O   LYS d   1      -3.771  37.884   2.353  0.00  0.00    -0.271 OA
ATOM     19  H16 GLY d   1      -2.533  36.991   5.083  0.00  0.00     0.163 HD
BRANCH  17  20
ATOM     20  CA  LYS d   1      -4.342  38.701   4.530  0.00  0.00     0.176 C 
ATOM     21  H4  LYS d   1      -4.458  38.149   5.474  0.00  0.00     0.099 H 
BRANCH  20  22
ATOM     22  N   LYS d   1      -3.621  39.975   4.805  0.00  0.00    -0.067 N 
ATOM     23  H1  LYS d   1      -4.159  40.533   5.449  0.00  0.00     0.275 HD
ATOM     24  H2  LYS d   1      -3.495  40.483   3.943  0.00  0.00     0.275 HD
ATOM     25  H3  LYS d   1      -2.720  39.771   5.209  0.00  0.00     0.275 HD
ENDBRANCH  20  22
BRANCH  20  26
ATOM     26  CB  LYS d   1      -5.731  38.991   3.957  0.00  0.00    -0.030 C 
ATOM     27  H5  LYS d   1      -6.249  38.032   3.805  0.00  0.00     0.036 H 
ATOM     28  H6  LYS d   1      -5.606  39.498   2.989  0.00  0.00     0.036 H 
BRANCH  26  29
ATOM     29  CG  LYS d   1      -6.602  39.869   4.847  0.00  0.00    -0.061 C 
ATOM     30  H7  LYS d   1      -6.031  40.765   5.132  0.00  0.00     0.033 H 
ATOM     31  H8  LYS d   1      -6.872  39.303   5.751  0.00  0.00     0.033 H 
BRANCH  29  32
ATOM     32  CD  LYS d   1      -7.879  40.302   4.136  0.00  0.00    -0.043 C 
ATOM     33  H9  LYS d   1      -8.479  39.410   3.904  0.00  0.00     0.035 H 
ATOM     34  H10 LYS d   1      -7.611  40.817   3.201  0.00  0.00     0.035 H 
BRANCH  32  35
ATOM     35  CE  LYS d   1      -8.706  41.245   5.002  0.00  0.00     0.080 C 
ATOM     36  H11 LYS d   1      -8.073  42.094   5.301  0.00  0.00     0.075 H 
ATOM     37  H12 LYS d   1      -9.037  40.700   5.899  0.00  0.00     0.075 H 
BRANCH  35  38
ATOM     38  NZ  LYS d   1      -9.909  41.773   4.293  0.00  0.00    -0.079 N 
ATOM     39  H13 LYS d   1     -10.418  42.389   4.908  0.00  0.00     0.274 HD
ATOM     40  H14 LYS d   1     -10.502  41.005   4.020  0.00  0.00     0.274 HD
ATOM     41  H15 LYS d   1      -9.619  42.282   3.473  0.00  0.00     0.274 HD
ENDBRANCH  35  38
ENDBRANCH  32  35
ENDBRANCH  29  32
ENDBRANCH  26  29
ENDBRANCH  20  26
ENDBRANCH  17  20
ENDBRANCH  13  16
ENDBRANCH  10  13
ENDBRANCH   7   9
BRANCH   7  42
ATOM     42  CB  ASN d   1       0.331  40.647   3.422  0.00  0.00     0.036 C 
ATOM     43  H21 ASN d   1      -0.738  40.830   3.603  0.00  0.00     0.051 H 
ATOM     44  H22 ASN d   1       0.760  41.497   2.871  0.00  0.00     0.051 H 
BRANCH  42  45
ATOM     45  CG  ASN d   1       1.039  40.529   4.762  0.00  0.00     0.217 C 
ATOM     46  OD1 ASN d   1       1.482  39.450   5.151  0.00  0.00    -0.274 OA
ATOM     47  ND2 ASN d   1       1.140  41.643   5.478  0.00  0.00    -0.370 N 
ATOM     48  H23 ASN d   1       1.596  41.626   6.368  0.00  0.00     0.159 HD
ATOM     49  H24 ASN d   1       0.760  42.499   5.127  0.00  0.00     0.159 HD
ENDBRANCH  42  45
ENDBRANCH   7  42
ENDBRANCH   4   7
ENDBRANCH   1   3
BRANCH   1  50
ATOM     50  C   TYR d   1       3.975  36.284   1.055  0.00  0.00     0.241 C 
ATOM     51  O   TYR d   1       3.135  35.397   0.899  0.00  0.00    -0.271 OA
ATOM     52  N   VAL d   1       5.160  36.289   0.457  0.00  0.00    -0.346 N 
ATOM     53  H34 VAL d   1       5.782  37.051   0.639  0.00  0.00     0.163 HD
BRANCH  52  54
ATOM     54  CA  VAL d   1       5.598  35.240  -0.451  0.00  0.00     0.092 C 
ATOM     55  H35 VAL d   1       4.749  34.574  -0.663  0.00  0.00     0.088 H 
BRANCH  54  56
ATOM     56  C   VAL d   1       6.717  34.433   0.196  0.00  0.00     0.241 C 
ATOM     57  O   VAL d   1       7.629  35.000   0.811  0.00  0.00    -0.271 OA
ATOM     58  N   VAL d   1       6.627  33.111   0.076  0.00  0.00    -0.346 N 
ATOM     59  H43 VAL d   1       5.802  32.715  -0.328  0.00  0.00     0.163 HD
BRANCH  58  60
ATOM     60  CA  VAL d   1       7.697  32.221   0.516  0.00  0.00     0.092 C 
ATOM     61  H44 VAL d   1       8.405  32.802   1.125  0.00  0.00     0.088 H 
BRANCH  60  62
ATOM     62  C   VAL d   1       8.436  31.674  -0.704  0.00  0.00     0.241 C 
ATOM     63  O   VAL d   1       9.647  31.833  -0.825  0.00  0.00    -0.271 OA
ATOM     64  N   THR d   1       7.695  31.042  -1.607  0.00  0.00    -0.344 N 
ATOM     65  H52 THR d   1       6.723  30.895  -1.422  0.00  0.00     0.163 HD
BRANCH  64  66
ATOM     66  CA  THR d   1       8.261  30.556  -2.864  0.00  0.00     0.113 C 
ATOM     67  H53 THR d   1       9.341  30.395  -2.731  0.00  0.00     0.091 H 
BRANCH  66  68
ATOM     68  C   THR d   1       8.043  31.609  -3.947  0.00  0.00     0.243 C 
ATOM     69  O   THR d   1       6.909  31.893  -4.323  0.00  0.00    -0.271 OA
ATOM     70  N   SEP d   1       9.133  32.189  -4.442  0.00  0.00    -0.343 N 
ATOM     71  H59 SEP d   1      10.029  31.836  -4.173  0.00  0.00     0.163 HD
BRANCH  70  72
ATOM     72  CA  SEP d   1       9.075  33.305  -5.350  0.00  0.00     0.117 C 
ATOM     73  H60 SEP d   1       8.250  33.968  -5.050  0.00  0.00     0.093 H 
BRANCH  72  74
ATOM     74  CB  SEP d   1      10.368  34.052  -5.273  0.00  0.00     0.060 C 
ATOM     75  H61 SEP d   1      10.449  34.477  -4.262  0.00  0.00     0.079 H 
ATOM     76  H62 SEP d   1      10.328  34.867  -6.011  0.00  0.00     0.079 H 
BRANCH  74  77
ATOM     77  OG  SEP d   1      11.512  33.325  -5.514  0.00  0.00    -0.280 OA
BRANCH  77  78
ATOM     78  P   SEP d   1      12.936  33.960  -5.514  0.00  0.00     0.422 P 
ATOM     79  O1P SEP d   1      13.434  34.105  -4.091  0.00  0.00    -0.617 OA
ATOM     80  O2P SEP d   1      13.835  33.034  -6.304  0.00  0.00    -0.617 OA
ATOM     81  O3P SEP d   1      12.918  35.308  -6.187  0.00  0.00    -0.617 OA
ENDBRANCH  77  78
ENDBRANCH  74  77
ENDBRANCH  72  74
BRANCH  72  82
ATOM     82  C   SEP d   1       8.851  32.861  -6.758  0.00  0.00     0.198 C 
ATOM     83  O   SEP d   1       8.825  31.634  -7.044  0.00  0.00    -0.646 OA
ATOM     84  O   SEP d   1       8.687  33.719  -7.666  0.00  0.00    -0.646 OA
ENDBRANCH  72  82
ENDBRANCH  70  72
ENDBRANCH  66  68
BRANCH  66  85
ATOM     85  CB  THR d   1       7.611  29.225  -3.280  0.00  0.00     0.060 C 
ATOM     86  H54 THR d   1       6.528  29.378  -3.395  0.00  0.00     0.086 H 
BRANCH  85  87
ATOM     87  OG1 THR d   1       7.846  28.246  -2.263  0.00  0.00    -0.393 OA
ATOM     88  H55 THR d   1       7.467  28.544  -1.445  0.00  0.00     0.210 HD
ENDBRANCH  85  87
BRANCH  85  89
ATOM     89  CG2 THR d   1       8.181  28.724  -4.598  0.00  0.00    -0.050 C 
ATOM     90  H56 THR d   1       7.698  27.773  -4.869  0.00  0.00     0.031 H 
ATOM     91  H57 THR d   1       9.265  28.568  -4.493  0.00  0.00     0.031 H 
ATOM     92  H58 THR d   1       7.992  29.468  -5.386  0.00  0.00     0.031 H 
ENDBRANCH  85  89
ENDBRANCH  66  85
ENDBRANCH  64  66
ENDBRANCH  60  62
BRANCH  60  93
ATOM     93  CB  VAL d   1       7.152  31.067   1.379  0.00  0.00    -0.033 C 
ATOM     94  H45 VAL d   1       6.366  30.547   0.812  0.00  0.00     0.042 H 
BRANCH  93  95
ATOM     95  CG1 VAL d   1       8.249  30.066   1.707  0.00  0.00    -0.071 C 
ATOM     96  H46 VAL d   1       7.833  29.255   2.322  0.00  0.00     0.028 H 
ATOM     97  H47 VAL d   1       9.053  30.572   2.262  0.00  0.00     0.028 H 
ATOM     98  H48 VAL d   1       8.654  29.647   0.774  0.00  0.00     0.028 H 
ENDBRANCH  93  95
BRANCH  93  99
ATOM     99  CG2 VAL d   1       6.542  31.624   2.656  0.00  0.00    -0.071 C 
ATOM    100  H49 VAL d   1       5.752  32.345   2.401  0.00  0.00     0.028 H 
ATOM    101  H50 VAL d   1       7.322  32.128   3.245  0.00  0.00     0.028 H 
ATOM    102  H51 VAL d   1       6.111  30.801   3.246  0.00  0.00     0.028 H 
ENDBRANCH  93  99
ENDBRANCH  60  93
ENDBRANCH  58  60
ENDBRANCH  54  56
BRANCH  54 103
ATOM    103  CB  VAL d   1       6.104  35.850  -1.779  0.00  0.00    -0.033 C 
ATOM    104  H36 VAL d   1       6.842  36.629  -1.539  0.00  0.00     0.042 H 
BRANCH 103 105
ATOM    105  CG1 VAL d   1       6.790  34.801  -2.643  0.00  0.00    -0.071 C 
ATOM    106  H37 VAL d   1       7.137  35.266  -3.578  0.00  0.00     0.028 H 
ATOM    107  H38 VAL d   1       6.078  33.996  -2.877  0.00  0.00     0.028 H 
ATOM    108  H39 VAL d   1       7.650  34.384  -2.099  0.00  0.00     0.028 H 
ENDBRANCH 103 105
BRANCH 103 109
ATOM    109  CG2 VAL d   1       4.954  36.500  -2.531  0.00  0.00    -0.071 C 
ATOM    110  H40 VAL d   1       4.474  37.253  -1.888  0.00  0.00     0.028 H 
ATOM    111  H41 VAL d   1       4.217  35.732  -2.809  0.00  0.00     0.028 H 
ATOM    112  H42 VAL d   1       5.338  36.986  -3.440  0.00  0.00     0.028 H 
ENDBRANCH 103 109
ENDBRANCH  54 103
ENDBRANCH  52  54
ENDBRANCH   1  50
BRANCH   1 113
ATOM    113  CB  TYR d   1       4.467  37.327   3.289  0.00  0.00    -0.014 C 
ATOM    114  H27 TYR d   1       4.250  38.210   3.908  0.00  0.00     0.043 H 
ATOM    115  H28 TYR d   1       5.544  37.291   3.067  0.00  0.00     0.043 H 
BRANCH 113 116
ATOM    116  CG  TYR d   1       4.118  36.094   4.100  0.00  0.00    -0.056 A 
ATOM    117  CD1 TYR d   1       4.731  34.876   3.848  0.00  0.00    -0.074 A 
ATOM    118  CE1 TYR d   1       4.431  33.753   4.600  0.00  0.00    -0.051 A 
ATOM    119  H29 TYR d   1       5.458  34.802   3.048  0.00  0.00     0.084 H 
ATOM    120  CZ  TYR d   1       3.516  33.842   5.625  0.00  0.00     0.065 A 
ATOM    121  H31 TYR d   1       4.915  32.807   4.383  0.00  0.00     0.087 H 
ATOM    122  CE2 TYR d   1       2.899  35.041   5.903  0.00  0.00    -0.051 A 
ATOM    123  CD2 TYR d   1       3.206  36.160   5.146  0.00  0.00    -0.074 A 
ATOM    124  H32 TYR d   1       2.178  35.109   6.709  0.00  0.00     0.087 H 
ATOM    125  H30 TYR d   1       2.726  37.105   5.374  0.00  0.00     0.084 H 
BRANCH 120 126
ATOM    126  OH  TYR d   1       3.220  32.729   6.377  0.00  0.00    -0.361 OA
ATOM    127  H33 TYR d   1       2.293  32.535   6.302  0.00  0.00     0.217 HD
ENDBRANCH 120 126
ENDBRANCH 113 116
ENDBRANCH   1 113
TORSDOF 38
