REMARK WARNING: 32 MAX_TORS EXCEEDED!!!
REMARK  43 active torsions:
REMARK  status: ('A' for Active; 'I' for Inactive)
REMARK    1  A    between atoms: N_1  and  CA_2 
REMARK    2  A    between atoms: CA_2  and  C_3 
REMARK    3  A    between atoms: CA_2  and  CB_5 
REMARK       I    between atoms: C_3  and  N_10 
REMARK    4  A    between atoms: CB_5  and  CG_6 
REMARK    5  A    between atoms: CG_6  and  CD_7 
REMARK    6  A    between atoms: CD_7  and  CE_8 
REMARK    7  A    between atoms: CE_8  and  NZ_9 
REMARK    8  A    between atoms: N_10  and  CA_11 
REMARK    9  A    between atoms: CA_11  and  C_12 
REMARK       I    between atoms: C_12  and  N_14 
REMARK   10  A    between atoms: N_14  and  CA_15 
REMARK   11  A    between atoms: CA_15  and  C_16 
REMARK   12  A    between atoms: CA_15  and  CB_18 
REMARK       I    between atoms: C_16  and  N_22 
REMARK   13  A    between atoms: CB_18  and  CG_19 
REMARK       I    between atoms: CG_19  and  ND2_21 
REMARK   14  A    between atoms: N_22  and  CA_23 
REMARK   15  A    between atoms: CA_23  and  C_24 
REMARK   16  A    between atoms: CA_23  and  CB_26 
REMARK       I    between atoms: C_24  and  N_34 
REMARK   17  A    between atoms: CB_26  and  CG_27 
REMARK   18  A    between atoms: CZ_32  and  OH_33 
REMARK   19  A    between atoms: N_34  and  CA_35 
REMARK   20  A    between atoms: CA_35  and  C_36 
REMARK   21  A    between atoms: CA_35  and  CB_38 
REMARK       I    between atoms: C_36  and  N_41 
REMARK   22  A    between atoms: CB_38  and  CG1_39 
REMARK   23  A    between atoms: CB_38  and  CG2_40 
REMARK   24  A    between atoms: N_41  and  CA_42 
REMARK   25  A    between atoms: CA_42  and  C_43 
REMARK   26  A    between atoms: CA_42  and  CB_45 
REMARK       I    between atoms: C_43  and  N_48 
REMARK   27  A    between atoms: CB_45  and  CG1_46 
REMARK   28  A    between atoms: CB_45  and  CG2_47 
REMARK   29  A    between atoms: N_48  and  CA_49 
REMARK   30  A    between atoms: CA_49  and  C_50 
REMARK   31  A    between atoms: CA_49  and  CB_52 
REMARK       I    between atoms: C_50  and  N_55 
REMARK   32  A    between atoms: CB_52  and  OG1_53 
REMARK   33  A    between atoms: CB_52  and  CG2_54 
REMARK   34  A    between atoms: N_55  and  CA_56 
REMARK   35  A    between atoms: CA_56  and  CB_57 
REMARK   36  A    between atoms: CA_56  and  C_64 
REMARK   37  A    between atoms: CB_57  and  CG2_58 
REMARK   38  A    between atoms: CB_57  and  OG1_59 
REMARK   39  A    between atoms: OG1_59  and  P_60 
REMARK       I    between atoms: C_64  and  N_66 
REMARK   40  A    between atoms: N_66  and  CA_67 
REMARK   41  A    between atoms: CA_67  and  C_68 
REMARK   42  A    between atoms: CA_67  and  CB_70 
REMARK   43  A    between atoms: CB_70  and  CG_71 
ROOT
ATOM      1  CA  VAL d   1       5.437  35.051  -0.350  0.00  0.00     0.092 C 
ATOM      2  H35 VAL d   1       4.589  34.361  -0.476  0.00  0.00     0.088 H 
ENDROOT
BRANCH   1   3
ATOM      3  N   VAL d   1       5.037  36.134   0.545  0.00  0.00    -0.346 N 
ATOM      4  C   TYR d   1       3.859  36.191   1.149  0.00  0.00     0.241 C 
ATOM      5  O   TYR d   1       2.960  35.337   1.026  0.00  0.00    -0.271 OA
ATOM      6  H34 VAL d   1       5.689  36.874   0.711  0.00  0.00     0.163 HD
BRANCH   4   7
ATOM      7  CA  TYR d   1       3.674  37.417   2.024  0.00  0.00     0.093 C 
ATOM      8  H26 TYR d   1       4.115  38.275   1.494  0.00  0.00     0.088 H 
BRANCH   7   9
ATOM      9  N   TYR d   1       2.292  37.736   2.291  0.00  0.00    -0.346 N 
ATOM     10  C   ASN d   1       1.932  39.008   2.462  0.00  0.00     0.241 C 
ATOM     11  O   ASN d   1       2.756  39.946   2.368  0.00  0.00    -0.271 OA
ATOM     12  H25 TYR d   1       1.609  37.008   2.347  0.00  0.00     0.163 HD
BRANCH  10  13
ATOM     13  CA  ASN d   1       0.469  39.293   2.761  0.00  0.00     0.097 C 
ATOM     14  H20 ASN d   1      -0.045  39.475   1.806  0.00  0.00     0.088 H 
BRANCH  13  15
ATOM     15  N   ASN d   1      -0.223  38.202   3.444  0.00  0.00    -0.346 N 
ATOM     16  C   GLY d   1      -1.112  37.407   2.847  0.00  0.00     0.236 C 
ATOM     17  O   GLY d   1      -1.337  37.421   1.634  0.00  0.00    -0.272 OA
ATOM     18  H19 ASN d   1      -0.019  38.043   4.410  0.00  0.00     0.163 HD
BRANCH  16  19
ATOM     19  CA  GLY d   1      -1.837  36.439   3.768  0.00  0.00     0.069 C 
ATOM     20  H17 GLY d   1      -1.139  35.636   4.047  0.00  0.00     0.078 H 
ATOM     21  H18 GLY d   1      -2.147  36.985   4.671  0.00  0.00     0.078 H 
BRANCH  19  22
ATOM     22  N   GLY d   1      -3.013  35.837   3.170  0.00  0.00    -0.351 N 
ATOM     23  C   LYS d   1      -4.082  36.566   2.866  0.00  0.00     0.248 C 
ATOM     24  O   LYS d   1      -4.137  37.782   3.060  0.00  0.00    -0.271 OA
ATOM     25  H16 GLY d   1      -3.020  34.855   2.983  0.00  0.00     0.163 HD
BRANCH  23  26
ATOM     26  CA  LYS d   1      -5.251  35.817   2.221  0.00  0.00     0.176 C 
ATOM     27  H4  LYS d   1      -5.113  34.739   2.393  0.00  0.00     0.099 H 
BRANCH  26  28
ATOM     28  N   LYS d   1      -6.528  36.207   2.809  0.00  0.00    -0.067 N 
ATOM     29  H1  LYS d   1      -7.274  35.696   2.362  0.00  0.00     0.275 HD
ATOM     30  H2  LYS d   1      -6.671  37.196   2.676  0.00  0.00     0.275 HD
ATOM     31  H3  LYS d   1      -6.522  35.998   3.795  0.00  0.00     0.275 HD
ENDBRANCH  26  28
BRANCH  26  32
ATOM     32  CB  LYS d   1      -5.229  36.078   0.707  0.00  0.00    -0.030 C 
ATOM     33  H5  LYS d   1      -5.338  37.159   0.534  0.00  0.00     0.036 H 
ATOM     34  H6  LYS d   1      -6.073  35.546   0.245  0.00  0.00     0.036 H 
BRANCH  32  35
ATOM     35  CG  LYS d   1      -3.926  35.602   0.047  0.00  0.00    -0.061 C 
ATOM     36  H7  LYS d   1      -4.126  34.650  -0.467  0.00  0.00     0.033 H 
ATOM     37  H8  LYS d   1      -3.177  35.442   0.837  0.00  0.00     0.033 H 
BRANCH  35  38
ATOM     38  CD  LYS d   1      -3.345  36.590  -0.976  0.00  0.00    -0.043 C 
ATOM     39  H9  LYS d   1      -2.344  36.246  -1.275  0.00  0.00     0.035 H 
ATOM     40  H10 LYS d   1      -3.268  37.583  -0.509  0.00  0.00     0.035 H 
BRANCH  38  41
ATOM     41  CE  LYS d   1      -4.231  36.695  -2.227  0.00  0.00     0.080 C 
ATOM     42  H11 LYS d   1      -5.030  37.422  -2.022  0.00  0.00     0.075 H 
ATOM     43  H12 LYS d   1      -4.675  35.707  -2.418  0.00  0.00     0.075 H 
BRANCH  41  44
ATOM     44  NZ  LYS d   1      -3.498  37.136  -3.479  0.00  0.00    -0.079 N 
ATOM     45  H13 LYS d   1      -4.146  37.180  -4.250  0.00  0.00     0.274 HD
ATOM     46  H14 LYS d   1      -2.767  36.475  -3.691  0.00  0.00     0.274 HD
ATOM     47  H15 LYS d   1      -3.093  38.047  -3.328  0.00  0.00     0.274 HD
ENDBRANCH  41  44
ENDBRANCH  38  41
ENDBRANCH  35  38
ENDBRANCH  32  35
ENDBRANCH  26  32
ENDBRANCH  23  26
ENDBRANCH  19  22
ENDBRANCH  16  19
ENDBRANCH  13  15
BRANCH  13  48
ATOM     48  CB  ASN d   1       0.386  40.562   3.626  0.00  0.00     0.036 C 
ATOM     49  H21 ASN d   1      -0.672  40.784   3.828  0.00  0.00     0.051 H 
ATOM     50  H22 ASN d   1       0.836  41.398   3.071  0.00  0.00     0.051 H 
BRANCH  48  51
ATOM     51  CG  ASN d   1       1.118  40.405   4.957  0.00  0.00     0.217 C 
ATOM     52  OD1 ASN d   1       1.632  39.344   5.260  0.00  0.00    -0.274 OA
ATOM     53  ND2 ASN d   1       1.175  41.479   5.745  0.00  0.00    -0.370 N 
ATOM     54  H23 ASN d   1       1.643  41.428   6.627  0.00  0.00     0.159 HD
ATOM     55  H24 ASN d   1       0.750  42.336   5.454  0.00  0.00     0.159 HD
ENDBRANCH  48  51
ENDBRANCH  13  48
ENDBRANCH  10  13
ENDBRANCH   7   9
BRANCH   7  56
ATOM     56  CB  TYR d   1       4.434  37.219   3.336  0.00  0.00    -0.014 C 
ATOM     57  H27 TYR d   1       4.236  38.095   3.971  0.00  0.00     0.043 H 
ATOM     58  H28 TYR d   1       5.507  37.175   3.096  0.00  0.00     0.043 H 
BRANCH  56  59
ATOM     59  CG  TYR d   1       4.092  35.978   4.143  0.00  0.00    -0.056 A 
ATOM     60  CD1 TYR d   1       4.710  34.759   3.880  0.00  0.00    -0.074 A 
ATOM     61  CE1 TYR d   1       4.434  33.606   4.658  0.00  0.00    -0.051 A 
ATOM     62  H29 TYR d   1       5.418  34.689   3.062  0.00  0.00     0.084 H 
ATOM     63  CZ  TYR d   1       3.538  33.693   5.696  0.00  0.00     0.065 A 
ATOM     64  H31 TYR d   1       4.925  32.665   4.436  0.00  0.00     0.087 H 
ATOM     65  CE2 TYR d   1       2.911  34.898   5.979  0.00  0.00    -0.051 A 
ATOM     66  CD2 TYR d   1       3.193  36.036   5.207  0.00  0.00    -0.074 A 
ATOM     67  H32 TYR d   1       2.203  34.961   6.797  0.00  0.00     0.087 H 
ATOM     68  H30 TYR d   1       2.704  36.975   5.442  0.00  0.00     0.084 H 
BRANCH  63  69
ATOM     69  OH  TYR d   1       3.298  32.580   6.467  0.00  0.00    -0.361 OA
ATOM     70  H33 TYR d   1       2.373  32.366   6.432  0.00  0.00     0.217 HD
ENDBRANCH  63  69
ENDBRANCH  56  59
ENDBRANCH   7  56
ENDBRANCH   4   7
ENDBRANCH   1   3
BRANCH   1  71
ATOM     71  C   VAL d   1       6.618  34.292   0.251  0.00  0.00     0.241 C 
ATOM     72  O   VAL d   1       7.546  34.924   0.789  0.00  0.00    -0.271 OA
ATOM     73  N   VAL d   1       6.581  32.966   0.136  0.00  0.00    -0.346 N 
ATOM     74  H43 VAL d   1       5.752  32.545  -0.231  0.00  0.00     0.163 HD
BRANCH  73  75
ATOM     75  CA  VAL d   1       7.689  32.094   0.518  0.00  0.00     0.092 C 
ATOM     76  H44 VAL d   1       8.409  32.685   1.103  0.00  0.00     0.088 H 
BRANCH  75  77
ATOM     77  C   VAL d   1       8.400  31.572  -0.730  0.00  0.00     0.241 C 
ATOM     78  O   VAL d   1       9.594  31.782  -0.892  0.00  0.00    -0.271 OA
ATOM     79  N   THR d   1       7.662  30.937  -1.644  0.00  0.00    -0.344 N 
ATOM     80  H52 THR d   1       6.678  30.834  -1.498  0.00  0.00     0.163 HD
BRANCH  79  81
ATOM     81  CA  THR d   1       8.276  30.387  -2.863  0.00  0.00     0.113 C 
ATOM     82  H53 THR d   1       9.356  30.275  -2.684  0.00  0.00     0.091 H 
BRANCH  81  83
ATOM     83  C   THR d   1       8.076  31.357  -4.043  0.00  0.00     0.243 C 
ATOM     84  O   THR d   1       6.926  31.647  -4.397  0.00  0.00    -0.271 OA
ATOM     85  N   TPO d   1       9.181  31.870  -4.601  0.00  0.00    -0.344 N 
ATOM     86  H59 TPO d   1      10.062  31.666  -4.174  0.00  0.00     0.163 HD
BRANCH  85  87
ATOM     87  CA  TPO d   1       9.177  32.646  -5.705  0.00  0.00     0.114 C 
ATOM     88  H60 TPO d   1       8.171  33.084  -5.780  0.00  0.00     0.091 H 
BRANCH  87  89
ATOM     89  CB  TPO d   1      10.144  33.780  -5.466  0.00  0.00     0.076 C 
ATOM     90  H61 TPO d   1      10.165  34.437  -6.348  0.00  0.00     0.087 H 
BRANCH  89  91
ATOM     91  CG2 TPO d   1       9.767  34.594  -4.269  0.00  0.00    -0.049 C 
ATOM     92  H62 TPO d   1      10.496  35.406  -4.133  0.00  0.00     0.031 H 
ATOM     93  H63 TPO d   1       9.762  33.952  -3.376  0.00  0.00     0.031 H 
ATOM     94  H64 TPO d   1       8.765  35.023  -4.418  0.00  0.00     0.031 H 
ENDBRANCH  89  91
BRANCH  89  95
ATOM     95  OG1 TPO d   1      11.402  33.195  -5.280  0.00  0.00    -0.275 OA
BRANCH  95  96
ATOM     96  P   TPO d   1      12.795  33.910  -5.478  0.00  0.00     0.422 P 
ATOM     97  O1P TPO d   1      13.381  34.107  -4.121  0.00  0.00    -0.617 OA
ATOM     98  O2P TPO d   1      13.689  32.957  -6.242  0.00  0.00    -0.617 OA
ATOM     99  O3P TPO d   1      12.667  35.182  -6.239  0.00  0.00    -0.617 OA
ENDBRANCH  95  96
ENDBRANCH  89  95
ENDBRANCH  87  89
BRANCH  87 100
ATOM    100  C   TPO d   1       9.390  31.991  -6.908  0.00  0.00     0.243 C 
ATOM    101  O   TPO d   1       9.646  30.802  -6.952  0.00  0.00    -0.271 OA
ATOM    102  N   HIS d   1       9.347  32.726  -8.014  0.00  0.00    -0.344 N 
ATOM    103  H65 HIS d   1       9.146  33.704  -7.957  0.00  0.00     0.163 HD
BRANCH 102 104
ATOM    104  CA  HIS d   1       9.593  32.104  -9.315  0.00  0.00     0.101 C 
ATOM    105  H66 HIS d   1      10.366  31.333  -9.179  0.00  0.00     0.090 H 
BRANCH 104 106
ATOM    106  C   HIS d   1      10.094  33.090 -10.363  0.00  0.00     0.197 C 
ATOM    107  O   HIS d   1      10.054  34.309 -10.169  0.00  0.00    -0.646 OA
ATOM    108  OXT HIS d   1      10.540  32.673 -11.435  0.00  0.00    -0.646 OA
ENDBRANCH 104 106
BRANCH 104 109
ATOM    109  CB  HIS d   1       8.316  31.429  -9.820  0.00  0.00     0.005 C 
ATOM    110  H67 HIS d   1       8.070  30.599  -9.141  0.00  0.00     0.046 H 
ATOM    111  H68 HIS d   1       8.508  31.033 -10.828  0.00  0.00     0.046 H 
BRANCH 109 112
ATOM    112  CG  HIS d   1       7.136  32.348  -9.890  0.00  0.00     0.053 A 
ATOM    113  ND1 HIS d   1       7.043  33.372 -10.810  0.00  0.00    -0.247 NA
ATOM    114  CE1 HIS d   1       5.899  34.012 -10.640  0.00  0.00     0.064 A 
ATOM    115  NE2 HIS d   1       5.248  33.442  -9.641  0.00  0.00    -0.359 N 
ATOM    116  H70 HIS d   1       5.552  34.864 -11.223  0.00  0.00     0.143 H 
ATOM    117  CD2 HIS d   1       5.999  32.398  -9.155  0.00  0.00     0.002 A 
ATOM    118  H71 HIS d   1       4.327  33.733  -9.284  0.00  0.00     0.166 HD
ATOM    119  H69 HIS d   1       5.730  31.736  -8.333  0.00  0.00     0.114 H 
ENDBRANCH 109 112
ENDBRANCH 104 109
ENDBRANCH 102 104
ENDBRANCH  87 100
ENDBRANCH  85  87
ENDBRANCH  81  83
BRANCH  81 120
ATOM    120  CB  THR d   1       7.699  28.999  -3.203  0.00  0.00     0.060 C 
ATOM    121  H54 THR d   1       6.612  29.091  -3.344  0.00  0.00     0.086 H 
BRANCH 120 122
ATOM    122  OG1 THR d   1       7.969  28.087  -2.129  0.00  0.00    -0.393 OA
ATOM    123  H55 THR d   1       7.565  28.410  -1.332  0.00  0.00     0.210 HD
ENDBRANCH 120 122
BRANCH 120 124
ATOM    124  CG2 THR d   1       8.321  28.429  -4.468  0.00  0.00    -0.050 C 
ATOM    125  H56 THR d   1       7.886  27.441  -4.678  0.00  0.00     0.031 H 
ATOM    126  H57 THR d   1       9.408  28.329  -4.329  0.00  0.00     0.031 H 
ATOM    127  H58 THR d   1       8.120  29.105  -5.312  0.00  0.00     0.031 H 
ENDBRANCH 120 124
ENDBRANCH  81 120
ENDBRANCH  79  81
ENDBRANCH  75  77
BRANCH  75 128
ATOM    128  CB  VAL d   1       7.187  30.930   1.407  0.00  0.00    -0.033 C 
ATOM    129  H45 VAL d   1       6.420  30.368   0.853  0.00  0.00     0.042 H 
BRANCH 128 130
ATOM    130  CG1 VAL d   1       8.332  29.988   1.734  0.00  0.00    -0.071 C 
ATOM    131  H46 VAL d   1       7.962  29.167   2.365  0.00  0.00     0.028 H 
ATOM    132  H47 VAL d   1       9.118  30.539   2.272  0.00  0.00     0.028 H 
ATOM    133  H48 VAL d   1       8.746  29.576   0.802  0.00  0.00     0.028 H 
ENDBRANCH 128 130
BRANCH 128 134
ATOM    134  CG2 VAL d   1       6.553  31.490   2.688  0.00  0.00    -0.071 C 
ATOM    135  H49 VAL d   1       5.728  32.168   2.423  0.00  0.00     0.028 H 
ATOM    136  H50 VAL d   1       7.312  32.043   3.261  0.00  0.00     0.028 H 
ATOM    137  H51 VAL d   1       6.165  30.661   3.298  0.00  0.00     0.028 H 
ENDBRANCH 128 134
ENDBRANCH  75 128
ENDBRANCH  73  75
ENDBRANCH   1  71
BRANCH   1 138
ATOM    138  CB  VAL d   1       5.842  35.604  -1.727  0.00  0.00    -0.033 C 
ATOM    139  H36 VAL d   1       6.591  36.394  -1.573  0.00  0.00     0.042 H 
BRANCH 138 140
ATOM    140  CG1 VAL d   1       6.465  34.532  -2.615  0.00  0.00    -0.071 C 
ATOM    141  H37 VAL d   1       6.737  34.973  -3.585  0.00  0.00     0.028 H 
ATOM    142  H38 VAL d   1       5.741  33.719  -2.772  0.00  0.00     0.028 H 
ATOM    143  H39 VAL d   1       7.366  34.131  -2.128  0.00  0.00     0.028 H 
ENDBRANCH 138 140
BRANCH 138 144
ATOM    144  CG2 VAL d   1       4.632  36.215  -2.400  0.00  0.00    -0.071 C 
ATOM    145  H40 VAL d   1       4.198  36.984  -1.745  0.00  0.00     0.028 H 
ATOM    146  H41 VAL d   1       3.884  35.431  -2.591  0.00  0.00     0.028 H 
ATOM    147  H42 VAL d   1       4.935  36.673  -3.353  0.00  0.00     0.028 H 
ENDBRANCH 138 144
ENDBRANCH   1 138
TORSDOF 43
