REMARK  3 active torsions:
REMARK  status: ('A' for Active; 'I' for Inactive)
REMARK    1  A    between atoms: C01_1  and  C04_4 
REMARK    2  A    between atoms: C01_1  and  C07_7 
REMARK       I    between atoms: C04_4  and  N05_5 
REMARK    3  A    between atoms: C07_7  and  C08_8 
ROOT
ATOM      1  C01 1LB d   1      11.917 -27.332  21.163  0.00  0.00     0.111 C 
ATOM      2  C02 1LB d   1      12.592 -26.701  22.332  0.00  0.00     0.073 C 
ATOM      3  N03 1LB d   1      13.113 -26.217  23.227  0.00  0.00    -0.196 NA
ATOM      4  H1  1LB d   1      10.990 -26.785  20.938  0.00  0.00     0.078 H 
ENDROOT
BRANCH   1   5
ATOM      5  C04 1LB d   1      12.826 -27.281  19.980  0.00  0.00     0.233 C 
ATOM      6  N05 1LB d   1      12.279 -27.169  18.664  0.00  0.00    -0.369 N 
ATOM      7  H2  1LB d   1      12.887 -27.135  17.871  0.00  0.00     0.159 HD
ATOM      8  H3  1LB d   1      11.288 -27.125  18.537  0.00  0.00     0.159 HD
ATOM      9  O06 1LB d   1      14.036 -27.346  20.133  0.00  0.00    -0.272 OA
ENDBRANCH   1   5
BRANCH   1  10
ATOM     10  C07 1LB d   1      11.591 -28.756  21.468  0.00  0.00    -0.018 C 
ATOM     11  H4  1LB d   1      10.728 -29.027  20.843  0.00  0.00     0.042 H 
ATOM     12  H5  1LB d   1      11.303 -28.797  22.529  0.00  0.00     0.042 H 
BRANCH  10  13
ATOM     13  C08 1LB d   1      12.625 -29.812  21.259  0.00  0.00    -0.055 A 
ATOM     14  C09 1LB d   1      12.746 -30.428  20.011  0.00  0.00    -0.075 A 
ATOM     15  C10 1LB d   1      13.710 -31.416  19.807  0.00  0.00    -0.054 A 
ATOM     16  H6  1LB d   1      12.089 -30.138  19.199  0.00  0.00     0.084 H 
ATOM     17  C11 1LB d   1      14.540 -31.774  20.862  0.00  0.00     0.061 A 
ATOM     18  H7  1LB d   1      13.810 -31.897  18.840  0.00  0.00     0.087 H 
ATOM     19  N12 1LB d   1      15.567 -32.700  20.965  0.00  0.00    -0.278 N 
ATOM     20  C15 1LB d   1      14.414 -31.154  22.108  0.00  0.00     0.012 A 
ATOM     21  N13 1LB d   1      16.069 -32.688  22.172  0.00  0.00    -0.186 NA
ATOM     22  H8  1LB d   1      15.888 -33.310  20.200  0.00  0.00     0.189 HD
ATOM     23  C14 1LB d   1      15.418 -31.770  22.927  0.00  0.00     0.034 A 
ATOM     24  H9  1LB d   1      15.621 -31.540  23.972  0.00  0.00     0.118 H 
ATOM     25  C16 1LB d   1      13.462 -30.177  22.304  0.00  0.00    -0.063 A 
ATOM     26  H10 1LB d   1      13.367 -29.695  23.271  0.00  0.00     0.085 H 
ENDBRANCH  10  13
ENDBRANCH   1  10
TORSDOF 3
