REMARK  5 active torsions:
REMARK  status: ('A' for Active; 'I' for Inactive)
REMARK    1  A    between atoms: C02_2  and  C03_3 
REMARK    2  A    between atoms: C02_2  and  C16_16 
REMARK    3  A    between atoms: C05_5  and  C06_6 
REMARK    4  A    between atoms: C06_6  and  C07_7 
REMARK    5  A    between atoms: C07_7  and  C10_10 
REMARK       I    between atoms: C10_10  and  N11_11 
ROOT
ATOM      1  C07 1LC d   1       2.566  11.648 -20.955  0.00  0.00     0.111 C 
ATOM      2  C08 1LC d   1       2.361  11.256 -19.521  0.00  0.00     0.073 C 
ATOM      3  N09 1LC d   1       2.213  10.962 -18.426  0.00  0.00    -0.196 NA
ATOM      4  H4  1LC d   1       1.872  12.457 -21.227  0.00  0.00     0.078 H 
ENDROOT
BRANCH   1   5
ATOM      5  C06 1LC d   1       3.974  12.118 -21.131  0.00  0.00    -0.018 C 
ATOM      6  H2  1LC d   1       4.059  12.517 -22.153  0.00  0.00     0.042 H 
ATOM      7  H3  1LC d   1       4.140  12.929 -20.406  0.00  0.00     0.042 H 
BRANCH   5   8
ATOM      8  C05 1LC d   1       5.096  11.114 -20.946  0.00  0.00    -0.056 A 
ATOM      9  C04 1LC d   1       5.474  10.176 -22.059  0.00  0.00    -0.063 A 
ATOM     10  C03 1LC d   1       6.495   9.252 -21.886  0.00  0.00     0.015 A 
ATOM     11  H1  1LC d   1       4.945  10.222 -23.004  0.00  0.00     0.085 H 
ATOM     12  C15 1LC d   1       7.217   9.193 -20.584  0.00  0.00    -0.069 A 
ATOM     13  C14 1LC d   1       6.873  10.050 -19.564  0.00  0.00    -0.082 A 
ATOM     14  H9  1LC d   1       8.015   8.473 -20.440  0.00  0.00     0.085 H 
ATOM     15  C13 1LC d   1       5.765  11.048 -19.753  0.00  0.00    -0.077 A 
ATOM     16  H8  1LC d   1       7.404  10.005 -18.620  0.00  0.00     0.083 H 
ATOM     17  H7  1LC d   1       5.495  11.717 -18.944  0.00  0.00     0.084 H 
BRANCH  10  18
ATOM     18  C02 1LC d   1       6.885   8.305 -23.006  0.00  0.00     0.194 C 
ATOM     19  O01 1LC d   1       7.824   7.529 -22.853  0.00  0.00    -0.287 OA
BRANCH  18  20
ATOM     20  C16 1LC d   1       6.123   8.288 -24.318  0.00  0.00     0.044 A 
ATOM     21  C17 1LC d   1       4.738   8.280 -24.499  0.00  0.00    -0.006 A 
ATOM     22  N18 1LC d   1       4.490   8.266 -25.864  0.00  0.00    -0.349 N 
ATOM     23  H10 1LC d   1       3.987   8.284 -23.710  0.00  0.00     0.112 H 
ATOM     24  C19 1LC d   1       5.692   8.263 -26.561  0.00  0.00     0.138 A 
ATOM     25  H11 1LC d   1       3.555   8.259 -26.296  0.00  0.00     0.167 HD
ATOM     26  N20 1LC d   1       5.950   8.250 -27.873  0.00  0.00    -0.242 NA
ATOM     27  C24 1LC d   1       6.733   8.276 -25.626  0.00  0.00     0.025 A 
ATOM     28  C21 1LC d   1       7.212   8.250 -28.320  0.00  0.00     0.004 A 
ATOM     29  C22 1LC d   1       8.296   8.263 -27.443  0.00  0.00    -0.065 A 
ATOM     30  H12 1LC d   1       7.395   8.240 -29.388  0.00  0.00     0.114 H 
ATOM     31  C23 1LC d   1       8.050   8.276 -26.070  0.00  0.00    -0.067 A 
ATOM     32  H13 1LC d   1       9.312   8.263 -27.822  0.00  0.00     0.085 H 
ATOM     33  H14 1LC d   1       8.871   8.286 -25.362  0.00  0.00     0.085 H 
ENDBRANCH  18  20
ENDBRANCH  10  18
ENDBRANCH   5   8
ENDBRANCH   1   5
BRANCH   1  34
ATOM     34  C10 1LC d   1       2.301  10.450 -21.808  0.00  0.00     0.233 C 
ATOM     35  N11 1LC d   1       1.950  10.605 -23.196  0.00  0.00    -0.369 N 
ATOM     36  H5  1LC d   1       1.774   9.798 -23.760  0.00  0.00     0.159 HD
ATOM     37  H6  1LC d   1       1.882  11.519 -23.596  0.00  0.00     0.159 HD
ATOM     38  O12 1LC d   1       2.388   9.335 -21.322  0.00  0.00    -0.272 OA
ENDBRANCH   1  34
TORSDOF 5
