REMARK  15 active torsions:
REMARK  status: ('A' for Active; 'I' for Inactive)
REMARK       I    between atoms: C02_2  and  N03_3 
REMARK    1  A    between atoms: C02_2  and  C09_9 
REMARK    2  A    between atoms: N03_3  and  C04_4 
REMARK    3  A    between atoms: C04_4  and  C05_5 
REMARK    4  A    between atoms: C04_4  and  C06_6 
REMARK    5  A    between atoms: C04_4  and  C07_7 
REMARK    6  A    between atoms: C07_7  and  O08_8 
REMARK    7  A    between atoms: C09_9  and  C12_12 
REMARK    8  A    between atoms: C12_12  and  C13_13 
REMARK    9  A    between atoms: C19_19  and  C20_20 
REMARK   10  A    between atoms: C22_22  and  O23_23 
REMARK   11  A    between atoms: O23_23  and  C24_24 
REMARK   12  A    between atoms: C25_25  and  O26_26 
REMARK   13  A    between atoms: O26_26  and  C27_27 
REMARK   14  A    between atoms: C28_28  and  O29_29 
REMARK   15  A    between atoms: O29_29  and  C30_30 
ROOT
ATOM      1  C09 1LE d   1      12.531   5.179  20.349  0.00  0.00     0.111 C 
ATOM      2  C10 1LE d   1      12.104   5.102  18.933  0.00  0.00     0.073 C 
ATOM      3  N11 1LE d   1      11.779   5.030  17.836  0.00  0.00    -0.196 NA
ATOM      4  H11 1LE d   1      11.700   4.856  20.993  0.00  0.00     0.078 H 
ENDROOT
BRANCH   1   5
ATOM      5  C02 1LE d   1      13.701   4.233  20.526  0.00  0.00     0.236 C 
ATOM      6  O01 1LE d   1      14.646   4.562  21.229  0.00  0.00    -0.272 OA
ATOM      7  N03 1LE d   1      13.711   2.938  19.862  0.00  0.00    -0.349 N 
ATOM      8  H1  1LE d   1      12.937   2.671  19.288  0.00  0.00     0.163 HD
BRANCH   7   9
ATOM      9  C04 1LE d   1      14.834   2.026  20.024  0.00  0.00     0.046 C 
BRANCH   9  10
ATOM     10  C05 1LE d   1      16.085   2.665  19.525  0.00  0.00    -0.051 C 
ATOM     11  H2  1LE d   1      16.928   1.969  19.651  0.00  0.00     0.030 H 
ATOM     12  H3  1LE d   1      16.280   3.585  20.096  0.00  0.00     0.030 H 
ATOM     13  H4  1LE d   1      15.970   2.913  18.459  0.00  0.00     0.030 H 
ENDBRANCH   9  10
BRANCH   9  14
ATOM     14  C06 1LE d   1      14.997   1.656  21.453  0.00  0.00    -0.051 C 
ATOM     15  H5  1LE d   1      15.848   0.968  21.559  0.00  0.00     0.030 H 
ATOM     16  H6  1LE d   1      14.081   1.164  21.811  0.00  0.00     0.030 H 
ATOM     17  H7  1LE d   1      15.183   2.563  22.048  0.00  0.00     0.030 H 
ENDBRANCH   9  14
BRANCH   9  18
ATOM     18  C07 1LE d   1      14.573   0.786  19.231  0.00  0.00     0.039 C 
ATOM     19  H8  1LE d   1      13.785   0.195  19.720  0.00  0.00     0.077 H 
ATOM     20  H9  1LE d   1      15.494   0.188  19.168  0.00  0.00     0.077 H 
BRANCH  18  21
ATOM     21  O08 1LE d   1      14.164   1.141  17.960  0.00  0.00    -0.398 OA
ATOM     22  H10 1LE d   1      13.369   1.658  18.017  0.00  0.00     0.209 HD
ENDBRANCH  18  21
ENDBRANCH   9  18
ENDBRANCH   7   9
ENDBRANCH   1   5
BRANCH   1  23
ATOM     23  C12 1LE d   1      12.929   6.594  20.748  0.00  0.00    -0.018 C 
ATOM     24  H12 1LE d   1      13.742   6.930  20.088  0.00  0.00     0.042 H 
ATOM     25  H13 1LE d   1      13.284   6.579  21.789  0.00  0.00     0.042 H 
BRANCH  23  26
ATOM     26  C13 1LE d   1      11.775   7.582  20.641  0.00  0.00    -0.055 A 
ATOM     27  C14 1LE d   1      11.393   8.087  19.406  0.00  0.00    -0.075 A 
ATOM     28  C15 1LE d   1      10.338   8.999  19.314  0.00  0.00    -0.054 A 
ATOM     29  H14 1LE d   1      11.915   7.773  18.509  0.00  0.00     0.084 H 
ATOM     30  C16 1LE d   1       9.669   9.417  20.469  0.00  0.00     0.062 A 
ATOM     31  H15 1LE d   1      10.038   9.383  18.346  0.00  0.00     0.087 H 
ATOM     32  N17 1LE d   1       8.607  10.300  20.668  0.00  0.00    -0.277 N 
ATOM     33  C32 1LE d   1      10.051   8.924  21.711  0.00  0.00     0.024 A 
ATOM     34  N18 1LE d   1       8.309  10.382  21.962  0.00  0.00    -0.173 NA
ATOM     35  H16 1LE d   1       8.123  10.815  19.919  0.00  0.00     0.189 HD
ATOM     36  C19 1LE d   1       9.153   9.565  22.662  0.00  0.00     0.100 A 
ATOM     37  C33 1LE d   1      11.104   8.008  21.801  0.00  0.00    -0.062 A 
ATOM     38  H28 1LE d   1      11.404   7.625  22.770  0.00  0.00     0.085 H 
BRANCH  36  39
ATOM     39  C20 1LE d   1       9.149   9.368  24.172  0.00  0.00     0.001 A 
ATOM     40  C21 1LE d   1       9.063  10.462  25.002  0.00  0.00    -0.036 A 
ATOM     41  C22 1LE d   1       9.061  10.279  26.496  0.00  0.00     0.105 A 
ATOM     42  H17 1LE d   1       8.996  11.458  24.579  0.00  0.00     0.089 H 
ATOM     43  C25 1LE d   1       9.149   9.020  27.034  0.00  0.00     0.135 A 
ATOM     44  C28 1LE d   1       9.243   7.825  26.136  0.00  0.00     0.105 A 
ATOM     45  C31 1LE d   1       9.243   7.990  24.764  0.00  0.00    -0.036 A 
ATOM     46  H27 1LE d   1       9.311   7.125  24.114  0.00  0.00     0.089 H 
BRANCH  41  47
ATOM     47  O23 1LE d   1       8.976  11.380  27.338  0.00  0.00    -0.353 OA
BRANCH  47  48
ATOM     48  C24 1LE d   1       7.745  11.832  27.775  0.00  0.00     0.010 C 
ATOM     49  H18 1LE d   1       7.886  12.706  28.428  0.00  0.00     0.066 H 
ATOM     50  H19 1LE d   1       7.239  11.033  28.337  0.00  0.00     0.066 H 
ATOM     51  H20 1LE d   1       7.130  12.117  26.909  0.00  0.00     0.066 H 
ENDBRANCH  47  48
ENDBRANCH  41  47
BRANCH  43  52
ATOM     52  O26 1LE d   1       9.146   8.861  28.404  0.00  0.00    -0.351 OA
BRANCH  52  53
ATOM     53  C27 1LE d   1      10.312   9.065  29.119  0.00  0.00     0.011 C 
ATOM     54  H21 1LE d   1      10.121   8.894  30.189  0.00  0.00     0.067 H 
ATOM     55  H22 1LE d   1      10.658  10.098  28.969  0.00  0.00     0.067 H 
ATOM     56  H23 1LE d   1      11.084   8.365  28.768  0.00  0.00     0.067 H 
ENDBRANCH  52  53
ENDBRANCH  43  52
BRANCH  44  57
ATOM     57  O29 1LE d   1       9.327   6.563  26.690  0.00  0.00    -0.353 OA
BRANCH  57  58
ATOM     58  C30 1LE d   1       8.189   5.972  27.227  0.00  0.00     0.010 C 
ATOM     59  H24 1LE d   1       8.443   4.976  27.620  0.00  0.00     0.066 H 
ATOM     60  H25 1LE d   1       7.423   5.872  26.444  0.00  0.00     0.066 H 
ATOM     61  H26 1LE d   1       7.800   6.599  28.043  0.00  0.00     0.066 H 
ENDBRANCH  57  58
ENDBRANCH  44  57
ENDBRANCH  36  39
ENDBRANCH  23  26
ENDBRANCH   1  23
TORSDOF 15
