REMARK  19 active torsions:
REMARK  status: ('A' for Active; 'I' for Inactive)
REMARK    1  A    between atoms: C12_18  and  C1_1 
REMARK    2  A    between atoms: C1_1  and  N31_40 
REMARK    3  A    between atoms: C7_12  and  C2_4 
REMARK       I    between atoms: N3_7  and  C16_22 
REMARK    4  A    between atoms: C17_24  and  N3_7 
REMARK    5  A    between atoms: C8_13  and  C7_12 
REMARK    6  A    between atoms: C9_14  and  C8_13 
REMARK    7  A    between atoms: C10_15  and  C9_14 
REMARK    8  A    between atoms: C11_16  and  C10_15 
REMARK       I    between atoms: N31_40  and  C11_16 
REMARK    9  A    between atoms: C13_19  and  C12_18 
REMARK   10  A    between atoms: C14_20  and  C13_19 
REMARK   11  A    between atoms: C15_21  and  C14_20 
REMARK   12  A    between atoms: C16_22  and  C15_21 
REMARK   13  A    between atoms: C18_25  and  C17_24 
REMARK   14  A    between atoms: C19_26  and  C18_25 
REMARK   15  A    between atoms: C20_27  and  C19_26 
REMARK   16  A    between atoms: C21_28  and  C20_27 
REMARK   17  A    between atoms: C22_29  and  C21_28 
REMARK   18  A    between atoms: C23_31  and  C22_29 
REMARK   19  A    between atoms: C32_41  and  C31_39 
ROOT
ATOM      1  C13 B6F d   1       4.292  -4.071  -8.677  0.00  0.00    -0.063 C 
ATOM      2  H21 B6F d   1       3.989  -4.808  -9.436  0.00  0.00     0.033 H 
ATOM      3  H22 B6F d   1       5.228  -3.585  -8.990  0.00  0.00     0.033 H 
ENDROOT
BRANCH   1   4
ATOM      4  C12 B6F d   1       4.602  -4.862  -7.367  0.00  0.00    -0.050 C 
ATOM      5  H19 B6F d   1       5.695  -4.938  -7.267  0.00  0.00     0.035 H 
ATOM      6  H20 B6F d   1       4.195  -4.289  -6.521  0.00  0.00     0.035 H 
BRANCH   4   7
ATOM      7  C1  B6F d   1       4.026  -6.268  -7.302  0.00  0.00    -0.005 C 
ATOM      8  H1  B6F d   1       3.668  -6.522  -8.311  0.00  0.00     0.064 H 
ATOM      9  H2  B6F d   1       3.174  -6.241  -6.607  0.00  0.00     0.064 H 
BRANCH   7  10
ATOM     10  N31 B6F d   1       4.923  -7.371  -6.860  0.00  0.00    -0.361 N 
ATOM     11  C11 B6F d   1       4.266  -8.575  -6.548  0.00  0.00     0.217 C 
ATOM     12  O11 B6F d   1       3.060  -8.649  -6.646  0.00  0.00    -0.274 OA
ATOM     13  H38 B6F d   1       5.915  -7.264  -6.790  0.00  0.00     0.162 HD
BRANCH  11  14
ATOM     14  C10 B6F d   1       5.027  -9.799  -6.058  0.00  0.00     0.009 C 
ATOM     15  H17 B6F d   1       5.518 -10.290  -6.911  0.00  0.00     0.047 H 
ATOM     16  H18 B6F d   1       5.788  -9.488  -5.327  0.00  0.00     0.047 H 
BRANCH  14  17
ATOM     17  C9  B6F d   1       4.060 -10.773  -5.400  0.00  0.00    -0.057 C 
ATOM     18  H15 B6F d   1       3.285 -11.032  -6.137  0.00  0.00     0.033 H 
ATOM     19  H16 B6F d   1       4.623 -11.678  -5.127  0.00  0.00     0.033 H 
BRANCH  17  20
ATOM     20  C8  B6F d   1       3.360 -10.255  -4.141  0.00  0.00    -0.064 C 
ATOM     21  H13 B6F d   1       4.132 -10.041  -3.387  0.00  0.00     0.033 H 
ATOM     22  H14 B6F d   1       2.836  -9.324  -4.403  0.00  0.00     0.033 H 
BRANCH  20  23
ATOM     23  C7  B6F d   1       2.356 -11.195  -3.524  0.00  0.00    -0.051 C 
ATOM     24  H11 B6F d   1       1.581 -11.448  -4.262  0.00  0.00     0.034 H 
ATOM     25  H12 B6F d   1       2.862 -12.114  -3.193  0.00  0.00     0.034 H 
BRANCH  23  26
ATOM     26  C2  B6F d   1       1.721 -10.500  -2.330  0.00  0.00     0.012 C 
ATOM     27  S1  B6F d   1       2.709  -9.912  -0.912  0.00  0.00    -0.160 SA
ATOM     28  C6  B6F d   1       1.599 -10.559   0.293  0.00  0.00    -0.002 C 
ATOM     29  C5  B6F d   1       0.295 -10.886  -0.369  0.00  0.00     0.042 C 
ATOM     30  H9  B6F d   1       1.434  -9.810   1.082  0.00  0.00     0.052 H 
ATOM     31  H10 B6F d   1       2.026 -11.471   0.736  0.00  0.00     0.052 H 
ATOM     32  N1  B6F d   1      -0.337 -12.072   0.143  0.00  0.00    -0.336 N 
ATOM     33  C4  B6F d   1       0.551 -11.323  -1.786  0.00  0.00     0.046 C 
ATOM     34  H8  B6F d   1      -0.376 -10.016  -0.313  0.00  0.00     0.077 H 
ATOM     35  C3  B6F d   1      -0.036 -13.163  -0.558  0.00  0.00     0.316 C 
ATOM     36  H3  B6F d   1      -0.939 -12.077   0.941  0.00  0.00     0.164 HD
ATOM     37  N2  B6F d   1       0.650 -12.771  -1.651  0.00  0.00    -0.335 N 
ATOM     38  O3  B6F d   1      -0.350 -14.316  -0.218  0.00  0.00    -0.247 OA
ATOM     39  H5  B6F d   1       1.148 -13.378  -2.271  0.00  0.00     0.164 HD
ATOM     40  H7  B6F d   1      -0.318 -11.101  -2.423  0.00  0.00     0.077 H 
ATOM     41  H4  B6F d   1       1.288  -9.584  -2.758  0.00  0.00     0.059 H 
ENDBRANCH  23  26
ENDBRANCH  20  23
ENDBRANCH  17  20
ENDBRANCH  14  17
ENDBRANCH  11  14
ENDBRANCH   7  10
ENDBRANCH   4   7
ENDBRANCH   1   4
BRANCH   1  42
ATOM     42  C14 B6F d   1       3.199  -2.975  -8.646  0.00  0.00    -0.057 C 
ATOM     43  H23 B6F d   1       2.239  -3.466  -8.427  0.00  0.00     0.033 H 
ATOM     44  H24 B6F d   1       3.157  -2.516  -9.645  0.00  0.00     0.033 H 
BRANCH  42  45
ATOM     45  C15 B6F d   1       3.390  -1.848  -7.623  0.00  0.00     0.009 C 
ATOM     46  H25 B6F d   1       4.461  -1.831  -7.372  0.00  0.00     0.047 H 
ATOM     47  H26 B6F d   1       2.809  -2.131  -6.733  0.00  0.00     0.047 H 
BRANCH  45  48
ATOM     48  C16 B6F d   1       2.999  -0.413  -7.958  0.00  0.00     0.217 C 
ATOM     49  N3  B6F d   1       3.514   0.533  -7.127  0.00  0.00    -0.361 N 
ATOM     50  H6  B6F d   1       4.095   0.214  -6.378  0.00  0.00     0.162 HD
ATOM     51  O16 B6F d   1       2.250  -0.158  -8.909  0.00  0.00    -0.274 OA
BRANCH  49  52
ATOM     52  C17 B6F d   1       3.293   1.974  -7.231  0.00  0.00    -0.005 C 
ATOM     53  H27 B6F d   1       4.059   2.486  -6.630  0.00  0.00     0.064 H 
ATOM     54  H28 B6F d   1       2.296   2.201  -6.825  0.00  0.00     0.064 H 
BRANCH  52  55
ATOM     55  C18 B6F d   1       3.364   2.516  -8.668  0.00  0.00    -0.050 C 
ATOM     56  H29 B6F d   1       4.102   1.925  -9.230  0.00  0.00     0.035 H 
ATOM     57  H30 B6F d   1       3.687   3.567  -8.631  0.00  0.00     0.035 H 
BRANCH  55  58
ATOM     58  C19 B6F d   1       2.012   2.442  -9.404  0.00  0.00    -0.063 C 
ATOM     59  H31 B6F d   1       1.216   2.400  -8.646  0.00  0.00     0.033 H 
ATOM     60  H32 B6F d   1       2.001   1.516  -9.998  0.00  0.00     0.033 H 
BRANCH  58  61
ATOM     61  C20 B6F d   1       1.702   3.609 -10.346  0.00  0.00    -0.059 C 
ATOM     62  H33 B6F d   1       1.524   4.509  -9.739  0.00  0.00     0.033 H 
ATOM     63  H34 B6F d   1       0.793   3.365 -10.916  0.00  0.00     0.033 H 
BRANCH  61  64
ATOM     64  C21 B6F d   1       2.841   3.909 -11.345  0.00  0.00    -0.006 C 
ATOM     65  H35 B6F d   1       3.778   3.523 -10.916  0.00  0.00     0.044 H 
ATOM     66  H36 B6F d   1       2.912   5.001 -11.460  0.00  0.00     0.044 H 
BRANCH  64  67
ATOM     67  C22 B6F d   1       2.675   3.299 -12.739  0.00  0.00     0.153 C 
ATOM     68  O22 B6F d   1       1.573   3.060 -13.189  0.00  0.00    -0.293 OA
BRANCH  67  69
ATOM     69  C23 B6F d   1       3.886   2.992 -13.570  0.00  0.00    -0.017 C 
ATOM     70  C24 B6F d   1       4.007   1.956 -14.491  0.00  0.00     0.024 A 
ATOM     71  C25 B6F d   1       5.267   2.016 -15.058  0.00  0.00     0.004 A 
ATOM     72 FE   B6F d   1       5.423   1.779 -13.085  0.00  0.00     0.000 Fe
ATOM     73  C26 B6F d   1       5.924   3.088 -14.494  0.00  0.00    -0.002 A 
ATOM     74  C27 B6F d   1       5.080   3.691 -13.580  0.00  0.00    -0.010 A 
ATOM     75  H37 B6F d   1       5.235   4.683 -13.131  0.00  0.00     0.049 H 
ATOM     76  C28 B6F d   1       5.517  -0.169 -12.648  0.00  0.00    -0.006 A 
ATOM     77  C29 B6F d   1       4.734   0.496 -11.727  0.00  0.00    -0.001 A 
ATOM     78  C30 B6F d   1       5.522   1.452 -11.118  0.00  0.00    -0.001 A 
ATOM     79  C31 B6F d   1       6.777   1.365 -11.669  0.00  0.00    -0.006 A 
ATOM     80  C32 B6F d   1       6.776   0.369 -12.615  0.00  0.00    -0.030 A 
ATOM     81  H39 B6F d   1       7.672  -0.078 -13.071  0.00  0.00     0.043 H 
ENDBRANCH  67  69
ENDBRANCH  64  67
ENDBRANCH  61  64
ENDBRANCH  58  61
ENDBRANCH  55  58
ENDBRANCH  52  55
ENDBRANCH  49  52
ENDBRANCH  45  48
ENDBRANCH  42  45
ENDBRANCH   1  42
TORSDOF 19
