REMARK  2 active torsions:
REMARK  status: ('A' for Active; 'I' for Inactive)
REMARK    1  A    between atoms: CAK_11  and  OAC_3 
REMARK    2  A    between atoms: CAL_12  and  CAJ_10 
ROOT
ATOM      1  CAD 8XQ d   1      -1.107   3.242   3.231  0.00  0.00    -0.065 A 
ATOM      2  CAE 8XQ d   1      -1.309   2.145   4.042  0.00  0.00     0.003 A 
ATOM      3  CAF 8XQ d   1      -4.655   0.542   1.092  0.00  0.00    -0.048 A 
ATOM      4  CAG 8XQ d   1      -4.486   1.615   0.254  0.00  0.00    -0.063 A 
ATOM      5  CAH 8XQ d   1      -1.845   3.431   2.089  0.00  0.00    -0.068 A 
ATOM      6  NAI 8XQ d   1      -2.257   1.218   3.679  0.00  0.00    -0.257 NA
ATOM      7  CAK 8XQ d   1      -3.905   0.425   2.241  0.00  0.00     0.095 A 
ATOM      8  CAL 8XQ d   1      -3.554   2.599   0.530  0.00  0.00     0.053 A 
ATOM      9  CAM 8XQ d   1      -2.781   2.489   1.696  0.00  0.00     0.012 A 
ATOM     10  CAN 8XQ d   1      -2.965   1.381   2.539  0.00  0.00     0.100 A 
ATOM     11  H2  8XQ d   1      -0.350   3.970   3.501  0.00  0.00     0.085 H 
ATOM     12  H3  8XQ d   1      -0.731   2.016   4.950  0.00  0.00     0.114 H 
ATOM     13  H4  8XQ d   1      -5.386  -0.221   0.848  0.00  0.00     0.087 H 
ATOM     14  H5  8XQ d   1      -5.094   1.693  -0.640  0.00  0.00     0.085 H 
ATOM     15  H6  8XQ d   1      -1.694   4.323   1.491  0.00  0.00     0.085 H 
ENDROOT
BRANCH   8  16
ATOM     16  CAJ 8XQ d   1      -3.453   3.718  -0.455  0.00  0.00     0.210 C 
ATOM     17  OAA 8XQ d   1      -4.211   3.699  -1.462  0.00  0.00    -0.644 OA
ATOM     18  OAB 8XQ d   1      -2.656   4.680  -0.318  0.00  0.00    -0.644 OA
ENDBRANCH   8  16
BRANCH   7  19
ATOM     19  OAC 8XQ d   1      -4.079  -0.634   3.087  0.00  0.00    -0.358 OA
ATOM     20  H1  8XQ d   1      -3.901  -1.443   2.621  0.00  0.00     0.217 HD
ENDBRANCH   7  19
TORSDOF 2
