REMARK  9 active torsions:
REMARK  status: ('A' for Active; 'I' for Inactive)
REMARK    1  A    between atoms: CAB_1  and  OAS_2 
REMARK    2  A    between atoms: OAS_2  and  CBB_3 
REMARK    3  A    between atoms: CAZ_6  and  OAR_7 
REMARK    4  A    between atoms: OAR_7  and  CAA_8 
REMARK    5  A    between atoms: CBA_10  and  NAQ_11 
REMARK       I    between atoms: NAQ_11  and  C_12 
REMARK    6  A    between atoms: C_12  and  CA_14 
REMARK    7  A    between atoms: CA_14  and  N_15 
REMARK    8  A    between atoms: NBD_20  and  CAP_21 
REMARK    9  A    between atoms: CAP_21  and  CAW_22 
ROOT
ATOM      1  N   1KV d   1      86.345 -30.329 160.023  0.00  0.00    -0.060 N 
ATOM      2  CAK 1KV d   1      87.485 -30.660 158.989  0.00  0.00     0.106 C 
ATOM      3  CAM 1KV d   1      87.088 -31.763 158.073  0.00  0.00     0.106 C 
ATOM      4  CAJ 1KV d   1      85.066 -29.885 159.262  0.00  0.00     0.106 C 
ATOM      5  CAL 1KV d   1      84.564 -31.032 158.450  0.00  0.00     0.106 C 
ATOM      6  NBD 1KV d   1      85.658 -31.532 157.381  0.00  0.00    -0.064 N 
ATOM      7  H   1KV d   1      86.117 -31.203 160.470  0.00  0.00     0.280 HD
ATOM      8  H   1KV d   1      88.390 -30.960 159.538  0.00  0.00     0.078 H 
ATOM      9  H   1KV d   1      87.699 -29.761 158.393  0.00  0.00     0.078 H 
ATOM     10  H   1KV d   1      87.049 -32.699 158.650  0.00  0.00     0.078 H 
ATOM     11  H   1KV d   1      87.848 -31.851 157.283  0.00  0.00     0.078 H 
ATOM     12  H   1KV d   1      85.305 -29.040 158.599  0.00  0.00     0.078 H 
ATOM     13  H   1KV d   1      84.295 -29.578 159.984  0.00  0.00     0.078 H 
ATOM     14  H   1KV d   1      83.658 -30.717 157.911  0.00  0.00     0.078 H 
ATOM     15  H   1KV d   1      84.319 -31.866 159.125  0.00  0.00     0.078 H 
ATOM     16  H   1KV d   1      85.788 -30.747 156.762  0.00  0.00     0.280 HD
ENDROOT
BRANCH   1  17
ATOM     17  CA  1KV d   1      86.748 -29.363 161.198  0.00  0.00     0.156 C 
ATOM     18  H   1KV d   1      87.793 -29.053 161.054  0.00  0.00     0.090 H 
ATOM     19  H   1KV d   1      86.095 -28.479 161.164  0.00  0.00     0.090 H 
BRANCH  17  20
ATOM     20  C   1KV d   1      86.622 -29.993 162.539  0.00  0.00     0.244 C 
ATOM     21  NAQ 1KV d   1      85.977 -31.193 162.766  0.00  0.00    -0.352 N 
ATOM     22  H   1KV d   1      85.589 -31.589 161.934  0.00  0.00     0.163 HD
ATOM     23  O   1KV d   1      87.153 -29.396 163.539  0.00  0.00    -0.272 OA
BRANCH  21  24
ATOM     24  CBA 1KV d   1      85.733 -32.021 163.964  0.00  0.00     0.039 C 
ATOM     25  CBB 1KV d   1      84.451 -32.864 163.677  0.00  0.00     0.057 C 
ATOM     26  CAH 1KV d   1      83.942 -33.642 164.907  0.00  0.00    -0.037 C 
ATOM     27  H   1KV d   1      83.655 -32.196 163.315  0.00  0.00     0.086 H 
ATOM     28  CAG 1KV d   1      83.746 -32.848 166.195  0.00  0.00    -0.038 C 
ATOM     29  H   1KV d   1      84.667 -34.442 165.117  0.00  0.00     0.036 H 
ATOM     30  H   1KV d   1      82.972 -34.087 164.640  0.00  0.00     0.036 H 
ATOM     31  CAZ 1KV d   1      85.087 -32.160 166.472  0.00  0.00     0.040 C 
ATOM     32  H   1KV d   1      83.483 -33.522 167.024  0.00  0.00     0.036 H 
ATOM     33  H   1KV d   1      82.951 -32.099 166.065  0.00  0.00     0.036 H 
ATOM     34  CAO 1KV d   1      85.519 -31.256 165.283  0.00  0.00    -0.020 C 
ATOM     35  H   1KV d   1      85.857 -32.917 166.680  0.00  0.00     0.083 H 
ATOM     36  H   1KV d   1      86.462 -30.758 165.551  0.00  0.00     0.040 H 
ATOM     37  H   1KV d   1      84.737 -30.499 165.121  0.00  0.00     0.040 H 
ATOM     38  H   1KV d   1      86.595 -32.691 164.098  0.00  0.00     0.076 H 
BRANCH  25  39
ATOM     39  OAS 1KV d   1      84.774 -33.821 162.695  0.00  0.00    -0.389 OA
BRANCH  39  40
ATOM     40  CAB 1KV d   1      83.963 -33.769 161.539  0.00  0.00     0.005 C 
ATOM     41  H   1KV d   1      84.284 -34.547 160.831  0.00  0.00     0.066 H 
ATOM     42  H   1KV d   1      84.060 -32.780 161.067  0.00  0.00     0.066 H 
ATOM     43  H   1KV d   1      82.913 -33.940 161.820  0.00  0.00     0.066 H 
ENDBRANCH  39  40
ENDBRANCH  25  39
BRANCH  31  44
ATOM     44  OAR 1KV d   1      84.933 -31.276 167.571  0.00  0.00    -0.391 OA
BRANCH  44  45
ATOM     45  CAA 1KV d   1      86.147 -30.711 168.046  0.00  0.00     0.004 C 
ATOM     46  H   1KV d   1      85.934 -30.043 168.893  0.00  0.00     0.066 H 
ATOM     47  H   1KV d   1      86.625 -30.137 167.238  0.00  0.00     0.066 H 
ATOM     48  H   1KV d   1      86.822 -31.515 168.374  0.00  0.00     0.066 H 
ENDBRANCH  44  45
ENDBRANCH  31  44
ENDBRANCH  21  24
ENDBRANCH  17  20
ENDBRANCH   1  17
BRANCH   6  49
ATOM     49  CAP 1KV d   1      85.208 -32.726 156.413  0.00  0.00     0.107 C 
ATOM     50  H   1KV d   1      86.031 -32.884 155.701  0.00  0.00     0.083 H 
ATOM     51  H   1KV d   1      84.317 -32.376 155.871  0.00  0.00     0.083 H 
BRANCH  49  52
ATOM     52  CAW 1KV d   1      84.859 -34.098 156.996  0.00  0.00    -0.030 A 
ATOM     53  CAF 1KV d   1      85.615 -35.272 156.696  0.00  0.00    -0.040 A 
ATOM     54  CAY 1KV d   1      85.253 -36.503 157.241  0.00  0.00     0.105 A 
ATOM     55  H   1KV d   1      86.476 -35.205 156.040  0.00  0.00     0.088 H 
ATOM     56  OAU 1KV d   1      85.827 -37.747 157.097  0.00  0.00    -0.323 OA
ATOM     57  CAX 1KV d   1      84.152 -36.650 158.090  0.00  0.00     0.105 A 
ATOM     58  CAI 1KV d   1      85.214 -38.642 158.057  0.00  0.00     0.115 C 
ATOM     59  OAT 1KV d   1      84.020 -37.948 158.481  0.00  0.00    -0.323 OA
ATOM     60  H   1KV d   1      85.886 -38.818 158.910  0.00  0.00     0.118 H 
ATOM     61  H   1KV d   1      84.960 -39.603 157.586  0.00  0.00     0.118 H 
ATOM     62  CAE 1KV d   1      83.393 -35.531 158.401  0.00  0.00    -0.047 A 
ATOM     63  CAD 1KV d   1      83.766 -34.285 157.840  0.00  0.00    -0.072 A 
ATOM     64  H   1KV d   1      82.534 -35.608 159.058  0.00  0.00     0.087 H 
ATOM     65  H   1KV d   1      83.161 -33.419 158.083  0.00  0.00     0.084 H 
ENDBRANCH  49  52
ENDBRANCH   6  49
TORSDOF 9
