REMARK  11 active torsions:
REMARK  status: ('A' for Active; 'I' for Inactive)
REMARK    1  A    between atoms: C5_24  and  C7_2 
REMARK    2  A    between atoms: C5_24  and  C6_3 
REMARK    3  A    between atoms: C8_8  and  C9_4 
REMARK    4  A    between atoms: C5_24  and  C8_8 
REMARK    5  A    between atoms: N4_14  and  C10_15 
REMARK    6  A    between atoms: C10_15  and  C11_16 
REMARK    7  A    between atoms: C11_16  and  O25_17 
REMARK    8  A    between atoms: C17_25  and  C29_20 
REMARK    9  A    between atoms: C2_23  and  C5_24 
REMARK   10  A    between atoms: C14_27  and  N19_28 
REMARK   11  A    between atoms: C23_29  and  C24_30 
ROOT
ATOM      1  N3  1L6 d   1       7.305  -3.746  -4.926  0.00  0.00    -0.173 NA
ATOM      2  C26 1L6 d   1       8.459  -4.995  -8.265  0.00  0.00     0.272 C 
ATOM      3  O31 1L6 d   1       7.567  -4.831  -9.082  0.00  0.00    -0.266 OA
ATOM      4  C1  1L6 d   1       8.212  -4.653  -6.829  0.00  0.00     0.149 A 
ATOM      5  N4  1L6 d   1       7.283  -3.805  -6.343  0.00  0.00    -0.260 N 
ATOM      6  N27 1L6 d   1       9.587  -5.511  -8.680  0.00  0.00    -0.353 N 
ATOM      7  C28 1L6 d   1      10.733  -5.718  -7.840  0.00  0.00     0.018 C 
ATOM      8  C29 1L6 d   1      10.495  -6.622  -6.657  0.00  0.00     0.050 C 
ATOM      9  N30 1L6 d   1       9.875  -6.131  -5.654  0.00  0.00    -0.376 N 
ATOM     10  C12 1L6 d   1       8.872  -5.160  -5.705  0.00  0.00     0.090 A 
ATOM     11  C2  1L6 d   1       8.309  -4.597  -4.555  0.00  0.00     0.091 A 
ATOM     12  H22 1L6 d   1       9.655  -5.778  -9.641  0.00  0.00     0.162 HD
ATOM     13  H23 1L6 d   1      11.061  -4.739  -7.462  0.00  0.00     0.067 H 
ATOM     14  H24 1L6 d   1      11.531  -6.161  -8.454  0.00  0.00     0.067 H 
ATOM     15  H25 1L6 d   1       9.578  -7.070  -7.067  0.00  0.00     0.082 H 
ATOM     16  H26 1L6 d   1      10.139  -6.483  -4.723  0.00  0.00     0.160 HD
ENDROOT
BRANCH   8  17
ATOM     17  C17 1L6 d   1      11.236  -7.916  -6.689  0.00  0.00    -0.034 A 
ATOM     18  C18 1L6 d   1      11.901  -8.364  -7.845  0.00  0.00    -0.073 A 
ATOM     19  C13 1L6 d   1      12.624  -9.577  -7.786  0.00  0.00    -0.056 A 
ATOM     20  H15 1L6 d   1      11.860  -7.790  -8.764  0.00  0.00     0.084 H 
ATOM     21  C14 1L6 d   1      12.700 -10.328  -6.595  0.00  0.00     0.040 A 
ATOM     22  H10 1L6 d   1      13.130  -9.937  -8.674  0.00  0.00     0.087 H 
ATOM     23  C15 1L6 d   1      12.023  -9.800  -5.489  0.00  0.00    -0.056 A 
ATOM     24  C16 1L6 d   1      11.306  -8.623  -5.511  0.00  0.00    -0.073 A 
ATOM     25  H27 1L6 d   1      12.065 -10.351  -4.557  0.00  0.00     0.087 H 
ATOM     26  H16 1L6 d   1      10.808  -8.262  -4.619  0.00  0.00     0.084 H 
BRANCH  21  27
ATOM     27  N19 1L6 d   1      13.391 -11.490  -6.456  0.00  0.00    -0.309 N 
ATOM     28  C20 1L6 d   1      14.096 -11.769  -5.347  0.00  0.00     0.004 A 
ATOM     29  C21 1L6 d   1      14.659 -13.010  -5.629  0.00  0.00     0.019 A 
ATOM     30  H11 1L6 d   1      14.201 -11.169  -4.445  0.00  0.00     0.114 H 
ATOM     31  N22 1L6 d   1      14.253 -13.383  -6.881  0.00  0.00    -0.246 NA
ATOM     32  H12 1L6 d   1      15.309 -13.583  -4.969  0.00  0.00     0.117 H 
ATOM     33  C23 1L6 d   1      13.456 -12.415  -7.413  0.00  0.00     0.106 A 
BRANCH  33  34
ATOM     34  C24 1L6 d   1      12.770 -12.369  -8.753  0.00  0.00    -0.021 C 
ATOM     35  H28 1L6 d   1      13.016 -13.277  -9.322  0.00  0.00     0.037 H 
ATOM     36  H29 1L6 d   1      13.111 -11.484  -9.310  0.00  0.00     0.037 H 
ATOM     37  H30 1L6 d   1      11.681 -12.312  -8.606  0.00  0.00     0.037 H 
ENDBRANCH  33  34
ENDBRANCH  21  27
ENDBRANCH   8  17
BRANCH  11  38
ATOM     38  C5  1L6 d   1       8.570  -4.741  -3.069  0.00  0.00     0.001 C 
BRANCH  38  39
ATOM     39  C7  1L6 d   1       7.626  -3.866  -2.239  0.00  0.00    -0.064 C 
ATOM     40  H1  1L6 d   1       7.848  -3.999  -1.170  0.00  0.00     0.028 H 
ATOM     41  H2  1L6 d   1       6.585  -4.160  -2.437  0.00  0.00     0.028 H 
ATOM     42  H3  1L6 d   1       7.768  -2.810  -2.514  0.00  0.00     0.028 H 
ENDBRANCH  38  39
BRANCH  38  43
ATOM     43  C6  1L6 d   1      10.000  -4.289  -2.830  0.00  0.00    -0.064 C 
ATOM     44  H4  1L6 d   1      10.685  -4.912  -3.423  0.00  0.00     0.028 H 
ATOM     45  H5  1L6 d   1      10.243  -4.390  -1.762  0.00  0.00     0.028 H 
ATOM     46  H6  1L6 d   1      10.107  -3.237  -3.132  0.00  0.00     0.028 H 
ENDBRANCH  38  43
BRANCH  38  47
ATOM     47  C8  1L6 d   1       8.340  -6.198  -2.679  0.00  0.00    -0.057 C 
ATOM     48  H13 1L6 d   1       8.991  -6.838  -3.293  0.00  0.00     0.034 H 
ATOM     49  H14 1L6 d   1       8.595  -6.327  -1.617  0.00  0.00     0.034 H 
BRANCH  47  50
ATOM     50  C9  1L6 d   1       6.907  -6.612  -2.891  0.00  0.00    -0.075 C 
ATOM     51  H7  1L6 d   1       6.783  -7.665  -2.599  0.00  0.00     0.027 H 
ATOM     52  H8  1L6 d   1       6.644  -6.492  -3.952  0.00  0.00     0.027 H 
ATOM     53  H9  1L6 d   1       6.248  -5.981  -2.276  0.00  0.00     0.027 H 
ENDBRANCH  47  50
ENDBRANCH  38  47
ENDBRANCH  11  38
BRANCH   5  54
ATOM     54  C10 1L6 d   1       6.304  -2.945  -7.011  0.00  0.00     0.037 C 
ATOM     55  H17 1L6 d   1       6.713  -2.620  -7.979  0.00  0.00     0.070 H 
ATOM     56  H18 1L6 d   1       6.111  -2.064  -6.380  0.00  0.00     0.070 H 
BRANCH  54  57
ATOM     57  C11 1L6 d   1       5.004  -3.675  -7.247  0.00  0.00     0.033 C 
ATOM     58  H19 1L6 d   1       4.500  -3.872  -6.289  0.00  0.00     0.076 H 
ATOM     59  H20 1L6 d   1       5.193  -4.627  -7.764  0.00  0.00     0.076 H 
BRANCH  57  60
ATOM     60  O25 1L6 d   1       4.200  -2.828  -8.058  0.00  0.00    -0.399 OA
ATOM     61  H21 1L6 d   1       4.049  -2.007  -7.604  0.00  0.00     0.209 HD
ENDBRANCH  57  60
ENDBRANCH  54  57
ENDBRANCH   5  54
TORSDOF 11
