REMARK  4 active torsions:
REMARK  status: ('A' for Active; 'I' for Inactive)
REMARK    1  A    between atoms: C02_2  and  C11_11 
REMARK    2  A    between atoms: C06_6  and  C12_12 
REMARK    3  A    between atoms: C09_9  and  N10_10 
REMARK    4  A    between atoms: N10_10  and  C13_13 
REMARK       I    between atoms: C12_12  and  N25_25 
ROOT
ATOM      1  N01 1KO d   1      14.766  -2.985   8.238  0.00  0.00    -0.226 NA
ATOM      2  C02 1KO d   1      15.153  -2.000   7.365  0.00  0.00     0.085 A 
ATOM      3  C03 1KO d   1      14.121  -1.175   7.116  0.00  0.00     0.017 A 
ATOM      4  N04 1KO d   1      13.041  -1.645   7.843  0.00  0.00    -0.282 N 
ATOM      5  C05 1KO d   1      13.492  -2.754   8.515  0.00  0.00     0.164 A 
ATOM      6  C06 1KO d   1      11.751  -1.234   7.992  0.00  0.00     0.204 A 
ATOM      7  N07 1KO d   1      10.903  -1.839   8.763  0.00  0.00    -0.235 NA
ATOM      8  C08 1KO d   1      11.317  -2.931   9.429  0.00  0.00     0.034 A 
ATOM      9  C09 1KO d   1      12.588  -3.433   9.352  0.00  0.00     0.093 A 
ATOM     10  H1  1KO d   1      14.133  -0.302   6.465  0.00  0.00     0.116 H 
ATOM     11  H2  1KO d   1      10.600  -3.446  10.066  0.00  0.00     0.118 H 
ENDROOT
BRANCH   9  12
ATOM     12  N10 1KO d   1      12.996  -4.535  10.040  0.00  0.00    -0.379 N 
ATOM     13  H3  1KO d   1      13.761  -5.085   9.624  0.00  0.00     0.160 HD
BRANCH  12  14
ATOM     14  C13 1KO d   1      12.467  -5.005  11.285  0.00  0.00     0.033 C 
ATOM     15  C14 1KO d   1      12.798  -4.032  12.441  0.00  0.00     0.100 C 
ATOM     16  N15 1KO d   1      12.215  -4.537  13.682  0.00  0.00    -0.073 N 
ATOM     17  H5  1KO d   1      12.380  -3.039  12.216  0.00  0.00     0.078 H 
ATOM     18  H6  1KO d   1      13.889  -3.954  12.554  0.00  0.00     0.078 H 
ATOM     19  C16 1KO d   1      12.740  -5.865  14.030  0.00  0.00     0.082 C 
ATOM     20  H7  1KO d   1      11.215  -4.600  13.571  0.00  0.00     0.277 HD
ATOM     21  H8  1KO d   1      12.430  -3.895  14.429  0.00  0.00     0.277 HD
ATOM     22  C17 1KO d   1      12.412  -6.870  12.895  0.00  0.00    -0.041 C 
ATOM     23  H9  1KO d   1      12.277  -6.207  14.967  0.00  0.00     0.075 H 
ATOM     24  H10 1KO d   1      13.831  -5.804  14.161  0.00  0.00     0.075 H 
ATOM     25  C18 1KO d   1      13.027  -6.378  11.587  0.00  0.00    -0.043 C 
ATOM     26  H11 1KO d   1      11.321  -6.950  12.780  0.00  0.00     0.035 H 
ATOM     27  H12 1KO d   1      12.828  -7.857  13.147  0.00  0.00     0.035 H 
ATOM     28  H13 1KO d   1      14.121  -6.319  11.689  0.00  0.00     0.036 H 
ATOM     29  H14 1KO d   1      12.772  -7.071  10.772  0.00  0.00     0.036 H 
ATOM     30  H4  1KO d   1      11.373  -5.080  11.195  0.00  0.00     0.074 H 
ENDBRANCH  12  14
ENDBRANCH   9  12
BRANCH   2  31
ATOM     31  C11 1KO d   1      16.499  -1.959   6.848  0.00  0.00    -0.006 A 
ATOM     32  C19 1KO d   1      16.945  -0.847   6.097  0.00  0.00    -0.069 A 
ATOM     33  C20 1KO d   1      18.242  -0.811   5.599  0.00  0.00    -0.061 A 
ATOM     34  H15 1KO d   1      16.272  -0.018   5.909  0.00  0.00     0.085 H 
ATOM     35  C21 1KO d   1      19.106  -1.878   5.837  0.00  0.00     0.034 A 
ATOM     36  H16 1KO d   1      18.581   0.045   5.027  0.00  0.00     0.086 H 
ATOM     37  C22 1KO d   1      18.677  -2.996   6.583  0.00  0.00    -0.061 A 
ATOM     38 CL   1KO d   1      20.731  -1.822   5.224  0.00  0.00    -0.084 Cl
ATOM     39  C23 1KO d   1      17.369  -3.033   7.088  0.00  0.00    -0.069 A 
ATOM     40  H17 1KO d   1      19.355  -3.822   6.765  0.00  0.00     0.086 H 
ATOM     41  H18 1KO d   1      17.032  -3.889   7.662  0.00  0.00     0.085 H 
ENDBRANCH   2  31
BRANCH   6  42
ATOM     42  C12 1KO d   1      11.290  -0.026   7.265  0.00  0.00     0.285 C 
ATOM     43  N25 1KO d   1      10.050   0.388   7.558  0.00  0.00    -0.363 N 
ATOM     44  H19 1KO d   1       9.673   1.196   7.106  0.00  0.00     0.159 HD
ATOM     45  H20 1KO d   1       9.502  -0.111   8.229  0.00  0.00     0.159 HD
ATOM     46  O26 1KO d   1      12.005   0.567   6.458  0.00  0.00    -0.264 OA
ENDBRANCH   6  42
TORSDOF 4
