REMARK  4 active torsions:
REMARK  status: ('A' for Active; 'I' for Inactive)
REMARK    1  A    between atoms: C09_13  and  C10_1 
REMARK    2  A    between atoms: C13_3  and  C14_15 
REMARK    3  A    between atoms: C07_11  and  C05_9 
REMARK    4  A    between atoms: N08_12  and  C07_11 
REMARK       I    between atoms: N08_12  and  C09_13 
ROOT
ATOM      1  C10 1L7 d   1       9.703  -3.023   7.251  0.00  0.00     0.113 C 
ATOM      2  N12 1L7 d   1       9.146  -0.933   8.789  0.00  0.00    -0.191 NA
ATOM      3  C13 1L7 d   1       8.814  -3.631   6.479  0.00  0.00    -0.047 C 
ATOM      4  C11 1L7 d   1       9.384  -1.828   8.131  0.00  0.00     0.105 C 
ATOM      5  H1  1L7 d   1       8.976  -4.679   6.230  0.00  0.00     0.087 H 
ENDROOT
BRANCH   1   6
ATOM      6  C09 1L7 d   1      11.111  -3.533   7.259  0.00  0.00     0.262 C 
ATOM      7  N08 1L7 d   1      12.115  -2.745   7.946  0.00  0.00    -0.352 N 
ATOM      8  H10 1L7 d   1      11.884  -1.883   8.397  0.00  0.00     0.163 HD
ATOM      9  O20 1L7 d   1      11.425  -4.581   6.712  0.00  0.00    -0.267 OA
BRANCH   7  10
ATOM     10  C07 1L7 d   1      13.475  -3.264   7.951  0.00  0.00     0.019 C 
ATOM     11  H8  1L7 d   1      13.469  -4.361   8.030  0.00  0.00     0.071 H 
ATOM     12  H9  1L7 d   1      14.005  -2.965   7.035  0.00  0.00     0.071 H 
BRANCH  10  13
ATOM     13  C05 1L7 d   1      14.149  -2.633   9.200  0.00  0.00    -0.041 A 
ATOM     14  C04 1L7 d   1      13.446  -1.652   9.887  0.00  0.00    -0.075 A 
ATOM     15  C03 1L7 d   1      14.006  -1.073  10.988  0.00  0.00    -0.082 A 
ATOM     16  H6  1L7 d   1      12.461  -1.349   9.551  0.00  0.00     0.084 H 
ATOM     17  C02 1L7 d   1      15.263  -1.483  11.376  0.00  0.00    -0.083 A 
ATOM     18  H5  1L7 d   1      13.475  -0.309  11.544  0.00  0.00     0.083 H 
ATOM     19  C01 1L7 d   1      15.955  -2.478  10.678  0.00  0.00    -0.082 A 
ATOM     20  H4  1L7 d   1      15.726  -1.024  12.242  0.00  0.00     0.083 H 
ATOM     21  C06 1L7 d   1      15.405  -3.063   9.585  0.00  0.00    -0.075 A 
ATOM     22  H3  1L7 d   1      16.939  -2.784  11.014  0.00  0.00     0.083 H 
ATOM     23  H7  1L7 d   1      15.929  -3.837   9.036  0.00  0.00     0.084 H 
ENDBRANCH  10  13
ENDBRANCH   7  10
ENDBRANCH   1   6
BRANCH   3  24
ATOM     24  C14 1L7 d   1       7.581  -2.941   5.924  0.00  0.00    -0.032 A 
ATOM     25  C15 1L7 d   1       7.695  -2.000   4.875  0.00  0.00    -0.056 A 
ATOM     26  C16 1L7 d   1       6.501  -1.402   4.401  0.00  0.00     0.003 A 
ATOM     27  H2  1L7 d   1       8.659  -1.746   4.449  0.00  0.00     0.086 H 
ATOM     28  N17 1L7 d   1       5.306  -1.697   4.905  0.00  0.00    -0.273 NA
ATOM     29  H11 1L7 d   1       6.564  -0.677   3.598  0.00  0.00     0.114 H 
ATOM     30  C18 1L7 d   1       5.173  -2.587   5.889  0.00  0.00     0.003 A 
ATOM     31  C19 1L7 d   1       6.288  -3.248   6.442  0.00  0.00    -0.056 A 
ATOM     32  H12 1L7 d   1       4.183  -2.807   6.273  0.00  0.00     0.114 H 
ATOM     33  H13 1L7 d   1       6.166  -3.971   7.240  0.00  0.00     0.086 H 
ENDBRANCH   3  24
TORSDOF 4
