REMARK  4 active torsions:
REMARK  status: ('A' for Active; 'I' for Inactive)
REMARK    1  A    between atoms: C2_2  and  N2_3 
REMARK    2  A    between atoms: CAT_21  and  N9_11 
REMARK    3  A    between atoms: CAO_20  and  CAJ_18 
REMARK    4  A    between atoms: CAJ_18  and  PAW_23 
REMARK       I    between atoms: CAO_20  and  NAU_22 
ROOT
ATOM      1  OAB 3ZF d   1     -41.629  17.715 -18.841  0.00  0.00    -0.273 OA
ATOM      2  CAH 3ZF d   1     -40.315  21.495 -17.087  0.00  0.00    -0.029 C 
ATOM      3  CAI 3ZF d   1     -40.397  20.091 -17.564  0.00  0.00    -0.000 C 
ATOM      4  CAK 3ZF d   1     -42.513  21.177 -17.836  0.00  0.00     0.017 C 
ATOM      5  CAO 3ZF d   1     -42.317  18.724 -18.682  0.00  0.00     0.232 C 
ATOM      6  CAT 3ZF d   1     -41.695  21.909 -16.840  0.00  0.00     0.036 C 
ATOM      7  NAU 3ZF d   1     -41.761  19.921 -18.061  0.00  0.00    -0.350 N 
ATOM      8  H5  3ZF d   1     -39.854  22.135 -17.854  0.00  0.00     0.038 H 
ATOM      9  H6  3ZF d   1     -39.726  21.552 -16.160  0.00  0.00     0.038 H 
ATOM     10  H7  3ZF d   1     -40.200  19.393 -16.737  0.00  0.00     0.064 H 
ATOM     11  H8  3ZF d   1     -39.670  19.917 -18.371  0.00  0.00     0.064 H 
ATOM     12  H11 3ZF d   1     -42.601  21.753 -18.769  0.00  0.00     0.067 H 
ATOM     13  H12 3ZF d   1     -43.517  20.966 -17.439  0.00  0.00     0.067 H 
ATOM     14  H13 3ZF d   1     -41.803  22.996 -16.966  0.00  0.00     0.076 H 
ENDROOT
BRANCH   6  15
ATOM     15  N9  3ZF d   1     -42.116  21.516 -15.482  0.00  0.00    -0.317 N 
ATOM     16  C4  3ZF d   1     -41.503  21.968 -14.304  0.00  0.00     0.183 A 
ATOM     17  N3  3ZF d   1     -40.445  22.818 -14.059  0.00  0.00    -0.044 NA
ATOM     18  C5  3ZF d   1     -42.173  21.376 -13.246  0.00  0.00     0.159 A 
ATOM     19  C2  3ZF d   1     -40.066  23.076 -12.775  0.00  0.00     0.702 A 
ATOM     20  N1  3ZF d   1     -40.698  22.521 -11.726  0.00  0.00    -0.164 N 
ATOM     21  C6  3ZF d   1     -41.750  21.668 -11.900  0.00  0.00     0.226 A 
ATOM     22  H1  3ZF d   1     -40.391  22.737 -10.799  0.00  0.00     0.186 HD
ATOM     23  O6  3ZF d   1     -42.390  21.103 -10.822  0.00  0.00    -0.169 OA
ATOM     24  N7  3ZF d   1     -43.179  20.577 -13.792  0.00  0.00    -0.235 NA
ATOM     25  C8  3ZF d   1     -43.120  20.677 -15.153  0.00  0.00     0.069 A 
ATOM     26  H4  3ZF d   1     -43.775  20.164 -15.856  0.00  0.00     0.143 H 
BRANCH  19  27
ATOM     27  N2  3ZF d   1     -38.958  23.971 -12.548  0.00  0.00    -0.233 N 
ATOM     28  H2  3ZF d   1     -38.470  24.399 -13.347  0.00  0.00     0.174 HD
ATOM     29  H3  3ZF d   1     -38.655  24.182 -11.586  0.00  0.00     0.174 HD
ENDBRANCH  19  27
ENDBRANCH   6  15
BRANCH   5  30
ATOM     30  CAJ 3ZF d   1     -43.787  18.767 -19.135  0.00  0.00     0.112 C 
ATOM     31  H9  3ZF d   1     -43.833  19.373 -20.052  0.00  0.00     0.068 H 
ATOM     32  H10 3ZF d   1     -44.364  19.261 -18.340  0.00  0.00     0.068 H 
BRANCH  30  33
ATOM     33  PAW 3ZF d   1     -44.595  17.173 -19.490  0.00  0.00     0.268 P 
ATOM     34  OAD 3ZF d   1     -43.901  16.075 -18.752  0.00  0.00    -0.639 OA
ATOM     35  OAE 3ZF d   1     -46.083  17.260 -19.023  0.00  0.00    -0.639 OA
ATOM     36  OAF 3ZF d   1     -44.526  16.907 -21.040  0.00  0.00    -0.639 OA
ENDBRANCH  30  33
ENDBRANCH   5  30
TORSDOF 4
