REMARK WARNING: 32 MAX_TORS EXCEEDED!!!
REMARK  38 active torsions:
REMARK  status: ('A' for Active; 'I' for Inactive)
REMARK    1  A    between atoms: N_1  and  CA_2 
REMARK    2  A    between atoms: CA_2  and  C_3 
REMARK    3  A    between atoms: CA_2  and  CB_5 
REMARK       I    between atoms: C_3  and  N_13 
REMARK    4  A    between atoms: CB_5  and  CG_6 
REMARK    5  A    between atoms: CZ_11  and  OH_12 
REMARK    6  A    between atoms: N_13  and  CA_14 
REMARK    7  A    between atoms: CA_14  and  C_15 
REMARK    8  A    between atoms: CA_14  and  CB_17 
REMARK       I    between atoms: C_15  and  N_23 
REMARK    9  A    between atoms: CB_17  and  CG_18 
REMARK   10  A    between atoms: N_23  and  CA_24 
REMARK   11  A    between atoms: CA_24  and  CB_25 
REMARK   12  A    between atoms: CA_24  and  C_27 
REMARK   13  A    between atoms: CB_25  and  OG_26 
REMARK   14  A    between atoms: OG_26  and  P_29 
REMARK       I    between atoms: C_27  and  N_33 
REMARK   15  A    between atoms: N_33  and  CA_34 
REMARK   16  A    between atoms: CA_34  and  C_35 
REMARK   17  A    between atoms: CA_34  and  CB_37 
REMARK       I    between atoms: C_35  and  N_40 
REMARK   18  A    between atoms: CB_37  and  CG1_38 
REMARK   19  A    between atoms: CB_37  and  CG2_39 
REMARK   20  A    between atoms: N_40  and  CA_41 
REMARK   21  A    between atoms: CA_41  and  C_42 
REMARK   22  A    between atoms: CA_41  and  CB_44 
REMARK       I    between atoms: C_42  and  N_47 
REMARK   23  A    between atoms: CB_44  and  CG1_45 
REMARK   24  A    between atoms: CB_44  and  CG2_46 
REMARK   25  A    between atoms: N_47  and  CA_48 
REMARK   26  A    between atoms: CA_48  and  C_49 
REMARK   27  A    between atoms: CA_48  and  CB_51 
REMARK       I    between atoms: C_49  and  N_58 
REMARK   28  A    between atoms: CB_51  and  CG_52 
REMARK   29  A    between atoms: CG_52  and  CD_53 
REMARK   30  A    between atoms: CD_53  and  NE_54 
REMARK       I    between atoms: NE_54  and  CZ_55 
REMARK       I    between atoms: CZ_55  and  NH1_56 
REMARK   31  A    between atoms: N_58  and  CA_59 
REMARK   32  A    between atoms: CA_59  and  C_60 
REMARK   33  A    between atoms: CA_59  and  CB_62 
REMARK       I    between atoms: C_60  and  N_70 
REMARK   34  A    between atoms: CB_62  and  CG_63 
REMARK   35  A    between atoms: CZ_68  and  OH_69 
REMARK   36  A    between atoms: N_70  and  CA_71 
REMARK   37  A    between atoms: CA_71  and  C_72 
REMARK   38  A    between atoms: CA_71  and  CB_74 
ROOT
ATOM      1  C   VAL d   1      -1.818  17.823  -2.807  0.00  0.00     0.241 C 
ATOM      2  O   VAL d   1      -1.001  18.625  -3.259  0.00  0.00    -0.271 OA
ATOM      3  N   VAL d   1      -2.035  17.660  -1.505  0.00  0.00    -0.346 N 
ATOM      4  H32 VAL d   1      -2.755  17.032  -1.211  0.00  0.00     0.163 HD
ENDROOT
BRANCH   3   5
ATOM      5  CA  VAL d   1      -1.261  18.364  -0.493  0.00  0.00     0.092 C 
ATOM      6  H33 VAL d   1      -0.639  19.125  -0.987  0.00  0.00     0.088 H 
BRANCH   5   7
ATOM      7  C   VAL d   1      -0.360  17.370   0.237  0.00  0.00     0.241 C 
ATOM      8  O   VAL d   1      -0.840  16.418   0.852  0.00  0.00    -0.271 OA
ATOM      9  N   ARG d   1       0.947  17.591   0.161  0.00  0.00    -0.346 N 
ATOM     10  H41 ARG d   1       1.279  18.401  -0.322  0.00  0.00     0.163 HD
BRANCH   9  11
ATOM     11  CA  ARG d   1       1.908  16.677   0.768  0.00  0.00     0.089 C 
ATOM     12  H42 ARG d   1       1.401  15.717   0.947  0.00  0.00     0.087 H 
BRANCH  11  13
ATOM     13  C   ARG d   1       2.414  17.198   2.110  0.00  0.00     0.241 C 
ATOM     14  O   ARG d   1       2.629  18.398   2.278  0.00  0.00    -0.271 OA
ATOM     15  N   TYR d   1       2.594  16.285   3.062  0.00  0.00    -0.346 N 
ATOM     16  H54 TYR d   1       2.409  15.325   2.851  0.00  0.00     0.163 HD
BRANCH  15  17
ATOM     17  CA  TYR d   1       3.052  16.637   4.405  0.00  0.00     0.093 C 
ATOM     18  H55 TYR d   1       3.418  17.674   4.385  0.00  0.00     0.088 H 
BRANCH  17  19
ATOM     19  C   TYR d   1       4.193  15.724   4.853  0.00  0.00     0.241 C 
ATOM     20  O   TYR d   1       4.404  14.652   4.287  0.00  0.00    -0.271 OA
ATOM     21  N   ALA d   1       4.916  16.159   5.882  0.00  0.00    -0.345 N 
ATOM     22  H63 ALA d   1       4.700  17.053   6.275  0.00  0.00     0.163 HD
BRANCH  21  23
ATOM     23  CA  ALA d   1       6.011  15.387   6.461  0.00  0.00     0.093 C 
ATOM     24  H64 ALA d   1       5.991  14.371   6.039  0.00  0.00     0.089 H 
BRANCH  23  25
ATOM     25  C   ALA d   1       5.837  15.295   7.974  0.00  0.00     0.196 C 
ATOM     26  O   ALA d   1       4.912  14.601   8.475  0.00  0.00    -0.646 OA
ATOM     27  O   ALA d   1       6.627  15.920   8.731  0.00  0.00    -0.646 OA
ENDBRANCH  23  25
BRANCH  23  28
ATOM     28  CB  ALA d   1       7.345  16.028   6.125  0.00  0.00    -0.048 C 
ATOM     29  H65 ALA d   1       8.159  15.435   6.568  0.00  0.00     0.030 H 
ATOM     30  H66 ALA d   1       7.373  17.050   6.531  0.00  0.00     0.030 H 
ATOM     31  H67 ALA d   1       7.470  16.064   5.033  0.00  0.00     0.030 H 
ENDBRANCH  23  28
ENDBRANCH  21  23
ENDBRANCH  17  19
BRANCH  17  32
ATOM     32  CB  TYR d   1       1.903  16.540   5.416  0.00  0.00    -0.014 C 
ATOM     33  H56 TYR d   1       2.333  16.576   6.428  0.00  0.00     0.043 H 
ATOM     34  H57 TYR d   1       1.397  15.575   5.267  0.00  0.00     0.043 H 
BRANCH  32  35
ATOM     35  CG  TYR d   1       0.866  17.637   5.306  0.00  0.00    -0.056 A 
ATOM     36  CD1 TYR d   1       1.161  18.942   5.680  0.00  0.00    -0.074 A 
ATOM     37  CE1 TYR d   1       0.215  19.944   5.587  0.00  0.00    -0.051 A 
ATOM     38  H58 TYR d   1       2.152  19.178   6.051  0.00  0.00     0.084 H 
ATOM     39  CZ  TYR d   1      -1.050  19.647   5.126  0.00  0.00     0.065 A 
ATOM     40  H60 TYR d   1       0.466  20.959   5.875  0.00  0.00     0.087 H 
ATOM     41  CE2 TYR d   1      -1.372  18.358   4.756  0.00  0.00    -0.051 A 
ATOM     42  CD2 TYR d   1      -0.417  17.361   4.852  0.00  0.00    -0.074 A 
ATOM     43  H61 TYR d   1      -2.367  18.127   4.392  0.00  0.00     0.087 H 
ATOM     44  H59 TYR d   1      -0.675  16.347   4.568  0.00  0.00     0.084 H 
BRANCH  39  45
ATOM     45  OH  TYR d   1      -1.995  20.642   5.035  0.00  0.00    -0.361 OA
ATOM     46  H62 TYR d   1      -1.617  21.464   5.325  0.00  0.00     0.217 HD
ENDBRANCH  39  45
ENDBRANCH  32  35
ENDBRANCH  17  32
ENDBRANCH  15  17
ENDBRANCH  11  13
BRANCH  11  47
ATOM     47  CB  ARG d   1       3.071  16.432  -0.195  0.00  0.00    -0.036 C 
ATOM     48  H43 ARG d   1       3.803  15.775   0.298  0.00  0.00     0.036 H 
ATOM     49  H44 ARG d   1       3.543  17.398  -0.429  0.00  0.00     0.036 H 
BRANCH  47  50
ATOM     50  CG  ARG d   1       2.630  15.778  -1.498  0.00  0.00    -0.048 C 
ATOM     51  H45 ARG d   1       1.831  16.389  -1.944  0.00  0.00     0.035 H 
ATOM     52  H46 ARG d   1       2.241  14.774  -1.272  0.00  0.00     0.035 H 
BRANCH  50  53
ATOM     53  CD  ARG d   1       3.757  15.644  -2.507  0.00  0.00     0.009 C 
ATOM     54  H47 ARG d   1       4.447  14.855  -2.173  0.00  0.00     0.064 H 
ATOM     55  H48 ARG d   1       4.298  16.600  -2.572  0.00  0.00     0.064 H 
BRANCH  53  56
ATOM     56  NE  ARG d   1       3.238  15.298  -3.829  0.00  0.00    -0.227 N 
ATOM     57  CZ  ARG d   1       2.575  16.140  -4.618  0.00  0.00     0.665 C 
ATOM     58  NH1 ARG d   1       2.340  17.386  -4.226  0.00  0.00    -0.235 N 
ATOM     59  NH2 ARG d   1       2.139  15.736  -5.802  0.00  0.00    -0.235 N 
ATOM     60  H50 ARG d   1       1.826  18.032  -4.843  0.00  0.00     0.174 HD
ATOM     61  H51 ARG d   1       2.671  17.707  -3.305  0.00  0.00     0.174 HD
ATOM     62  H52 ARG d   1       2.317  14.771  -6.114  0.00  0.00     0.174 HD
ATOM     63  H53 ARG d   1       1.622  16.387  -6.410  0.00  0.00     0.174 HD
ATOM     64  H49 ARG d   1       3.396  14.340  -4.172  0.00  0.00     0.177 HD
ENDBRANCH  53  56
ENDBRANCH  50  53
ENDBRANCH  47  50
ENDBRANCH  11  47
ENDBRANCH   9  11
ENDBRANCH   5   7
BRANCH   5  65
ATOM     65  CB  VAL d   1      -2.174  19.055   0.536  0.00  0.00    -0.033 C 
ATOM     66  H34 VAL d   1      -2.709  18.278   1.102  0.00  0.00     0.042 H 
BRANCH  65  67
ATOM     67  CG1 VAL d   1      -1.345  19.879   1.514  0.00  0.00    -0.071 C 
ATOM     68  H35 VAL d   1      -2.012  20.365   2.241  0.00  0.00     0.028 H 
ATOM     69  H36 VAL d   1      -0.783  20.646   0.962  0.00  0.00     0.028 H 
ATOM     70  H37 VAL d   1      -0.642  19.220   2.045  0.00  0.00     0.028 H 
ENDBRANCH  65  67
BRANCH  65  71
ATOM     71  CG2 VAL d   1      -3.201  19.932  -0.163  0.00  0.00    -0.071 C 
ATOM     72  H38 VAL d   1      -3.789  19.321  -0.864  0.00  0.00     0.028 H 
ATOM     73  H39 VAL d   1      -2.685  20.731  -0.717  0.00  0.00     0.028 H 
ATOM     74  H40 VAL d   1      -3.872  20.379   0.586  0.00  0.00     0.028 H 
ENDBRANCH  65  71
ENDBRANCH   5  65
ENDBRANCH   3   5
BRANCH   1  75
ATOM     75  CA  VAL d   1      -2.648  16.943  -3.737  0.00  0.00     0.092 C 
ATOM     76  H24 VAL d   1      -3.356  16.360  -3.130  0.00  0.00     0.088 H 
BRANCH  75  77
ATOM     77  N   VAL d   1      -3.421  17.740  -4.687  0.00  0.00    -0.346 N 
ATOM     78  C   SEP d   1      -4.718  17.970  -4.501  0.00  0.00     0.243 C 
ATOM     79  O   SEP d   1      -5.350  17.210  -3.763  0.00  0.00    -0.271 OA
ATOM     80  H23 VAL d   1      -2.966  18.120  -5.492  0.00  0.00     0.163 HD
BRANCH  78  81
ATOM     81  CA  SEP d   1      -5.433  18.803  -5.562  0.00  0.00     0.110 C 
ATOM     82  H20 SEP d   1      -6.274  19.328  -5.084  0.00  0.00     0.090 H 
BRANCH  81  83
ATOM     83  N   SEP d   1      -4.546  19.796  -6.154  0.00  0.00    -0.344 N 
ATOM     84  C   HIS d   1      -4.218  20.919  -5.529  0.00  0.00     0.241 C 
ATOM     85  O   HIS d   1      -4.607  21.199  -4.396  0.00  0.00    -0.271 OA
ATOM     86  H19 SEP d   1      -4.171  19.625  -7.065  0.00  0.00     0.163 HD
BRANCH  84  87
ATOM     87  CA  HIS d   1      -3.310  21.862  -6.305  0.00  0.00     0.094 C 
ATOM     88  H13 HIS d   1      -3.152  21.453  -7.314  0.00  0.00     0.088 H 
BRANCH  87  89
ATOM     89  N   HIS d   1      -3.923  23.174  -6.425  0.00  0.00    -0.346 N 
ATOM     90  C   TYR d   1      -4.164  23.729  -7.607  0.00  0.00     0.249 C 
ATOM     91  O   TYR d   1      -3.871  23.195  -8.678  0.00  0.00    -0.271 OA
ATOM     92  H12 HIS d   1      -4.170  23.673  -5.594  0.00  0.00     0.163 HD
BRANCH  90  93
ATOM     93  CA  TYR d   1      -4.836  25.094  -7.567  0.00  0.00     0.179 C 
ATOM     94  H4  TYR d   1      -4.546  25.603  -6.636  0.00  0.00     0.099 H 
BRANCH  93  95
ATOM     95  N   TYR d   1      -4.383  25.926  -8.722  0.00  0.00    -0.066 N 
ATOM     96  H1  TYR d   1      -4.834  26.827  -8.685  0.00  0.00     0.275 HD
ATOM     97  H2  TYR d   1      -4.625  25.464  -9.585  0.00  0.00     0.275 HD
ATOM     98  H3  TYR d   1      -3.384  26.049  -8.676  0.00  0.00     0.275 HD
ENDBRANCH  93  95
BRANCH  93  99
ATOM     99  CB  TYR d   1      -6.361  24.921  -7.574  0.00  0.00    -0.006 C 
ATOM    100  H5  TYR d   1      -6.633  24.217  -6.774  0.00  0.00     0.043 H 
ATOM    101  H6  TYR d   1      -6.657  24.503  -8.547  0.00  0.00     0.043 H 
BRANCH  99 102
ATOM    102  CG  TYR d   1      -7.127  26.208  -7.356  0.00  0.00    -0.056 A 
ATOM    103  CD1 TYR d   1      -7.110  26.850  -6.124  0.00  0.00    -0.074 A 
ATOM    104  CE1 TYR d   1      -7.806  28.027  -5.921  0.00  0.00    -0.051 A 
ATOM    105  H7  TYR d   1      -6.541  26.420  -5.308  0.00  0.00     0.084 H 
ATOM    106  CZ  TYR d   1      -8.536  28.573  -6.956  0.00  0.00     0.065 A 
ATOM    107  H9  TYR d   1      -7.778  28.518  -4.955  0.00  0.00     0.087 H 
ATOM    108  CE2 TYR d   1      -8.574  27.952  -8.187  0.00  0.00    -0.051 A 
ATOM    109  CD2 TYR d   1      -7.872  26.777  -8.381  0.00  0.00    -0.074 A 
ATOM    110  H10 TYR d   1      -9.151  28.383  -8.997  0.00  0.00     0.087 H 
ATOM    111  H8  TYR d   1      -7.904  26.291  -9.350  0.00  0.00     0.084 H 
BRANCH 106 112
ATOM    112  OH  TYR d   1      -9.234  29.742  -6.761  0.00  0.00    -0.361 OA
ATOM    113  H11 TYR d   1      -9.107  30.041  -5.868  0.00  0.00     0.217 HD
ENDBRANCH 106 112
ENDBRANCH  99 102
ENDBRANCH  93  99
ENDBRANCH  90  93
ENDBRANCH  87  89
BRANCH  87 114
ATOM    114  CB  HIS d   1      -1.961  21.973  -5.602  0.00  0.00     0.004 C 
ATOM    115  H14 HIS d   1      -1.488  20.980  -5.599  0.00  0.00     0.046 H 
ATOM    116  H15 HIS d   1      -2.135  22.299  -4.566  0.00  0.00     0.046 H 
BRANCH 114 117
ATOM    117  CG  HIS d   1      -1.021  22.941  -6.249  0.00  0.00     0.053 A 
ATOM    118  ND1 HIS d   1      -0.228  22.601  -7.321  0.00  0.00    -0.247 NA
ATOM    119  CE1 HIS d   1       0.496  23.648  -7.679  0.00  0.00     0.064 A 
ATOM    120  NE2 HIS d   1       0.200  24.653  -6.875  0.00  0.00    -0.359 N 
ATOM    121  H17 HIS d   1       1.214  23.677  -8.497  0.00  0.00     0.143 H 
ATOM    122  CD2 HIS d   1      -0.746  24.238  -5.970  0.00  0.00     0.002 A 
ATOM    123  H18 HIS d   1       0.612  25.596  -6.920  0.00  0.00     0.166 HD
ATOM    124  H16 HIS d   1      -1.191  24.838  -5.178  0.00  0.00     0.114 H 
ENDBRANCH 114 117
ENDBRANCH  87 114
ENDBRANCH  84  87
ENDBRANCH  81  83
BRANCH  81 125
ATOM    125  CB  SEP d   1      -5.981  17.886  -6.657  0.00  0.00     0.059 C 
ATOM    126  H21 SEP d   1      -6.785  18.408  -7.196  0.00  0.00     0.079 H 
ATOM    127  H22 SEP d   1      -6.383  16.972  -6.194  0.00  0.00     0.079 H 
BRANCH 125 128
ATOM    128  OG  SEP d   1      -4.961  17.532  -7.575  0.00  0.00    -0.280 OA
BRANCH 128 129
ATOM    129  P   SEP d   1      -5.563  16.900  -8.923  0.00  0.00     0.422 P 
ATOM    130  O1P SEP d   1      -6.817  15.955  -8.585  0.00  0.00    -0.617 OA
ATOM    131  O2P SEP d   1      -6.056  18.059  -9.917  0.00  0.00    -0.617 OA
ATOM    132  O3P SEP d   1      -4.427  16.040  -9.664  0.00  0.00    -0.617 OA
ENDBRANCH 128 129
ENDBRANCH 125 128
ENDBRANCH  81 125
ENDBRANCH  78  81
ENDBRANCH  75  77
BRANCH  75 133
ATOM    133  CB  VAL d   1      -1.695  15.968  -4.450  0.00  0.00    -0.033 C 
ATOM    134  H25 VAL d   1      -0.854  16.542  -4.865  0.00  0.00     0.042 H 
BRANCH 133 135
ATOM    135  CG1 VAL d   1      -1.149  14.958  -3.458  0.00  0.00    -0.071 C 
ATOM    136  H26 VAL d   1      -0.469  14.266  -3.976  0.00  0.00     0.028 H 
ATOM    137  H27 VAL d   1      -1.982  14.392  -3.015  0.00  0.00     0.028 H 
ATOM    138  H28 VAL d   1      -0.600  15.484  -2.663  0.00  0.00     0.028 H 
ENDBRANCH 133 135
BRANCH 133 139
ATOM    139  CG2 VAL d   1      -2.403  15.261  -5.593  0.00  0.00    -0.071 C 
ATOM    140  H29 VAL d   1      -2.792  16.008  -6.301  0.00  0.00     0.028 H 
ATOM    141  H30 VAL d   1      -3.237  14.664  -5.195  0.00  0.00     0.028 H 
ATOM    142  H31 VAL d   1      -1.693  14.599  -6.111  0.00  0.00     0.028 H 
ENDBRANCH 133 139
ENDBRANCH  75 133
ENDBRANCH   1  75
TORSDOF 38
