REMARK  28 active torsions:
REMARK  status: ('A' for Active; 'I' for Inactive)
REMARK    1  A    between atoms: C_1  and  CH3_3 
REMARK       I    between atoms: N_4  and  C_1 
REMARK    2  A    between atoms: CA_5  and  N_4 
REMARK    3  A    between atoms: C_6  and  CA_5 
REMARK    4  A    between atoms: CA_5  and  CB_8 
REMARK       I    between atoms: N_15  and  C_6 
REMARK    5  A    between atoms: CB_8  and  C6_9 
REMARK    6  A    between atoms: CA_16  and  N_15 
REMARK    7  A    between atoms: C_17  and  CA_16 
REMARK    8  A    between atoms: CA_16  and  CB_19 
REMARK       I    between atoms: N_27  and  C_17 
REMARK    9  A    between atoms: CB_19  and  CG_20 
REMARK   10  A    between atoms: CA_25  and  C_24 
REMARK       I    between atoms: C_24  and  N_32 
REMARK   11  A    between atoms: CB_26  and  CA_25 
REMARK   12  A    between atoms: CB_26  and  N_27 
REMARK   13  A    between atoms: CB_26  and  CG_28 
REMARK   14  A    between atoms: CG_28  and  CD_29 
REMARK   15  A    between atoms: CD_29  and  CE2_30 
REMARK   16  A    between atoms: CD_29  and  CE1_31 
REMARK   17  A    between atoms: N_32  and  CA_33 
REMARK   18  A    between atoms: CA_33  and  C_34 
REMARK   19  A    between atoms: CA_33  and  CB_36 
REMARK       I    between atoms: C_34  and  N_41 
REMARK   20  A    between atoms: CB_36  and  CG_37 
REMARK   21  A    between atoms: CG_37  and  C7_38 
REMARK   22  A    between atoms: C7_38  and  C8_39 
REMARK   23  A    between atoms: C7_38  and  C9_40 
REMARK   24  A    between atoms: N_41  and  CA_42 
REMARK   25  A    between atoms: CA_42  and  C_43 
REMARK   26  A    between atoms: CA_42  and  CB_45 
REMARK   27  A    between atoms: C_43  and  C9_49 
REMARK   28  A    between atoms: CB_45  and  CG_46 
ROOT
ATOM      1  CB  B3L d   1      55.768  79.073 153.301  0.00  0.00     0.020 C 
ATOM      2  H18 B3L d   1      55.115  78.194 153.197  0.00  0.00     0.073 H 
ENDROOT
BRANCH   1   3
ATOM      3  CA  B3L d   1      56.763  79.010 152.163  0.00  0.00     0.028 C 
ATOM      4  H16 B3L d   1      57.532  79.781 152.323  0.00  0.00     0.050 H 
ATOM      5  H17 B3L d   1      57.235  78.016 152.162  0.00  0.00     0.050 H 
BRANCH   3   6
ATOM      6  C   B3L d   1      56.112  79.244 150.805  0.00  0.00     0.220 C 
ATOM      7  O   B3L d   1      55.087  78.593 150.511  0.00  0.00    -0.274 OA
ATOM      8  N   HLX d   1      56.708  80.115 150.029  0.00  0.00    -0.348 N 
ATOM      9  H29 HLX d   1      57.531  80.588 150.345  0.00  0.00     0.163 HD
BRANCH   8  10
ATOM     10  CA  HLX d   1      56.166  80.394 148.700  0.00  0.00     0.089 C 
ATOM     11  H30 HLX d   1      55.557  79.534 148.385  0.00  0.00     0.087 H 
BRANCH  10  12
ATOM     12  C   HLX d   1      57.292  80.539 147.727  0.00  0.00     0.241 C 
ATOM     13  O   HLX d   1      58.441  80.744 148.084  0.00  0.00    -0.271 OA
ATOM     14  N   1U8 d   1      56.936  80.414 146.460  0.00  0.00    -0.347 N 
ATOM     15  H42 1U8 d   1      55.965  80.291 146.253  0.00  0.00     0.163 HD
BRANCH  14  16
ATOM     16  CA  1U8 d   1      57.887  80.445 145.337  0.00  0.00     0.078 C 
ATOM     17  H43 1U8 d   1      58.902  80.373 145.755  0.00  0.00     0.085 H 
BRANCH  16  18
ATOM     18  C   1U8 d   1      57.829  81.733 144.537  0.00  0.00     0.146 C 
ATOM     19  O   1U8 d   1      58.221  81.775 143.388  0.00  0.00    -0.296 OA
BRANCH  18  20
ATOM     20  C9  1U8 d   1      57.156  82.891 145.111  0.00  0.00    -0.019 C 
ATOM     21  H46 1U8 d   1      57.207  83.732 144.404  0.00  0.00     0.037 H 
ATOM     22  H47 1U8 d   1      57.650  83.173 146.052  0.00  0.00     0.037 H 
ATOM     23  H48 1U8 d   1      56.103  82.642 145.310  0.00  0.00     0.037 H 
ENDBRANCH  18  20
ENDBRANCH  16  18
BRANCH  16  24
ATOM     24  CB  1U8 d   1      57.649  79.218 144.476  0.00  0.00     0.041 C 
ATOM     25  H44 1U8 d   1      58.129  79.368 143.498  0.00  0.00     0.052 H 
ATOM     26  H45 1U8 d   1      56.566  79.082 144.337  0.00  0.00     0.052 H 
BRANCH  24  27
ATOM     27  CG  1U8 d   1      58.226  77.968 145.125  0.00  0.00     0.174 C 
ATOM     28  OD1 1U8 d   1      57.747  76.857 144.806  0.00  0.00    -0.648 OA
ATOM     29  OD2 1U8 d   1      59.198  78.087 145.928  0.00  0.00    -0.648 OA
ENDBRANCH  24  27
ENDBRANCH  16  24
ENDBRANCH  14  16
ENDBRANCH  10  12
BRANCH  10  30
ATOM     30  CB  HLX d   1      55.286  81.569 148.745  0.00  0.00    -0.037 C 
ATOM     31  H31 HLX d   1      54.478  81.389 149.469  0.00  0.00     0.036 H 
ATOM     32  H32 HLX d   1      54.854  81.736 147.747  0.00  0.00     0.036 H 
BRANCH  30  33
ATOM     33  CG  HLX d   1      56.035  82.753 149.147  0.00  0.00    -0.060 C 
ATOM     34  H33 HLX d   1      56.831  82.956 148.416  0.00  0.00     0.033 H 
ATOM     35  H34 HLX d   1      56.481  82.592 150.139  0.00  0.00     0.033 H 
BRANCH  33  36
ATOM     36  C7  HLX d   1      55.075  83.926 149.200  0.00  0.00    -0.061 C 
ATOM     37  H35 HLX d   1      54.877  84.264 148.172  0.00  0.00     0.038 H 
BRANCH  36  38
ATOM     38  C8  HLX d   1      55.600  85.042 150.064  0.00  0.00    -0.073 C 
ATOM     39  H36 HLX d   1      54.875  85.870 150.075  0.00  0.00     0.028 H 
ATOM     40  H37 HLX d   1      56.559  85.399 149.659  0.00  0.00     0.028 H 
ATOM     41  H38 HLX d   1      55.750  84.673 151.089  0.00  0.00     0.028 H 
ENDBRANCH  36  38
BRANCH  36  42
ATOM     42  C9  HLX d   1      53.792  83.656 149.939  0.00  0.00    -0.073 C 
ATOM     43  H39 HLX d   1      53.246  82.841 149.441  0.00  0.00     0.028 H 
ATOM     44  H40 HLX d   1      53.172  84.564 149.941  0.00  0.00     0.028 H 
ATOM     45  H41 HLX d   1      54.020  83.365 150.975  0.00  0.00     0.028 H 
ENDBRANCH  36  42
ENDBRANCH  33  36
ENDBRANCH  30  33
ENDBRANCH  10  30
ENDBRANCH   8  10
ENDBRANCH   3   6
ENDBRANCH   1   3
BRANCH   1  46
ATOM     46  N   B3L d   1      56.501  78.944 154.562  0.00  0.00    -0.354 N 
ATOM     47  C   ASP d   1      56.492  77.782 155.211  0.00  0.00     0.241 C 
ATOM     48  O   ASP d   1      55.771  76.842 154.893  0.00  0.00    -0.271 OA
ATOM     49  H19 B3L d   1      57.005  79.724 154.933  0.00  0.00     0.162 HD
BRANCH  47  50
ATOM     50  CA  ASP d   1      57.398  77.663 156.420  0.00  0.00     0.098 C 
ATOM     51  H13 ASP d   1      57.850  76.661 156.401  0.00  0.00     0.088 H 
BRANCH  50  52
ATOM     52  N   ASP d   1      58.487  78.620 156.405  0.00  0.00    -0.345 N 
ATOM     53  C   1MH d   1      59.487  78.491 155.525  0.00  0.00     0.241 C 
ATOM     54  O   1MH d   1      59.461  77.626 154.659  0.00  0.00    -0.271 OA
ATOM     55  H12 ASP d   1      58.491  79.380 157.055  0.00  0.00     0.163 HD
BRANCH  53  56
ATOM     56  CA  1MH d   1      60.672  79.431 155.641  0.00  0.00     0.093 C 
ATOM     57  H5  1MH d   1      61.234  79.390 154.696  0.00  0.00     0.088 H 
BRANCH  56  58
ATOM     58  N   1MH d   1      60.298  80.837 155.904  0.00  0.00    -0.348 N 
ATOM     59  C   ACE d   1      59.615  81.491 154.956  0.00  0.00     0.214 C 
ATOM     60  O   ACE d   1      59.225  80.957 153.920  0.00  0.00    -0.274 OA
ATOM     61  H4  1MH d   1      60.547  81.285 156.762  0.00  0.00     0.163 HD
BRANCH  59  62
ATOM     62  CH3 ACE d   1      59.331  82.936 155.288  0.00  0.00    -0.003 C 
ATOM     63  H1  ACE d   1      59.779  83.183 156.262  0.00  0.00     0.040 H 
ATOM     64  H2  ACE d   1      58.243  83.095 155.334  0.00  0.00     0.040 H 
ATOM     65  H3  ACE d   1      59.763  83.583 154.510  0.00  0.00     0.040 H 
ENDBRANCH  59  62
ENDBRANCH  56  58
BRANCH  56  66
ATOM     66  CB  1MH d   1      61.590  78.968 156.808  0.00  0.00    -0.013 C 
ATOM     67  H6  1MH d   1      61.074  79.139 157.764  0.00  0.00     0.043 H 
ATOM     68  H7  1MH d   1      62.524  79.549 156.786  0.00  0.00     0.043 H 
BRANCH  66  69
ATOM     69  C6  1MH d   1      61.914  77.509 156.676  0.00  0.00    -0.038 A 
ATOM     70  C7  1MH d   1      62.968  77.083 155.852  0.00  0.00     0.008 A 
ATOM     71  N8  1MH d   1      63.277  75.801 155.670  0.00  0.00    -0.273 NA
ATOM     72  H8  1MH d   1      63.558  77.834 155.339  0.00  0.00     0.115 H 
ATOM     73  C9  1MH d   1      62.560  74.859 156.310  0.00  0.00     0.002 A 
ATOM     74  C10 1MH d   1      61.516  75.181 157.174  0.00  0.00    -0.066 A 
ATOM     75  H9  1MH d   1      62.803  73.815 156.148  0.00  0.00     0.114 H 
ATOM     76  C11 1MH d   1      61.186  76.525 157.348  0.00  0.00    -0.074 A 
ATOM     77  H10 1MH d   1      60.972  74.404 157.700  0.00  0.00     0.085 H 
ATOM     78  H11 1MH d   1      60.368  76.804 158.002  0.00  0.00     0.084 H 
ENDBRANCH  66  69
ENDBRANCH  56  66
ENDBRANCH  53  56
ENDBRANCH  50  52
BRANCH  50  79
ATOM     79  CB  ASP d   1      56.548  77.768 157.687  0.00  0.00     0.043 C 
ATOM     80  H14 ASP d   1      55.630  77.180 157.538  0.00  0.00     0.052 H 
ATOM     81  H15 ASP d   1      56.286  78.825 157.842  0.00  0.00     0.052 H 
BRANCH  79  82
ATOM     82  CG  ASP d   1      57.246  77.258 158.941  0.00  0.00     0.175 C 
ATOM     83  OD1 ASP d   1      58.208  76.438 158.875  0.00  0.00    -0.648 OA
ATOM     84  OD2 ASP d   1      56.727  77.659 160.028  0.00  0.00    -0.648 OA
ENDBRANCH  79  82
ENDBRANCH  50  79
ENDBRANCH  47  50
ENDBRANCH   1  46
BRANCH   1  85
ATOM     85  CG  B3L d   1      54.874  80.251 153.342  0.00  0.00    -0.043 C 
ATOM     86  H20 B3L d   1      54.395  80.384 152.361  0.00  0.00     0.036 H 
ATOM     87  H21 B3L d   1      55.459  81.149 153.589  0.00  0.00     0.036 H 
BRANCH  85  88
ATOM     88  CD  B3L d   1      53.772  80.021 154.440  0.00  0.00    -0.059 C 
ATOM     89  H22 B3L d   1      54.289  79.826 155.391  0.00  0.00     0.038 H 
BRANCH  88  90
ATOM     90  CE2 B3L d   1      52.964  81.286 154.541  0.00  0.00    -0.073 C 
ATOM     91  H23 B3L d   1      52.181  81.161 155.303  0.00  0.00     0.028 H 
ATOM     92  H24 B3L d   1      52.498  81.502 153.568  0.00  0.00     0.028 H 
ATOM     93  H25 B3L d   1      53.622  82.120 154.826  0.00  0.00     0.028 H 
ENDBRANCH  88  90
BRANCH  88  94
ATOM     94  CE1 B3L d   1      52.753  78.902 154.222  0.00  0.00    -0.073 C 
ATOM     95  H26 B3L d   1      53.278  77.939 154.138  0.00  0.00     0.028 H 
ATOM     96  H27 B3L d   1      52.190  79.094 153.297  0.00  0.00     0.028 H 
ATOM     97  H28 B3L d   1      52.058  78.868 155.074  0.00  0.00     0.028 H 
ENDBRANCH  88  94
ENDBRANCH  85  88
ENDBRANCH   1  85
TORSDOF 28
