REMARK  28 active torsions:
REMARK  status: ('A' for Active; 'I' for Inactive)
REMARK    1  A    between atoms: C_1  and  CH3_3 
REMARK       I    between atoms: N_4  and  C_1 
REMARK    2  A    between atoms: CA_5  and  N_4 
REMARK    3  A    between atoms: C_6  and  CA_5 
REMARK    4  A    between atoms: CA_5  and  CB_8 
REMARK       I    between atoms: N_15  and  C_6 
REMARK    5  A    between atoms: CB_8  and  C6_9 
REMARK    6  A    between atoms: CA_16  and  N_15 
REMARK    7  A    between atoms: C_17  and  CA_16 
REMARK    8  A    between atoms: CA_16  and  CB_19 
REMARK       I    between atoms: N_27  and  C_17 
REMARK    9  A    between atoms: CB_19  and  CG_20 
REMARK   10  A    between atoms: CA_25  and  C_24 
REMARK       I    between atoms: C_24  and  N_32 
REMARK   11  A    between atoms: CB_26  and  CA_25 
REMARK   12  A    between atoms: CB_26  and  N_27 
REMARK   13  A    between atoms: CB_26  and  CG_28 
REMARK   14  A    between atoms: CG_28  and  CD_29 
REMARK   15  A    between atoms: CD_29  and  CE2_30 
REMARK   16  A    between atoms: CD_29  and  CE1_31 
REMARK   17  A    between atoms: N_32  and  CA_33 
REMARK   18  A    between atoms: CA_33  and  C_34 
REMARK   19  A    between atoms: CA_33  and  CB_36 
REMARK       I    between atoms: C_34  and  N_41 
REMARK   20  A    between atoms: CB_36  and  CG_37 
REMARK   21  A    between atoms: CG_37  and  C7_38 
REMARK   22  A    between atoms: C7_38  and  C8_39 
REMARK   23  A    between atoms: C7_38  and  C9_40 
REMARK   24  A    between atoms: N_41  and  CA_42 
REMARK   25  A    between atoms: CA_42  and  C_43 
REMARK   26  A    between atoms: CA_42  and  CB_45 
REMARK   27  A    between atoms: C_43  and  C9_49 
REMARK   28  A    between atoms: CB_45  and  CG_46 
ROOT
ATOM      1  CB  B3L d   1      40.318  11.029  71.443  0.00  0.00     0.020 C 
ATOM      2  H18 B3L d   1      40.682  11.828  70.780  0.00  0.00     0.073 H 
ENDROOT
BRANCH   1   3
ATOM      3  CA  B3L d   1      38.875  10.714  71.103  0.00  0.00     0.028 C 
ATOM      4  H16 B3L d   1      38.622   9.677  71.371  0.00  0.00     0.050 H 
ATOM      5  H17 B3L d   1      38.188  11.403  71.616  0.00  0.00     0.050 H 
BRANCH   3   6
ATOM      6  C   B3L d   1      38.830  10.917  69.595  0.00  0.00     0.220 C 
ATOM      7  O   B3L d   1      39.397  11.908  69.129  0.00  0.00    -0.274 OA
ATOM      8  N   HLX d   1      38.194   9.891  69.095  0.00  0.00    -0.348 N 
ATOM      9  H29 HLX d   1      37.854   9.129  69.646  0.00  0.00     0.163 HD
BRANCH   8  10
ATOM     10  CA  HLX d   1      38.033   9.975  67.648  0.00  0.00     0.089 C 
ATOM     11  H30 HLX d   1      37.972  11.034  67.358  0.00  0.00     0.087 H 
BRANCH  10  12
ATOM     12  C   HLX d   1      36.721   9.301  67.318  0.00  0.00     0.241 C 
ATOM     13  O   HLX d   1      36.178   8.474  68.060  0.00  0.00    -0.271 OA
ATOM     14  N   1U8 d   1      36.162   9.687  66.157  0.00  0.00    -0.347 N 
ATOM     15  H42 1U8 d   1      36.677  10.298  65.555  0.00  0.00     0.163 HD
BRANCH  14  16
ATOM     16  CA  1U8 d   1      34.823   9.245  65.738  0.00  0.00     0.078 C 
ATOM     17  H43 1U8 d   1      34.308   8.806  66.605  0.00  0.00     0.085 H 
BRANCH  16  18
ATOM     18  C   1U8 d   1      34.866   8.204  64.633  0.00  0.00     0.146 C 
ATOM     19  O   1U8 d   1      33.878   8.039  63.891  0.00  0.00    -0.296 OA
BRANCH  18  20
ATOM     20  C9  1U8 d   1      36.087   7.354  64.497  0.00  0.00    -0.019 C 
ATOM     21  H46 1U8 d   1      35.957   6.658  63.655  0.00  0.00     0.037 H 
ATOM     22  H47 1U8 d   1      36.242   6.783  65.424  0.00  0.00     0.037 H 
ATOM     23  H48 1U8 d   1      36.961   7.995  64.311  0.00  0.00     0.037 H 
ENDBRANCH  18  20
ENDBRANCH  16  18
BRANCH  16  24
ATOM     24  CB  1U8 d   1      34.047  10.490  65.262  0.00  0.00     0.041 C 
ATOM     25  H44 1U8 d   1      33.168  10.180  64.678  0.00  0.00     0.052 H 
ATOM     26  H45 1U8 d   1      34.699  11.118  64.637  0.00  0.00     0.052 H 
BRANCH  24  27
ATOM     27  CG  1U8 d   1      33.607  11.261  66.471  0.00  0.00     0.174 C 
ATOM     28  OD1 1U8 d   1      33.375  12.488  66.430  0.00  0.00    -0.648 OA
ATOM     29  OD2 1U8 d   1      33.427  10.666  67.553  0.00  0.00    -0.648 OA
ENDBRANCH  24  27
ENDBRANCH  16  24
ENDBRANCH  14  16
ENDBRANCH  10  12
BRANCH  10  30
ATOM     30  CB  HLX d   1      39.209   9.353  66.894  0.00  0.00    -0.037 C 
ATOM     31  H31 HLX d   1      40.114   9.955  67.062  0.00  0.00     0.036 H 
ATOM     32  H32 HLX d   1      38.983   9.324  65.818  0.00  0.00     0.036 H 
BRANCH  30  33
ATOM     33  CG  HLX d   1      39.438   7.929  67.408  0.00  0.00    -0.060 C 
ATOM     34  H33 HLX d   1      38.477   7.394  67.427  0.00  0.00     0.033 H 
ATOM     35  H34 HLX d   1      39.852   7.976  68.426  0.00  0.00     0.033 H 
BRANCH  33  36
ATOM     36  C7  HLX d   1      40.406   7.180  66.512  0.00  0.00    -0.061 C 
ATOM     37  H35 HLX d   1      39.889   6.962  65.566  0.00  0.00     0.038 H 
BRANCH  36  38
ATOM     38  C8  HLX d   1      40.827   5.849  67.117  0.00  0.00    -0.073 C 
ATOM     39  H36 HLX d   1      41.526   5.342  66.436  0.00  0.00     0.028 H 
ATOM     40  H37 HLX d   1      39.939   5.218  67.268  0.00  0.00     0.028 H 
ATOM     41  H38 HLX d   1      41.320   6.026  68.084  0.00  0.00     0.028 H 
ENDBRANCH  36  38
BRANCH  36  42
ATOM     42  C9  HLX d   1      41.605   8.067  66.196  0.00  0.00    -0.073 C 
ATOM     43  H39 HLX d   1      41.255   9.015  65.762  0.00  0.00     0.028 H 
ATOM     44  H40 HLX d   1      42.261   7.554  65.477  0.00  0.00     0.028 H 
ATOM     45  H41 HLX d   1      42.164   8.271  67.121  0.00  0.00     0.028 H 
ENDBRANCH  36  42
ENDBRANCH  33  36
ENDBRANCH  30  33
ENDBRANCH  10  30
ENDBRANCH   8  10
ENDBRANCH   3   6
ENDBRANCH   1   3
BRANCH   1  46
ATOM     46  N   B3L d   1      40.293  11.565  72.763  0.00  0.00    -0.354 N 
ATOM     47  C   ASP d   1      41.297  12.318  73.199  0.00  0.00     0.241 C 
ATOM     48  O   ASP d   1      41.931  11.921  74.177  0.00  0.00    -0.271 OA
ATOM     49  H19 B3L d   1      39.517  11.374  73.364  0.00  0.00     0.162 HD
BRANCH  47  50
ATOM     50  CA  ASP d   1      41.418  13.785  72.760  0.00  0.00     0.098 C 
ATOM     51  H13 ASP d   1      40.473  14.183  72.361  0.00  0.00     0.088 H 
BRANCH  50  52
ATOM     52  N   ASP d   1      41.748  14.354  74.048  0.00  0.00    -0.345 N 
ATOM     53  C   1MH d   1      40.796  14.450  74.967  0.00  0.00     0.241 C 
ATOM     54  O   1MH d   1      39.605  14.422  74.703  0.00  0.00    -0.271 OA
ATOM     55  H12 ASP d   1      42.677  14.669  74.242  0.00  0.00     0.163 HD
BRANCH  53  56
ATOM     56  CA  1MH d   1      41.239  14.620  76.384  0.00  0.00     0.093 C 
ATOM     57  H5  1MH d   1      42.239  15.074  76.435  0.00  0.00     0.088 H 
BRANCH  56  58
ATOM     58  N   1MH d   1      40.265  15.482  77.094  0.00  0.00    -0.348 N 
ATOM     59  C   ACE d   1      41.009  16.470  77.593  0.00  0.00     0.214 C 
ATOM     60  O   ACE d   1      42.116  16.223  78.050  0.00  0.00    -0.274 OA
ATOM     61  H4  1MH d   1      39.277  15.353  77.179  0.00  0.00     0.163 HD
BRANCH  59  62
ATOM     62  CH3 ACE d   1      40.384  17.821  77.837  0.00  0.00    -0.003 C 
ATOM     63  H1  ACE d   1      39.396  17.861  77.354  0.00  0.00     0.040 H 
ATOM     64  H2  ACE d   1      41.030  18.605  77.415  0.00  0.00     0.040 H 
ATOM     65  H3  ACE d   1      40.270  17.982  78.919  0.00  0.00     0.040 H 
ENDBRANCH  59  62
ENDBRANCH  56  58
BRANCH  56  66
ATOM     66  CB  1MH d   1      41.267  13.202  76.947  0.00  0.00    -0.013 C 
ATOM     67  H6  1MH d   1      42.018  12.616  76.396  0.00  0.00     0.043 H 
ATOM     68  H7  1MH d   1      40.275  12.747  76.811  0.00  0.00     0.043 H 
BRANCH  66  69
ATOM     69  C6  1MH d   1      41.617  13.182  78.422  0.00  0.00    -0.038 A 
ATOM     70  C7  1MH d   1      42.874  12.750  78.839  0.00  0.00     0.008 A 
ATOM     71  N8  1MH d   1      43.177  12.736  80.151  0.00  0.00    -0.273 NA
ATOM     72  H8  1MH d   1      43.607  12.426  78.109  0.00  0.00     0.115 H 
ATOM     73  C9  1MH d   1      42.293  13.118  81.088  0.00  0.00     0.002 A 
ATOM     74  C10 1MH d   1      41.027  13.552  80.724  0.00  0.00    -0.066 A 
ATOM     75  H9  1MH d   1      42.571  13.087  82.135  0.00  0.00     0.114 H 
ATOM     76  C11 1MH d   1      40.684  13.580  79.378  0.00  0.00    -0.074 A 
ATOM     77  H10 1MH d   1      40.315  13.865  81.479  0.00  0.00     0.085 H 
ATOM     78  H11 1MH d   1      39.697  13.909  79.073  0.00  0.00     0.084 H 
ENDBRANCH  66  69
ENDBRANCH  56  66
ENDBRANCH  53  56
ENDBRANCH  50  52
BRANCH  50  79
ATOM     79  CB  ASP d   1      42.543  13.974  71.709  0.00  0.00     0.043 C 
ATOM     80  H14 ASP d   1      42.167  13.624  70.737  0.00  0.00     0.052 H 
ATOM     81  H15 ASP d   1      43.404  13.360  72.013  0.00  0.00     0.052 H 
BRANCH  79  82
ATOM     82  CG  ASP d   1      43.025  15.429  71.543  0.00  0.00     0.175 C 
ATOM     83  OD1 ASP d   1      42.225  16.404  71.430  0.00  0.00    -0.648 OA
ATOM     84  OD2 ASP d   1      44.268  15.590  71.477  0.00  0.00    -0.648 OA
ENDBRANCH  79  82
ENDBRANCH  50  79
ENDBRANCH  47  50
ENDBRANCH   1  46
BRANCH   1  85
ATOM     85  CG  B3L d   1      41.175   9.779  71.131  0.00  0.00    -0.043 C 
ATOM     86  H20 B3L d   1      41.325   9.770  70.041  0.00  0.00     0.036 H 
ATOM     87  H21 B3L d   1      40.572   8.908  71.426  0.00  0.00     0.036 H 
BRANCH  85  88
ATOM     88  CD  B3L d   1      42.573   9.576  71.765  0.00  0.00    -0.059 C 
ATOM     89  H22 B3L d   1      42.427   9.423  72.844  0.00  0.00     0.038 H 
BRANCH  88  90
ATOM     90  CE2 B3L d   1      43.248   8.353  71.165  0.00  0.00    -0.073 C 
ATOM     91  H23 B3L d   1      44.239   8.220  71.623  0.00  0.00     0.028 H 
ATOM     92  H24 B3L d   1      43.361   8.492  70.080  0.00  0.00     0.028 H 
ATOM     93  H25 B3L d   1      42.632   7.462  71.358  0.00  0.00     0.028 H 
ENDBRANCH  88  90
BRANCH  88  94
ATOM     94  CE1 B3L d   1      43.563  10.727  71.570  0.00  0.00    -0.073 C 
ATOM     95  H26 B3L d   1      43.136  11.652  71.985  0.00  0.00     0.028 H 
ATOM     96  H27 B3L d   1      43.760  10.863  70.496  0.00  0.00     0.028 H 
ATOM     97  H28 B3L d   1      44.504  10.493  72.089  0.00  0.00     0.028 H 
ENDBRANCH  88  94
ENDBRANCH  85  88
ENDBRANCH   1  85
TORSDOF 28
