REMARK  13 active torsions:
REMARK  status: ('A' for Active; 'I' for Inactive)
REMARK    1  A    between atoms: C5_11  and  C5M_12 
REMARK    2  A    between atoms: C4_13  and  O3P_17 
REMARK    3  A    between atoms: C3_14  and  C3M_15 
REMARK    4  A    between atoms: O3P_17  and  P1_18 
REMARK    5  A    between atoms: P1_18  and  O5'_21 
REMARK    6  A    between atoms: O5'_21  and  C5'_22 
REMARK    7  A    between atoms: C5'_22  and  C4'_23 
REMARK    8  A    between atoms: C1'_25  and  N9A_30 
REMARK    9  A    between atoms: C2'_26  and  O2'_27 
REMARK   10  A    between atoms: C3'_28  and  O3'_29 
REMARK   11  A    between atoms: C2A_33  and  N2A_34 
REMARK   12  A    between atoms: C6A_36  and  O6A_37 
REMARK   13  A    between atoms: N1B_42  and  C2_43 
ROOT
ATOM      1  O2  FE9 d   1     -16.584 -15.582 -20.728  0.00  0.00    -0.269 OA
ATOM      2  C1F FE9 d   1     -15.701 -18.613 -21.881  0.00  0.00     0.279 C 
ATOM      3  O1F FE9 d   1     -16.163 -19.602 -21.357  0.00  0.00    -0.279 OA
ATOM      4  C2F FE9 d   1     -15.359 -17.857 -24.458  0.00  0.00     0.279 C 
ATOM      5  O2F FE9 d   1     -15.566 -18.370 -25.550  0.00  0.00    -0.279 OA
ATOM      6  C8  FE9 d   1     -13.109 -17.679 -22.418  0.00  0.00     0.123 C 
ATOM      7  O18 FE9 d   1     -12.531 -18.225 -23.613  0.00  0.00    -0.194 OA
ATOM      8  C7  FE9 d   1     -12.262 -17.073 -21.322  0.00  0.00     0.025 C 
ATOM      9  C6  FE9 d   1     -13.261 -16.399 -20.447  0.00  0.00     0.052 A 
ATOM     10  N1  FE9 d   1     -14.518 -16.266 -20.905  0.00  0.00    -0.228 N 
ATOM     11  C5  FE9 d   1     -12.858 -15.865 -19.221  0.00  0.00    -0.002 A 
ATOM     12  C4  FE9 d   1     -13.783 -15.205 -18.430  0.00  0.00     0.100 A 
ATOM     13  C3  FE9 d   1     -15.091 -15.058 -18.902  0.00  0.00     0.026 A 
ATOM     14  C2  FE9 d   1     -15.395 -15.630 -20.134  0.00  0.00     0.180 A 
ATOM     15 FE   FE9 d   1     -14.987 -17.106 -22.746  0.00  0.00     0.000 Fe
ATOM     16  H1  FE9 d   1     -11.546 -16.347 -21.734  0.00  0.00     0.052 H 
ATOM     17  H2  FE9 d   1     -11.717 -17.852 -20.769  0.00  0.00     0.052 H 
ATOM     18  H28 FE9 d   1     -14.319 -15.596 -23.586  0.00  0.00     0.000 HD
ATOM     19  C1B N2I d   1     -16.480 -16.069 -22.104  0.00  0.00     0.226 C 
ATOM     20  N1B N2I d   1     -17.522 -15.835 -22.752  0.00  0.00    -0.221 NA
ENDROOT
BRANCH  20  21
ATOM     21  C2  N2I d   1     -17.864 -16.164 -24.060  0.00  0.00     0.060 A 
ATOM     22  C3  N2I d   1     -19.068 -16.885 -24.172  0.00  0.00    -0.054 A 
ATOM     23  C4  N2I d   1     -19.543 -17.281 -25.421  0.00  0.00    -0.070 A 
ATOM     24  H21 FE9 d   1     -19.630 -17.134 -23.279  0.00  0.00     0.087 H 
ATOM     25  C4A N2I d   1     -18.809 -16.947 -26.561  0.00  0.00    -0.026 A 
ATOM     26  H22 FE9 d   1     -20.468 -17.840 -25.506  0.00  0.00     0.084 H 
ATOM     27  C8A N2I d   1     -17.602 -16.208 -26.449  0.00  0.00    -0.024 A 
ATOM     28  C5  N2I d   1     -19.305 -17.348 -27.812  0.00  0.00    -0.072 A 
ATOM     29  C1  N2I d   1     -17.125 -15.793 -25.195  0.00  0.00    -0.044 A 
ATOM     30  C8  N2I d   1     -16.881 -15.889 -27.604  0.00  0.00    -0.072 A 
ATOM     31  H23 FE9 d   1     -16.218 -15.207 -25.106  0.00  0.00     0.088 H 
ATOM     32  C7  N2I d   1     -17.374 -16.299 -28.845  0.00  0.00    -0.082 A 
ATOM     33  H27 FE9 d   1     -15.954 -15.332 -27.537  0.00  0.00     0.084 H 
ATOM     34  C6  N2I d   1     -18.574 -17.023 -28.958  0.00  0.00    -0.082 A 
ATOM     35  H26 FE9 d   1     -16.818 -16.053 -29.742  0.00  0.00     0.083 H 
ATOM     36  H25 FE9 d   1     -18.932 -17.329 -29.934  0.00  0.00     0.083 H 
ATOM     37  H24 FE9 d   1     -20.236 -17.898 -27.887  0.00  0.00     0.084 H 
ENDBRANCH  20  21
BRANCH  11  38
ATOM     38  C5M FE9 d   1     -11.440 -15.966 -18.721  0.00  0.00    -0.047 C 
ATOM     39  H3  FE9 d   1     -10.831 -16.514 -19.455  0.00  0.00     0.033 H 
ATOM     40  H4  FE9 d   1     -11.427 -16.502 -17.761  0.00  0.00     0.033 H 
ATOM     41  H5  FE9 d   1     -11.027 -14.956 -18.583  0.00  0.00     0.033 H 
ENDBRANCH  11  38
BRANCH  13  42
ATOM     42  C3M FE9 d   1     -16.154 -14.323 -18.107  0.00  0.00    -0.044 C 
ATOM     43  H6  FE9 d   1     -15.717 -13.948 -17.170  0.00  0.00     0.033 H 
ATOM     44  H7  FE9 d   1     -16.981 -15.011 -17.876  0.00  0.00     0.033 H 
ATOM     45  H8  FE9 d   1     -16.535 -13.477 -18.698  0.00  0.00     0.033 H 
ENDBRANCH  13  42
BRANCH  12  46
ATOM     46  O3P FE9 d   1     -13.368 -14.679 -17.228  0.00  0.00    -0.246 OA
BRANCH  46  47
ATOM     47  P1  FE9 d   1     -13.760 -15.341 -15.794  0.00  0.00     0.413 P 
ATOM     48  O1P FE9 d   1     -14.122 -14.278 -14.808  0.00  0.00    -0.624 OA
ATOM     49  O2P FE9 d   1     -14.638 -16.568 -16.023  0.00  0.00    -0.624 OA
BRANCH  47  50
ATOM     50  O5' FE9 d   1     -12.321 -15.972 -15.394  0.00  0.00    -0.287 OA
BRANCH  50  51
ATOM     51  C5' FE9 d   1     -11.217 -15.127 -15.065  0.00  0.00     0.058 C 
ATOM     52  H9  FE9 d   1     -11.564 -14.143 -14.716  0.00  0.00     0.079 H 
ATOM     53  H10 FE9 d   1     -10.551 -14.995 -15.930  0.00  0.00     0.079 H 
BRANCH  51  54
ATOM     54  C4' FE9 d   1     -10.518 -15.882 -13.952  0.00  0.00     0.089 C 
ATOM     55  O4' FE9 d   1      -9.240 -15.336 -13.742  0.00  0.00    -0.353 OA
ATOM     56  C1' FE9 d   1      -9.026 -15.448 -12.378  0.00  0.00     0.139 C 
ATOM     57  C2' FE9 d   1     -10.343 -15.117 -11.745  0.00  0.00     0.105 C 
ATOM     58  H12 FE9 d   1      -8.770 -16.488 -12.128  0.00  0.00     0.122 H 
ATOM     59  C3' FE9 d   1     -11.275 -15.903 -12.618  0.00  0.00     0.091 C 
ATOM     60  H13 FE9 d   1     -10.557 -14.039 -11.790  0.00  0.00     0.093 H 
ATOM     61  H15 FE9 d   1     -12.269 -15.439 -12.698  0.00  0.00     0.091 H 
ATOM     62  H11 FE9 d   1     -10.403 -16.924 -14.284  0.00  0.00     0.090 H 
BRANCH  56  63
ATOM     63  N9A FE9 d   1      -7.879 -14.590 -11.965  0.00  0.00    -0.293 N 
ATOM     64  C4A FE9 d   1      -6.684 -15.126 -11.804  0.00  0.00     0.185 A 
ATOM     65  N3A FE9 d   1      -6.171 -16.385 -11.906  0.00  0.00    -0.042 NA
ATOM     66  C5A FE9 d   1      -5.885 -14.072 -11.418  0.00  0.00     0.158 A 
ATOM     67  C2A FE9 d   1      -4.860 -16.617 -11.628  0.00  0.00     0.724 A 
ATOM     68  N1A FE9 d   1      -4.044 -15.608 -11.262  0.00  0.00    -0.036 NA
ATOM     69  C6A FE9 d   1      -4.545 -14.348 -11.148  0.00  0.00     0.214 A 
ATOM     70  N7A FE9 d   1      -6.646 -12.941 -11.400  0.00  0.00    -0.235 NA
ATOM     71  C8A FE9 d   1      -7.925 -13.259 -11.734  0.00  0.00     0.071 A 
ATOM     72  H20 FE9 d   1      -8.786 -12.596 -11.800  0.00  0.00     0.144 H 
BRANCH  67  73
ATOM     73  N2A FE9 d   1      -4.381 -17.876 -11.715  0.00  0.00    -0.231 N 
ATOM     74  H17 FE9 d   1      -5.005 -18.646 -11.995  0.00  0.00     0.174 HD
ATOM     75  H18 FE9 d   1      -3.392 -18.066 -11.502  0.00  0.00     0.174 HD
ENDBRANCH  67  73
BRANCH  69  76
ATOM     76  O6A FE9 d   1      -3.744 -13.339 -10.793  0.00  0.00    -0.343 OA
ATOM     77  H19 FE9 d   1      -4.247 -12.534 -10.760  0.00  0.00     0.219 HD
ENDBRANCH  69  76
ENDBRANCH  56  63
BRANCH  57  78
ATOM     78  O2' FE9 d   1     -10.393 -15.556 -10.396  0.00  0.00    -0.388 OA
ATOM     79  H14 FE9 d   1     -10.271 -16.498 -10.366  0.00  0.00     0.210 HD
ENDBRANCH  57  78
BRANCH  59  80
ATOM     80  O3' FE9 d   1     -11.384 -17.239 -12.111  0.00  0.00    -0.390 OA
ATOM     81  H16 FE9 d   1     -10.526 -17.648 -12.111  0.00  0.00     0.210 HD
ENDBRANCH  59  80
ENDBRANCH  51  54
ENDBRANCH  50  51
ENDBRANCH  47  50
ENDBRANCH  46  47
ENDBRANCH  12  46
TORSDOF 13
