REMARK  16 active torsions:
REMARK  status: ('A' for Active; 'I' for Inactive)
REMARK    1  A    between atoms: C5_12  and  C5M_13 
REMARK    2  A    between atoms: C4_14  and  O3P_18 
REMARK    3  A    between atoms: C3_15  and  C3M_16 
REMARK    4  A    between atoms: O3P_18  and  P1_19 
REMARK    5  A    between atoms: P1_19  and  O5'_22 
REMARK    6  A    between atoms: O5'_22  and  C5'_23 
REMARK    7  A    between atoms: C5'_23  and  C4'_24 
REMARK    8  A    between atoms: C1'_26  and  N9A_31 
REMARK    9  A    between atoms: C2'_27  and  O2'_28 
REMARK   10  A    between atoms: C3'_29  and  O3'_30 
REMARK   11  A    between atoms: C2A_34  and  N2A_35 
REMARK   12  A    between atoms: S_43  and  C3_45 
REMARK   13  A    between atoms: C2_53  and  S_43 
REMARK   14  A    between atoms: C3_45  and  C4_46 
REMARK   15  A    between atoms: C7_49  and  C7M_50 
REMARK   16  A    between atoms: N_54  and  C2_53 
ROOT
ATOM      1  O2  FE9 d   1      -5.500 -22.093 -29.162  0.00  0.00    -0.269 OA
ATOM      2 FE   FE9 d   1      -7.454 -21.465 -27.091  0.00  0.00     0.000 Fe
ATOM      3  C1F FE9 d   1      -8.472 -22.740 -27.937  0.00  0.00     0.279 C 
ATOM      4  O1F FE9 d   1      -9.135 -23.572 -28.469  0.00  0.00    -0.279 OA
ATOM      5  C2F FE9 d   1      -7.741 -22.204 -25.416  0.00  0.00     0.279 C 
ATOM      6  O2F FE9 d   1      -7.954 -22.678 -24.330  0.00  0.00    -0.279 OA
ATOM      7  C8  FE9 d   1      -8.767 -19.999 -27.337  0.00  0.00     0.123 A 
ATOM      8  O18 FE9 d   1      -9.575 -20.002 -26.165  0.00  0.00    -0.194 OA
ATOM      9  C7  FE9 d   1      -8.901 -19.039 -28.461  0.00  0.00     0.025 A 
ATOM     10  C6  FE9 d   1      -7.809 -19.540 -29.360  0.00  0.00     0.052 A 
ATOM     11  N1  FE9 d   1      -7.118 -20.595 -28.934  0.00  0.00    -0.228 N 
ATOM     12  C5  FE9 d   1      -7.575 -18.924 -30.583  0.00  0.00    -0.002 A 
ATOM     13  C4  FE9 d   1      -6.568 -19.413 -31.385  0.00  0.00     0.100 A 
ATOM     14  C3  FE9 d   1      -5.797 -20.508 -30.928  0.00  0.00     0.026 A 
ATOM     15  C2  FE9 d   1      -6.152 -21.039 -29.683  0.00  0.00     0.180 A 
ATOM     16  H1  FE9 d   1      -6.324 -20.229 -26.299  0.00  0.00     0.000 HD
ATOM     17  H2  FE9 d   1      -8.721 -18.003 -28.137  0.00  0.00     0.052 H 
ATOM     18  H3  FE9 d   1      -9.889 -19.107 -28.941  0.00  0.00     0.052 H 
ATOM     19  N   IC9 d   1      -5.442 -23.283 -27.289  0.00  0.00    -0.248 NA
ATOM     20  C1  IC9 d   1      -6.002 -22.356 -27.898  0.00  0.00     0.221 A 
ENDROOT
BRANCH  19  21
ATOM     21  C2  IC9 d   1      -4.444 -23.943 -28.025  0.00  0.00     0.110 C 
ATOM     22  H31 FE9 d   1      -4.741 -24.998 -27.936  0.00  0.00     0.091 H 
ATOM     23  H32 FE9 d   1      -4.634 -23.594 -29.051  0.00  0.00     0.091 H 
BRANCH  21  24
ATOM     24  S   IC9 d   1      -2.861 -24.026 -27.978  0.00  0.00     0.167 S 
ATOM     25  O1  IC9 d   1      -2.398 -24.236 -29.321  0.00  0.00    -0.226 OA
ATOM     26  O2  IC9 d   1      -2.527 -25.183 -27.182  0.00  0.00    -0.226 OA
BRANCH  24  27
ATOM     27  C3  IC9 d   1      -2.146 -22.667 -27.281  0.00  0.00     0.054 C 
ATOM     28  H22 IC9 d   1      -1.104 -22.936 -27.054  0.00  0.00     0.063 H 
ATOM     29  H23 IC9 d   1      -2.686 -22.468 -26.344  0.00  0.00     0.063 H 
BRANCH  27  30
ATOM     30  C4  IC9 d   1      -2.104 -21.349 -28.056  0.00  0.00    -0.044 A 
ATOM     31  C9  IC9 d   1      -2.774 -20.224 -27.538  0.00  0.00    -0.075 A 
ATOM     32  C8  IC9 d   1      -2.750 -18.992 -28.207  0.00  0.00    -0.077 A 
ATOM     33  H24 IC9 d   1      -3.318 -20.312 -26.605  0.00  0.00     0.084 H 
ATOM     34  C7  IC9 d   1      -2.042 -18.875 -29.407  0.00  0.00    -0.062 A 
ATOM     35  H25 IC9 d   1      -3.276 -18.137 -27.797  0.00  0.00     0.084 H 
ATOM     36  C6  IC9 d   1      -1.359 -19.989 -29.921  0.00  0.00    -0.077 A 
ATOM     37  C5  IC9 d   1      -1.379 -21.220 -29.249  0.00  0.00    -0.075 A 
ATOM     38  H29 IC9 d   1      -0.808 -19.896 -30.850  0.00  0.00     0.084 H 
ATOM     39  H30 IC9 d   1      -0.836 -22.068 -29.650  0.00  0.00     0.084 H 
BRANCH  34  40
ATOM     40  C7M IC9 d   1      -2.018 -17.560 -30.150  0.00  0.00    -0.051 C 
ATOM     41  H26 IC9 d   1      -1.414 -17.666 -31.063  0.00  0.00     0.033 H 
ATOM     42  H27 IC9 d   1      -1.577 -16.784 -29.507  0.00  0.00     0.033 H 
ATOM     43  H28 IC9 d   1      -3.045 -17.273 -30.421  0.00  0.00     0.033 H 
ENDBRANCH  34  40
ENDBRANCH  27  30
ENDBRANCH  24  27
ENDBRANCH  21  24
ENDBRANCH  19  21
BRANCH  12  44
ATOM     44  C5M FE9 d   1      -8.394 -17.729 -31.023  0.00  0.00    -0.047 C 
ATOM     45  H4  FE9 d   1      -9.142 -17.493 -30.252  0.00  0.00     0.033 H 
ATOM     46  H5  FE9 d   1      -8.904 -17.962 -31.970  0.00  0.00     0.033 H 
ATOM     47  H6  FE9 d   1      -7.731 -16.863 -31.167  0.00  0.00     0.033 H 
ENDBRANCH  12  44
BRANCH  14  48
ATOM     48  C3M FE9 d   1      -4.672 -21.114 -31.736  0.00  0.00    -0.044 C 
ATOM     49  H7  FE9 d   1      -4.553 -20.555 -32.676  0.00  0.00     0.033 H 
ATOM     50  H8  FE9 d   1      -4.907 -22.165 -31.962  0.00  0.00     0.033 H 
ATOM     51  H9  FE9 d   1      -3.737 -21.064 -31.159  0.00  0.00     0.033 H 
ENDBRANCH  14  48
BRANCH  13  52
ATOM     52  O3P FE9 d   1      -6.327 -18.795 -32.584  0.00  0.00    -0.246 OA
BRANCH  52  53
ATOM     53  P1  FE9 d   1      -6.721 -19.402 -34.019  0.00  0.00     0.413 P 
ATOM     54  O1P FE9 d   1      -5.601 -19.114 -35.020  0.00  0.00    -0.624 OA
ATOM     55  O2P FE9 d   1      -7.240 -20.823 -33.863  0.00  0.00    -0.624 OA
BRANCH  53  56
ATOM     56  O5' FE9 d   1      -8.018 -18.512 -34.299  0.00  0.00    -0.287 OA
BRANCH  56  57
ATOM     57  C5' FE9 d   1      -7.896 -17.144 -34.708  0.00  0.00     0.058 C 
ATOM     58  H10 FE9 d   1      -6.862 -16.935 -35.020  0.00  0.00     0.079 H 
ATOM     59  H11 FE9 d   1      -8.171 -16.477 -33.878  0.00  0.00     0.079 H 
BRANCH  57  60
ATOM     60  C4' FE9 d   1      -8.850 -16.936 -35.885  0.00  0.00     0.089 C 
ATOM     61  O4' FE9 d   1      -9.034 -15.548 -36.125  0.00  0.00    -0.353 OA
ATOM     62  C1' FE9 d   1      -9.271 -15.379 -37.518  0.00  0.00     0.139 C 
ATOM     63  C2' FE9 d   1      -8.294 -16.337 -38.152  0.00  0.00     0.105 C 
ATOM     64  H13 FE9 d   1     -10.294 -15.697 -37.766  0.00  0.00     0.122 H 
ATOM     65  C3' FE9 d   1      -8.336 -17.504 -37.188  0.00  0.00     0.091 C 
ATOM     66  H14 FE9 d   1      -7.281 -15.915 -38.225  0.00  0.00     0.093 H 
ATOM     67  H16 FE9 d   1      -7.353 -17.987 -37.087  0.00  0.00     0.091 H 
ATOM     68  H12 FE9 d   1      -9.813 -17.406 -35.638  0.00  0.00     0.090 H 
BRANCH  62  69
ATOM     69  N9A FE9 d   1      -9.141 -13.953 -37.915  0.00  0.00    -0.293 N 
ATOM     70  C4A FE9 d   1     -10.179 -13.128 -38.051  0.00  0.00     0.185 A 
ATOM     71  N3A FE9 d   1     -11.523 -13.294 -37.920  0.00  0.00    -0.044 NA
ATOM     72  C5A FE9 d   1      -9.688 -11.887 -38.426  0.00  0.00     0.159 A 
ATOM     73  C2A FE9 d   1     -12.391 -12.295 -38.153  0.00  0.00     0.702 A 
ATOM     74  N1A FE9 d   1     -11.937 -11.062 -38.509  0.00  0.00    -0.164 N 
ATOM     75  C6A FE9 d   1     -10.595 -10.839 -38.647  0.00  0.00     0.226 A 
ATOM     76  H20 FE9 d   1     -12.586 -10.318 -38.670  0.00  0.00     0.186 HD
ATOM     77  O6A FE9 d   1     -10.117  -9.608 -38.995  0.00  0.00    -0.169 OA
ATOM     78  N7A FE9 d   1      -8.349 -12.002 -38.487  0.00  0.00    -0.235 NA
ATOM     79  C8A FE9 d   1      -8.019 -13.267 -38.169  0.00  0.00     0.071 A 
ATOM     80  H21 FE9 d   1      -7.007 -13.667 -38.125  0.00  0.00     0.144 H 
BRANCH  73  81
ATOM     81  N2A FE9 d   1     -13.724 -12.554 -37.998  0.00  0.00    -0.233 N 
ATOM     82  H18 FE9 d   1     -14.037 -13.497 -37.728  0.00  0.00     0.174 HD
ATOM     83  H19 FE9 d   1     -14.415 -11.806 -38.151  0.00  0.00     0.174 HD
ENDBRANCH  73  81
ENDBRANCH  62  69
BRANCH  63  84
ATOM     84  O2' FE9 d   1      -8.782 -16.668 -39.452  0.00  0.00    -0.388 OA
ATOM     85  H15 FE9 d   1      -9.637 -17.074 -39.374  0.00  0.00     0.210 HD
ENDBRANCH  63  84
BRANCH  65  86
ATOM     86  O3' FE9 d   1      -9.345 -18.422 -37.597  0.00  0.00    -0.390 OA
ATOM     87  H17 FE9 d   1     -10.188 -17.983 -37.601  0.00  0.00     0.210 HD
ENDBRANCH  65  86
ENDBRANCH  57  60
ENDBRANCH  56  57
ENDBRANCH  53  56
ENDBRANCH  52  53
ENDBRANCH  13  52
TORSDOF 16
