REMARK WARNING: 32 MAX_TORS EXCEEDED!!!
REMARK  40 active torsions:
REMARK  status: ('A' for Active; 'I' for Inactive)
REMARK    1  A    between atoms: CA_2  and  CB_3 
REMARK    2  A    between atoms: N_6  and  CN_7 
REMARK    3  A    between atoms: CA_8  and  CB_9 
REMARK    4  A    between atoms: CB_9  and  CG_10 
REMARK    5  A    between atoms: CG_10  and  CD1_11 
REMARK    6  A    between atoms: CG_10  and  CD2_12 
REMARK    7  A    between atoms: N_15  and  CN_16 
REMARK    8  A    between atoms: CA_17  and  CB_18 
REMARK    9  A    between atoms: CB_18  and  CG_19 
REMARK   10  A    between atoms: CG_19  and  CD1_20 
REMARK   11  A    between atoms: CG_19  and  CD2_21 
REMARK   12  A    between atoms: N_24  and  CN_25 
REMARK   13  A    between atoms: CA_26  and  CB_27 
REMARK   14  A    between atoms: CB_27  and  CG1_28 
REMARK   15  A    between atoms: CB_27  and  CG2_29 
REMARK   16  A    between atoms: N_32  and  CN_33 
REMARK   17  A    between atoms: CA_34  and  CB_37 
REMARK   18  A    between atoms: CB_37  and  OG1_38 
REMARK   19  A    between atoms: CB_37  and  CG2_39 
REMARK   20  A    between atoms: CG2_39  and  CD1_40 
REMARK   21  A    between atoms: CG2_39  and  CD2_41 
REMARK   22  A    between atoms: CD2_41  and  CE_42 
REMARK   23  A    between atoms: CZ_43  and  CH_44 
REMARK   24  A    between atoms: CA_46  and  CB_49 
REMARK   25  A    between atoms: CB_49  and  CG_50 
REMARK   26  A    between atoms: N_51  and  CN_55 
REMARK   27  A    between atoms: N_56  and  CN_57 
REMARK   28  A    between atoms: CA_58  and  CB_59 
REMARK   29  A    between atoms: CB_59  and  CG_60 
REMARK   30  A    between atoms: CG_60  and  CD1_61 
REMARK   31  A    between atoms: CG_60  and  CD2_62 
REMARK   32  A    between atoms: CA_66  and  CB_69 
REMARK   33  A    between atoms: CB_69  and  CG1_70 
REMARK   34  A    between atoms: CB_69  and  CG2_71 
REMARK   35  A    between atoms: N_72  and  CN_73 
REMARK   36  A    between atoms: CA_74  and  CB_75 
REMARK   37  A    between atoms: CB_75  and  CG_76 
REMARK   38  A    between atoms: CG_76  and  CD1_77 
REMARK   39  A    between atoms: CG_76  and  CD2_78 
REMARK   40  A    between atoms: CA_82  and  CB_85 
ROOT
ATOM      1  N   DAL d   1     -24.758  56.964 -10.097  0.00  0.00    -0.346 N 
ATOM      2  CA  DAL d   1     -23.413  57.365  -9.692  0.00  0.00     0.086 C 
ATOM      3  C   DAL d   1     -22.948  56.609  -8.446  0.00  0.00     0.242 C 
ATOM      4  O   DAL d   1     -23.133  55.395  -8.347  0.00  0.00    -0.271 OA
ATOM      5  H1  DAL d   1     -24.870  56.131 -10.639  0.00  0.00     0.163 HD
ATOM      6  H2  DAL d   1     -23.435  58.438  -9.450  0.00  0.00     0.086 H 
ATOM      7  N   MLE d   1     -22.338  57.325  -7.500  0.00  0.00    -0.342 N 
ATOM      8  CA  MLE d   1     -21.892  56.702  -6.262  0.00  0.00     0.079 C 
ATOM      9  C   MLE d   1     -22.445  57.407  -5.053  0.00  0.00     0.177 C 
ATOM     10  O   MLE d   1     -21.609  58.253  -4.299  0.00  0.00    -0.175 OA
ATOM     11  N   MLE d   1     -23.719  57.180  -4.735  0.00  0.00    -0.353 N 
ATOM     12  CA  MLE d   1     -24.345  57.898  -3.628  0.00  0.00     0.078 C 
ATOM     13  C   MLE d   1     -24.631  57.028  -2.419  0.00  0.00     0.177 C 
ATOM     14  O   MLE d   1     -24.829  55.643  -2.568  0.00  0.00    -0.175 OA
ATOM     15  N   MLE d   1     -34.507  55.927  -2.231  0.00  0.00    -0.354 N 
ATOM     16  CA  MLE d   1     -34.357  56.025  -3.671  0.00  0.00     0.078 C 
ATOM     17  C   MLE d   1     -32.906  56.055  -4.061  0.00  0.00     0.175 C 
ATOM     18  O   MLE d   1     -32.155  57.240  -3.929  0.00  0.00    -0.175 OA
ATOM     19  N   MLE d   1     -29.889  56.525  -6.292  0.00  0.00    -0.342 N 
ATOM     20  CA  MLE d   1     -29.701  57.313  -7.503  0.00  0.00     0.079 C 
ATOM     21  C   MLE d   1     -28.460  56.929  -8.263  0.00  0.00     0.175 C 
ATOM     22  O   MLE d   1     -27.531  56.022  -7.716  0.00  0.00    -0.175 OA
ATOM     23  H9  MLE d   1     -22.234  55.656  -6.255  0.00  0.00     0.086 H 
ATOM     24  H22 MLE d   1     -23.643  58.678  -3.299  0.00  0.00     0.086 H 
ATOM     25  H75 MLE d   1     -34.819  55.136  -4.126  0.00  0.00     0.086 H 
ATOM     26  H97 MLE d   1     -30.560  57.107  -8.158  0.00  0.00     0.086 H 
ATOM     27  N   MVA d   1     -24.911  57.544  -1.316  0.00  0.00    -0.352 N 
ATOM     28  CA  MVA d   1     -25.466  56.604  -0.340  0.00  0.00     0.093 C 
ATOM     29  C   MVA d   1     -26.778  57.020   0.323  0.00  0.00     0.243 C 
ATOM     30  O   MVA d   1     -26.731  57.673   1.350  0.00  0.00    -0.271 OA
ATOM     31  H35 MVA d   1     -25.786  55.766  -0.977  0.00  0.00     0.088 H 
ATOM     32  N   BMT d   1     -27.742  56.624  -0.454  0.00  0.00    -0.339 N 
ATOM     33  CA  BMT d   1     -29.015  57.022   0.075  0.00  0.00     0.116 C 
ATOM     34  C   BMT d   1     -29.884  55.944   0.696  0.00  0.00     0.243 C 
ATOM     35  O   BMT d   1     -29.566  54.787   0.680  0.00  0.00    -0.271 OA
ATOM     36  H46 BMT d   1     -28.765  57.696   0.907  0.00  0.00     0.091 H 
ATOM     37  N   ABA d   1     -31.058  56.407   1.266  0.00  0.00    -0.346 N 
ATOM     38  CA  ABA d   1     -31.930  55.517   2.029  0.00  0.00     0.089 C 
ATOM     39  C   ABA d   1     -33.366  55.512   1.508  0.00  0.00     0.242 C 
ATOM     40  O   ABA d   1     -34.235  56.183   2.063  0.00  0.00    -0.271 OA
ATOM     41  H60 ABA d   1     -31.313  57.367   1.153  0.00  0.00     0.163 HD
ATOM     42  H61 ABA d   1     -31.534  54.496   1.925  0.00  0.00     0.087 H 
ATOM     43  N   SAR d   1     -33.616  54.757   0.441  0.00  0.00    -0.347 N 
ATOM     44  CA  SAR d   1     -34.940  54.746  -0.158  0.00  0.00     0.059 C 
ATOM     45  C   SAR d   1     -34.873  54.777  -1.668  0.00  0.00     0.172 C 
ATOM     46  O   SAR d   1     -35.194  53.626  -2.419  0.00  0.00    -0.175 OA
ATOM     47  H67 SAR d   1     -35.496  55.628   0.192  0.00  0.00     0.077 H 
ATOM     48  H68 SAR d   1     -35.466  53.832   0.156  0.00  0.00     0.077 H 
ATOM     49  N   VAL d   1     -32.392  54.919  -4.527  0.00  0.00    -0.357 N 
ATOM     50  CA  VAL d   1     -30.997  54.817  -4.946  0.00  0.00     0.091 C 
ATOM     51  C   VAL d   1     -30.799  55.554  -6.270  0.00  0.00     0.243 C 
ATOM     52  O   VAL d   1     -31.469  55.251  -7.258  0.00  0.00    -0.271 OA
ATOM     53  H85 VAL d   1     -32.978  54.112  -4.592  0.00  0.00     0.162 HD
ATOM     54  H86 VAL d   1     -30.364  55.288  -4.179  0.00  0.00     0.088 H 
ATOM     55  N   ALA d   1     -28.302  57.485  -9.460  0.00  0.00    -0.357 N 
ATOM     56  CA  ALA d   1     -27.170  57.149 -10.321  0.00  0.00     0.085 C 
ATOM     57  C   ALA d   1     -25.840  57.668  -9.770  0.00  0.00     0.240 C 
ATOM     58  O   ALA d   1     -25.797  58.675  -9.063  0.00  0.00    -0.271 OA
ATOM     59 7H10 ALA d   1     -28.976  58.151  -9.780  0.00  0.00     0.162 HD
ATOM     60 8H10 ALA d   1     -27.104  56.052 -10.371  0.00  0.00     0.086 H 
ENDROOT
BRANCH  33  61
ATOM     61  CB  BMT d   1     -29.824  57.854  -0.899  0.00  0.00     0.067 C 
ATOM     62  H47 BMT d   1     -30.656  58.297  -0.332  0.00  0.00     0.087 H 
BRANCH  61  63
ATOM     63  OG1 BMT d   1     -30.367  57.072  -1.916  0.00  0.00    -0.393 OA
ATOM     64  H48 BMT d   1     -30.866  57.624  -2.506  0.00  0.00     0.210 HD
ENDBRANCH  61  63
BRANCH  61  65
ATOM     65  CG2 BMT d   1     -29.033  58.993  -1.521  0.00  0.00    -0.027 C 
ATOM     66  H49 BMT d   1     -28.214  58.499  -2.065  0.00  0.00     0.043 H 
BRANCH  65  67
ATOM     67  CD1 BMT d   1     -28.324  59.957  -0.576  0.00  0.00    -0.070 C 
ATOM     68  H50 BMT d   1     -27.796  60.724  -1.162  0.00  0.00     0.028 H 
ATOM     69  H51 BMT d   1     -27.600  59.402   0.038  0.00  0.00     0.028 H 
ATOM     70  H52 BMT d   1     -29.065  60.441   0.078  0.00  0.00     0.028 H 
ENDBRANCH  65  67
BRANCH  65  71
ATOM     71  CD2 BMT d   1     -29.868  59.701  -2.592  0.00  0.00    -0.045 C 
ATOM     72  H53 BMT d   1     -30.272  58.943  -3.279  0.00  0.00     0.039 H 
ATOM     73  H54 BMT d   1     -29.214  60.389  -3.148  0.00  0.00     0.039 H 
BRANCH  71  74
ATOM     74  CE  BMT d   1     -30.998  60.476  -2.028  0.00  0.00    -0.106 C 
ATOM     75  CZ  BMT d   1     -32.204  60.201  -2.410  0.00  0.00    -0.110 C 
ATOM     76  H56 BMT d   1     -32.370  59.390  -3.118  0.00  0.00     0.075 H 
ATOM     77  H55 BMT d   1     -30.816  61.267  -1.302  0.00  0.00     0.076 H 
BRANCH  75  78
ATOM     78  CH  BMT d   1     -33.375  60.981  -1.893  0.00  0.00    -0.060 C 
ATOM     79  H57 BMT d   1     -34.301  60.590  -2.339  0.00  0.00     0.032 H 
ATOM     80  H58 BMT d   1     -33.257  62.041  -2.162  0.00  0.00     0.032 H 
ATOM     81  H59 BMT d   1     -33.426  60.884  -0.798  0.00  0.00     0.032 H 
ENDBRANCH  75  78
ENDBRANCH  71  74
ENDBRANCH  65  71
ENDBRANCH  61  65
ENDBRANCH  33  61
BRANCH  32  82
ATOM     82  CN  BMT d   1     -27.681  55.760  -1.565  0.00  0.00    -0.015 C 
ATOM     83  H43 BMT d   1     -26.629  55.570  -1.824  0.00  0.00     0.056 H 
ATOM     84  H44 BMT d   1     -28.191  56.227  -2.421  0.00  0.00     0.056 H 
ATOM     85  H45 BMT d   1     -28.175  54.809  -1.318  0.00  0.00     0.056 H 
ENDBRANCH  32  82
BRANCH  28  86
ATOM     86  CB  MVA d   1     -24.415  55.935   0.585  0.00  0.00    -0.033 C 
ATOM     87  H36 MVA d   1     -24.394  54.957   0.082  0.00  0.00     0.042 H 
BRANCH  86  88
ATOM     88  CG1 MVA d   1     -24.824  55.467   1.974  0.00  0.00    -0.071 C 
ATOM     89  H37 MVA d   1     -23.956  55.021   2.481  0.00  0.00     0.028 H 
ATOM     90  H38 MVA d   1     -25.623  54.716   1.887  0.00  0.00     0.028 H 
ATOM     91  H39 MVA d   1     -25.189  56.325   2.558  0.00  0.00     0.028 H 
ENDBRANCH  86  88
BRANCH  86  92
ATOM     92  CG2 MVA d   1     -22.927  56.274   0.469  0.00  0.00    -0.071 C 
ATOM     93  H40 MVA d   1     -22.705  56.603  -0.557  0.00  0.00     0.028 H 
ATOM     94  H41 MVA d   1     -22.328  55.382   0.706  0.00  0.00     0.028 H 
ATOM     95  H42 MVA d   1     -22.678  57.080   1.175  0.00  0.00     0.028 H 
ENDBRANCH  86  92
ENDBRANCH  28  86
BRANCH  38  96
ATOM     96  CB  ABA d   1     -31.912  55.883   3.516  0.00  0.00    -0.041 C 
ATOM     97  H62 ABA d   1     -32.610  55.221   4.050  0.00  0.00     0.036 H 
ATOM     98  H63 ABA d   1     -32.240  56.927   3.626  0.00  0.00     0.036 H 
BRANCH  96  99
ATOM     99  CG  ABA d   1     -30.534  55.739   4.138  0.00  0.00    -0.074 C 
ATOM    100  H64 ABA d   1     -30.581  56.014   5.202  0.00  0.00     0.027 H 
ATOM    101  H65 ABA d   1     -29.826  56.402   3.619  0.00  0.00     0.027 H 
ATOM    102  H66 ABA d   1     -30.196  54.697   4.043  0.00  0.00     0.027 H 
ENDBRANCH  96  99
ENDBRANCH  38  96
BRANCH  27 103
ATOM    103  CN  MVA d   1     -24.786  58.873  -0.874  0.00  0.00    -0.016 C 
ATOM    104  H32 MVA d   1     -24.362  59.489  -1.680  0.00  0.00     0.056 H 
ATOM    105  H33 MVA d   1     -24.121  58.907   0.002  0.00  0.00     0.056 H 
ATOM    106  H34 MVA d   1     -25.777  59.262  -0.598  0.00  0.00     0.056 H 
ENDBRANCH  27 103
BRANCH  43 107
ATOM    107  CN  SAR d   1     -32.589  53.979  -0.226  0.00  0.00    -0.016 C 
ATOM    108  H69 SAR d   1     -31.642  54.072   0.326  0.00  0.00     0.056 H 
ATOM    109  H70 SAR d   1     -32.454  54.353  -1.252  0.00  0.00     0.056 H 
ATOM    110  H71 SAR d   1     -32.892  52.922  -0.258  0.00  0.00     0.056 H 
ENDBRANCH  43 107
BRANCH  12 111
ATOM    111  CB  MLE d   1     -25.608  58.593  -4.156  0.00  0.00    -0.036 C 
ATOM    112  H23 MLE d   1     -26.120  59.082  -3.314  0.00  0.00     0.037 H 
ATOM    113  H24 MLE d   1     -26.271  57.834  -4.597  0.00  0.00     0.037 H 
BRANCH 111 114
ATOM    114  CG  MLE d   1     -25.294  59.649  -5.221  0.00  0.00    -0.059 C 
ATOM    115  H25 MLE d   1     -24.985  59.115  -6.132  0.00  0.00     0.038 H 
BRANCH 114 116
ATOM    116  CD1 MLE d   1     -26.524  60.481  -5.568  0.00  0.00    -0.073 C 
ATOM    117  H26 MLE d   1     -26.259  61.225  -6.333  0.00  0.00     0.028 H 
ATOM    118  H27 MLE d   1     -26.885  60.996  -4.665  0.00  0.00     0.028 H 
ATOM    119  H28 MLE d   1     -27.315  59.822  -5.956  0.00  0.00     0.028 H 
ENDBRANCH 114 116
BRANCH 114 120
ATOM    120  CD2 MLE d   1     -24.138  60.549  -4.800  0.00  0.00    -0.073 C 
ATOM    121  H29 MLE d   1     -23.262  59.930  -4.554  0.00  0.00     0.028 H 
ATOM    122  H30 MLE d   1     -24.432  61.135  -3.917  0.00  0.00     0.028 H 
ATOM    123  H31 MLE d   1     -23.885  61.231  -5.625  0.00  0.00     0.028 H 
ENDBRANCH 114 120
ENDBRANCH 111 114
ENDBRANCH  12 111
BRANCH  11 124
ATOM    124  CN  MLE d   1     -24.549  56.248  -5.489  0.00  0.00    -0.016 C 
ATOM    125  H19 MLE d   1     -23.949  55.784  -6.286  0.00  0.00     0.056 H 
ATOM    126  H20 MLE d   1     -25.395  56.790  -5.936  0.00  0.00     0.056 H 
ATOM    127  H21 MLE d   1     -24.929  55.467  -4.814  0.00  0.00     0.056 H 
ENDBRANCH  11 124
BRANCH  15 128
ATOM    128  CN  MLE d   1     -34.241  57.139  -1.470  0.00  0.00    -0.016 C 
ATOM    129  H72 MLE d   1     -34.388  56.939  -0.398  0.00  0.00     0.056 H 
ATOM    130  H73 MLE d   1     -34.931  57.933  -1.792  0.00  0.00     0.056 H 
ATOM    131  H74 MLE d   1     -33.204  57.461  -1.644  0.00  0.00     0.056 H 
ENDBRANCH  15 128
BRANCH   8 132
ATOM    132  CB  MLE d   1     -20.370  56.735  -6.162  0.00  0.00    -0.036 C 
ATOM    133  H10 MLE d   1     -20.067  56.245  -5.225  0.00  0.00     0.037 H 
ATOM    134  H11 MLE d   1     -20.040  57.784  -6.151  0.00  0.00     0.037 H 
BRANCH 132 135
ATOM    135  CG  MLE d   1     -19.696  56.023  -7.326  0.00  0.00    -0.059 C 
ATOM    136  H12 MLE d   1     -20.065  56.470  -8.261  0.00  0.00     0.038 H 
BRANCH 135 137
ATOM    137  CD1 MLE d   1     -18.185  56.211  -7.273  0.00  0.00    -0.073 C 
ATOM    138  H13 MLE d   1     -17.721  55.689  -8.122  0.00  0.00     0.028 H 
ATOM    139  H14 MLE d   1     -17.797  55.797  -6.331  0.00  0.00     0.028 H 
ATOM    140  H15 MLE d   1     -17.947  57.283  -7.327  0.00  0.00     0.028 H 
ENDBRANCH 135 137
BRANCH 135 141
ATOM    141  CD2 MLE d   1     -20.052  54.543  -7.335  0.00  0.00    -0.073 C 
ATOM    142  H16 MLE d   1     -21.145  54.429  -7.373  0.00  0.00     0.028 H 
ATOM    143  H17 MLE d   1     -19.666  54.067  -6.421  0.00  0.00     0.028 H 
ATOM    144  H18 MLE d   1     -19.602  54.063  -8.217  0.00  0.00     0.028 H 
ENDBRANCH 135 141
ENDBRANCH 132 135
ENDBRANCH   8 132
BRANCH  16 145
ATOM    145  CB  MLE d   1     -35.072  57.266  -4.206  0.00  0.00    -0.036 C 
ATOM    146  H76 MLE d   1     -34.599  57.563  -5.153  0.00  0.00     0.037 H 
ATOM    147  H77 MLE d   1     -34.964  58.078  -3.472  0.00  0.00     0.037 H 
BRANCH 145 148
ATOM    148  CG  MLE d   1     -36.565  57.029  -4.458  0.00  0.00    -0.059 C 
ATOM    149  H78 MLE d   1     -36.899  57.809  -5.158  0.00  0.00     0.038 H 
BRANCH 148 150
ATOM    150  CD1 MLE d   1     -36.825  55.681  -5.124  0.00  0.00    -0.073 C 
ATOM    151  H79 MLE d   1     -37.906  55.554  -5.285  0.00  0.00     0.028 H 
ATOM    152  H80 MLE d   1     -36.454  54.874  -4.475  0.00  0.00     0.028 H 
ATOM    153  H81 MLE d   1     -36.303  55.643  -6.092  0.00  0.00     0.028 H 
ENDBRANCH 148 150
BRANCH 148 154
ATOM    154  CD2 MLE d   1     -37.402  57.172  -3.191  0.00  0.00    -0.073 C 
ATOM    155  H82 MLE d   1     -37.200  58.149  -2.727  0.00  0.00     0.028 H 
ATOM    156  H83 MLE d   1     -37.140  56.370  -2.486  0.00  0.00     0.028 H 
ATOM    157  H84 MLE d   1     -38.469  57.101  -3.447  0.00  0.00     0.028 H 
ENDBRANCH 148 154
ENDBRANCH 145 148
ENDBRANCH  16 145
BRANCH   7 158
ATOM    158  CN  MLE d   1     -22.143  58.762  -7.605  0.00  0.00    -0.015 C 
ATOM    159  H6  MLE d   1     -22.517  59.113  -8.578  0.00  0.00     0.056 H 
ATOM    160  H7  MLE d   1     -21.071  58.994  -7.519  0.00  0.00     0.056 H 
ATOM    161  H8  MLE d   1     -22.693  59.267  -6.797  0.00  0.00     0.056 H 
ENDBRANCH   7 158
BRANCH   2 162
ATOM    162  CB  DAL d   1     -22.437  57.153 -10.836  0.00  0.00    -0.049 C 
ATOM    163  H3  DAL d   1     -21.429  57.458 -10.519  0.00  0.00     0.030 H 
ATOM    164  H4  DAL d   1     -22.748  57.758 -11.700  0.00  0.00     0.030 H 
ATOM    165  H5  DAL d   1     -22.427  56.090 -11.117  0.00  0.00     0.030 H 
ENDBRANCH   2 162
BRANCH  50 166
ATOM    166  CB  VAL d   1     -30.571  53.345  -5.099  0.00  0.00    -0.033 C 
ATOM    167  H87 VAL d   1     -31.155  52.895  -5.916  0.00  0.00     0.042 H 
BRANCH 166 168
ATOM    168  CG1 VAL d   1     -29.099  53.245  -5.446  0.00  0.00    -0.071 C 
ATOM    169  H88 VAL d   1     -28.818  52.187  -5.550  0.00  0.00     0.028 H 
ATOM    170  H89 VAL d   1     -28.502  53.706  -4.646  0.00  0.00     0.028 H 
ATOM    171  H90 VAL d   1     -28.909  53.770  -6.394  0.00  0.00     0.028 H 
ENDBRANCH 166 168
BRANCH 166 172
ATOM    172  CG2 VAL d   1     -30.856  52.579  -3.819  0.00  0.00    -0.071 C 
ATOM    173  H91 VAL d   1     -31.926  52.657  -3.575  0.00  0.00     0.028 H 
ATOM    174  H92 VAL d   1     -30.261  53.004  -2.997  0.00  0.00     0.028 H 
ATOM    175  H93 VAL d   1     -30.588  51.521  -3.957  0.00  0.00     0.028 H 
ENDBRANCH 166 172
ENDBRANCH  50 166
BRANCH  19 176
ATOM    176  CN  MLE d   1     -29.047  56.825  -5.143  0.00  0.00    -0.015 C 
ATOM    177  H94 MLE d   1     -29.306  56.151  -4.313  0.00  0.00     0.056 H 
ATOM    178  H95 MLE d   1     -29.208  57.868  -4.833  0.00  0.00     0.056 H 
ATOM    179  H96 MLE d   1     -27.991  56.682  -5.415  0.00  0.00     0.056 H 
ENDBRANCH  19 176
BRANCH  56 180
ATOM    180  CB  ALA d   1     -27.403  57.671 -11.730  0.00  0.00    -0.049 C 
ATOM    181 9H10 ALA d   1     -26.543  57.410 -12.364  0.00  0.00     0.030 H 
ATOM    182 0H11 ALA d   1     -27.519  58.764 -11.701  0.00  0.00     0.030 H 
ATOM    183 1H11 ALA d   1     -28.315  57.216 -12.143  0.00  0.00     0.030 H 
ENDBRANCH  56 180
BRANCH  20 184
ATOM    184  CB  MLE d   1     -29.705  58.811  -7.198  0.00  0.00    -0.036 C 
ATOM    185  H98 MLE d   1     -29.516  59.364  -8.130  0.00  0.00     0.037 H 
ATOM    186  H99 MLE d   1     -28.905  59.028  -6.475  0.00  0.00     0.037 H 
BRANCH 184 187
ATOM    187  CG  MLE d   1     -31.039  59.273  -6.612  0.00  0.00    -0.059 C 
ATOM    188 0H10 MLE d   1     -31.151  58.800  -5.625  0.00  0.00     0.038 H 
BRANCH 187 189
ATOM    189  CD1 MLE d   1     -31.058  60.783  -6.409  0.00  0.00    -0.073 C 
ATOM    190 1H10 MLE d   1     -32.028  61.084  -5.987  0.00  0.00     0.028 H 
ATOM    191 2H10 MLE d   1     -30.907  61.285  -7.376  0.00  0.00     0.028 H 
ATOM    192 3H10 MLE d   1     -30.253  61.070  -5.717  0.00  0.00     0.028 H 
ENDBRANCH 187 189
BRANCH 187 193
ATOM    193  CD2 MLE d   1     -32.213  58.828  -7.475  0.00  0.00    -0.073 C 
ATOM    194 4H10 MLE d   1     -32.178  57.736  -7.607  0.00  0.00     0.028 H 
ATOM    195 5H10 MLE d   1     -32.152  59.319  -8.458  0.00  0.00     0.028 H 
ATOM    196 6H10 MLE d   1     -33.156  59.108  -6.983  0.00  0.00     0.028 H 
ENDBRANCH 187 193
ENDBRANCH 184 187
ENDBRANCH  20 184
TORSDOF 40
