REMARK  16 active torsions:
REMARK  status: ('A' for Active; 'I' for Inactive)
REMARK    1  A    between atoms: N_1  and  CA_2 
REMARK    2  A    between atoms: CA_2  and  C_3 
REMARK    3  A    between atoms: CA_2  and  CB_5 
REMARK       I    between atoms: C_3  and  N_6 
REMARK    4  A    between atoms: N_6  and  CA_7 
REMARK    5  A    between atoms: CA_7  and  C_8 
REMARK    6  A    between atoms: CA_7  and  CB_10 
REMARK       I    between atoms: C_8  and  N_12 
REMARK    7  A    between atoms: CB_10  and  OG_11 
REMARK    8  A    between atoms: N_12  and  CA_13 
REMARK    9  A    between atoms: CA_13  and  C_14 
REMARK   10  A    between atoms: CA_13  and  CB_16 
REMARK       I    between atoms: C_14  and  N_19 
REMARK   11  A    between atoms: CB_16  and  OG1_17 
REMARK   12  A    between atoms: CB_16  and  CG2_18 
REMARK   13  A    between atoms: N_19  and  CA_20 
REMARK   14  A    between atoms: CA_20  and  C_21 
REMARK   15  A    between atoms: CA_20  and  CB_23 
REMARK   16  A    between atoms: CB_23  and  OG_24 
ROOT
ATOM      1  C   SER d   1      35.867 -12.247  -9.950  0.00  0.00     0.243 C 
ATOM      2  O   SER d   1      35.041 -12.123 -10.854  0.00  0.00    -0.271 OA
ATOM      3  N   THR d   1      37.097 -11.747 -10.020  0.00  0.00    -0.344 N 
ATOM      4  H13 THR d   1      37.714 -11.851  -9.240  0.00  0.00     0.163 HD
ENDROOT
BRANCH   3   5
ATOM      5  CA  THR d   1      37.563 -11.050 -11.214  0.00  0.00     0.113 C 
ATOM      6  H14 THR d   1      36.744 -10.463 -11.655  0.00  0.00     0.091 H 
BRANCH   5   7
ATOM      7  C   THR d   1      38.031 -12.137 -12.173  0.00  0.00     0.243 C 
ATOM      8  O   THR d   1      38.288 -13.266 -11.749  0.00  0.00    -0.271 OA
ATOM      9  N   SER d   1      38.144 -11.807 -13.455  0.00  0.00    -0.346 N 
ATOM     10  H20 SER d   1      37.926 -10.876 -13.747  0.00  0.00     0.163 HD
BRANCH   9  11
ATOM     11  CA  SER d   1      38.583 -12.789 -14.441  0.00  0.00     0.083 C 
ATOM     12  H21 SER d   1      37.986 -13.703 -14.311  0.00  0.00     0.086 H 
BRANCH  11  13
ATOM     13  C   SER d   1      40.052 -13.135 -14.247  0.00  0.00     0.112 C 
ATOM     14  O   SER d   1      40.450 -14.179 -14.806  0.00  0.00    -0.305 OA
ATOM     15  H22 SER d   1      40.718 -12.509 -13.655  0.00  0.00     0.146 H 
ENDBRANCH  11  13
BRANCH  11  16
ATOM     16  CB  SER d   1      38.369 -12.259 -15.861  0.00  0.00     0.041 C 
ATOM     17  H23 SER d   1      37.311 -11.985 -15.986  0.00  0.00     0.077 H 
ATOM     18  H24 SER d   1      38.631 -13.047 -16.582  0.00  0.00     0.077 H 
BRANCH  16  19
ATOM     19  OG  SER d   1      39.175 -11.120 -16.107  0.00  0.00    -0.398 OA
ATOM     20  H25 SER d   1      38.950 -10.434 -15.489  0.00  0.00     0.209 HD
ENDBRANCH  16  19
ENDBRANCH  11  16
ENDBRANCH   9  11
ENDBRANCH   5   7
BRANCH   5  21
ATOM     21  CB  THR d   1      38.755 -10.128 -10.907  0.00  0.00     0.060 C 
ATOM     22  H15 THR d   1      39.083  -9.643 -11.838  0.00  0.00     0.086 H 
BRANCH  21  23
ATOM     23  OG1 THR d   1      39.832 -10.909 -10.375  0.00  0.00    -0.393 OA
ATOM     24  H16 THR d   1      40.092 -11.564 -11.012  0.00  0.00     0.210 HD
ENDBRANCH  21  23
BRANCH  21  25
ATOM     25  CG2 THR d   1      38.361  -9.057  -9.902  0.00  0.00    -0.050 C 
ATOM     26  H17 THR d   1      39.227  -8.410  -9.697  0.00  0.00     0.031 H 
ATOM     27  H18 THR d   1      38.031  -9.534  -8.968  0.00  0.00     0.031 H 
ATOM     28  H19 THR d   1      37.540  -8.452 -10.314  0.00  0.00     0.031 H 
ENDBRANCH  21  25
ENDBRANCH   5  21
ENDBRANCH   3   5
BRANCH   1  29
ATOM     29  CA  SER d   1      35.514 -12.992  -8.668  0.00  0.00     0.109 C 
ATOM     30  H9  SER d   1      35.594 -12.306  -7.812  0.00  0.00     0.090 H 
BRANCH  29  31
ATOM     31  N   SER d   1      34.149 -13.502  -8.746  0.00  0.00    -0.344 N 
ATOM     32  C   ALA d   1      33.545 -14.051  -7.696  0.00  0.00     0.248 C 
ATOM     33  O   ALA d   1      34.083 -14.165  -6.594  0.00  0.00    -0.271 OA
ATOM     34  H8  SER d   1      33.654 -13.437  -9.613  0.00  0.00     0.163 HD
BRANCH  32  35
ATOM     35  CA  ALA d   1      32.121 -14.546  -7.914  0.00  0.00     0.172 C 
ATOM     36  H4  ALA d   1      32.005 -14.843  -8.967  0.00  0.00     0.098 H 
BRANCH  35  37
ATOM     37  N   ALA d   1      31.856 -15.730  -7.045  0.00  0.00    -0.067 N 
ATOM     38  H1  ALA d   1      30.913 -16.052  -7.194  0.00  0.00     0.275 HD
ATOM     39  H2  ALA d   1      31.973 -15.470  -6.078  0.00  0.00     0.275 HD
ATOM     40  H3  ALA d   1      32.503 -16.468  -7.276  0.00  0.00     0.275 HD
ENDBRANCH  35  37
BRANCH  35  41
ATOM     41  CB  ALA d   1      31.124 -13.433  -7.603  0.00  0.00    -0.042 C 
ATOM     42  H5  ALA d   1      31.329 -12.566  -8.249  0.00  0.00     0.030 H 
ATOM     43  H6  ALA d   1      31.223 -13.136  -6.548  0.00  0.00     0.030 H 
ATOM     44  H7  ALA d   1      30.102 -13.794  -7.788  0.00  0.00     0.030 H 
ENDBRANCH  35  41
ENDBRANCH  32  35
ENDBRANCH  29  31
BRANCH  29  45
ATOM     45  CB  SER d   1      36.502 -14.148  -8.487  0.00  0.00     0.044 C 
ATOM     46  H10 SER d   1      36.159 -14.790  -7.662  0.00  0.00     0.077 H 
ATOM     47  H11 SER d   1      37.495 -13.740  -8.246  0.00  0.00     0.077 H 
BRANCH  45  48
ATOM     48  OG  SER d   1      36.593 -14.924  -9.675  0.00  0.00    -0.398 OA
ATOM     49  H12 SER d   1      35.738 -15.281  -9.885  0.00  0.00     0.209 HD
ENDBRANCH  45  48
ENDBRANCH  29  45
ENDBRANCH   1  29
TORSDOF 16
