REMARK  10 active torsions:
REMARK  status: ('A' for Active; 'I' for Inactive)
REMARK    1  A    between atoms: C3_3  and  C28_28 
REMARK    2  A    between atoms: C6_6  and  C7_7 
REMARK       I    between atoms: C7_7  and  N10_10 
REMARK    3  A    between atoms: N10_10  and  C9_9 
REMARK    4  A    between atoms: C9_9  and  C29_29 
REMARK    5  A    between atoms: C9_9  and  C30_30 
REMARK    6  A    between atoms: N10_10  and  C11_11 
REMARK    7  A    between atoms: C12_12  and  C17_17 
REMARK    8  A    between atoms: C14_14  and  O20_20 
REMARK    9  A    between atoms: O20_20  and  C21_21 
REMARK   10  A    between atoms: C26_26  and  C27_27 
ROOT
ATOM      1  C7  1M9 d   1     -25.867  48.126  57.456  0.00  0.00     0.229 C 
ATOM      2  O8  1M9 d   1     -26.770  47.727  58.187  0.00  0.00    -0.273 OA
ATOM      3  N10 1M9 d   1     -24.532  48.298  57.931  0.00  0.00    -0.313 N 
ENDROOT
BRANCH   3   4
ATOM      4  C9  1M9 d   1     -24.247  47.971  59.385  0.00  0.00     0.013 C 
ATOM      5  H11 1M9 d   1     -25.072  47.322  59.714  0.00  0.00     0.072 H 
BRANCH   4   6
ATOM      6  C29 1M9 d   1     -22.931  47.198  59.702  0.00  0.00    -0.057 C 
ATOM      7  H22 1M9 d   1     -22.856  47.031  60.787  0.00  0.00     0.030 H 
ATOM      8  H23 1M9 d   1     -22.068  47.788  59.361  0.00  0.00     0.030 H 
ATOM      9  H24 1M9 d   1     -22.941  46.229  59.182  0.00  0.00     0.030 H 
ENDBRANCH   4   6
BRANCH   4  10
ATOM     10  C30 1M9 d   1     -24.286  49.243  60.243  0.00  0.00    -0.057 C 
ATOM     11  H25 1M9 d   1     -24.077  48.984  61.292  0.00  0.00     0.030 H 
ATOM     12  H26 1M9 d   1     -25.282  49.704  60.170  0.00  0.00     0.030 H 
ATOM     13  H27 1M9 d   1     -23.527  49.952  59.882  0.00  0.00     0.030 H 
ENDBRANCH   4  10
ENDBRANCH   3   4
BRANCH   3  14
ATOM     14  C11 1M9 d   1     -23.446  48.773  57.093  0.00  0.00     0.054 A 
ATOM     15  C12 1M9 d   1     -22.608  47.902  56.276  0.00  0.00     0.070 A 
ATOM     16  C13 1M9 d   1     -21.562  48.476  55.501  0.00  0.00    -0.032 A 
ATOM     17  C14 1M9 d   1     -21.338  49.858  55.528  0.00  0.00     0.077 A 
ATOM     18  H12 1M9 d   1     -20.935  47.840  54.886  0.00  0.00     0.089 H 
ATOM     19  C15 1M9 d   1     -22.170  50.718  56.325  0.00  0.00    -0.048 A 
ATOM     20  C16 1M9 d   1     -23.203  50.185  57.098  0.00  0.00    -0.053 A 
ATOM     21  H13 1M9 d   1     -21.994  51.788  56.326  0.00  0.00     0.087 H 
ATOM     22  H14 1M9 d   1     -23.821  50.839  57.702  0.00  0.00     0.087 H 
BRANCH  15  23
ATOM     23  C17 1M9 d   1     -22.811  46.445  56.215  0.00  0.00     0.211 C 
ATOM     24  O18 1M9 d   1     -21.642  45.753  56.039  0.00  0.00    -0.644 OA
ATOM     25  O19 1M9 d   1     -23.884  45.866  56.300  0.00  0.00    -0.644 OA
ENDBRANCH  15  23
BRANCH  17  26
ATOM     26  O20 1M9 d   1     -20.289  50.314  54.755  0.00  0.00    -0.310 OA
BRANCH  26  27
ATOM     27  C21 1M9 d   1     -19.429  51.272  55.296  0.00  0.00     0.091 A 
ATOM     28  C22 1M9 d   1     -18.831  51.106  56.597  0.00  0.00    -0.049 A 
ATOM     29  C23 1M9 d   1     -17.965  52.101  57.122  0.00  0.00    -0.080 A 
ATOM     30  H15 1M9 d   1     -19.044  50.216  57.178  0.00  0.00     0.087 H 
ATOM     31  C24 1M9 d   1     -17.668  53.258  56.355  0.00  0.00    -0.082 A 
ATOM     32  H16 1M9 d   1     -17.531  51.977  58.108  0.00  0.00     0.083 H 
ATOM     33  C25 1M9 d   1     -18.249  53.433  55.059  0.00  0.00    -0.066 A 
ATOM     34  H17 1M9 d   1     -16.998  54.012  56.753  0.00  0.00     0.083 H 
ATOM     35  C26 1M9 d   1     -19.135  52.431  54.505  0.00  0.00     0.081 A 
ATOM     36  H18 1M9 d   1     -18.023  54.325  54.486  0.00  0.00     0.084 H 
BRANCH  35  37
ATOM     37  C27 1M9 d   1     -19.756  52.600  53.114  0.00  0.00     0.420 C 
ATOM     38  F31 1M9 d   1     -19.401  53.775  52.495  0.00  0.00    -0.166 F 
ATOM     39  F32 1M9 d   1     -19.366  51.632  52.265  0.00  0.00    -0.166 F 
ATOM     40  F33 1M9 d   1     -21.120  52.525  53.086  0.00  0.00    -0.166 F 
ENDBRANCH  35  37
ENDBRANCH  26  27
ENDBRANCH  17  26
ENDBRANCH   3  14
BRANCH   1  41
ATOM     41  C6  1M9 d   1     -26.178  48.464  55.975  0.00  0.00     0.024 C 
ATOM     42  C1  1M9 d   1     -27.071  47.374  55.327  0.00  0.00    -0.053 C 
ATOM     43  C2  1M9 d   1     -27.458  47.769  53.872  0.00  0.00    -0.061 C 
ATOM     44  H1  1M9 d   1     -26.521  46.422  55.308  0.00  0.00     0.034 H 
ATOM     45  H2  1M9 d   1     -27.987  47.256  55.925  0.00  0.00     0.034 H 
ATOM     46  C3  1M9 d   1     -28.115  49.169  53.790  0.00  0.00    -0.058 C 
ATOM     47  H3  1M9 d   1     -28.167  47.024  53.481  0.00  0.00     0.033 H 
ATOM     48  H4  1M9 d   1     -26.549  47.770  53.253  0.00  0.00     0.033 H 
ATOM     49  C4  1M9 d   1     -27.220  50.225  54.461  0.00  0.00    -0.061 C 
ATOM     50  H5  1M9 d   1     -29.079  49.129  54.319  0.00  0.00     0.039 H 
ATOM     51  C5  1M9 d   1     -26.868  49.856  55.913  0.00  0.00    -0.053 C 
ATOM     52  H6  1M9 d   1     -27.749  51.189  54.460  0.00  0.00     0.033 H 
ATOM     53  H7  1M9 d   1     -26.288  50.317  53.884  0.00  0.00     0.033 H 
ATOM     54  H8  1M9 d   1     -27.790  49.829  56.512  0.00  0.00     0.034 H 
ATOM     55  H9  1M9 d   1     -26.186  50.615  56.323  0.00  0.00     0.034 H 
ATOM     56  H10 1M9 d   1     -25.231  48.512  55.417  0.00  0.00     0.054 H 
BRANCH  46  57
ATOM     57  C28 1M9 d   1     -28.370  49.604  52.332  0.00  0.00    -0.073 C 
ATOM     58  H19 1M9 d   1     -29.009  48.860  51.834  0.00  0.00     0.028 H 
ATOM     59  H20 1M9 d   1     -27.411  49.679  51.799  0.00  0.00     0.028 H 
ATOM     60  H21 1M9 d   1     -28.872  50.583  52.324  0.00  0.00     0.028 H 
ENDBRANCH  46  57
ENDBRANCH   1  41
TORSDOF 10
