REMARK  5 active torsions:
REMARK  status: ('A' for Active; 'I' for Inactive)
REMARK    1  A    between atoms: C7_7  and  C6_6 
REMARK    2  A    between atoms: N10_10  and  C7_7 
REMARK    3  A    between atoms: O20_20  and  C14_14 
REMARK    4  A    between atoms: C21_21  and  O20_20 
REMARK    5  A    between atoms: C26_26  and  C27_27 
ROOT
ATOM      1  N8  1MB d   1     -24.351  47.337  56.918  0.00  0.00    -0.204 NA
ATOM      2  C9  1MB d   1     -25.317  48.179  57.192  0.00  0.00     0.070 A 
ATOM      3  N10 1MB d   1     -25.362  49.553  56.972  0.00  0.00    -0.336 N 
ATOM      4  C11 1MB d   1     -24.186  50.154  56.384  0.00  0.00     0.051 A 
ATOM      5  C12 1MB d   1     -23.065  49.304  56.046  0.00  0.00     0.063 A 
ATOM      6  C13 1MB d   1     -21.880  49.820  55.451  0.00  0.00    -0.033 A 
ATOM      7  C14 1MB d   1     -21.786  51.202  55.186  0.00  0.00     0.079 A 
ATOM      8  C15 1MB d   1     -22.852  52.070  55.504  0.00  0.00    -0.048 A 
ATOM      9  C16 1MB d   1     -24.028  51.549  56.097  0.00  0.00    -0.053 A 
ATOM     10  C17 1MB d   1     -23.187  47.836  56.334  0.00  0.00     0.280 A 
ATOM     11  O18 1MB d   1     -22.244  47.073  56.055  0.00  0.00    -0.265 OA
ATOM     12  H6  1MB d   1     -26.203  47.746  57.654  0.00  0.00     0.144 H 
ATOM     13  H7  1MB d   1     -21.058  49.158  55.204  0.00  0.00     0.089 H 
ATOM     14  H8  1MB d   1     -22.771  53.131  55.295  0.00  0.00     0.087 H 
ATOM     15  H9  1MB d   1     -24.836  52.229  56.342  0.00  0.00     0.087 H 
ENDROOT
BRANCH   3  16
ATOM     16  C7  1MB d   1     -26.696  50.250  56.980  0.00  0.00     0.028 C 
ATOM     17  H4  1MB d   1     -27.411  49.616  57.524  0.00  0.00     0.072 H 
ATOM     18  H5  1MB d   1     -26.580  51.208  57.508  0.00  0.00     0.072 H 
BRANCH  16  19
ATOM     19  C6  1MB d   1     -27.271  50.537  55.594  0.00  0.00    -0.001 A 
ATOM     20  C1  1MB d   1     -27.735  49.502  54.724  0.00  0.00     0.127 A 
ATOM     21  C2  1MB d   1     -28.262  49.792  53.444  0.00  0.00    -0.008 A 
ATOM     22  F31 1MB d   1     -27.693  48.225  55.106  0.00  0.00    -0.205 F 
ATOM     23  C3  1MB d   1     -28.317  51.134  53.009  0.00  0.00     0.119 A 
ATOM     24  H1  1MB d   1     -28.619  48.993  52.804  0.00  0.00     0.093 H 
ATOM     25  C4  1MB d   1     -27.866  52.188  53.832  0.00  0.00    -0.045 A 
ATOM     26  F28 1MB d   1     -28.815  51.405  51.802  0.00  0.00    -0.206 F 
ATOM     27  C5  1MB d   1     -27.346  51.885  55.111  0.00  0.00    -0.069 A 
ATOM     28  H2  1MB d   1     -27.918  53.215  53.488  0.00  0.00     0.088 H 
ATOM     29  H3  1MB d   1     -26.995  52.693  55.743  0.00  0.00     0.084 H 
ENDBRANCH  16  19
ENDBRANCH   3  16
BRANCH   7  30
ATOM     30  O20 1MB d   1     -20.645  51.663  54.600  0.00  0.00    -0.291 OA
BRANCH  30  31
ATOM     31  C21 1MB d   1     -19.877  52.657  55.201  0.00  0.00     0.184 A 
ATOM     32  N22 1MB d   1     -19.563  52.554  56.544  0.00  0.00    -0.236 NA
ATOM     33  C23 1MB d   1     -18.795  53.548  57.108  0.00  0.00     0.005 A 
ATOM     34  C24 1MB d   1     -18.321  54.653  56.380  0.00  0.00    -0.065 A 
ATOM     35  H10 1MB d   1     -18.545  53.475  58.160  0.00  0.00     0.114 H 
ATOM     36  C25 1MB d   1     -18.657  54.740  54.999  0.00  0.00    -0.063 A 
ATOM     37  H11 1MB d   1     -17.717  55.417  56.856  0.00  0.00     0.085 H 
ATOM     38  C26 1MB d   1     -19.456  53.725  54.372  0.00  0.00     0.101 A 
ATOM     39  H12 1MB d   1     -18.305  55.582  54.414  0.00  0.00     0.085 H 
BRANCH  38  40
ATOM     40  C27 1MB d   1     -19.851  53.753  52.901  0.00  0.00     0.421 C 
ATOM     41  F19 1MB d   1     -19.464  52.636  52.212  0.00  0.00    -0.166 F 
ATOM     42  F29 1MB d   1     -19.309  54.796  52.193  0.00  0.00    -0.166 F 
ATOM     43  F30 1MB d   1     -21.202  53.844  52.703  0.00  0.00    -0.166 F 
ENDBRANCH  38  40
ENDBRANCH  30  31
ENDBRANCH   7  30
TORSDOF 5
