REMARK WARNING: 32 MAX_TORS EXCEEDED!!!
REMARK  37 active torsions:
REMARK  status: ('A' for Active; 'I' for Inactive)
REMARK    1  A    between atoms: CA_2  and  N_1 
REMARK    2  A    between atoms: C_3  and  CA_2 
REMARK    3  A    between atoms: CA_2  and  CB_5 
REMARK       I    between atoms: N_6  and  C_3 
REMARK    4  A    between atoms: CA_7  and  N_6 
REMARK    5  A    between atoms: CA_13  and  CB_16 
REMARK    6  A    between atoms: CB_16  and  OG_17 
REMARK    7  A    between atoms: CA_19  and  CB_22 
REMARK    8  A    between atoms: CB_22  and  CG_23 
REMARK    9  A    between atoms: CG_23  and  CD_24 
REMARK   10  A    between atoms: CD_24  and  NE_25 
REMARK       I    between atoms: NE_25  and  CZ_26 
REMARK       I    between atoms: CZ_26  and  NH1_27 
REMARK       I    between atoms: CZ_26  and  NH2_28 
REMARK   11  A    between atoms: CA_30  and  CB_33 
REMARK   12  A    between atoms: CB_33  and  CG_34 
REMARK   13  A    between atoms: CZ_39  and  OH_40 
REMARK   14  A    between atoms: CA_42  and  CB_45 
REMARK   15  A    between atoms: CB_45  and  CG_46 
REMARK   16  A    between atoms: CG_46  and  CD_47 
REMARK   17  A    between atoms: CA_51  and  CB_54 
REMARK   18  A    between atoms: CB_54  and  CG1_55 
REMARK   19  A    between atoms: CB_54  and  CG2_56 
REMARK   20  A    between atoms: CA_58  and  CB_61 
REMARK   21  A    between atoms: CB_61  and  CG_62 
REMARK   22  A    between atoms: CA_72  and  CB_75 
REMARK   23  A    between atoms: CB_75  and  CG_76 
REMARK   24  A    between atoms: CG_76  and  CD_77 
REMARK   25  A    between atoms: CD_77  and  NE_78 
REMARK       I    between atoms: NE_78  and  CZ_79 
REMARK       I    between atoms: CZ_79  and  NH1_80 
REMARK       I    between atoms: CZ_79  and  NH2_81 
REMARK   26  A    between atoms: CA_87  and  CB_90 
REMARK   27  A    between atoms: CB_90  and  CG_91 
REMARK   28  A    between atoms: CG_91  and  CD_92 
REMARK   29  A    between atoms: CD_92  and  NE_93 
REMARK       I    between atoms: NE_93  and  CZ_94 
REMARK       I    between atoms: CZ_94  and  NH1_95 
REMARK   30  A    between atoms: CA_98  and  CB_101 
REMARK   31  A    between atoms: CB_101  and  OG_102 
REMARK   32  A    between atoms: CA_104  and  CB_107 
REMARK   33  A    between atoms: CB_107  and  OG_108 
REMARK   34  A    between atoms: CA_110  and  CB_113 
REMARK   35  A    between atoms: CA_115  and  C_116 
REMARK       I    between atoms: C_116  and  N_120 
REMARK   36  A    between atoms: N_120  and  CA_121 
REMARK   37  A    between atoms: CA_121  and  C_122 
REMARK       I    between atoms: C_122  and  N_124 
ROOT
ATOM      1  N   ALA d   1     -23.856  11.582 -34.931  0.00  0.00    -0.346 N 
ATOM      2  CA  ALA d   1     -23.773  10.554 -35.959  0.00  0.00     0.086 C 
ATOM      3  C   ALA d   1     -23.771   9.172 -35.310  0.00  0.00     0.240 C 
ATOM      4  O   ALA d   1     -22.830   8.416 -35.482  0.00  0.00    -0.271 OA
ATOM      5 1H10 ALA d   1     -23.032  12.104 -34.714  0.00  0.00     0.163 HD
ATOM      6 2H10 ALA d   1     -24.646  10.635 -36.624  0.00  0.00     0.086 H 
ATOM      7  CA  CYS d   1     -16.641   9.011 -34.427  0.00  0.00     0.097 C 
ATOM      8  C   CYS d   1     -15.890   8.050 -33.539  0.00  0.00     0.242 C 
ATOM      9  O   CYS d   1     -16.001   6.817 -33.716  0.00  0.00    -0.271 OA
ATOM     10  CB  CYS d   1     -18.113   9.238 -34.133  0.00  0.00     0.004 C 
ATOM     11  SG  CYS d   1     -18.963   8.272 -32.879  0.00  0.00    -0.162 SA
ATOM     12  N   CYS d   1     -21.693  11.198 -27.301  0.00  0.00    -0.345 N 
ATOM     13  CA  CYS d   1     -21.803  10.455 -28.579  0.00  0.00     0.097 C 
ATOM     14  C   CYS d   1     -23.227   9.982 -28.990  0.00  0.00     0.241 C 
ATOM     15  O   CYS d   1     -23.488   9.658 -30.162  0.00  0.00    -0.271 OA
ATOM     16  CB  CYS d   1     -20.851   9.286 -28.483  0.00  0.00     0.004 C 
ATOM     17  SG  CYS d   1     -21.402   7.956 -27.362  0.00  0.00    -0.162 SA
ATOM     18  N   CYS d   1     -24.798   8.854 -34.531  0.00  0.00    -0.345 N 
ATOM     19  CA  CYS d   1     -24.851   7.560 -33.854  0.00  0.00     0.097 C 
ATOM     20  CB  CYS d   1     -24.800   7.710 -32.337  0.00  0.00     0.004 C 
ATOM     21  SG  CYS d   1     -24.995   6.161 -31.415  0.00  0.00    -0.162 SA
ATOM     22  H9  CYS d   1     -16.140   9.990 -34.397  0.00  0.00     0.088 H 
ATOM     23  H10 CYS d   1     -18.651   9.068 -35.077  0.00  0.00     0.052 H 
ATOM     24  H11 CYS d   1     -18.215  10.293 -33.838  0.00  0.00     0.052 H 
ATOM     25  H58 CYS d   1     -21.109  10.848 -26.569  0.00  0.00     0.163 HD
ATOM     26  H59 CYS d   1     -21.453  11.125 -29.378  0.00  0.00     0.088 H 
ATOM     27  H60 CYS d   1     -19.882   9.660 -28.122  0.00  0.00     0.052 H 
ATOM     28  H61 CYS d   1     -20.728   8.859 -29.489  0.00  0.00     0.052 H 
ATOM     29 6H10 CYS d   1     -25.544   9.508 -34.406  0.00  0.00     0.163 HD
ATOM     30 7H10 CYS d   1     -23.974   6.973 -34.164  0.00  0.00     0.088 H 
ATOM     31 8H10 CYS d   1     -25.607   8.393 -32.033  0.00  0.00     0.052 H 
ATOM     32 9H10 CYS d   1     -23.827   8.148 -32.069  0.00  0.00     0.052 H 
ATOM     33 5H11 CYS d   1     -18.795   6.960 -30.247  0.00  0.00     0.085 H 
ATOM     34 6H11 CYS d   1     -21.633   5.555 -33.169  0.00  0.00     0.085 H 
ATOM     35 7H11 CYS d   1     -22.702   5.676 -28.997  0.00  0.00     0.085 H 
ATOM     36 8H11 CYS d   1     -20.609   5.664 -27.461  0.00  0.00     0.056 H 
ATOM     37 9H11 CYS d   1     -19.336   6.830 -27.957  0.00  0.00     0.056 H 
ATOM     38 0H12 CYS d   1     -18.193   5.960 -32.722  0.00  0.00     0.056 H 
ATOM     39 1H12 CYS d   1     -19.561   6.124 -33.874  0.00  0.00     0.056 H 
ATOM     40 2H12 CYS d   1     -23.426   4.800 -32.584  0.00  0.00     0.056 H 
ATOM     41 3H12 CYS d   1     -23.745   4.191 -30.925  0.00  0.00     0.056 H 
ATOM     42  N   SER d   1     -15.050   8.641 -32.694  0.00  0.00    -0.344 N 
ATOM     43  CA  SER d   1     -14.033   7.938 -31.927  0.00  0.00     0.109 C 
ATOM     44  C   SER d   1     -14.445   7.953 -30.469  0.00  0.00     0.243 C 
ATOM     45  O   SER d   1     -15.514   8.474 -30.118  0.00  0.00    -0.271 OA
ATOM     46  N   SER d   1     -25.940  13.683 -32.884  0.00  0.00    -0.344 N 
ATOM     47  CA  SER d   1     -24.778  12.858 -33.137  0.00  0.00     0.109 C 
ATOM     48  C   SER d   1     -24.972  11.860 -34.268  0.00  0.00     0.243 C 
ATOM     49  O   SER d   1     -26.080  11.342 -34.511  0.00  0.00    -0.271 OA
ATOM     50  H12 SER d   1     -15.122   9.632 -32.578  0.00  0.00     0.163 HD
ATOM     51  H13 SER d   1     -13.957   6.899 -32.280  0.00  0.00     0.090 H 
ATOM     52  H96 SER d   1     -26.570  13.465 -32.139  0.00  0.00     0.163 HD
ATOM     53  H97 SER d   1     -23.977  13.542 -33.455  0.00  0.00     0.090 H 
ATOM     54  N   ARG d   1     -13.580   7.419 -29.613  0.00  0.00    -0.346 N 
ATOM     55  CA  ARG d   1     -13.860   7.301 -28.181  0.00  0.00     0.089 C 
ATOM     56  C   ARG d   1     -13.749   8.626 -27.462  0.00  0.00     0.241 C 
ATOM     57  O   ARG d   1     -14.098   8.686 -26.286  0.00  0.00    -0.271 OA
ATOM     58  N   ARG d   1     -24.131   9.878 -28.013  0.00  0.00    -0.346 N 
ATOM     59  CA  ARG d   1     -25.512   9.482 -28.230  0.00  0.00     0.089 C 
ATOM     60  C   ARG d   1     -26.484  10.621 -28.091  0.00  0.00     0.240 C 
ATOM     61  O   ARG d   1     -27.704  10.407 -28.003  0.00  0.00    -0.271 OA
ATOM     62  N   ARG d   1     -28.369  14.286 -29.103  0.00  0.00    -0.346 N 
ATOM     63  CA  ARG d   1     -29.084  14.809 -30.218  0.00  0.00     0.089 C 
ATOM     64  C   ARG d   1     -28.093  15.501 -31.107  0.00  0.00     0.241 C 
ATOM     65  O   ARG d   1     -27.261  16.232 -30.643  0.00  0.00    -0.271 OA
ATOM     66  H17 ARG d   1     -12.704   7.085 -29.961  0.00  0.00     0.163 HD
ATOM     67  H18 ARG d   1     -14.881   6.910 -28.056  0.00  0.00     0.087 H 
ATOM     68  H62 ARG d   1     -23.841  10.084 -27.078  0.00  0.00     0.163 HD
ATOM     69  H63 ARG d   1     -25.585   9.098 -29.258  0.00  0.00     0.087 H 
ATOM     70  H78 ARG d   1     -28.581  14.643 -28.193  0.00  0.00     0.163 HD
ATOM     71  H79 ARG d   1     -29.523  13.973 -30.782  0.00  0.00     0.087 H 
ATOM     72  N   TYR d   1     -13.222   9.661 -28.135  0.00  0.00    -0.346 N 
ATOM     73  CA  TYR d   1     -13.106  11.024 -27.566  0.00  0.00     0.093 C 
ATOM     74  C   TYR d   1     -14.321  11.874 -27.831  0.00  0.00     0.241 C 
ATOM     75  O   TYR d   1     -14.336  13.049 -27.481  0.00  0.00    -0.271 OA
ATOM     76  H30 TYR d   1     -12.892   9.504 -29.066  0.00  0.00     0.163 HD
ATOM     77  H31 TYR d   1     -12.960  10.935 -26.479  0.00  0.00     0.088 H 
ATOM     78  N   GLU d   1     -15.315  11.294 -28.483  0.00  0.00    -0.346 N 
ATOM     79  CA  GLU d   1     -16.460  12.054 -28.896  0.00  0.00     0.090 C 
ATOM     80  C   GLU d   1     -17.236  12.509 -27.670  0.00  0.00     0.241 C 
ATOM     81  O   GLU d   1     -17.448  11.764 -26.699  0.00  0.00    -0.271 OA
ATOM     82  H39 GLU d   1     -15.268  10.317 -28.690  0.00  0.00     0.163 HD
ATOM     83  H40 GLU d   1     -16.098  12.943 -29.433  0.00  0.00     0.087 H 
ATOM     84  N   VAL d   1     -17.630  13.765 -27.737  0.00  0.00    -0.346 N 
ATOM     85  CA  VAL d   1     -18.499  14.348 -26.728  0.00  0.00     0.092 C 
ATOM     86  C   VAL d   1     -19.911  13.844 -26.935  0.00  0.00     0.241 C 
ATOM     87  O   VAL d   1     -20.406  13.854 -28.052  0.00  0.00    -0.271 OA
ATOM     88  H45 VAL d   1     -17.323  14.332 -28.502  0.00  0.00     0.163 HD
ATOM     89  H46 VAL d   1     -18.149  14.036 -25.733  0.00  0.00     0.088 H 
ATOM     90  N   ASP d   1     -20.568  13.419 -25.855  0.00  0.00    -0.345 N 
ATOM     91  CA  ASP d   1     -22.001  13.102 -25.856  0.00  0.00     0.098 C 
ATOM     92  C   ASP d   1     -22.364  12.320 -27.128  0.00  0.00     0.241 C 
ATOM     93  O   ASP d   1     -23.206  12.726 -27.942  0.00  0.00    -0.271 OA
ATOM     94  H54 ASP d   1     -20.058  13.311 -25.001  0.00  0.00     0.163 HD
ATOM     95  H55 ASP d   1     -22.221  12.461 -24.989  0.00  0.00     0.088 H 
ATOM     96  N   GLY d   1     -25.961  11.831 -28.003  0.00  0.00    -0.351 N 
ATOM     97  CA  GLY d   1     -26.777  13.007 -27.920  0.00  0.00     0.069 C 
ATOM     98  C   GLY d   1     -27.440  13.352 -29.210  0.00  0.00     0.236 C 
ATOM     99  O   GLY d   1     -27.132  12.771 -30.264  0.00  0.00    -0.272 OA
ATOM    100  H75 GLY d   1     -24.966  11.930 -27.994  0.00  0.00     0.163 HD
ATOM    101  H76 GLY d   1     -26.142  13.852 -27.616  0.00  0.00     0.078 H 
ATOM    102  H77 GLY d   1     -27.555  12.840 -27.160  0.00  0.00     0.078 H 
ATOM    103  N   DSN d   1     -28.176  15.246 -32.398  0.00  0.00    -0.344 N 
ATOM    104  CA  DSN d   1     -27.194  15.778 -33.286  0.00  0.00     0.109 C 
ATOM    105  C   DSN d   1     -26.150  14.739 -33.668  0.00  0.00     0.243 C 
ATOM    106  O   DSN d   1     -25.507  14.895 -34.667  0.00  0.00    -0.271 OA
ATOM    107  H91 DSN d   1     -28.923  14.683 -32.753  0.00  0.00     0.163 HD
ATOM    108  H92 DSN d   1     -26.672  16.601 -32.775  0.00  0.00     0.090 H 
ATOM    109  C1  ZBR d   1     -20.680   6.279 -29.451  0.00  0.00    -0.048 A 
ATOM    110  C2  ZBR d   1     -19.761   6.531 -30.486  0.00  0.00    -0.069 A 
ATOM    111  C3  ZBR d   1     -20.077   6.232 -31.845  0.00  0.00    -0.048 A 
ATOM    112  C4  ZBR d   1     -21.358   5.761 -32.141  0.00  0.00    -0.069 A 
ATOM    113  C5  ZBR d   1     -22.289   5.553 -31.117  0.00  0.00    -0.048 A 
ATOM    114  C6  ZBR d   1     -21.963   5.822 -29.776  0.00  0.00    -0.069 A 
ATOM    115  C7  ZBR d   1     -20.400   6.569 -28.051  0.00  0.00     0.001 C 
ATOM    116  C8  ZBR d   1     -19.152   6.464 -32.911  0.00  0.00     0.001 C 
ATOM    117  C9  ZBR d   1     -23.529   5.086 -31.527  0.00  0.00     0.001 C 
ENDROOT
BRANCH  55 118
ATOM    118  CB  ARG d   1     -12.864   6.341 -27.528  0.00  0.00    -0.036 C 
ATOM    119  H19 ARG d   1     -12.862   5.403 -28.103  0.00  0.00     0.036 H 
ATOM    120  H20 ARG d   1     -13.201   6.141 -26.500  0.00  0.00     0.036 H 
BRANCH 118 121
ATOM    121  CG  ARG d   1     -11.429   6.869 -27.467  0.00  0.00    -0.048 C 
ATOM    122  H21 ARG d   1     -11.278   7.367 -26.498  0.00  0.00     0.035 H 
ATOM    123  H22 ARG d   1     -11.287   7.597 -28.279  0.00  0.00     0.035 H 
BRANCH 121 124
ATOM    124  CD  ARG d   1     -10.378   5.754 -27.617  0.00  0.00     0.009 C 
ATOM    125  H23 ARG d   1     -10.889   4.818 -27.887  0.00  0.00     0.064 H 
ATOM    126  H24 ARG d   1      -9.858   5.624 -26.657  0.00  0.00     0.064 H 
BRANCH 124 127
ATOM    127  NE  ARG d   1      -9.389   6.070 -28.653  0.00  0.00    -0.227 N 
ATOM    128  CZ  ARG d   1      -9.615   6.046 -29.975  0.00  0.00     0.665 C 
ATOM    129  NH1 ARG d   1     -10.807   5.727 -30.486  0.00  0.00    -0.235 N 
ATOM    130  NH2 ARG d   1      -8.635   6.361 -30.802  0.00  0.00    -0.235 N 
ATOM    131  H26 ARG d   1     -10.944   5.719 -31.507  0.00  0.00     0.174 HD
ATOM    132  H27 ARG d   1     -11.589   5.489 -29.859  0.00  0.00     0.174 HD
ATOM    133  H28 ARG d   1      -7.707   6.610 -30.430  0.00  0.00     0.174 HD
ATOM    134  H29 ARG d   1      -8.798   6.357 -31.819  0.00  0.00     0.174 HD
ATOM    135  H25 ARG d   1      -8.443   6.332 -28.340  0.00  0.00     0.177 HD
ENDBRANCH 124 127
ENDBRANCH 121 124
ENDBRANCH 118 121
ENDBRANCH  55 118
BRANCH  43 136
ATOM    136  CB  SER d   1     -12.664   8.634 -32.091  0.00  0.00     0.044 C 
ATOM    137  H14 SER d   1     -12.423   8.695 -33.163  0.00  0.00     0.077 H 
ATOM    138  H15 SER d   1     -11.898   8.035 -31.577  0.00  0.00     0.077 H 
BRANCH 136 139
ATOM    139  OG  SER d   1     -12.661   9.942 -31.548  0.00  0.00    -0.398 OA
ATOM    140  H16 SER d   1     -11.803  10.332 -31.670  0.00  0.00     0.209 HD
ENDBRANCH 136 139
ENDBRANCH  43 136
BRANCH  73 141
ATOM    141  CB  TYR d   1     -11.919  11.755 -28.183  0.00  0.00    -0.014 C 
ATOM    142  H32 TYR d   1     -11.821  12.742 -27.706  0.00  0.00     0.043 H 
ATOM    143  H33 TYR d   1     -12.100  11.884 -29.260  0.00  0.00     0.043 H 
BRANCH 141 144
ATOM    144  CG  TYR d   1     -10.647  10.997 -27.994  0.00  0.00    -0.056 A 
ATOM    145  CD1 TYR d   1     -10.036  10.967 -26.757  0.00  0.00    -0.074 A 
ATOM    146  CE1 TYR d   1      -8.872  10.263 -26.533  0.00  0.00    -0.051 A 
ATOM    147  H34 TYR d   1     -10.485  11.514 -25.936  0.00  0.00     0.084 H 
ATOM    148  CZ  TYR d   1      -8.300   9.576 -27.563  0.00  0.00     0.065 A 
ATOM    149  H36 TYR d   1      -8.417  10.256 -25.549  0.00  0.00     0.087 H 
ATOM    150  CE2 TYR d   1      -8.893   9.572 -28.849  0.00  0.00    -0.051 A 
ATOM    151  CD2 TYR d   1     -10.069  10.285 -29.053  0.00  0.00    -0.074 A 
ATOM    152  H37 TYR d   1      -8.436   9.021 -29.663  0.00  0.00     0.087 H 
ATOM    153  H35 TYR d   1     -10.538  10.290 -30.030  0.00  0.00     0.084 H 
BRANCH 148 154
ATOM    154  OH  TYR d   1      -7.139   8.890 -27.305  0.00  0.00    -0.361 OA
ATOM    155  H38 TYR d   1      -6.897   9.010 -26.394  0.00  0.00     0.217 HD
ENDBRANCH 148 154
ENDBRANCH 141 144
ENDBRANCH  73 141
BRANCH   7 156
ATOM    156  N   CYS d   1     -16.503   8.406 -35.739  0.00  0.00    -0.345 N 
ATOM    157  C   ALA d   1     -16.600   9.101 -36.847  0.00  0.00     0.248 C 
ATOM    158  O   ALA d   1     -16.737  10.337 -36.863  0.00  0.00    -0.271 OA
ATOM    159  H8  CYS d   1     -16.328   7.423 -35.800  0.00  0.00     0.163 HD
BRANCH 157 160
ATOM    160  CA  ALA d   1     -16.506   8.287 -38.137  0.00  0.00     0.172 C 
ATOM    161  H4  ALA d   1     -17.504   7.872 -38.341  0.00  0.00     0.098 H 
BRANCH 160 162
ATOM    162  N   ALA d   1     -16.117   9.133 -39.305  0.00  0.00    -0.067 N 
ATOM    163  H1  ALA d   1     -16.066   8.560 -40.133  0.00  0.00     0.275 HD
ATOM    164  H2  ALA d   1     -15.217   9.553 -39.131  0.00  0.00     0.275 HD
ATOM    165  H3  ALA d   1     -16.805   9.857 -39.439  0.00  0.00     0.275 HD
ENDBRANCH 160 162
BRANCH 160 166
ATOM    166  CB  ALA d   1     -15.528   7.112 -37.986  0.00  0.00    -0.042 C 
ATOM    167  H5  ALA d   1     -15.824   6.497 -37.124  0.00  0.00     0.030 H 
ATOM    168  H6  ALA d   1     -14.511   7.500 -37.828  0.00  0.00     0.030 H 
ATOM    169  H7  ALA d   1     -15.549   6.498 -38.899  0.00  0.00     0.030 H 
ENDBRANCH 160 166
ENDBRANCH 157 160
ENDBRANCH   7 156
BRANCH  79 170
ATOM    170  CB  GLU d   1     -17.396  11.285 -29.837  0.00  0.00    -0.029 C 
ATOM    171  H41 GLU d   1     -17.661  10.322 -29.376  0.00  0.00     0.037 H 
ATOM    172  H42 GLU d   1     -16.881  11.105 -30.792  0.00  0.00     0.037 H 
BRANCH 170 173
ATOM    173  CG  GLU d   1     -18.669  12.083 -30.097  0.00  0.00     0.018 C 
ATOM    174  H43 GLU d   1     -18.467  13.137 -29.855  0.00  0.00     0.049 H 
ATOM    175  H44 GLU d   1     -19.456  11.698 -29.431  0.00  0.00     0.049 H 
BRANCH 173 176
ATOM    176  CD  GLU d   1     -19.173  12.017 -31.496  0.00  0.00     0.172 C 
ATOM    177  OE1 GLU d   1     -19.288  10.891 -32.000  0.00  0.00    -0.648 OA
ATOM    178  OE2 GLU d   1     -19.496  13.081 -32.069  0.00  0.00    -0.648 OA
ENDBRANCH 173 176
ENDBRANCH 170 173
ENDBRANCH  79 170
BRANCH  85 179
ATOM    179  CB  VAL d   1     -18.468  15.886 -26.803  0.00  0.00    -0.033 C 
ATOM    180  H47 VAL d   1     -18.733  16.201 -27.823  0.00  0.00     0.042 H 
BRANCH 179 181
ATOM    181  CG1 VAL d   1     -19.462  16.511 -25.803  0.00  0.00    -0.071 C 
ATOM    182  H48 VAL d   1     -19.418  17.608 -25.879  0.00  0.00     0.028 H 
ATOM    183  H49 VAL d   1     -19.196  16.203 -24.781  0.00  0.00     0.028 H 
ATOM    184  H50 VAL d   1     -20.481  16.168 -26.036  0.00  0.00     0.028 H 
ENDBRANCH 179 181
BRANCH 179 185
ATOM    185  CG2 VAL d   1     -17.080  16.379 -26.466  0.00  0.00    -0.071 C 
ATOM    186  H51 VAL d   1     -16.355  15.943 -27.170  0.00  0.00     0.028 H 
ATOM    187  H52 VAL d   1     -16.822  16.076 -25.440  0.00  0.00     0.028 H 
ATOM    188  H53 VAL d   1     -17.052  17.476 -26.543  0.00  0.00     0.028 H 
ENDBRANCH 179 185
ENDBRANCH  85 179
BRANCH  91 189
ATOM    189  CB  ASP d   1     -22.809  14.409 -25.705  0.00  0.00     0.043 C 
ATOM    190  H56 ASP d   1     -22.636  15.027 -26.598  0.00  0.00     0.052 H 
ATOM    191  H57 ASP d   1     -22.443  14.941 -24.814  0.00  0.00     0.052 H 
BRANCH 189 192
ATOM    192  CG  ASP d   1     -24.316  14.196 -25.552  0.00  0.00     0.175 C 
ATOM    193  OD1 ASP d   1     -24.752  13.060 -25.184  0.00  0.00    -0.648 OA
ATOM    194  OD2 ASP d   1     -25.074  15.145 -25.795  0.00  0.00    -0.648 OA
ENDBRANCH 189 192
ENDBRANCH  91 189
BRANCH  19 195
ATOM    195  C   CYS d   1     -26.097   6.823 -34.292  0.00  0.00     0.241 C 
ATOM    196  O   CYS d   1     -27.206   7.313 -34.160  0.00  0.00    -0.271 OA
ATOM    197  N   GLY d   1     -25.881   5.633 -34.827  0.00  0.00    -0.351 N 
ATOM    198 0H11 GLY d   1     -24.946   5.278 -34.833  0.00  0.00     0.163 HD
BRANCH 197 199
ATOM    199  CA  GLY d   1     -26.929   4.818 -35.404  0.00  0.00     0.069 C 
ATOM    200 1H11 GLY d   1     -27.735   5.465 -35.781  0.00  0.00     0.078 H 
ATOM    201 2H11 GLY d   1     -27.332   4.138 -34.639  0.00  0.00     0.078 H 
BRANCH 199 202
ATOM    202  C   GLY d   1     -26.348   4.013 -36.545  0.00  0.00     0.233 C 
ATOM    203  O   GLY d   1     -27.040   3.202 -37.157  0.00  0.00    -0.272 OA
ATOM    204  N   NH2 d   1     -25.059   4.219 -36.820  0.00  0.00    -0.369 N 
ATOM    205 3H11 NH2 d   1     -24.620   3.715 -37.564  0.00  0.00     0.159 HD
ATOM    206 4H11 NH2 d   1     -24.532   4.877 -36.282  0.00  0.00     0.159 HD
ENDBRANCH 199 202
ENDBRANCH 197 199
ENDBRANCH  19 195
BRANCH  59 207
ATOM    207  CB  ARG d   1     -25.932   8.376 -27.278  0.00  0.00    -0.036 C 
ATOM    208  H64 ARG d   1     -27.001   8.166 -27.427  0.00  0.00     0.036 H 
ATOM    209  H65 ARG d   1     -25.765   8.715 -26.245  0.00  0.00     0.036 H 
BRANCH 207 210
ATOM    210  CG  ARG d   1     -25.165   7.131 -27.502  0.00  0.00    -0.048 C 
ATOM    211  H66 ARG d   1     -24.113   7.316 -27.239  0.00  0.00     0.035 H 
ATOM    212  H67 ARG d   1     -25.236   6.864 -28.567  0.00  0.00     0.035 H 
BRANCH 210 213
ATOM    213  CD  ARG d   1     -25.666   5.970 -26.682  0.00  0.00     0.009 C 
ATOM    214  H68 ARG d   1     -26.743   5.831 -26.860  0.00  0.00     0.064 H 
ATOM    215  H69 ARG d   1     -25.494   6.173 -25.615  0.00  0.00     0.064 H 
BRANCH 213 216
ATOM    216  NE  ARG d   1     -24.949   4.763 -27.070  0.00  0.00    -0.227 N 
ATOM    217  CZ  ARG d   1     -25.301   3.866 -28.007  0.00  0.00     0.665 C 
ATOM    218  NH1 ARG d   1     -24.510   2.870 -28.195  0.00  0.00    -0.235 N 
ATOM    219  NH2 ARG d   1     -26.362   3.997 -28.802  0.00  0.00    -0.235 N 
ATOM    220  H71 ARG d   1     -24.738   2.157 -28.903  0.00  0.00     0.174 HD
ATOM    221  H72 ARG d   1     -23.648   2.785 -27.638  0.00  0.00     0.174 HD
ATOM    222  H73 ARG d   1     -27.010   4.787 -28.670  0.00  0.00     0.174 HD
ATOM    223  H74 ARG d   1     -26.535   3.308 -29.548  0.00  0.00     0.174 HD
ATOM    224  H70 ARG d   1     -24.070   4.575 -26.568  0.00  0.00     0.177 HD
ENDBRANCH 213 216
ENDBRANCH 210 213
ENDBRANCH 207 210
ENDBRANCH  59 207
BRANCH   2 225
ATOM    225  CB  ALA d   1     -22.499  10.763 -36.779  0.00  0.00    -0.049 C 
ATOM    226 3H10 ALA d   1     -22.433   9.988 -37.557  0.00  0.00     0.030 H 
ATOM    227 4H10 ALA d   1     -21.622  10.695 -36.118  0.00  0.00     0.030 H 
ATOM    228 5H10 ALA d   1     -22.526  11.756 -37.252  0.00  0.00     0.030 H 
ENDBRANCH   2 225
BRANCH  47 229
ATOM    229  CB  SER d   1     -24.283  12.151 -31.876  0.00  0.00     0.044 C 
ATOM    230  H98 SER d   1     -24.330  12.856 -31.033  0.00  0.00     0.077 H 
ATOM    231  H99 SER d   1     -23.241  11.836 -32.032  0.00  0.00     0.077 H 
BRANCH 229 232
ATOM    232  OG  SER d   1     -25.061  11.011 -31.561  0.00  0.00    -0.398 OA
ATOM    233 0H10 SER d   1     -24.720  10.604 -30.773  0.00  0.00     0.209 HD
ENDBRANCH 229 232
ENDBRANCH  47 229
BRANCH  63 234
ATOM    234  CB  ARG d   1     -30.242  15.709 -29.747  0.00  0.00    -0.036 C 
ATOM    235  H80 ARG d   1     -30.834  15.142 -29.014  0.00  0.00     0.036 H 
ATOM    236  H81 ARG d   1     -30.866  15.942 -30.622  0.00  0.00     0.036 H 
BRANCH 234 237
ATOM    237  CG  ARG d   1     -29.842  17.001 -29.112  0.00  0.00    -0.048 C 
ATOM    238  H82 ARG d   1     -29.292  17.611 -29.843  0.00  0.00     0.035 H 
ATOM    239  H83 ARG d   1     -29.196  16.797 -28.245  0.00  0.00     0.035 H 
BRANCH 237 240
ATOM    240  CD  ARG d   1     -31.072  17.755 -28.654  0.00  0.00     0.009 C 
ATOM    241  H84 ARG d   1     -30.749  18.689 -28.172  0.00  0.00     0.064 H 
ATOM    242  H85 ARG d   1     -31.611  17.133 -27.924  0.00  0.00     0.064 H 
BRANCH 240 243
ATOM    243  NE  ARG d   1     -31.979  18.085 -29.736  0.00  0.00    -0.227 N 
ATOM    244  CZ  ARG d   1     -32.948  18.971 -29.621  0.00  0.00     0.665 C 
ATOM    245  NH1 ARG d   1     -33.179  19.535 -28.460  0.00  0.00    -0.235 N 
ATOM    246  NH2 ARG d   1     -33.742  19.231 -30.657  0.00  0.00    -0.235 N 
ATOM    247  H87 ARG d   1     -33.935  20.228 -28.365  0.00  0.00     0.174 HD
ATOM    248  H88 ARG d   1     -32.604  19.285 -27.643  0.00  0.00     0.174 HD
ATOM    249  H89 ARG d   1     -33.560  18.788 -31.569  0.00  0.00     0.174 HD
ATOM    250  H90 ARG d   1     -34.538  19.875 -30.547  0.00  0.00     0.174 HD
ATOM    251  H86 ARG d   1     -31.860  17.603 -30.639  0.00  0.00     0.177 HD
ENDBRANCH 240 243
ENDBRANCH 237 240
ENDBRANCH 234 237
ENDBRANCH  63 234
BRANCH 104 252
ATOM    252  CB  DSN d   1     -27.921  16.351 -34.501  0.00  0.00     0.044 C 
ATOM    253  H93 DSN d   1     -27.192  16.797 -35.193  0.00  0.00     0.077 H 
ATOM    254  H94 DSN d   1     -28.636  17.121 -34.176  0.00  0.00     0.077 H 
BRANCH 252 255
ATOM    255  OG  DSN d   1     -28.621  15.288 -35.157  0.00  0.00    -0.398 OA
ATOM    256  H95 DSN d   1     -29.248  14.904 -34.555  0.00  0.00     0.209 HD
ENDBRANCH 252 255
ENDBRANCH 104 252
TORSDOF 37
