REMARK WARNING: 32 MAX_TORS EXCEEDED!!!
REMARK  37 active torsions:
REMARK  status: ('A' for Active; 'I' for Inactive)
REMARK    1  A    between atoms: CA_2  and  N_1 
REMARK    2  A    between atoms: C_3  and  CA_2 
REMARK    3  A    between atoms: CA_2  and  CB_5 
REMARK       I    between atoms: N_6  and  C_3 
REMARK    4  A    between atoms: CA_7  and  N_6 
REMARK    5  A    between atoms: CA_13  and  CB_16 
REMARK    6  A    between atoms: CB_16  and  OG_17 
REMARK    7  A    between atoms: CA_19  and  CB_22 
REMARK    8  A    between atoms: CB_22  and  CG_23 
REMARK    9  A    between atoms: CG_23  and  CD_24 
REMARK   10  A    between atoms: CD_24  and  NE_25 
REMARK       I    between atoms: NE_25  and  CZ_26 
REMARK       I    between atoms: CZ_26  and  NH1_27 
REMARK       I    between atoms: CZ_26  and  NH2_28 
REMARK   11  A    between atoms: CA_30  and  CB_33 
REMARK   12  A    between atoms: CB_33  and  CG_34 
REMARK   13  A    between atoms: CZ_39  and  OH_40 
REMARK   14  A    between atoms: CA_42  and  CB_45 
REMARK   15  A    between atoms: CB_45  and  CG_46 
REMARK   16  A    between atoms: CG_46  and  CD_47 
REMARK   17  A    between atoms: CA_51  and  CB_54 
REMARK   18  A    between atoms: CB_54  and  CG1_55 
REMARK   19  A    between atoms: CB_54  and  CG2_56 
REMARK   20  A    between atoms: CA_58  and  CB_61 
REMARK   21  A    between atoms: CB_61  and  CG_62 
REMARK   22  A    between atoms: CA_72  and  CB_75 
REMARK   23  A    between atoms: CB_75  and  CG_76 
REMARK   24  A    between atoms: CG_76  and  CD_77 
REMARK   25  A    between atoms: CD_77  and  NE_78 
REMARK       I    between atoms: NE_78  and  CZ_79 
REMARK       I    between atoms: CZ_79  and  NH1_80 
REMARK       I    between atoms: CZ_79  and  NH2_81 
REMARK   26  A    between atoms: CA_87  and  CB_90 
REMARK   27  A    between atoms: CB_90  and  CG_91 
REMARK   28  A    between atoms: CG_91  and  CD_92 
REMARK   29  A    between atoms: CD_92  and  NE_93 
REMARK       I    between atoms: NE_93  and  CZ_94 
REMARK       I    between atoms: CZ_94  and  NH1_95 
REMARK   30  A    between atoms: CA_98  and  CB_101 
REMARK   31  A    between atoms: CB_101  and  CG_102 
REMARK   32  A    between atoms: CA_104  and  CB_107 
REMARK   33  A    between atoms: CB_107  and  OG_108 
REMARK   34  A    between atoms: CA_110  and  CB_113 
REMARK   35  A    between atoms: CA_115  and  C_116 
REMARK       I    between atoms: C_116  and  N_120 
REMARK   36  A    between atoms: N_120  and  CA_121 
REMARK   37  A    between atoms: CA_121  and  C_122 
REMARK       I    between atoms: C_122  and  N_124 
ROOT
ATOM      1  N   ALA d   1     -38.516 120.007 -20.711  0.00  0.00    -0.346 N 
ATOM      2  CA  ALA d   1     -39.381 120.516 -21.769  0.00  0.00     0.086 C 
ATOM      3  C   ALA d   1     -40.660 120.914 -21.088  0.00  0.00     0.240 C 
ATOM      4  O   ALA d   1     -41.619 120.137 -21.022  0.00  0.00    -0.271 OA
ATOM      5 3H10 ALA d   1     -38.597 119.043 -20.457  0.00  0.00     0.163 HD
ATOM      6 4H10 ALA d   1     -38.917 121.389 -22.251  0.00  0.00     0.086 H 
ATOM      7  CA  CYS d   1     -44.893 115.045 -20.183  0.00  0.00     0.097 C 
ATOM      8  C   CYS d   1     -45.950 114.966 -19.039  0.00  0.00     0.242 C 
ATOM      9  O   CYS d   1     -46.915 115.751 -19.020  0.00  0.00    -0.271 OA
ATOM     10  CB  CYS d   1     -43.915 116.259 -20.127  0.00  0.00     0.004 C 
ATOM     11  SG  CYS d   1     -44.221 117.860 -19.275  0.00  0.00    -0.162 SA
ATOM     12  N   CYS d   1     -40.053 118.227 -13.066  0.00  0.00    -0.345 N 
ATOM     13  CA  CYS d   1     -40.673 118.606 -14.346  0.00  0.00     0.097 C 
ATOM     14  C   CYS d   1     -40.416 120.071 -14.710  0.00  0.00     0.241 C 
ATOM     15  O   CYS d   1     -40.528 120.445 -15.860  0.00  0.00    -0.271 OA
ATOM     16  CB  CYS d   1     -42.162 118.290 -14.319  0.00  0.00     0.004 C 
ATOM     17  SG  CYS d   1     -43.097 119.421 -13.280  0.00  0.00    -0.162 SA
ATOM     18  N   CYS d   1     -40.650 122.111 -20.524  0.00  0.00    -0.345 N 
ATOM     19  CA  CYS d   1     -41.854 122.688 -19.945  0.00  0.00     0.097 C 
ATOM     20  CB  CYS d   1     -41.959 122.345 -18.451  0.00  0.00     0.004 C 
ATOM     21  SG  CYS d   1     -43.070 123.360 -17.443  0.00  0.00    -0.162 SA
ATOM     22  H9  CYS d   1     -44.275 114.139 -20.095  0.00  0.00     0.088 H 
ATOM     23  H10 CYS d   1     -43.725 116.524 -21.177  0.00  0.00     0.052 H 
ATOM     24  H11 CYS d   1     -42.993 115.865 -19.676  0.00  0.00     0.052 H 
ATOM     25  H58 CYS d   1     -40.647 118.011 -12.291  0.00  0.00     0.163 HD
ATOM     26  H59 CYS d   1     -40.214 117.989 -15.132  0.00  0.00     0.088 H 
ATOM     27  H60 CYS d   1     -42.297 117.268 -13.936  0.00  0.00     0.052 H 
ATOM     28  H61 CYS d   1     -42.553 118.352 -15.345  0.00  0.00     0.052 H 
ATOM     29 8H10 CYS d   1     -39.796 122.631 -20.495  0.00  0.00     0.163 HD
ATOM     30 9H10 CYS d   1     -42.734 122.259 -20.446  0.00  0.00     0.088 H 
ATOM     31 0H11 CYS d   1     -40.950 122.431 -18.020  0.00  0.00     0.052 H 
ATOM     32 1H11 CYS d   1     -42.303 121.303 -18.374  0.00  0.00     0.052 H 
ATOM     33 7H11 CYS d   1     -45.519 117.672 -15.866  0.00  0.00     0.085 H 
ATOM     34 8H11 CYS d   1     -45.418 120.690 -18.941  0.00  0.00     0.085 H 
ATOM     35 9H11 CYS d   1     -44.565 121.771 -14.876  0.00  0.00     0.085 H 
ATOM     36 0H12 CYS d   1     -45.510 119.900 -13.204  0.00  0.00     0.056 H 
ATOM     37 1H12 CYS d   1     -45.192 118.220 -13.753  0.00  0.00     0.056 H 
ATOM     38 2H12 CYS d   1     -46.259 117.235 -18.049  0.00  0.00     0.056 H 
ATOM     39 3H12 CYS d   1     -46.576 118.566 -19.212  0.00  0.00     0.056 H 
ATOM     40 4H12 CYS d   1     -45.142 122.701 -18.470  0.00  0.00     0.056 H 
ATOM     41 5H12 CYS d   1     -45.390 123.344 -16.811  0.00  0.00     0.056 H 
ATOM     42  N   SER d   1     -45.776 114.005 -18.113  0.00  0.00    -0.344 N 
ATOM     43  CA  SER d   1     -46.849 113.606 -17.159  0.00  0.00     0.109 C 
ATOM     44  C   SER d   1     -46.632 113.980 -15.666  0.00  0.00     0.243 C 
ATOM     45  O   SER d   1     -45.835 114.854 -15.336  0.00  0.00    -0.271 OA
ATOM     46  N   SER d   1     -35.652 120.628 -18.647  0.00  0.00    -0.344 N 
ATOM     47  CA  SER d   1     -36.980 120.077 -18.876  0.00  0.00     0.109 C 
ATOM     48  C   SER d   1     -37.623 120.756 -20.064  0.00  0.00     0.243 C 
ATOM     49  O   SER d   1     -37.293 121.901 -20.382  0.00  0.00    -0.271 OA
ATOM     50  H12 SER d   1     -44.892 113.540 -18.063  0.00  0.00     0.163 HD
ATOM     51  H13 SER d   1     -47.746 114.160 -17.471  0.00  0.00     0.090 H 
ATOM     52  H98 SER d   1     -35.490 121.283 -17.909  0.00  0.00     0.163 HD
ATOM     53  H99 SER d   1     -36.860 119.010 -19.116  0.00  0.00     0.090 H 
ATOM     54  N   ARG d   1     -47.417 113.363 -14.788  0.00  0.00    -0.346 N 
ATOM     55  CA  ARG d   1     -47.299 113.512 -13.326  0.00  0.00     0.089 C 
ATOM     56  C   ARG d   1     -46.266 112.543 -12.736  0.00  0.00     0.241 C 
ATOM     57  O   ARG d   1     -45.998 112.582 -11.549  0.00  0.00    -0.271 OA
ATOM     58  N   ARG d   1     -40.014 120.901 -13.755  0.00  0.00    -0.346 N 
ATOM     59  CA  ARG d   1     -39.618 122.268 -14.059  0.00  0.00     0.089 C 
ATOM     60  C   ARG d   1     -38.150 122.517 -13.869  0.00  0.00     0.240 C 
ATOM     61  O   ARG d   1     -37.708 123.661 -13.669  0.00  0.00    -0.271 OA
ATOM     62  N   ARG d   1     -34.076 122.557 -14.979  0.00  0.00    -0.346 N 
ATOM     63  CA  ARG d   1     -33.227 122.857 -16.120  0.00  0.00     0.089 C 
ATOM     64  C   ARG d   1     -33.144 121.603 -16.936  0.00  0.00     0.241 C 
ATOM     65  O   ARG d   1     -33.001 120.513 -16.398  0.00  0.00    -0.271 OA
ATOM     66  H17 ARG d   1     -48.132 112.760 -15.141  0.00  0.00     0.163 HD
ATOM     67  H18 ARG d   1     -46.993 114.544 -13.099  0.00  0.00     0.087 H 
ATOM     68  H62 ARG d   1     -39.983 120.581 -12.808  0.00  0.00     0.163 HD
ATOM     69  H63 ARG d   1     -39.851 122.455 -15.118  0.00  0.00     0.087 H 
ATOM     70  H78 ARG d   1     -33.739 122.751 -14.058  0.00  0.00     0.163 HD
ATOM     71  H79 ARG d   1     -33.711 123.638 -16.725  0.00  0.00     0.087 H 
ATOM     72  N   TYR d   1     -45.729 111.656 -13.574  0.00  0.00    -0.346 N 
ATOM     73  CA  TYR d   1     -44.691 110.709 -13.187  0.00  0.00     0.093 C 
ATOM     74  C   TYR d   1     -43.320 111.266 -13.511  0.00  0.00     0.241 C 
ATOM     75  O   TYR d   1     -42.330 110.570 -13.343  0.00  0.00    -0.271 OA
ATOM     76  H30 TYR d   1     -46.056 111.640 -14.519  0.00  0.00     0.163 HD
ATOM     77  H31 TYR d   1     -44.760 110.528 -12.104  0.00  0.00     0.088 H 
ATOM     78  N   GLU d   1     -43.274 112.510 -13.972  0.00  0.00    -0.346 N 
ATOM     79  CA  GLU d   1     -42.050 113.049 -14.486  0.00  0.00     0.090 C 
ATOM     80  C   GLU d   1     -41.196 113.591 -13.333  0.00  0.00     0.241 C 
ATOM     81  O   GLU d   1     -41.673 114.279 -12.459  0.00  0.00    -0.271 OA
ATOM     82  H39 GLU d   1     -44.099 113.075 -13.960  0.00  0.00     0.163 HD
ATOM     83  H40 GLU d   1     -41.499 112.241 -14.989  0.00  0.00     0.087 H 
ATOM     84  N   VAL d   1     -39.921 113.270 -13.388  0.00  0.00    -0.346 N 
ATOM     85  CA  VAL d   1     -38.938 113.770 -12.444  0.00  0.00     0.092 C 
ATOM     86  C   VAL d   1     -38.668 115.269 -12.649  0.00  0.00     0.241 C 
ATOM     87  O   VAL d   1     -38.358 115.692 -13.762  0.00  0.00    -0.271 OA
ATOM     88  H45 VAL d   1     -39.615 112.653 -14.113  0.00  0.00     0.163 HD
ATOM     89  H46 VAL d   1     -39.315 113.616 -11.422  0.00  0.00     0.088 H 
ATOM     90  N   ASP d   1     -38.725 116.054 -11.561  0.00  0.00    -0.345 N 
ATOM     91  CA  ASP d   1     -38.271 117.479 -11.574  0.00  0.00     0.098 C 
ATOM     92  C   ASP d   1     -38.733 118.160 -12.898  0.00  0.00     0.241 C 
ATOM     93  O   ASP d   1     -37.915 118.586 -13.723  0.00  0.00    -0.271 OA
ATOM     94  H54 ASP d   1     -39.085 115.671 -10.710  0.00  0.00     0.163 HD
ATOM     95  H55 ASP d   1     -38.726 118.012 -10.726  0.00  0.00     0.088 H 
ATOM     96  N   GLY d   1     -37.356 121.451 -13.981  0.00  0.00    -0.351 N 
ATOM     97  CA  GLY d   1     -35.918 121.576 -13.848  0.00  0.00     0.069 C 
ATOM     98  C   GLY d   1     -35.280 122.036 -15.126  0.00  0.00     0.236 C 
ATOM     99  O   GLY d   1     -35.858 121.974 -16.200  0.00  0.00    -0.272 OA
ATOM    100  H75 GLY d   1     -37.758 120.553 -14.159  0.00  0.00     0.163 HD
ATOM    101  H76 GLY d   1     -35.499 120.597 -13.573  0.00  0.00     0.078 H 
ATOM    102  H77 GLY d   1     -35.695 122.306 -13.056  0.00  0.00     0.078 H 
ATOM    103  N   DBB d   1     -33.306 121.771 -18.236  0.00  0.00    -0.346 N 
ATOM    104  CA  DBB d   1     -33.270 120.685 -19.144  0.00  0.00     0.089 C 
ATOM    105  C   DBB d   1     -34.657 120.239 -19.443  0.00  0.00     0.241 C 
ATOM    106  O   DBB d   1     -34.862 119.504 -20.385  0.00  0.00    -0.271 OA
ATOM    107  H91 DBB d   1     -33.459 122.694 -18.590  0.00  0.00     0.163 HD
ATOM    108  H92 DBB d   1     -32.732 119.849 -18.673  0.00  0.00     0.087 H 
ATOM    109  C1  ZBR d   1     -45.055 119.679 -15.201  0.00  0.00    -0.048 A 
ATOM    110  C2  ZBR d   1     -45.389 118.708 -16.159  0.00  0.00    -0.069 A 
ATOM    111  C3  ZBR d   1     -45.553 119.092 -17.503  0.00  0.00    -0.048 A 
ATOM    112  C4  ZBR d   1     -45.321 120.417 -17.896  0.00  0.00    -0.069 A 
ATOM    113  C5  ZBR d   1     -44.968 121.386 -16.962  0.00  0.00    -0.048 A 
ATOM    114  C6  ZBR d   1     -44.836 121.022 -15.611  0.00  0.00    -0.069 A 
ATOM    115  C7  ZBR d   1     -44.879 119.270 -13.848  0.00  0.00     0.001 C 
ATOM    116  C8  ZBR d   1     -45.855 118.159 -18.488  0.00  0.00     0.001 C 
ATOM    117  C9  ZBR d   1     -44.776 122.676 -17.433  0.00  0.00     0.001 C 
ENDROOT
BRANCH  55 118
ATOM    118  CB  ARG d   1     -48.661 113.222 -12.664  0.00  0.00    -0.036 C 
ATOM    119  H19 ARG d   1     -49.407 113.900 -13.104  0.00  0.00     0.036 H 
ATOM    120  H20 ARG d   1     -48.569 113.427 -11.587  0.00  0.00     0.036 H 
BRANCH 118 121
ATOM    121  CG  ARG d   1     -49.165 111.775 -12.837  0.00  0.00    -0.048 C 
ATOM    122  H21 ARG d   1     -49.142 111.282 -11.854  0.00  0.00     0.035 H 
ATOM    123  H22 ARG d   1     -48.484 111.252 -13.525  0.00  0.00     0.035 H 
BRANCH 121 124
ATOM    124  CD  ARG d   1     -50.596 111.667 -13.399  0.00  0.00     0.009 C 
ATOM    125  H23 ARG d   1     -50.794 112.551 -14.023  0.00  0.00     0.064 H 
ATOM    126  H24 ARG d   1     -51.302 111.648 -12.556  0.00  0.00     0.064 H 
BRANCH 124 127
ATOM    127  NE  ARG d   1     -50.812 110.457 -14.218  0.00  0.00    -0.227 N 
ATOM    128  CZ  ARG d   1     -50.695 110.375 -15.555  0.00  0.00     0.665 C 
ATOM    129  NH1 ARG d   1     -50.362 111.424 -16.314  0.00  0.00    -0.235 N 
ATOM    130  NH2 ARG d   1     -50.925 109.213 -16.152  0.00  0.00    -0.235 N 
ATOM    131  H26 ARG d   1     -50.283 111.316 -17.335  0.00  0.00     0.174 HD
ATOM    132  H27 ARG d   1     -50.184 112.340 -15.877  0.00  0.00     0.174 HD
ATOM    133  H28 ARG d   1     -51.183 108.388 -15.592  0.00  0.00     0.174 HD
ATOM    134  H29 ARG d   1     -50.845 109.135 -17.176  0.00  0.00     0.174 HD
ATOM    135  H25 ARG d   1     -51.077 109.596 -13.719  0.00  0.00     0.177 HD
ENDBRANCH 124 127
ENDBRANCH 121 124
ENDBRANCH 118 121
ENDBRANCH  55 118
BRANCH  43 136
ATOM    136  CB  SER d   1     -47.174 112.097 -17.331  0.00  0.00     0.044 C 
ATOM    137  H14 SER d   1     -47.372 111.901 -18.395  0.00  0.00     0.077 H 
ATOM    138  H15 SER d   1     -48.073 111.863 -16.742  0.00  0.00     0.077 H 
BRANCH 136 139
ATOM    139  OG  SER d   1     -46.126 111.251 -16.906  0.00  0.00    -0.398 OA
ATOM    140  H16 SER d   1     -46.380 110.345 -17.034  0.00  0.00     0.209 HD
ENDBRANCH 136 139
ENDBRANCH  43 136
BRANCH  73 141
ATOM    141  CB  TYR d   1     -44.880 109.371 -13.938  0.00  0.00    -0.014 C 
ATOM    142  H32 TYR d   1     -44.032 108.710 -13.708  0.00  0.00     0.043 H 
ATOM    143  H33 TYR d   1     -44.908 109.570 -15.020  0.00  0.00     0.043 H 
BRANCH 141 144
ATOM    144  CG  TYR d   1     -46.161 108.682 -13.534  0.00  0.00    -0.056 A 
ATOM    145  CD1 TYR d   1     -46.248 108.050 -12.311  0.00  0.00    -0.074 A 
ATOM    146  CE1 TYR d   1     -47.394 107.441 -11.895  0.00  0.00    -0.051 A 
ATOM    147  H34 TYR d   1     -45.380 108.037 -11.662  0.00  0.00     0.084 H 
ATOM    148  CZ  TYR d   1     -48.476 107.446 -12.691  0.00  0.00     0.065 A 
ATOM    149  H36 TYR d   1     -47.432 106.955 -10.927  0.00  0.00     0.087 H 
ATOM    150  CE2 TYR d   1     -48.445 108.057 -13.934  0.00  0.00    -0.051 A 
ATOM    151  CD2 TYR d   1     -47.280 108.682 -14.353  0.00  0.00    -0.074 A 
ATOM    152  H37 TYR d   1     -49.321 108.047 -14.572  0.00  0.00     0.087 H 
ATOM    153  H35 TYR d   1     -47.244 109.170 -15.320  0.00  0.00     0.084 H 
BRANCH 148 154
ATOM    154  OH  TYR d   1     -49.569 106.803 -12.197  0.00  0.00    -0.361 OA
ATOM    155  H38 TYR d   1     -49.370 106.460 -11.334  0.00  0.00     0.217 HD
ENDBRANCH 148 154
ENDBRANCH 141 144
ENDBRANCH  73 141
BRANCH   7 156
ATOM    156  N   CYS d   1     -45.550 115.013 -21.506  0.00  0.00    -0.345 N 
ATOM    157  C   ALA d   1     -45.007 114.413 -22.569  0.00  0.00     0.248 C 
ATOM    158  O   ALA d   1     -43.936 113.804 -22.521  0.00  0.00    -0.271 OA
ATOM    159  H8  CYS d   1     -46.439 115.459 -21.610  0.00  0.00     0.163 HD
BRANCH 157 160
ATOM    160  CA  ALA d   1     -45.790 114.524 -23.892  0.00  0.00     0.172 C 
ATOM    161  H4  ALA d   1     -46.159 115.557 -23.974  0.00  0.00     0.098 H 
BRANCH 160 162
ATOM    162  N   ALA d   1     -44.921 114.255 -25.080  0.00  0.00    -0.067 N 
ATOM    163  H1  ALA d   1     -45.469 114.337 -25.922  0.00  0.00     0.275 HD
ATOM    164  H2  ALA d   1     -44.542 113.323 -25.015  0.00  0.00     0.275 HD
ATOM    165  H3  ALA d   1     -44.167 114.924 -25.103  0.00  0.00     0.275 HD
ENDBRANCH 160 162
BRANCH 160 166
ATOM    166  CB  ALA d   1     -47.003 113.589 -23.899  0.00  0.00    -0.042 C 
ATOM    167  H5  ALA d   1     -47.632 113.798 -23.021  0.00  0.00     0.030 H 
ATOM    168  H6  ALA d   1     -46.661 112.544 -23.865  0.00  0.00     0.030 H 
ATOM    169  H7  ALA d   1     -47.587 113.753 -24.816  0.00  0.00     0.030 H 
ENDBRANCH 160 166
ENDBRANCH 157 160
ENDBRANCH   7 156
BRANCH  79 170
ATOM    170  CB  GLU d   1     -42.298 114.158 -15.488  0.00  0.00    -0.029 C 
ATOM    171  H41 GLU d   1     -43.029 114.866 -15.071  0.00  0.00     0.037 H 
ATOM    172  H42 GLU d   1     -42.696 113.724 -16.417  0.00  0.00     0.037 H 
BRANCH 170 173
ATOM    173  CG  GLU d   1     -41.006 114.897 -15.795  0.00  0.00     0.018 C 
ATOM    174  H43 GLU d   1     -40.162 114.225 -15.579  0.00  0.00     0.049 H 
ATOM    175  H44 GLU d   1     -40.948 115.780 -15.142  0.00  0.00     0.049 H 
BRANCH 173 176
ATOM    176  CD  GLU d   1     -40.895 115.354 -17.220  0.00  0.00     0.172 C 
ATOM    177  OE1 GLU d   1     -41.588 116.325 -17.570  0.00  0.00    -0.648 OA
ATOM    178  OE2 GLU d   1     -40.090 114.755 -17.971  0.00  0.00    -0.648 OA
ENDBRANCH 173 176
ENDBRANCH 170 173
ENDBRANCH  79 170
BRANCH  85 179
ATOM    179  CB  VAL d   1     -37.614 112.965 -12.632  0.00  0.00    -0.033 C 
ATOM    180  H47 VAL d   1     -37.246 113.138 -13.654  0.00  0.00     0.042 H 
BRANCH 179 181
ATOM    181  CG1 VAL d   1     -36.559 113.438 -11.663  0.00  0.00    -0.071 C 
ATOM    182  H48 VAL d   1     -35.637 112.858 -11.813  0.00  0.00     0.028 H 
ATOM    183  H49 VAL d   1     -36.917 113.296 -10.633  0.00  0.00     0.028 H 
ATOM    184  H50 VAL d   1     -36.354 114.505 -11.836  0.00  0.00     0.028 H 
ENDBRANCH 179 181
BRANCH 179 185
ATOM    185  CG2 VAL d   1     -37.873 111.463 -12.461  0.00  0.00    -0.071 C 
ATOM    186  H51 VAL d   1     -38.644 111.140 -13.176  0.00  0.00     0.028 H 
ATOM    187  H52 VAL d   1     -38.218 111.265 -11.435  0.00  0.00     0.028 H 
ATOM    188  H53 VAL d   1     -36.943 110.907 -12.649  0.00  0.00     0.028 H 
ENDBRANCH 179 185
ENDBRANCH  85 179
BRANCH  91 189
ATOM    189  CB  ASP d   1     -36.738 117.517 -11.418  0.00  0.00     0.043 C 
ATOM    190  H56 ASP d   1     -36.292 116.960 -12.255  0.00  0.00     0.052 H 
ATOM    191  H57 ASP d   1     -36.475 117.026 -10.469  0.00  0.00     0.052 H 
BRANCH 189 192
ATOM    192  CG  ASP d   1     -36.153 118.909 -11.410  0.00  0.00     0.175 C 
ATOM    193  OD1 ASP d   1     -36.884 119.851 -11.154  0.00  0.00    -0.648 OA
ATOM    194  OD2 ASP d   1     -34.921 119.080 -11.626  0.00  0.00    -0.648 OA
ENDBRANCH 189 192
ENDBRANCH  91 189
BRANCH  19 195
ATOM    195  C   CYS d   1     -41.814 124.188 -20.244  0.00  0.00     0.241 C 
ATOM    196  O   CYS d   1     -40.758 124.822 -20.179  0.00  0.00    -0.271 OA
ATOM    197  N   GLY d   1     -42.964 124.733 -20.626  0.00  0.00    -0.351 N 
ATOM    198 2H11 GLY d   1     -43.802 124.192 -20.552  0.00  0.00     0.163 HD
BRANCH 197 199
ATOM    199  CA  GLY d   1     -43.048 126.090 -21.148  0.00  0.00     0.069 C 
ATOM    200 3H11 GLY d   1     -42.102 126.611 -20.938  0.00  0.00     0.078 H 
ATOM    201 4H11 GLY d   1     -43.875 126.614 -20.646  0.00  0.00     0.078 H 
BRANCH 199 202
ATOM    202  C   GLY d   1     -43.296 126.105 -22.652  0.00  0.00     0.233 C 
ATOM    203  O   GLY d   1     -43.622 127.150 -23.223  0.00  0.00    -0.272 OA
ATOM    204  N   NH2 d   1     -43.149 124.949 -23.298  0.00  0.00    -0.369 N 
ATOM    205 5H11 NH2 d   1     -43.300 124.905 -24.285  0.00  0.00     0.159 HD
ATOM    206 6H11 NH2 d   1     -42.888 124.125 -22.795  0.00  0.00     0.159 HD
ENDBRANCH 199 202
ENDBRANCH 197 199
ENDBRANCH  19 195
BRANCH  59 207
ATOM    207  CB  ARG d   1     -40.427 123.225 -13.222  0.00  0.00    -0.036 C 
ATOM    208  H64 ARG d   1     -40.082 124.249 -13.428  0.00  0.00     0.036 H 
ATOM    209  H65 ARG d   1     -40.261 122.989 -12.161  0.00  0.00     0.036 H 
BRANCH 207 210
ATOM    210  CG  ARG d   1     -41.911 123.151 -13.506  0.00  0.00    -0.048 C 
ATOM    211  H66 ARG d   1     -42.273 122.132 -13.306  0.00  0.00     0.035 H 
ATOM    212  H67 ARG d   1     -42.097 123.406 -14.560  0.00  0.00     0.035 H 
BRANCH 210 213
ATOM    213  CD  ARG d   1     -42.650 124.143 -12.601  0.00  0.00     0.009 C 
ATOM    214  H68 ARG d   1     -42.225 125.145 -12.758  0.00  0.00     0.064 H 
ATOM    215  H69 ARG d   1     -42.501 123.841 -11.554  0.00  0.00     0.064 H 
BRANCH 213 216
ATOM    216  NE  ARG d   1     -44.098 124.197 -12.874  0.00  0.00    -0.227 N 
ATOM    217  CZ  ARG d   1     -44.660 124.793 -13.926  0.00  0.00     0.665 C 
ATOM    218  NH1 ARG d   1     -45.967 124.717 -14.082  0.00  0.00    -0.235 N 
ATOM    219  NH2 ARG d   1     -43.931 125.410 -14.843  0.00  0.00    -0.235 N 
ATOM    220  H71 ARG d   1     -46.417 125.172 -14.889  0.00  0.00     0.174 HD
ATOM    221  H72 ARG d   1     -46.538 124.203 -13.396  0.00  0.00     0.174 HD
ATOM    222  H73 ARG d   1     -42.909 125.475 -14.731  0.00  0.00     0.174 HD
ATOM    223  H74 ARG d   1     -44.386 125.825 -15.669  0.00  0.00     0.174 HD
ATOM    224  H70 ARG d   1     -44.725 123.738 -12.198  0.00  0.00     0.177 HD
ENDBRANCH 213 216
ENDBRANCH 210 213
ENDBRANCH 207 210
ENDBRANCH  59 207
BRANCH   2 225
ATOM    225  CB  ALA d   1     -39.653 119.443 -22.824  0.00  0.00    -0.049 C 
ATOM    226 5H10 ALA d   1     -40.306 119.856 -23.607  0.00  0.00     0.030 H 
ATOM    227 6H10 ALA d   1     -40.146 118.581 -22.352  0.00  0.00     0.030 H 
ATOM    228 7H10 ALA d   1     -38.702 119.121 -23.273  0.00  0.00     0.030 H 
ENDBRANCH   2 225
BRANCH  47 229
ATOM    229  CB  SER d   1     -37.882 120.172 -17.656  0.00  0.00     0.044 C 
ATOM    230 0H10 SER d   1     -37.275 119.999 -16.755  0.00  0.00     0.077 H 
ATOM    231 1H10 SER d   1     -38.658 119.396 -17.730  0.00  0.00     0.077 H 
BRANCH 229 232
ATOM    232  OG  SER d   1     -38.508 121.424 -17.543  0.00  0.00    -0.398 OA
ATOM    233 2H10 SER d   1     -39.058 121.433 -16.769  0.00  0.00     0.209 HD
ENDBRANCH 229 232
ENDBRANCH  47 229
BRANCH  63 234
ATOM    234  CB  ARG d   1     -31.841 123.391 -15.695  0.00  0.00    -0.036 C 
ATOM    235  H80 ARG d   1     -31.991 124.185 -14.948  0.00  0.00     0.036 H 
ATOM    236  H81 ARG d   1     -31.346 123.811 -16.583  0.00  0.00     0.036 H 
BRANCH 234 237
ATOM    237  CG  ARG d   1     -30.949 122.363 -15.108  0.00  0.00    -0.048 C 
ATOM    238  H82 ARG d   1     -30.694 121.616 -15.874  0.00  0.00     0.035 H 
ATOM    239  H83 ARG d   1     -31.459 121.868 -14.269  0.00  0.00     0.035 H 
BRANCH 237 240
ATOM    240  CD  ARG d   1     -29.693 123.027 -14.613  0.00  0.00     0.009 C 
ATOM    241  H84 ARG d   1     -29.106 122.294 -14.040  0.00  0.00     0.064 H 
ATOM    242  H85 ARG d   1     -29.970 123.867 -13.959  0.00  0.00     0.064 H 
BRANCH 240 243
ATOM    243  NE  ARG d   1     -28.876 123.531 -15.705  0.00  0.00    -0.227 N 
ATOM    244  CZ  ARG d   1     -27.638 123.990 -15.551  0.00  0.00     0.665 C 
ATOM    245  NH1 ARG d   1     -27.088 123.991 -14.349  0.00  0.00    -0.235 N 
ATOM    246  NH2 ARG d   1     -26.934 124.439 -16.609  0.00  0.00    -0.235 N 
ATOM    247  H87 ARG d   1     -26.129 124.345 -14.222  0.00  0.00     0.174 HD
ATOM    248  H88 ARG d   1     -27.618 123.638 -13.540  0.00  0.00     0.174 HD
ATOM    249  H89 ARG d   1     -27.359 124.440 -17.547  0.00  0.00     0.174 HD
ATOM    250  H90 ARG d   1     -25.971 124.781 -16.479  0.00  0.00     0.174 HD
ATOM    251  H86 ARG d   1     -29.280 123.532 -16.653  0.00  0.00     0.177 HD
ENDBRANCH 240 243
ENDBRANCH 237 240
ENDBRANCH 234 237
ENDBRANCH  63 234
BRANCH 104 252
ATOM    252  CB  DBB d   1     -32.500 121.096 -20.431  0.00  0.00    -0.041 C 
ATOM    253  H93 DBB d   1     -32.166 120.194 -20.965  0.00  0.00     0.036 H 
ATOM    254  H94 DBB d   1     -31.626 121.706 -20.159  0.00  0.00     0.036 H 
BRANCH 252 255
ATOM    255  CG  DBB d   1     -33.432 121.907 -21.329  0.00  0.00    -0.074 C 
ATOM    256  H95 DBB d   1     -32.895 122.202 -22.243  0.00  0.00     0.027 H 
ATOM    257  H96 DBB d   1     -33.766 122.807 -20.793  0.00  0.00     0.027 H 
ATOM    258  H97 DBB d   1     -34.306 121.295 -21.598  0.00  0.00     0.027 H 
ENDBRANCH 252 255
ENDBRANCH 104 252
TORSDOF 37
