REMARK  12 active torsions:
REMARK  status: ('A' for Active; 'I' for Inactive)
REMARK    1  A    between atoms: CAM_13  and  CAO_15 
REMARK    2  A    between atoms: SAY_25  and  CAM_13 
REMARK    3  A    between atoms: CAP_16  and  CAN_14 
REMARK    4  A    between atoms: CAN_14  and  SAY_25 
REMARK    5  A    between atoms: CAO_15  and  CBF_32 
REMARK    6  A    between atoms: CBG_33  and  CAP_16 
REMARK    7  A    between atoms: CBB_28  and  CAQ_17 
REMARK    8  A    between atoms: CAQ_17  and  CBD_30 
REMARK    9  A    between atoms: CBC_29  and  CAR_18 
REMARK   10  A    between atoms: CAR_18  and  CBE_31 
REMARK       I    between atoms: NAW_23  and  CBB_28 
REMARK   11  A    between atoms: CBH_34  and  NAW_23 
REMARK       I    between atoms: NAX_24  and  CBC_29 
REMARK   12  A    between atoms: NAX_24  and  CBI_35 
ROOT
ATOM      1  SAY 04A d   1      20.497 -23.989  -1.182  0.00  0.00    -0.168 SA
ENDROOT
BRANCH   1   2
ATOM      2  CAM 04A d   1      21.588 -23.944   0.198  0.00  0.00    -0.018 C 
ATOM      3  H11 04A d   1      21.035 -23.640   1.099  0.00  0.00     0.049 H 
ATOM      4  H12 04A d   1      22.029 -24.939   0.356  0.00  0.00     0.049 H 
BRANCH   2   5
ATOM      5  CAO 04A d   1      22.665 -22.955  -0.090  0.00  0.00    -0.009 C 
ATOM      6  H15 04A d   1      22.957 -22.438   0.836  0.00  0.00     0.044 H 
ATOM      7  H16 04A d   1      22.310 -22.218  -0.825  0.00  0.00     0.044 H 
BRANCH   5   8
ATOM      8  CBF 04A d   1      23.826 -23.700  -0.641  0.00  0.00     0.101 A 
ATOM      9  NAS 04A d   1      24.781 -24.304   0.124  0.00  0.00    -0.145 NA
ATOM     10  NAU 04A d   1      25.786 -24.954  -0.619  0.00  0.00    -0.123 NA
ATOM     11  CBH 04A d   1      25.580 -24.849  -1.959  0.00  0.00     0.196 A 
ATOM     12  SAZ 04A d   1      24.159 -23.936  -2.324  0.00  0.00    -0.033 SA
BRANCH  11  13
ATOM     13  NAW 04A d   1      26.431 -25.404  -2.971  0.00  0.00    -0.304 N 
ATOM     14  CBB 04A d   1      27.030 -26.708  -2.891  0.00  0.00     0.227 C 
ATOM     15  OAA 04A d   1      27.746 -27.107  -3.793  0.00  0.00    -0.273 OA
ATOM     16  H23 04A d   1      26.619 -24.850  -3.782  0.00  0.00     0.171 HD
BRANCH  14  17
ATOM     17  CAQ 04A d   1      26.808 -27.615  -1.730  0.00  0.00     0.033 C 
ATOM     18  H19 04A d   1      25.765 -27.965  -1.725  0.00  0.00     0.054 H 
ATOM     19  H20 04A d   1      27.019 -27.079  -0.793  0.00  0.00     0.054 H 
BRANCH  17  20
ATOM     20  CBD 04A d   1      27.729 -28.778  -1.864  0.00  0.00    -0.050 A 
ATOM     21  CAI 04A d   1      28.989 -28.715  -1.345  0.00  0.00    -0.076 A 
ATOM     22  CAE 04A d   1      29.907 -29.882  -1.484  0.00  0.00    -0.082 A 
ATOM     23  H7  04A d   1      29.322 -27.819  -0.833  0.00  0.00     0.084 H 
ATOM     24  CAC 04A d   1      29.482 -31.009  -2.126  0.00  0.00    -0.083 A 
ATOM     25  H3  04A d   1      30.910 -29.835  -1.076  0.00  0.00     0.083 H 
ATOM     26  CAF 04A d   1      28.107 -31.080  -2.696  0.00  0.00    -0.082 A 
ATOM     27  H1  04A d   1      30.149 -31.858  -2.222  0.00  0.00     0.083 H 
ATOM     28  CAJ 04A d   1      27.270 -30.011  -2.568  0.00  0.00    -0.076 A 
ATOM     29  H4  04A d   1      27.774 -31.975  -3.209  0.00  0.00     0.083 H 
ATOM     30  H8  04A d   1      26.268 -30.057  -2.979  0.00  0.00     0.084 H 
ENDBRANCH  17  20
ENDBRANCH  14  17
ENDBRANCH  11  13
ENDBRANCH   5   8
ENDBRANCH   2   5
ENDBRANCH   1   2
BRANCH   1  31
ATOM     31  CAN 04A d   1      19.771 -22.389  -1.300  0.00  0.00    -0.018 C 
ATOM     32  H13 04A d   1      20.558 -21.632  -1.435  0.00  0.00     0.049 H 
ATOM     33  H14 04A d   1      19.080 -22.356  -2.155  0.00  0.00     0.049 H 
BRANCH  31  34
ATOM     34  CAP 04A d   1      19.025 -22.122  -0.038  0.00  0.00    -0.009 C 
ATOM     35  H17 04A d   1      18.476 -21.172  -0.117  0.00  0.00     0.044 H 
ATOM     36  H18 04A d   1      19.723 -22.073   0.811  0.00  0.00     0.044 H 
BRANCH  34  37
ATOM     37  CBG 04A d   1      18.073 -23.250   0.146  0.00  0.00     0.101 A 
ATOM     38  NAT 04A d   1      17.143 -23.617  -0.782  0.00  0.00    -0.145 NA
ATOM     39  NAV 04A d   1      16.354 -24.720  -0.391  0.00  0.00    -0.123 NA
ATOM     40  CBI 04A d   1      16.686 -25.193   0.841  0.00  0.00     0.196 A 
ATOM     41  SBA 04A d   1      17.981 -24.283   1.529  0.00  0.00    -0.033 SA
BRANCH  40  42
ATOM     42  NAX 04A d   1      16.057 -26.306   1.488  0.00  0.00    -0.304 N 
ATOM     43  CBC 04A d   1      14.898 -26.957   0.951  0.00  0.00     0.227 C 
ATOM     44  OAB 04A d   1      14.382 -26.593  -0.093  0.00  0.00    -0.273 OA
ATOM     45  H24 04A d   1      16.442 -26.642   2.348  0.00  0.00     0.171 HD
BRANCH  43  46
ATOM     46  CAR 04A d   1      14.304 -28.114   1.674  0.00  0.00     0.033 C 
ATOM     47  H21 04A d   1      13.271 -27.878   1.969  0.00  0.00     0.054 H 
ATOM     48  H22 04A d   1      14.900 -28.338   2.571  0.00  0.00     0.054 H 
BRANCH  46  49
ATOM     49  CBE 04A d   1      14.310 -29.289   0.760  0.00  0.00    -0.050 A 
ATOM     50  CAK 04A d   1      13.030 -29.842   0.230  0.00  0.00    -0.076 A 
ATOM     51  CAG 04A d   1      13.049 -30.920  -0.607  0.00  0.00    -0.082 A 
ATOM     52  H9  04A d   1      12.086 -29.388   0.509  0.00  0.00     0.084 H 
ATOM     53  CAD 04A d   1      14.350 -31.539  -0.990  0.00  0.00    -0.083 A 
ATOM     54  H5  04A d   1      12.120 -31.325  -0.992  0.00  0.00     0.083 H 
ATOM     55  CAH 04A d   1      15.522 -31.032  -0.508  0.00  0.00    -0.082 A 
ATOM     56  H2  04A d   1      14.365 -32.395  -1.654  0.00  0.00     0.083 H 
ATOM     57  CAL 04A d   1      15.500 -29.856   0.408  0.00  0.00    -0.076 A 
ATOM     58  H6  04A d   1      16.466 -31.483  -0.790  0.00  0.00     0.083 H 
ATOM     59  H10 04A d   1      16.429 -29.452   0.794  0.00  0.00     0.084 H 
ENDBRANCH  46  49
ENDBRANCH  43  46
ENDBRANCH  40  42
ENDBRANCH  34  37
ENDBRANCH  31  34
ENDBRANCH   1  31
TORSDOF 12
