REMARK  7 active torsions:
REMARK  status: ('A' for Active; 'I' for Inactive)
REMARK    1  A    between atoms: CBG_2  and  CBB_5 
REMARK    2  A    between atoms: CG_10  and  CB_11 
REMARK    3  A    between atoms: CB_11  and  CA_12 
REMARK    4  A    between atoms: CA_12  and  C_13 
REMARK    5  A    between atoms: CA_12  and  N_20 
REMARK       I    between atoms: C_13  and  NBF_15 
REMARK    6  A    between atoms: N_20  and  SBH_21 
REMARK    7  A    between atoms: SBH_21  and  CBC_24 
ROOT
ATOM      1  CA  1L8 d   1     -14.030  -0.402  -6.371  0.00  0.00     0.101 C 
ATOM      2  H7  1L8 d   1     -13.254   0.109  -6.960  0.00  0.00     0.089 H 
ENDROOT
BRANCH   1   3
ATOM      3  CB  1L8 d   1     -14.791  -1.376  -7.296  0.00  0.00    -0.013 C 
ATOM      4  H5  1L8 d   1     -14.119  -2.208  -7.553  0.00  0.00     0.043 H 
ATOM      5  H6  1L8 d   1     -15.664  -1.764  -6.750  0.00  0.00     0.043 H 
BRANCH   3   6
ATOM      6  CG  1L8 d   1     -15.241  -0.782  -8.490  0.00  0.00    -0.055 A 
ATOM      7  CD2 1L8 d   1     -16.522  -0.205  -8.552  0.00  0.00    -0.062 A 
ATOM      8  CBB 1L8 d   1     -17.003   0.387  -9.723  0.00  0.00     0.048 A 
ATOM      9  H1  1L8 d   1     -17.152  -0.220  -7.670  0.00  0.00     0.085 H 
ATOM     10  CAJ 1L8 d   1     -16.171   0.390 -10.850  0.00  0.00    -0.068 A 
ATOM     11  CAH 1L8 d   1     -14.887  -0.189 -10.802  0.00  0.00    -0.082 A 
ATOM     12  H2  1L8 d   1     -16.519   0.844 -11.771  0.00  0.00     0.084 H 
ATOM     13  CD1 1L8 d   1     -14.425  -0.773  -9.625  0.00  0.00    -0.077 A 
ATOM     14  H3  1L8 d   1     -14.257  -0.180 -11.684  0.00  0.00     0.083 H 
ATOM     15  H4  1L8 d   1     -13.437  -1.218  -9.589  0.00  0.00     0.084 H 
BRANCH   8  16
ATOM     16  CBG 1L8 d   1     -18.315   0.960  -9.773  0.00  0.00     0.417 C 
ATOM     17  FAE 1L8 d   1     -19.135   0.504  -8.755  0.00  0.00    -0.166 F 
ATOM     18  FAF 1L8 d   1     -18.263   2.242  -9.707  0.00  0.00    -0.166 F 
ATOM     19  FAG 1L8 d   1     -18.866   0.633 -10.836  0.00  0.00    -0.166 F 
ENDBRANCH   8  16
ENDBRANCH   3   6
ENDBRANCH   1   3
BRANCH   1  20
ATOM     20  C   1L8 d   1     -13.371  -1.168  -5.213  0.00  0.00     0.243 C 
ATOM     21  O   1L8 d   1     -13.866  -1.129  -4.089  0.00  0.00    -0.271 OA
ATOM     22  NBF 1L8 d   1     -12.242  -1.848  -5.492  0.00  0.00    -0.350 N 
ATOM     23  CAR 1L8 d   1     -11.559  -1.985  -6.807  0.00  0.00    -0.002 C 
ATOM     24  CAS 1L8 d   1     -11.503  -2.623  -4.471  0.00  0.00    -0.002 C 
ATOM     25  CAN 1L8 d   1     -10.195  -2.554  -6.506  0.00  0.00    -0.049 C 
ATOM     26  H8  1L8 d   1     -11.465  -1.003  -7.294  0.00  0.00     0.064 H 
ATOM     27  H9  1L8 d   1     -12.122  -2.667  -7.462  0.00  0.00     0.064 H 
ATOM     28  CAO 1L8 d   1     -10.381  -3.338  -5.218  0.00  0.00    -0.049 C 
ATOM     29  H10 1L8 d   1      -9.460  -1.747  -6.367  0.00  0.00     0.035 H 
ATOM     30  H11 1L8 d   1      -9.863  -3.216  -7.319  0.00  0.00     0.035 H 
ATOM     31  H12 1L8 d   1      -9.455  -3.329  -4.624  0.00  0.00     0.035 H 
ATOM     32  H13 1L8 d   1     -10.665  -4.378  -5.437  0.00  0.00     0.035 H 
ATOM     33  H14 1L8 d   1     -12.169  -3.355  -3.990  0.00  0.00     0.064 H 
ATOM     34  H15 1L8 d   1     -11.086  -1.950  -3.708  0.00  0.00     0.064 H 
ENDBRANCH   1  20
BRANCH   1  35
ATOM     35  N   1L8 d   1     -14.939   0.609  -5.782  0.00  0.00    -0.301 N 
ATOM     36  H16 1L8 d   1     -15.822   0.385  -5.369  0.00  0.00     0.173 HD
BRANCH  35  37
ATOM     37  SBH 1L8 d   1     -14.347   2.129  -5.879  0.00  0.00     0.259 S 
ATOM     38  OAB 1L8 d   1     -12.844   2.168  -5.554  0.00  0.00    -0.201 OA
ATOM     39  OAC 1L8 d   1     -15.096   2.975  -4.849  0.00  0.00    -0.201 OA
BRANCH  37  40
ATOM     40  CBC 1L8 d   1     -14.598   2.846  -7.481  0.00  0.00     0.083 A 
ATOM     41  CAM 1L8 d   1     -15.646   3.746  -7.721  0.00  0.00    -0.053 A 
ATOM     42  CBA 1L8 d   1     -15.839   4.300  -8.992  0.00  0.00    -0.044 A 
ATOM     43  H17 1L8 d   1     -16.315   4.016  -6.912  0.00  0.00     0.086 H 
ATOM     44  CAQ 1L8 d   1     -16.909   5.194  -9.177  0.00  0.00    -0.018 C 
ATOM     45  CBD 1L8 d   1     -14.976   3.940 -10.044  0.00  0.00     0.012 A 
ATOM     46  CAP 1L8 d   1     -17.309   5.247 -10.651  0.00  0.00     0.086 C 
ATOM     47  H18 1L8 d   1     -16.604   6.198  -8.848  0.00  0.00     0.042 H 
ATOM     48  H19 1L8 d   1     -17.770   4.858  -8.580  0.00  0.00     0.042 H 
ATOM     49  NAV 1L8 d   1     -16.118   5.535 -11.476  0.00  0.00    -0.071 N 
ATOM     50  H20 1L8 d   1     -18.058   6.039 -10.799  0.00  0.00     0.076 H 
ATOM     51  H21 1L8 d   1     -17.736   4.278 -10.950  0.00  0.00     0.076 H 
ATOM     52  CAT 1L8 d   1     -15.117   4.453 -11.349  0.00  0.00     0.108 C 
ATOM     53  H22 1L8 d   1     -15.707   6.403 -11.171  0.00  0.00     0.277 HD
ATOM     54  H23 1L8 d   1     -16.396   5.616 -12.441  0.00  0.00     0.277 HD
ATOM     55  H24 1L8 d   1     -14.142   4.847 -11.671  0.00  0.00     0.083 H 
ATOM     56  H25 1L8 d   1     -15.416   3.628 -12.012  0.00  0.00     0.083 H 
ATOM     57  CAZ 1L8 d   1     -13.925   3.045  -9.787  0.00  0.00     0.126 A 
ATOM     58  FAD 1L8 d   1     -13.112   2.696 -10.721  0.00  0.00    -0.205 F 
ATOM     59  CAL 1L8 d   1     -13.744   2.503  -8.522  0.00  0.00    -0.022 A 
ATOM     60  H26 1L8 d   1     -12.931   1.808  -8.345  0.00  0.00     0.090 H 
ENDBRANCH  37  40
ENDBRANCH  35  37
ENDBRANCH   1  35
TORSDOF 7
