REMARK  6 active torsions:
REMARK  status: ('A' for Active; 'I' for Inactive)
REMARK    1  A    between atoms: C10_7  and  C9_8 
REMARK    2  A    between atoms: C8_9  and  C11_10 
REMARK    3  A    between atoms: C11_10  and  O13_11 
REMARK    4  A    between atoms: C11_10  and  C12_13 
REMARK    5  A    between atoms: O13_11  and  C14_12 
REMARK    6  A    between atoms: C7_24  and  C16_25 
ROOT
ATOM      1  C9  0L9 d   1     -26.499  15.023 -16.869  0.00  0.00    -0.002 A 
ATOM      2  C8  0L9 d   1     -25.774  13.830 -16.724  0.00  0.00     0.017 A 
ATOM      3  C5  0L9 d   1     -25.886  16.228 -16.519  0.00  0.00     0.006 A 
ATOM      4  C6  0L9 d   1     -26.557  17.457 -16.618  0.00  0.00    -0.053 A 
ATOM      5  C1  0L9 d   1     -25.841  18.608 -16.264  0.00  0.00     0.011 A 
ATOM      6 BR   0L9 d   1     -26.706  20.266 -16.377  0.00  0.00    -0.051 Br
ATOM      7  C2  0L9 d   1     -24.529  18.603 -15.836  0.00  0.00    -0.064 A 
ATOM      8  C3  0L9 d   1     -23.861  17.397 -15.761  0.00  0.00    -0.053 A 
ATOM      9  C4  0L9 d   1     -24.563  16.228 -16.103  0.00  0.00     0.068 A 
ATOM     10  N   0L9 d   1     -23.880  15.082 -15.994  0.00  0.00    -0.253 NA
ATOM     11  C7  0L9 d   1     -24.429  13.895 -16.291  0.00  0.00     0.041 A 
ATOM     12  H9  0L9 d   1     -27.586  17.513 -16.954  0.00  0.00     0.087 H 
ATOM     13  H10 0L9 d   1     -24.033  19.528 -15.564  0.00  0.00     0.085 H 
ATOM     14  H11 0L9 d   1     -22.824  17.353 -15.447  0.00  0.00     0.087 H 
ENDROOT
BRANCH   1  15
ATOM     15  C10 0L9 d   1     -27.923  14.984 -17.312  0.00  0.00    -0.024 A 
ATOM     16  C21 0L9 d   1     -28.234  14.694 -18.632  0.00  0.00    -0.071 A 
ATOM     17  C20 0L9 d   1     -29.564  14.603 -19.032  0.00  0.00    -0.061 A 
ATOM     18  H2  0L9 d   1     -27.440  14.538 -19.353  0.00  0.00     0.084 H 
ATOM     19  C19 0L9 d   1     -30.531  14.850 -18.054  0.00  0.00     0.034 A 
ATOM     20  H1  0L9 d   1     -29.836  14.353 -20.051  0.00  0.00     0.086 H 
ATOM     21 CL1  0L9 d   1     -32.218  14.787 -18.514  0.00  0.00    -0.084 Cl
ATOM     22  C18 0L9 d   1     -30.258  15.124 -16.732  0.00  0.00    -0.061 A 
ATOM     23  C17 0L9 d   1     -28.928  15.202 -16.352  0.00  0.00    -0.071 A 
ATOM     24  H3  0L9 d   1     -31.056  15.273 -16.014  0.00  0.00     0.086 H 
ATOM     25  H4  0L9 d   1     -28.664  15.429 -15.325  0.00  0.00     0.084 H 
ENDBRANCH   1  15
BRANCH   2  26
ATOM     26  C11 0L9 d   1     -26.401  12.530 -17.091  0.00  0.00     0.149 C 
ATOM     27  H5  0L9 d   1     -27.478  12.694 -17.241  0.00  0.00     0.108 H 
BRANCH  26  28
ATOM     28  O13 0L9 d   1     -26.249  11.580 -16.026  0.00  0.00    -0.375 OA
BRANCH  28  29
ATOM     29  C14 0L9 d   1     -27.333  11.729 -15.073  0.00  0.00     0.006 C 
ATOM     30  H6  0L9 d   1     -27.210  10.998 -14.260  0.00  0.00     0.066 H 
ATOM     31  H7  0L9 d   1     -28.294  11.555 -15.580  0.00  0.00     0.066 H 
ATOM     32  H8  0L9 d   1     -27.317  12.747 -14.656  0.00  0.00     0.066 H 
ENDBRANCH  28  29
ENDBRANCH  26  28
BRANCH  26  33
ATOM     33  C12 0L9 d   1     -25.811  12.041 -18.412  0.00  0.00     0.208 C 
ATOM     34  O1  0L9 d   1     -25.597  10.816 -18.566  0.00  0.00    -0.646 OA
ATOM     35  O2  0L9 d   1     -25.574  12.872 -19.345  0.00  0.00    -0.646 OA
ENDBRANCH  26  33
ENDBRANCH   2  26
BRANCH  11  36
ATOM     36  C16 0L9 d   1     -23.476  12.748 -16.122  0.00  0.00    -0.035 C 
ATOM     37  H12 0L9 d   1     -22.505  13.127 -15.771  0.00  0.00     0.035 H 
ATOM     38  H13 0L9 d   1     -23.343  12.236 -17.087  0.00  0.00     0.035 H 
ATOM     39  H14 0L9 d   1     -23.882  12.040 -15.384  0.00  0.00     0.035 H 
ENDBRANCH  11  36
TORSDOF 6
