REMARK  11 active torsions:
REMARK  status: ('A' for Active; 'I' for Inactive)
REMARK    1  A    between atoms: CAJ_2  and  CAK_3 
REMARK    2  A    between atoms: CAK_3  and  OAQ_4 
REMARK    3  A    between atoms: OAQ_4  and  CAZ_5 
REMARK    4  A    between atoms: CAY_7  and  OAP_8 
REMARK    5  A    between atoms: OAP_8  and  CAA_9 
REMARK    6  A    between atoms: CAW_12  and  CBA_13 
REMARK    7  A    between atoms: CAV_17  and  CAL_18 
REMARK    8  A    between atoms: CAL_18  and  SAR_19 
REMARK    9  A    between atoms: SAR_19  and  C2_20 
REMARK   10  A    between atoms: C6_23  and  NAB_24 
REMARK   11  A    between atoms: C4_26  and  NAC_27 
ROOT
ATOM      1  CBA 1NM d   1     -33.940  12.009  -4.318  0.00  0.00     0.108 A 
ATOM      2  NAO 1NM d   1     -32.753  11.876  -3.725  0.00  0.00    -0.244 NA
ATOM      3  SAS 1NM d   1     -33.791  12.973  -5.644  0.00  0.00    -0.079 SA
ATOM      4  CAG 1NM d   1     -32.139  13.220  -5.465  0.00  0.00    -0.018 A 
ATOM      5  CAV 1NM d   1     -31.770  12.541  -4.368  0.00  0.00     0.052 A 
ATOM      6  H   1NM d   1     -31.495  13.814  -6.112  0.00  0.00     0.098 H 
ENDROOT
BRANCH   1   7
ATOM      7  CAW 1NM d   1     -35.094  11.506  -3.901  0.00  0.00     0.003 A 
ATOM      8  CAI 1NM d   1     -35.185  10.485  -2.953  0.00  0.00    -0.035 A 
ATOM      9  CAZ 1NM d   1     -36.471  10.071  -2.564  0.00  0.00     0.103 A 
ATOM     10  H   1NM d   1     -34.297  10.028  -2.532  0.00  0.00     0.089 H 
ATOM     11  CAY 1NM d   1     -37.616  10.649  -3.125  0.00  0.00     0.101 A 
ATOM     12  CAF 1NM d   1     -37.522  11.663  -4.070  0.00  0.00    -0.047 A 
ATOM     13  CAE 1NM d   1     -36.249  12.087  -4.442  0.00  0.00    -0.068 A 
ATOM     14  H   1NM d   1     -38.410  12.109  -4.503  0.00  0.00     0.087 H 
ATOM     15  H   1NM d   1     -36.149  12.886  -5.168  0.00  0.00     0.085 H 
BRANCH   9  16
ATOM     16  OAQ 1NM d   1     -36.703   9.082  -1.654  0.00  0.00    -0.346 OA
BRANCH  16  17
ATOM     17  CAK 1NM d   1     -35.803   9.018  -0.517  0.00  0.00     0.050 C 
ATOM     18  H   1NM d   1     -34.829   8.621  -0.839  0.00  0.00     0.078 H 
ATOM     19  H   1NM d   1     -35.668  10.025  -0.096  0.00  0.00     0.078 H 
BRANCH  17  20
ATOM     20  CAJ 1NM d   1     -36.412   8.090   0.549  0.00  0.00     0.078 C 
ATOM     21  FAD 1NM d   1     -35.910   8.444   2.014  0.00  0.00    -0.253 F 
ATOM     22  H   1NM d   1     -37.507   8.186   0.517  0.00  0.00     0.085 H 
ATOM     23  H   1NM d   1     -36.128   7.053   0.319  0.00  0.00     0.085 H 
ENDBRANCH  17  20
ENDBRANCH  16  17
ENDBRANCH   9  16
BRANCH  11  24
ATOM     24  OAP 1NM d   1     -38.816  10.182  -2.707  0.00  0.00    -0.353 OA
BRANCH  24  25
ATOM     25  CAA 1NM d   1     -39.894  10.862  -3.382  0.00  0.00     0.010 C 
ATOM     26  H   1NM d   1     -40.857  10.466  -3.026  0.00  0.00     0.066 H 
ATOM     27  H   1NM d   1     -39.809  10.699  -4.466  0.00  0.00     0.066 H 
ATOM     28  H   1NM d   1     -39.839  11.940  -3.168  0.00  0.00     0.066 H 
ENDBRANCH  24  25
ENDBRANCH  11  24
ENDBRANCH   1   7
BRANCH   5  29
ATOM     29  CAL 1NM d   1     -30.310  12.515  -3.874  0.00  0.00     0.025 C 
ATOM     30  H   1NM d   1     -30.302  12.661  -2.784  0.00  0.00     0.059 H 
ATOM     31  H   1NM d   1     -29.757  13.334  -4.358  0.00  0.00     0.059 H 
BRANCH  29  32
ATOM     32  SAR 1NM d   1     -29.476  10.925  -4.265  0.00  0.00    -0.084 SA
BRANCH  32  33
ATOM     33  C2  1NM d   1     -27.783  11.290  -4.134  0.00  0.00     0.192 A 
ATOM     34  N3  1NM d   1     -26.900  10.265  -4.237  0.00  0.00    -0.206 NA
ATOM     35  C4  1NM d   1     -25.590  10.468  -4.149  0.00  0.00     0.127 A 
ATOM     36  C5  1NM d   1     -25.124  11.768  -3.970  0.00  0.00     0.005 A 
ATOM     37  C6  1NM d   1     -26.060  12.816  -3.885  0.00  0.00     0.127 A 
ATOM     38  H   1NM d   1     -24.061  11.969  -3.897  0.00  0.00     0.095 H 
ATOM     39  N1  1NM d   1     -27.362  12.566  -3.965  0.00  0.00    -0.206 NA
BRANCH  35  40
ATOM     40  NAC 1NM d   1     -24.731   9.444  -4.264  0.00  0.00    -0.384 N 
ATOM     41  H   1NM d   1     -23.717   9.612  -4.194  0.00  0.00     0.157 HD
ATOM     42  H   1NM d   1     -25.085   8.490  -4.422  0.00  0.00     0.157 HD
ENDBRANCH  35  40
BRANCH  37  43
ATOM     43  NAB 1NM d   1     -25.672  14.066  -3.736  0.00  0.00    -0.384 N 
ATOM     44  H   1NM d   1     -24.669  14.290  -3.671  0.00  0.00     0.157 HD
ATOM     45  H   1NM d   1     -26.372  14.820  -3.684  0.00  0.00     0.157 HD
ENDBRANCH  37  43
ENDBRANCH  32  33
ENDBRANCH  29  32
ENDBRANCH   5  29
TORSDOF 11
