REMARK  13 active torsions:
REMARK  status: ('A' for Active; 'I' for Inactive)
REMARK    1  A    between atoms: CAJ_2  and  CAL_3 
REMARK    2  A    between atoms: CAL_3  and  OAR_4 
REMARK    3  A    between atoms: OAR_4  and  CAZ_5 
REMARK    4  A    between atoms: CAY_7  and  OAQ_8 
REMARK    5  A    between atoms: OAQ_8  and  CAB_9 
REMARK    6  A    between atoms: CAW_12  and  CBC_13 
REMARK    7  A    between atoms: CBB_16  and  CAK_17 
REMARK    8  A    between atoms: CAK_17  and  CAA_18 
REMARK    9  A    between atoms: CBA_19  and  CAM_20 
REMARK   10  A    between atoms: CAM_20  and  SAS_21 
REMARK   11  A    between atoms: SAS_21  and  C2_22 
REMARK   12  A    between atoms: C6_25  and  NAC_26 
REMARK   13  A    between atoms: C4_28  and  NAD_29 
ROOT
ATOM      1  CBC 1NN d   1     -33.489  11.846  -3.851  0.00  0.00     0.108 A 
ATOM      2  NAP 1NN d   1     -32.360  11.626  -3.148  0.00  0.00    -0.243 NA
ATOM      3  SAT 1NN d   1     -33.207  12.870  -5.086  0.00  0.00    -0.072 SA
ATOM      4  CBB 1NN d   1     -31.606  13.036  -4.761  0.00  0.00     0.010 A 
ATOM      5  CBA 1NN d   1     -31.298  12.269  -3.675  0.00  0.00     0.058 A 
ENDROOT
BRANCH   1   6
ATOM      6  CAW 1NN d   1     -34.700  11.378  -3.564  0.00  0.00     0.003 A 
ATOM      7  CAI 1NN d   1     -34.901  10.348  -2.635  0.00  0.00    -0.035 A 
ATOM      8  CAZ 1NN d   1     -36.237   9.982  -2.393  0.00  0.00     0.103 A 
ATOM      9  H   1NN d   1     -34.074   9.861  -2.132  0.00  0.00     0.089 H 
ATOM     10  CAY 1NN d   1     -37.318  10.602  -3.041  0.00  0.00     0.101 A 
ATOM     11  CAG 1NN d   1     -37.087  11.627  -3.954  0.00  0.00    -0.047 A 
ATOM     12  CAF 1NN d   1     -35.773  12.012  -4.190  0.00  0.00    -0.068 A 
ATOM     13  H   1NN d   1     -37.910  12.112  -4.467  0.00  0.00     0.087 H 
ATOM     14  H   1NN d   1     -35.577  12.826  -4.878  0.00  0.00     0.085 H 
BRANCH   8  15
ATOM     15  OAR 1NN d   1     -36.560   8.991  -1.534  0.00  0.00    -0.346 OA
BRANCH  15  16
ATOM     16  CAL 1NN d   1     -35.442   8.727  -0.687  0.00  0.00     0.050 C 
ATOM     17  H   1NN d   1     -34.705   8.105  -1.217  0.00  0.00     0.078 H 
ATOM     18  H   1NN d   1     -34.970   9.672  -0.379  0.00  0.00     0.078 H 
BRANCH  16  19
ATOM     19  CAJ 1NN d   1     -35.971   7.988   0.527  0.00  0.00     0.078 C 
ATOM     20  FAE 1NN d   1     -34.997   7.102   0.914  0.00  0.00    -0.253 F 
ATOM     21  H   1NN d   1     -36.180   8.699   1.340  0.00  0.00     0.085 H 
ATOM     22  H   1NN d   1     -36.893   7.447   0.268  0.00  0.00     0.085 H 
ENDBRANCH  16  19
ENDBRANCH  15  16
ENDBRANCH   8  15
BRANCH  10  23
ATOM     23  OAQ 1NN d   1     -38.584  10.176  -2.742  0.00  0.00    -0.353 OA
BRANCH  23  24
ATOM     24  CAB 1NN d   1     -39.613  10.969  -3.403  0.00  0.00     0.010 C 
ATOM     25  H   1NN d   1     -40.606  10.584  -3.128  0.00  0.00     0.066 H 
ATOM     26  H   1NN d   1     -39.483  10.903  -4.493  0.00  0.00     0.066 H 
ATOM     27  H   1NN d   1     -39.526  12.019  -3.087  0.00  0.00     0.066 H 
ENDBRANCH  23  24
ENDBRANCH  10  23
ENDBRANCH   1   6
BRANCH   5  28
ATOM     28  CAM 1NN d   1     -29.903  12.110  -3.028  0.00  0.00     0.025 C 
ATOM     29  H   1NN d   1     -30.014  12.287  -1.948  0.00  0.00     0.059 H 
ATOM     30  H   1NN d   1     -29.245  12.879  -3.460  0.00  0.00     0.059 H 
BRANCH  28  31
ATOM     31  SAS 1NN d   1     -29.063  10.460  -3.247  0.00  0.00    -0.084 SA
BRANCH  31  32
ATOM     32  C2  1NN d   1     -27.390  10.917  -3.599  0.00  0.00     0.192 A 
ATOM     33  N3  1NN d   1     -26.974  12.176  -3.539  0.00  0.00    -0.206 NA
ATOM     34  C4  1NN d   1     -25.694  12.496  -3.822  0.00  0.00     0.127 A 
ATOM     35  C5  1NN d   1     -24.756  11.515  -4.130  0.00  0.00     0.005 A 
ATOM     36  C6  1NN d   1     -25.221  10.213  -4.176  0.00  0.00     0.127 A 
ATOM     37  H   1NN d   1     -23.717  11.758  -4.323  0.00  0.00     0.095 H 
ATOM     38  N1  1NN d   1     -26.504   9.953  -3.920  0.00  0.00    -0.206 NA
BRANCH  34  39
ATOM     39  NAD 1NN d   1     -25.300  13.752  -3.753  0.00  0.00    -0.384 N 
ATOM     40  H   1NN d   1     -24.323  13.998  -3.969  0.00  0.00     0.157 HD
ATOM     41  H   1NN d   1     -25.969  14.488  -3.483  0.00  0.00     0.157 HD
ENDBRANCH  34  39
BRANCH  36  42
ATOM     42  NAC 1NN d   1     -24.417   9.202  -4.476  0.00  0.00    -0.384 N 
ATOM     43  H   1NN d   1     -23.422   9.377  -4.678  0.00  0.00     0.157 HD
ATOM     44  H   1NN d   1     -24.787   8.241  -4.507  0.00  0.00     0.157 HD
ENDBRANCH  36  42
ENDBRANCH  31  32
ENDBRANCH  28  31
ENDBRANCH   5  28
BRANCH   4  45
ATOM     45  CAK 1NN d   1     -30.703  13.903  -5.663  0.00  0.00    -0.036 C 
ATOM     46  H   1NN d   1     -31.340  14.501  -6.332  0.00  0.00     0.040 H 
ATOM     47  H   1NN d   1     -30.062  13.241  -6.263  0.00  0.00     0.040 H 
BRANCH  45  48
ATOM     48  CAA 1NN d   1     -29.809  14.854  -4.852  0.00  0.00    -0.072 C 
ATOM     49  H   1NN d   1     -29.187  15.447  -5.538  0.00  0.00     0.028 H 
ATOM     50  H   1NN d   1     -29.161  14.268  -4.184  0.00  0.00     0.028 H 
ATOM     51  H   1NN d   1     -30.439  15.528  -4.253  0.00  0.00     0.028 H 
ENDBRANCH  45  48
ENDBRANCH   4  45
TORSDOF 13
