REMARK  14 active torsions:
REMARK  status: ('A' for Active; 'I' for Inactive)
REMARK    1  A    between atoms: CAK_2  and  CAL_3 
REMARK    2  A    between atoms: CAL_3  and  OAS_4 
REMARK    3  A    between atoms: OAS_4  and  CBA_5 
REMARK    4  A    between atoms: CAZ_7  and  OAR_8 
REMARK    5  A    between atoms: OAR_8  and  CAB_9 
REMARK    6  A    between atoms: CAX_12  and  CBD_13 
REMARK    7  A    between atoms: CBC_16  and  CAM_17 
REMARK    8  A    between atoms: CAM_17  and  CAJ_18 
REMARK    9  A    between atoms: CAJ_18  and  CAA_19 
REMARK   10  A    between atoms: CBB_20  and  CAN_21 
REMARK   11  A    between atoms: CAN_21  and  SAT_22 
REMARK   12  A    between atoms: SAT_22  and  C2_23 
REMARK   13  A    between atoms: C6_26  and  NAC_27 
REMARK   14  A    between atoms: C4_29  and  NAD_30 
ROOT
ATOM      1  CBD 18V d   1     -32.789  12.386  -4.007  0.00  0.00     0.108 A 
ATOM      2  NAQ 18V d   1     -31.794  12.065  -3.187  0.00  0.00    -0.243 NA
ATOM      3  SAU 18V d   1     -32.167  13.322  -5.209  0.00  0.00    -0.072 SA
ATOM      4  CBC 18V d   1     -30.666  13.310  -4.692  0.00  0.00     0.010 A 
ATOM      5  CBB 18V d   1     -30.620  12.588  -3.571  0.00  0.00     0.058 A 
ENDROOT
BRANCH   1   6
ATOM      6  CAX 18V d   1     -34.074  12.034  -3.835  0.00  0.00     0.003 A 
ATOM      7  CAI 18V d   1     -34.436  10.936  -3.049  0.00  0.00    -0.035 A 
ATOM      8  CBA 18V d   1     -35.801  10.633  -2.884  0.00  0.00     0.103 A 
ATOM      9  H   18V d   1     -33.676  10.326  -2.573  0.00  0.00     0.089 H 
ATOM     10  CAZ 18V d   1     -36.786  11.409  -3.479  0.00  0.00     0.101 A 
ATOM     11  CAG 18V d   1     -36.437  12.519  -4.246  0.00  0.00    -0.047 A 
ATOM     12  CAF 18V d   1     -35.083  12.818  -4.415  0.00  0.00    -0.068 A 
ATOM     13  H   18V d   1     -37.201  13.138  -4.702  0.00  0.00     0.087 H 
ATOM     14  H   18V d   1     -34.804  13.680  -5.011  0.00  0.00     0.085 H 
BRANCH   8  15
ATOM     15  OAS 18V d   1     -36.301   9.601  -2.151  0.00  0.00    -0.346 OA
BRANCH  15  16
ATOM     16  CAL 18V d   1     -35.429   8.585  -1.663  0.00  0.00     0.050 C 
ATOM     17  H   18V d   1     -34.900   8.103  -2.498  0.00  0.00     0.078 H 
ATOM     18  H   18V d   1     -34.696   9.014  -0.964  0.00  0.00     0.078 H 
BRANCH  16  19
ATOM     19  CAK 18V d   1     -36.320   7.572  -0.943  0.00  0.00     0.078 C 
ATOM     20  FAE 18V d   1     -36.899   8.183   0.264  0.00  0.00    -0.253 F 
ATOM     21  H   18V d   1     -37.130   7.256  -1.616  0.00  0.00     0.085 H 
ATOM     22  H   18V d   1     -35.719   6.697  -0.656  0.00  0.00     0.085 H 
ENDBRANCH  16  19
ENDBRANCH  15  16
ENDBRANCH   8  15
BRANCH  10  23
ATOM     23  OAR 18V d   1     -38.075  11.007  -3.235  0.00  0.00    -0.353 OA
BRANCH  23  24
ATOM     24  CAB 18V d   1     -39.066  11.222  -4.263  0.00  0.00     0.010 C 
ATOM     25  H   18V d   1     -40.041  10.848  -3.917  0.00  0.00     0.066 H 
ATOM     26  H   18V d   1     -38.770  10.684  -5.176  0.00  0.00     0.066 H 
ATOM     27  H   18V d   1     -39.142  12.298  -4.480  0.00  0.00     0.066 H 
ENDBRANCH  23  24
ENDBRANCH  10  23
ENDBRANCH   1   6
BRANCH   5  28
ATOM     28  CAN 18V d   1     -29.347  12.325  -2.783  0.00  0.00     0.025 C 
ATOM     29  H   18V d   1     -29.587  12.230  -1.714  0.00  0.00     0.059 H 
ATOM     30  H   18V d   1     -28.643  13.158  -2.928  0.00  0.00     0.059 H 
BRANCH  28  31
ATOM     31  SAT 18V d   1     -28.601  10.782  -3.382  0.00  0.00    -0.084 SA
BRANCH  31  32
ATOM     32  C2  18V d   1     -26.920  11.196  -3.666  0.00  0.00     0.192 A 
ATOM     33  N3  18V d   1     -26.534  12.478  -3.721  0.00  0.00    -0.206 NA
ATOM     34  C4  18V d   1     -25.236  12.788  -3.927  0.00  0.00     0.127 A 
ATOM     35  C5  18V d   1     -24.279  11.785  -4.107  0.00  0.00     0.005 A 
ATOM     36  C6  18V d   1     -24.712  10.458  -4.059  0.00  0.00     0.127 A 
ATOM     37  H   18V d   1     -23.237  12.029  -4.278  0.00  0.00     0.095 H 
ATOM     38  N1  18V d   1     -26.024  10.207  -3.839  0.00  0.00    -0.206 NA
BRANCH  34  39
ATOM     39  NAD 18V d   1     -24.880  14.065  -3.978  0.00  0.00    -0.384 N 
ATOM     40  H   18V d   1     -23.894  14.319  -4.134  0.00  0.00     0.157 HD
ATOM     41  H   18V d   1     -25.590  14.803  -3.861  0.00  0.00     0.157 HD
ENDBRANCH  34  39
BRANCH  36  42
ATOM     42  NAC 18V d   1     -23.839   9.447  -4.212  0.00  0.00    -0.384 N 
ATOM     43  H   18V d   1     -22.843   9.648  -4.379  0.00  0.00     0.157 HD
ATOM     44  H   18V d   1     -24.167   8.472  -4.162  0.00  0.00     0.157 HD
ENDBRANCH  36  42
ENDBRANCH  31  32
ENDBRANCH  28  31
ENDBRANCH   5  28
BRANCH   4  45
ATOM     45  CAM 18V d   1     -29.486  14.013  -5.372  0.00  0.00    -0.033 C 
ATOM     46  H   18V d   1     -29.359  13.611  -6.388  0.00  0.00     0.041 H 
ATOM     47  H   18V d   1     -28.570  13.834  -4.790  0.00  0.00     0.041 H 
BRANCH  45  48
ATOM     48  CAJ 18V d   1     -29.752  15.522  -5.451  0.00  0.00    -0.064 C 
ATOM     49  H   18V d   1     -30.818  15.716  -5.260  0.00  0.00     0.032 H 
ATOM     50  H   18V d   1     -29.486  15.888  -6.454  0.00  0.00     0.032 H 
BRANCH  48  51
ATOM     51  CAA 18V d   1     -28.906  16.252  -4.402  0.00  0.00    -0.076 C 
ATOM     52  H   18V d   1     -29.100  17.333  -4.462  0.00  0.00     0.027 H 
ATOM     53  H   18V d   1     -27.840  16.060  -4.592  0.00  0.00     0.027 H 
ATOM     54  H   18V d   1     -29.171  15.887  -3.399  0.00  0.00     0.027 H 
ENDBRANCH  48  51
ENDBRANCH  45  48
ENDBRANCH   4  45
TORSDOF 14
