REMARK  5 active torsions:
REMARK  status: ('A' for Active; 'I' for Inactive)
REMARK    1  A    between atoms: C2_22  and  N2_6 
REMARK    2  A    between atoms: CAI_12  and  PAX_9 
REMARK    3  A    between atoms: CAO_13  and  CAI_12 
REMARK       I    between atoms: NAV_15  and  CAO_13 
REMARK    4  A    between atoms: CAT_18  and  OAE_19 
REMARK    5  A    between atoms: CAU_20  and  N9_21 
ROOT
ATOM      1  CAO 3ZE d   1       5.069 -18.395 -65.108  0.00  0.00     0.232 C 
ATOM      2  OAB 3ZE d   1       5.253 -17.389 -65.781  0.00  0.00    -0.273 OA
ATOM      3  NAV 3ZE d   1       3.972 -18.502 -64.146  0.00  0.00    -0.347 N 
ATOM      4  CAK 3ZE d   1       3.727 -19.692 -63.330  0.00  0.00     0.019 C 
ATOM      5  CAJ 3ZE d   1       2.974 -17.514 -63.812  0.00  0.00     0.023 C 
ATOM      6  CAT 3ZE d   1       2.319 -17.955 -62.562  0.00  0.00     0.072 C 
ATOM      7  CAU 3ZE d   1       3.103 -19.120 -62.088  0.00  0.00     0.061 C 
ATOM      8  H7  3ZE d   1       4.667 -20.213 -63.097  0.00  0.00     0.067 H 
ATOM      9  H8  3ZE d   1       3.039 -20.385 -63.836  0.00  0.00     0.067 H 
ATOM     10  H9  3ZE d   1       2.232 -17.441 -64.620  0.00  0.00     0.068 H 
ATOM     11  H10 3ZE d   1       3.450 -16.534 -63.662  0.00  0.00     0.068 H 
ATOM     12  H11 3ZE d   1       2.308 -17.147 -61.816  0.00  0.00     0.088 H 
ATOM     13  H13 3ZE d   1       3.909 -18.713 -61.460  0.00  0.00     0.080 H 
ENDROOT
BRANCH   7  14
ATOM     14  N9  3ZE d   1       2.458 -20.171 -61.249  0.00  0.00    -0.315 N 
ATOM     15  C4  3ZE d   1       2.460 -20.148 -59.855  0.00  0.00     0.184 A 
ATOM     16  C5  3ZE d   1       1.810 -21.311 -59.430  0.00  0.00     0.159 A 
ATOM     17  N3  3ZE d   1       2.937 -19.253 -58.906  0.00  0.00    -0.044 NA
ATOM     18  C6  3ZE d   1       1.667 -21.540 -58.025  0.00  0.00     0.226 A 
ATOM     19  N7  3ZE d   1       1.438 -22.024 -60.561  0.00  0.00    -0.235 NA
ATOM     20  N1  3ZE d   1       2.160 -20.613 -57.167  0.00  0.00    -0.164 N 
ATOM     21  O6  3ZE d   1       1.026 -22.674 -57.539  0.00  0.00    -0.169 OA
ATOM     22  C2  3ZE d   1       2.789 -19.480 -57.593  0.00  0.00     0.702 A 
ATOM     23  H2  3ZE d   1       2.059 -20.766 -56.184  0.00  0.00     0.186 HD
ATOM     24  C8  3ZE d   1       1.849 -21.312 -61.652  0.00  0.00     0.069 A 
ATOM     25  H1  3ZE d   1       1.708 -21.616 -62.688  0.00  0.00     0.143 H 
BRANCH  22  26
ATOM     26  N2  3ZE d   1       3.303 -18.522 -56.638  0.00  0.00    -0.233 N 
ATOM     27  H3  3ZE d   1       3.777 -17.669 -56.968  0.00  0.00     0.174 HD
ATOM     28  H4  3ZE d   1       3.195 -18.693 -55.628  0.00  0.00     0.174 HD
ENDBRANCH  22  26
ENDBRANCH   7  14
BRANCH   6  29
ATOM     29  OAE 3ZE d   1       1.058 -18.377 -62.825  0.00  0.00    -0.392 OA
ATOM     30  H12 3ZE d   1       0.644 -18.658 -62.017  0.00  0.00     0.210 HD
ENDBRANCH   6  29
BRANCH   1  31
ATOM     31  CAI 3ZE d   1       5.969 -19.601 -65.271  0.00  0.00     0.112 C 
ATOM     32  H5  3ZE d   1       6.993 -19.250 -65.467  0.00  0.00     0.068 H 
ATOM     33  H6  3ZE d   1       5.953 -20.179 -64.335  0.00  0.00     0.068 H 
BRANCH  31  34
ATOM     34  PAX 3ZE d   1       5.453 -20.707 -66.653  0.00  0.00     0.268 P 
ATOM     35  OAF 3ZE d   1       6.301 -22.021 -66.665  0.00  0.00    -0.639 OA
ATOM     36  OAG 3ZE d   1       3.955 -21.099 -66.486  0.00  0.00    -0.639 OA
ATOM     37  OAD 3ZE d   1       5.680 -19.931 -67.912  0.00  0.00    -0.639 OA
ENDBRANCH  31  34
ENDBRANCH   1  31
TORSDOF 5
