REMARK WARNING: 32 MAX_TORS EXCEEDED!!!
REMARK  34 active torsions:
REMARK  status: ('A' for Active; 'I' for Inactive)
REMARK    1  A    between atoms: N_1  and  CA_2 
REMARK    2  A    between atoms: CA_2  and  C_3 
REMARK    3  A    between atoms: CA_2  and  CB_5 
REMARK       I    between atoms: C_3  and  N_11 
REMARK    4  A    between atoms: CB_5  and  CG_6 
REMARK    5  A    between atoms: N_11  and  CA_12 
REMARK    6  A    between atoms: CA_12  and  C_13 
REMARK    7  A    between atoms: CA_12  and  CB_15 
REMARK       I    between atoms: C_13  and  N_20 
REMARK    8  A    between atoms: CB_15  and  CG_16 
REMARK    9  A    between atoms: CG_16  and  CD_17 
REMARK       I    between atoms: CD_17  and  NE2_19 
REMARK   10  A    between atoms: N_20  and  CA_21 
REMARK   11  A    between atoms: CA_21  and  C_22 
REMARK   12  A    between atoms: CA_21  and  CB_24 
REMARK       I    between atoms: C_22  and  N_36 
REMARK   13  A    between atoms: CB_24  and  CG_25 
REMARK   14  A    between atoms: CZ_30  and  OH_31 
REMARK   15  A    between atoms: OH_31  and  P_32 
REMARK   16  A    between atoms: N_36  and  CA_37 
REMARK   17  A    between atoms: CA_37  and  C_38 
REMARK   18  A    between atoms: CA_37  and  CB_40 
REMARK       I    between atoms: C_38  and  N_52 
REMARK   19  A    between atoms: CB_40  and  CG_41 
REMARK   20  A    between atoms: CZ_46  and  OH_47 
REMARK   21  A    between atoms: OH_47  and  P_48 
REMARK   22  A    between atoms: N_52  and  CA_53 
REMARK   23  A    between atoms: CA_53  and  C_54 
REMARK   24  A    between atoms: CA_53  and  CB_56 
REMARK       I    between atoms: C_54  and  N_60 
REMARK   25  A    between atoms: CB_56  and  CG_57 
REMARK       I    between atoms: CG_57  and  ND2_59 
REMARK   26  A    between atoms: N_60  and  CA_61 
REMARK   27  A    between atoms: CA_61  and  C_62 
REMARK   28  A    between atoms: CA_61  and  CB_64 
REMARK       I    between atoms: C_62  and  N_68 
REMARK   29  A    between atoms: CB_64  and  CG_65 
REMARK   30  A    between atoms: N_68  and  CA_69 
REMARK   31  A    between atoms: CA_69  and  C_70 
REMARK   32  A    between atoms: CA_69  and  CB_72 
REMARK       I    between atoms: C_70  and  N_79 
REMARK   33  A    between atoms: CB_72  and  CG_73 
REMARK   34  A    between atoms: CA_80  and  C_81 
ROOT
ATOM      1  CA  PTR d   1     -33.054 -22.786  -2.041  0.00  0.00     0.093 C 
ATOM      2  H   PTR d   1     -33.693 -23.003  -2.910  0.00  0.00     0.088 H 
ENDROOT
BRANCH   1   3
ATOM      3  N   PTR d   1     -33.909 -22.295  -0.961  0.00  0.00    -0.346 N 
ATOM      4  C   PTR d   1     -34.823 -23.045  -0.345  0.00  0.00     0.241 C 
ATOM      5  O   PTR d   1     -34.993 -24.243  -0.578  0.00  0.00    -0.271 OA
ATOM      6  H   PTR d   1     -33.802 -21.345  -0.668  0.00  0.00     0.163 HD
BRANCH   4   7
ATOM      7  CA  PTR d   1     -35.640 -22.356   0.746  0.00  0.00     0.093 C 
ATOM      8  H   PTR d   1     -35.591 -21.271   0.574  0.00  0.00     0.088 H 
BRANCH   7   9
ATOM      9  N   PTR d   1     -37.062 -22.732   0.780  0.00  0.00    -0.346 N 
ATOM     10  C   GLN d   1     -38.042 -21.835   0.633  0.00  0.00     0.241 C 
ATOM     11  O   GLN d   1     -37.835 -20.657   0.319  0.00  0.00    -0.271 OA
ATOM     12  H   PTR d   1     -37.304 -23.692   0.918  0.00  0.00     0.163 HD
BRANCH  10  13
ATOM     13  CA  GLN d   1     -39.478 -22.342   0.847  0.00  0.00     0.090 C 
ATOM     14  H   GLN d   1     -39.417 -23.304   1.377  0.00  0.00     0.087 H 
BRANCH  13  15
ATOM     15  N   GLN d   1     -40.290 -21.432   1.679  0.00  0.00    -0.346 N 
ATOM     16  C   HIS d   1     -40.575 -21.733   2.945  0.00  0.00     0.249 C 
ATOM     17  O   HIS d   1     -40.242 -22.804   3.447  0.00  0.00    -0.271 OA
ATOM     18  H   GLN d   1     -40.631 -20.578   1.287  0.00  0.00     0.163 HD
BRANCH  16  19
ATOM     19  CA  HIS d   1     -41.324 -20.689   3.803  0.00  0.00     0.181 C 
ATOM     20  H   HIS d   1     -40.670 -20.499   4.667  0.00  0.00     0.099 H 
BRANCH  19  21
ATOM     21  N   HIS d   1     -41.538 -19.381   3.186  0.00  0.00    -0.066 N 
ATOM     22  H   HIS d   1     -42.032 -18.783   3.829  0.00  0.00     0.275 HD
ATOM     23  H   HIS d   1     -42.082 -19.491   2.345  0.00  0.00     0.275 HD
ATOM     24  H   HIS d   1     -40.648 -18.967   2.959  0.00  0.00     0.275 HD
ENDBRANCH  19  21
BRANCH  19  25
ATOM     25  CB  HIS d   1     -42.636 -21.270   4.375  0.00  0.00     0.011 C 
ATOM     26  H   HIS d   1     -42.988 -20.603   5.175  0.00  0.00     0.046 H 
ATOM     27  H   HIS d   1     -42.419 -22.263   4.795  0.00  0.00     0.046 H 
BRANCH  25  28
ATOM     28  CG  HIS d   1     -43.738 -21.417   3.367  0.00  0.00     0.053 A 
ATOM     29  ND1 HIS d   1     -43.536 -21.933   2.103  0.00  0.00    -0.247 NA
ATOM     30  CE1 HIS d   1     -44.683 -21.944   1.447  0.00  0.00     0.064 A 
ATOM     31  NE2 HIS d   1     -45.623 -21.458   2.238  0.00  0.00    -0.359 N 
ATOM     32  H   HIS d   1     -44.829 -22.295   0.426  0.00  0.00     0.143 H 
ATOM     33  CD2 HIS d   1     -45.059 -21.126   3.448  0.00  0.00     0.002 A 
ATOM     34  H   HIS d   1     -46.616 -21.346   1.989  0.00  0.00     0.166 HD
ATOM     35  H   HIS d   1     -45.577 -20.708   4.310  0.00  0.00     0.114 H 
ENDBRANCH  25  28
ENDBRANCH  19  25
ENDBRANCH  16  19
ENDBRANCH  13  15
BRANCH  13  36
ATOM     36  CB  GLN d   1     -40.140 -22.592  -0.510  0.00  0.00    -0.030 C 
ATOM     37  H   GLN d   1     -39.356 -22.590  -1.282  0.00  0.00     0.037 H 
ATOM     38  H   GLN d   1     -40.848 -21.773  -0.705  0.00  0.00     0.037 H 
BRANCH  36  39
ATOM     39  CG  GLN d   1     -40.892 -23.901  -0.600  0.00  0.00     0.011 C 
ATOM     40  H   GLN d   1     -41.863 -23.786  -0.097  0.00  0.00     0.047 H 
ATOM     41  H   GLN d   1     -40.306 -24.681  -0.092  0.00  0.00     0.047 H 
BRANCH  39  42
ATOM     42  CD  GLN d   1     -41.134 -24.330  -2.034  0.00  0.00     0.215 C 
ATOM     43  OE1 GLN d   1     -41.312 -23.491  -2.921  0.00  0.00    -0.274 OA
ATOM     44  NE2 GLN d   1     -41.127 -25.645  -2.274  0.00  0.00    -0.370 N 
ATOM     45  H   GLN d   1     -41.281 -25.985  -3.202  0.00  0.00     0.159 HD
ATOM     46  H   GLN d   1     -40.968 -26.289  -1.526  0.00  0.00     0.159 HD
ENDBRANCH  39  42
ENDBRANCH  36  39
ENDBRANCH  13  36
ENDBRANCH  10  13
ENDBRANCH   7   9
BRANCH   7  47
ATOM     47  CB  PTR d   1     -34.965 -22.677   2.087  0.00  0.00    -0.014 C 
ATOM     48  H   PTR d   1     -33.904 -22.394   2.022  0.00  0.00     0.043 H 
ATOM     49  H   PTR d   1     -35.045 -23.759   2.269  0.00  0.00     0.043 H 
BRANCH  47  50
ATOM     50  CG  PTR d   1     -35.587 -21.946   3.251  0.00  0.00    -0.056 A 
ATOM     51  CD1 PTR d   1     -35.178 -20.652   3.588  0.00  0.00    -0.074 A 
ATOM     52  CE1 PTR d   1     -35.751 -19.984   4.653  0.00  0.00    -0.050 A 
ATOM     53  H   PTR d   1     -34.402 -20.167   3.007  0.00  0.00     0.084 H 
ATOM     54  CZ  PTR d   1     -36.761 -20.594   5.381  0.00  0.00     0.082 A 
ATOM     55  H   PTR d   1     -35.413 -18.989   4.918  0.00  0.00     0.087 H 
ATOM     56  CE2 PTR d   1     -37.177 -21.874   5.068  0.00  0.00    -0.050 A 
ATOM     57  CD2 PTR d   1     -36.595 -22.541   4.006  0.00  0.00    -0.074 A 
ATOM     58  H   PTR d   1     -37.955 -22.352   5.652  0.00  0.00     0.087 H 
ATOM     59  H   PTR d   1     -36.928 -23.542   3.757  0.00  0.00     0.084 H 
BRANCH  54  60
ATOM     60  OH  PTR d   1     -37.316 -19.998   6.398  0.00  0.00    -0.240 OA
BRANCH  60  61
ATOM     61  P   PTR d   1     -37.790 -18.451   6.430  0.00  0.00     0.427 P 
ATOM     62  O1P PTR d   1     -36.883 -17.739   7.352  0.00  0.00    -0.617 OA
ATOM     63  O2P PTR d   1     -39.230 -18.437   6.985  0.00  0.00    -0.617 OA
ATOM     64  O3P PTR d   1     -37.759 -17.761   5.049  0.00  0.00    -0.617 OA
ENDBRANCH  60  61
ENDBRANCH  54  60
ENDBRANCH  47  50
ENDBRANCH   7  47
ENDBRANCH   4   7
ENDBRANCH   1   3
BRANCH   1  65
ATOM     65  C   PTR d   1     -32.261 -24.059  -1.720  0.00  0.00     0.241 C 
ATOM     66  O   PTR d   1     -31.966 -24.829  -2.642  0.00  0.00    -0.271 OA
ATOM     67  N   ASN d   1     -31.920 -24.270  -0.445  0.00  0.00    -0.346 N 
ATOM     68  H   ASN d   1     -32.225 -23.618   0.249  0.00  0.00     0.163 HD
BRANCH  67  69
ATOM     69  CA  ASN d   1     -31.115 -25.423  -0.026  0.00  0.00     0.097 C 
ATOM     70  H   ASN d   1     -30.778 -25.938  -0.938  0.00  0.00     0.088 H 
BRANCH  69  71
ATOM     71  C   ASN d   1     -31.901 -26.427   0.809  0.00  0.00     0.241 C 
ATOM     72  O   ASN d   1     -31.314 -27.155   1.610  0.00  0.00    -0.271 OA
ATOM     73  N   ASP d   1     -33.220 -26.465   0.626  0.00  0.00    -0.345 N 
ATOM     74  H   ASP d   1     -33.639 -25.814  -0.007  0.00  0.00     0.163 HD
BRANCH  73  75
ATOM     75  CA  ASP d   1     -34.081 -27.432   1.323  0.00  0.00     0.098 C 
ATOM     76  H   ASP d   1     -33.923 -27.306   2.404  0.00  0.00     0.088 H 
BRANCH  75  77
ATOM     77  C   ASP d   1     -33.758 -28.889   0.962  0.00  0.00     0.241 C 
ATOM     78  O   ASP d   1     -33.019 -29.156   0.016  0.00  0.00    -0.271 OA
ATOM     79  N   PHE d   1     -34.320 -29.825   1.726  0.00  0.00    -0.346 N 
ATOM     80  H   PHE d   1     -34.790 -29.544   2.563  0.00  0.00     0.163 HD
BRANCH  79  81
ATOM     81  CA  PHE d   1     -34.276 -31.247   1.388  0.00  0.00     0.093 C 
ATOM     82  H   PHE d   1     -33.411 -31.439   0.736  0.00  0.00     0.088 H 
BRANCH  81  83
ATOM     83  C   PHE d   1     -35.554 -31.643   0.689  0.00  0.00     0.243 C 
ATOM     84  O   PHE d   1     -36.552 -30.927   0.758  0.00  0.00    -0.271 OA
ATOM     85  N   PRO d   1     -35.532 -32.794   0.008  0.00  0.00    -0.336 N 
ATOM     86  CA  PRO d   1     -36.808 -33.441  -0.303  0.00  0.00     0.098 C 
ATOM     87  CD  PRO d   1     -34.379 -33.500  -0.579  0.00  0.00    -0.001 C 
ATOM     88  CB  PRO d   1     -36.390 -34.730  -1.032  0.00  0.00    -0.035 C 
ATOM     89  H   PRO d   1     -37.452 -32.806  -0.930  0.00  0.00     0.089 H 
ATOM     90  CG  PRO d   1     -34.917 -34.892  -0.784  0.00  0.00    -0.048 C 
ATOM     91  H   PRO d   1     -36.588 -34.640  -2.110  0.00  0.00     0.036 H 
ATOM     92  H   PRO d   1     -36.942 -35.592  -0.629  0.00  0.00     0.036 H 
ATOM     93  H   PRO d   1     -34.433 -35.366  -1.651  0.00  0.00     0.035 H 
ATOM     94  H   PRO d   1     -34.745 -35.505   0.113  0.00  0.00     0.035 H 
ATOM     95  H   PRO d   1     -33.522 -33.503   0.111  0.00  0.00     0.064 H 
ATOM     96  H   PRO d   1     -34.079 -33.045  -1.535  0.00  0.00     0.064 H 
BRANCH  86  97
ATOM     97  C   PRO d   1     -37.503 -33.796   1.001  0.00  0.00     0.196 C 
ATOM     98  O   PRO d   1     -36.792 -34.285   1.890  0.00  0.00    -0.646 OA
ATOM     99  O1  PRO d   1     -38.737 -33.603   1.169  0.00  0.00    -0.646 OA
ENDBRANCH  86  97
ENDBRANCH  81  83
BRANCH  81 100
ATOM    100  CB  PHE d   1     -34.181 -32.108   2.644  0.00  0.00    -0.014 C 
ATOM    101  H   PHE d   1     -34.091 -33.160   2.337  0.00  0.00     0.043 H 
ATOM    102  H   PHE d   1     -35.104 -31.974   3.227  0.00  0.00     0.043 H 
BRANCH 100 103
ATOM    103  CG  PHE d   1     -33.024 -31.774   3.516  0.00  0.00    -0.056 A 
ATOM    104  CD1 PHE d   1     -31.735 -32.015   3.086  0.00  0.00    -0.077 A 
ATOM    105  CE1 PHE d   1     -30.662 -31.685   3.892  0.00  0.00    -0.082 A 
ATOM    106  H   PHE d   1     -31.564 -32.464   2.114  0.00  0.00     0.084 H 
ATOM    107  CZ  PHE d   1     -30.881 -31.117   5.143  0.00  0.00    -0.083 A 
ATOM    108  H   PHE d   1     -29.650 -31.869   3.550  0.00  0.00     0.083 H 
ATOM    109  CE2 PHE d   1     -32.163 -30.877   5.579  0.00  0.00    -0.082 A 
ATOM    110  H   PHE d   1     -30.038 -30.863   5.776  0.00  0.00     0.083 H 
ATOM    111  CD2 PHE d   1     -33.225 -31.205   4.770  0.00  0.00    -0.077 A 
ATOM    112  H   PHE d   1     -32.335 -30.433   6.553  0.00  0.00     0.083 H 
ATOM    113  H   PHE d   1     -34.236 -31.017   5.114  0.00  0.00     0.084 H 
ENDBRANCH 100 103
ENDBRANCH  81 100
ENDBRANCH  79  81
ENDBRANCH  75  77
BRANCH  75 114
ATOM    114  CB  ASP d   1     -35.556 -27.152   1.009  0.00  0.00     0.043 C 
ATOM    115  H   ASP d   1     -36.115 -28.096   1.082  0.00  0.00     0.052 H 
ATOM    116  H   ASP d   1     -35.628 -26.762  -0.017  0.00  0.00     0.052 H 
BRANCH 114 117
ATOM    117  CG  ASP d   1     -36.187 -26.138   1.961  0.00  0.00     0.175 C 
ATOM    118  OD1 ASP d   1     -35.828 -26.124   3.158  0.00  0.00    -0.648 OA
ATOM    119  OD2 ASP d   1     -37.054 -25.364   1.511  0.00  0.00    -0.648 OA
ENDBRANCH 114 117
ENDBRANCH  75 114
ENDBRANCH  73  75
ENDBRANCH  69  71
BRANCH  69 120
ATOM    120  CB  ASN d   1     -29.873 -24.969   0.751  0.00  0.00     0.036 C 
ATOM    121  H   ASN d   1     -29.348 -24.203   0.161  0.00  0.00     0.051 H 
ATOM    122  H   ASN d   1     -29.212 -25.836   0.897  0.00  0.00     0.051 H 
BRANCH 120 123
ATOM    123  CG  ASN d   1     -30.217 -24.384   2.112  0.00  0.00     0.217 C 
ATOM    124  OD1 ASN d   1     -31.307 -23.842   2.304  0.00  0.00    -0.274 OA
ATOM    125  ND2 ASN d   1     -29.288 -24.505   3.074  0.00  0.00    -0.370 N 
ATOM    126  H   ASN d   1     -29.463 -24.138   3.987  0.00  0.00     0.159 HD
ATOM    127  H   ASN d   1     -28.421 -24.962   2.877  0.00  0.00     0.159 HD
ENDBRANCH 120 123
ENDBRANCH  69 120
ENDBRANCH  67  69
ENDBRANCH   1  65
BRANCH   1 128
ATOM    128  CB  PTR d   1     -32.087 -21.660  -2.397  0.00  0.00    -0.014 C 
ATOM    129  H   PTR d   1     -31.523 -21.407  -1.487  0.00  0.00     0.043 H 
ATOM    130  H   PTR d   1     -32.688 -20.793  -2.709  0.00  0.00     0.043 H 
BRANCH 128 131
ATOM    131  CG  PTR d   1     -31.072 -21.939  -3.504  0.00  0.00    -0.056 A 
ATOM    132  CD1 PTR d   1     -31.341 -21.612  -4.830  0.00  0.00    -0.074 A 
ATOM    133  CE1 PTR d   1     -30.407 -21.833  -5.826  0.00  0.00    -0.050 A 
ATOM    134  H   PTR d   1     -32.300 -21.176  -5.087  0.00  0.00     0.084 H 
ATOM    135  CZ  PTR d   1     -29.175 -22.363  -5.502  0.00  0.00     0.082 A 
ATOM    136  H   PTR d   1     -30.642 -21.591  -6.856  0.00  0.00     0.087 H 
ATOM    137  CE2 PTR d   1     -28.878 -22.674  -4.188  0.00  0.00    -0.050 A 
ATOM    138  CD2 PTR d   1     -29.819 -22.456  -3.208  0.00  0.00    -0.074 A 
ATOM    139  H   PTR d   1     -27.909 -23.087  -3.931  0.00  0.00     0.087 H 
ATOM    140  H   PTR d   1     -29.575 -22.694  -2.179  0.00  0.00     0.084 H 
BRANCH 135 141
ATOM    141  OH  PTR d   1     -28.273 -22.565  -6.430  0.00  0.00    -0.240 OA
BRANCH 141 142
ATOM    142  P   PTR d   1     -27.757 -24.068  -6.740  0.00  0.00     0.427 P 
ATOM    143  O1P PTR d   1     -26.979 -24.018  -7.999  0.00  0.00    -0.617 OA
ATOM    144  O2P PTR d   1     -29.021 -24.914  -6.851  0.00  0.00    -0.617 OA
ATOM    145  O3P PTR d   1     -26.839 -24.586  -5.601  0.00  0.00    -0.617 OA
ENDBRANCH 141 142
ENDBRANCH 135 141
ENDBRANCH 128 131
ENDBRANCH   1 128
TORSDOF 34
