REMARK  13 active torsions:
REMARK  status: ('A' for Active; 'I' for Inactive)
REMARK    1  A    between atoms: C01_1  and  C14_14 
REMARK    2  A    between atoms: C03_3  and  O07_7 
REMARK    3  A    between atoms: C06_6  and  N17_17 
REMARK    4  A    between atoms: O07_7  and  C08_8 
REMARK    5  A    between atoms: C11_11  and  N30_30 
REMARK    6  A    between atoms: N17_17  and  C18_18 
REMARK       I    between atoms: N17_17  and  C21_21 
REMARK    7  A    between atoms: C18_18  and  C19_19 
REMARK    8  A    between atoms: C18_18  and  C20_20 
REMARK    9  A    between atoms: C21_21  and  C23_22 
REMARK   10  A    between atoms: C26_26  and  C29_29 
REMARK       I    between atoms: N30_30  and  C31_31 
REMARK   11  A    between atoms: C31_31  and  C33_33 
REMARK   12  A    between atoms: C36_36  and  O39_39 
REMARK   13  A    between atoms: O39_39  and  C40_40 
ROOT
ATOM      1  C01 1ML d   1      19.079   1.503  13.280  0.00  0.00     0.070 A 
ATOM      2  C02 1ML d   1      19.368   1.613  14.640  0.00  0.00    -0.032 A 
ATOM      3  C03 1ML d   1      18.374   2.103  15.556  0.00  0.00     0.077 A 
ATOM      4  C04 1ML d   1      17.105   2.483  15.107  0.00  0.00    -0.048 A 
ATOM      5  C05 1ML d   1      16.796   2.388  13.741  0.00  0.00    -0.053 A 
ATOM      6  C06 1ML d   1      17.782   1.891  12.804  0.00  0.00     0.054 A 
ATOM      7  H1  1ML d   1      20.347   1.328  15.008  0.00  0.00     0.089 H 
ATOM      8  H2  1ML d   1      16.365   2.849  15.809  0.00  0.00     0.087 H 
ATOM      9  H3  1ML d   1      15.816   2.688  13.386  0.00  0.00     0.087 H 
ENDROOT
BRANCH   6  10
ATOM     10  N17 1ML d   1      17.414   1.800  11.433  0.00  0.00    -0.313 N 
ATOM     11  C21 1ML d   1      16.770   0.673  10.948  0.00  0.00     0.229 C 
ATOM     12  O22 1ML d   1      16.445   0.607   9.779  0.00  0.00    -0.273 OA
BRANCH  10  13
ATOM     13  C18 1ML d   1      17.696   2.921  10.463  0.00  0.00     0.013 C 
ATOM     14  H8  1ML d   1      17.052   2.743   9.589  0.00  0.00     0.072 H 
BRANCH  13  15
ATOM     15  C19 1ML d   1      17.351   4.314  11.007  0.00  0.00    -0.057 C 
ATOM     16  H9  1ML d   1      17.584   5.073  10.245  0.00  0.00     0.030 H 
ATOM     17  H10 1ML d   1      17.943   4.511  11.913  0.00  0.00     0.030 H 
ATOM     18  H11 1ML d   1      16.279   4.357  11.252  0.00  0.00     0.030 H 
ENDBRANCH  13  15
BRANCH  13  19
ATOM     19  C20 1ML d   1      19.168   2.942   9.959  0.00  0.00    -0.057 C 
ATOM     20  H12 1ML d   1      19.304   3.780   9.259  0.00  0.00     0.030 H 
ATOM     21  H13 1ML d   1      19.394   1.995   9.446  0.00  0.00     0.030 H 
ATOM     22  H14 1ML d   1      19.847   3.066  10.815  0.00  0.00     0.030 H 
ENDBRANCH  13  19
ENDBRANCH  10  13
BRANCH  11  23
ATOM     23  C23 1ML d   1      16.431  -0.526  11.949  0.00  0.00     0.024 C 
ATOM     24  C24 1ML d   1      14.960  -0.320  12.409  0.00  0.00    -0.053 C 
ATOM     25  C25 1ML d   1      14.526  -1.398  13.417  0.00  0.00    -0.061 C 
ATOM     26  H16 1ML d   1      14.301  -0.367  11.530  0.00  0.00     0.034 H 
ATOM     27  H17 1ML d   1      14.869   0.669  12.882  0.00  0.00     0.034 H 
ATOM     28  C26 1ML d   1      14.586  -2.781  12.761  0.00  0.00    -0.058 C 
ATOM     29  H18 1ML d   1      13.496  -1.195  13.747  0.00  0.00     0.033 H 
ATOM     30  H19 1ML d   1      15.200  -1.377  14.286  0.00  0.00     0.033 H 
ATOM     31  C27 1ML d   1      16.015  -3.066  12.188  0.00  0.00    -0.061 C 
ATOM     32  H20 1ML d   1      13.865  -2.808  11.931  0.00  0.00     0.039 H 
ATOM     33  C28 1ML d   1      16.549  -1.914  11.262  0.00  0.00    -0.053 C 
ATOM     34  H21 1ML d   1      15.978  -3.997  11.603  0.00  0.00     0.033 H 
ATOM     35  H22 1ML d   1      16.712  -3.189  13.030  0.00  0.00     0.033 H 
ATOM     36  H23 1ML d   1      17.606  -2.107  11.026  0.00  0.00     0.034 H 
ATOM     37  H24 1ML d   1      15.962  -1.903  10.332  0.00  0.00     0.034 H 
ATOM     38  H15 1ML d   1      17.111  -0.490  12.813  0.00  0.00     0.054 H 
BRANCH  28  39
ATOM     39  C29 1ML d   1      14.193  -3.868  13.801  0.00  0.00    -0.073 C 
ATOM     40  H25 1ML d   1      13.188  -3.654  14.193  0.00  0.00     0.028 H 
ATOM     41  H26 1ML d   1      14.918  -3.863  14.628  0.00  0.00     0.028 H 
ATOM     42  H27 1ML d   1      14.195  -4.856  13.317  0.00  0.00     0.028 H 
ENDBRANCH  28  39
ENDBRANCH  11  23
ENDBRANCH   6  10
BRANCH   1  43
ATOM     43  C14 1ML d   1      20.155   0.960  12.383  0.00  0.00     0.211 C 
ATOM     44  O15 1ML d   1      21.277   1.603  12.397  0.00  0.00    -0.644 OA
ATOM     45  O16 1ML d   1      19.854  -0.044  11.648  0.00  0.00    -0.644 OA
ENDBRANCH   1  43
BRANCH   3  46
ATOM     46  O07 1ML d   1      18.670   2.240  16.890  0.00  0.00    -0.311 OA
BRANCH  46  47
ATOM     47  C08 1ML d   1      19.447   1.295  17.543  0.00  0.00     0.076 A 
ATOM     48  C09 1ML d   1      20.196   1.831  18.616  0.00  0.00    -0.048 A 
ATOM     49  C10 1ML d   1      21.037   0.987  19.381  0.00  0.00    -0.054 A 
ATOM     50  H4  1ML d   1      20.126   2.887  18.852  0.00  0.00     0.087 H 
ATOM     51  C11 1ML d   1      21.145  -0.356  19.086  0.00  0.00     0.035 A 
ATOM     52  H5  1ML d   1      21.602   1.401  20.208  0.00  0.00     0.087 H 
ATOM     53  C12 1ML d   1      20.393  -0.924  17.992  0.00  0.00    -0.054 A 
ATOM     54  C13 1ML d   1      19.557  -0.113  17.206  0.00  0.00    -0.048 A 
ATOM     55  H6  1ML d   1      20.474  -1.983  17.776  0.00  0.00     0.087 H 
ATOM     56  H7  1ML d   1      19.008  -0.528  16.369  0.00  0.00     0.087 H 
BRANCH  51  57
ATOM     57  N30 1ML d   1      21.949  -1.128  19.937  0.00  0.00    -0.323 N 
ATOM     58  C31 1ML d   1      22.202  -2.463  20.019  0.00  0.00     0.256 C 
ATOM     59  O32 1ML d   1      21.793  -3.326  19.215  0.00  0.00    -0.267 OA
ATOM     60  H28 1ML d   1      22.436  -0.588  20.623  0.00  0.00     0.169 HD
BRANCH  58  61
ATOM     61  C33 1ML d   1      23.046  -2.914  21.190  0.00  0.00     0.032 A 
ATOM     62  C34 1ML d   1      23.427  -4.283  21.302  0.00  0.00    -0.065 A 
ATOM     63  C35 1ML d   1      24.215  -4.690  22.362  0.00  0.00    -0.050 A 
ATOM     64  H29 1ML d   1      23.100  -5.002  20.559  0.00  0.00     0.085 H 
ATOM     65  C36 1ML d   1      24.658  -3.766  23.327  0.00  0.00     0.068 A 
ATOM     66  H30 1ML d   1      24.495  -5.733  22.451  0.00  0.00     0.087 H 
ATOM     67  C37 1ML d   1      24.276  -2.404  23.236  0.00  0.00    -0.050 A 
ATOM     68  C38 1ML d   1      23.485  -1.966  22.153  0.00  0.00    -0.065 A 
ATOM     69  H31 1ML d   1      24.591  -1.700  23.997  0.00  0.00     0.087 H 
ATOM     70  H32 1ML d   1      23.216  -0.920  22.057  0.00  0.00     0.085 H 
BRANCH  65  71
ATOM     71  O39 1ML d   1      25.450  -4.088  24.387  0.00  0.00    -0.356 OA
BRANCH  71  72
ATOM     72  C40 1ML d   1      26.421  -5.132  24.135  0.00  0.00     0.010 C 
ATOM     73  H33 1ML d   1      27.007  -5.316  25.048  0.00  0.00     0.066 H 
ATOM     74  H34 1ML d   1      27.095  -4.818  23.324  0.00  0.00     0.066 H 
ATOM     75  H35 1ML d   1      25.899  -6.055  23.842  0.00  0.00     0.066 H 
ENDBRANCH  71  72
ENDBRANCH  65  71
ENDBRANCH  58  61
ENDBRANCH  51  57
ENDBRANCH  46  47
ENDBRANCH   3  46
TORSDOF 13
