REMARK  7 active torsions:
REMARK  status: ('A' for Active; 'I' for Inactive)
REMARK    1  A    between atoms: C6_3  and  C7_1 
REMARK    2  A    between atoms: C2_2  and  S21_14 
REMARK    3  A    between atoms: C5_4  and  C6_3 
REMARK    4  A    between atoms: C6_3  and  C61_7 
REMARK    5  A    between atoms: C3_5  and  C31_11 
REMARK    6  A    between atoms: C61_7  and  O62_8 
REMARK    7  A    between atoms: C61_7  and  C62_9 
ROOT
ATOM      1  C2  IM2 d   1     -10.909  13.538 -14.104  0.00  0.00     0.011 C 
ATOM      2  C5  IM2 d   1     -10.350  15.553 -13.016  0.00  0.00     0.026 C 
ATOM      3  C3  IM2 d   1      -9.956  13.305 -13.229  0.00  0.00     0.118 C 
ATOM      4  N4  IM2 d   1      -9.762  14.354 -12.451  0.00  0.00    -0.378 N 
ATOM      5  C1  IM2 d   1     -11.346  14.975 -14.022  0.00  0.00    -0.013 C 
ATOM      6  H3  IM2 d   1     -10.863  16.152 -12.249  0.00  0.00     0.074 H 
ATOM      7  H9  IM2 d   1      -9.256  14.324 -11.554  0.00  0.00     0.160 HD
ATOM      8  H11 IM2 d   1     -12.379  15.058 -13.654  0.00  0.00     0.044 H 
ATOM      9  H12 IM2 d   1     -11.263  15.474 -14.999  0.00  0.00     0.044 H 
ENDROOT
BRANCH   2  10
ATOM     10  C6  IM2 d   1      -9.267  16.405 -13.697  0.00  0.00     0.041 C 
ATOM     11  H2  IM2 d   1      -9.004  15.887 -14.631  0.00  0.00     0.058 H 
BRANCH  10  12
ATOM     12  C7  IM2 d   1      -8.003  16.678 -12.894  0.00  0.00     0.096 C 
ATOM     13  O7  IM2 d   1      -6.945  17.062 -13.474  0.00  0.00    -0.306 OA
ATOM     14  H1  IM2 d   1      -8.009  16.542 -11.813  0.00  0.00     0.144 H 
ENDBRANCH  10  12
BRANCH  10  15
ATOM     15  C61 IM2 d   1      -9.677  17.846 -14.000  0.00  0.00     0.043 C 
ATOM     16  H4  IM2 d   1     -10.415  17.836 -14.816  0.00  0.00     0.083 H 
BRANCH  15  17
ATOM     17  O62 IM2 d   1      -8.506  18.553 -14.413  0.00  0.00    -0.395 OA
ATOM     18  H5  IM2 d   1      -7.862  18.532 -13.715  0.00  0.00     0.210 HD
ENDBRANCH  15  17
BRANCH  15  19
ATOM     19  C62 IM2 d   1     -10.276  18.586 -12.816  0.00  0.00    -0.052 C 
ATOM     20  H6  IM2 d   1     -10.542  19.609 -13.120  0.00  0.00     0.030 H 
ATOM     21  H7  IM2 d   1      -9.541  18.625 -11.998  0.00  0.00     0.030 H 
ATOM     22  H8  IM2 d   1     -11.179  18.059 -12.473  0.00  0.00     0.030 H 
ENDBRANCH  15  19
ENDBRANCH  10  15
ENDBRANCH   2  10
BRANCH   3  23
ATOM     23  C31 IM2 d   1      -9.169  12.097 -13.162  0.00  0.00     0.227 C 
ATOM     24  O31 IM2 d   1      -8.612  11.683 -14.190  0.00  0.00    -0.643 OA
ATOM     25  O32 IM2 d   1      -9.066  11.529 -12.072  0.00  0.00    -0.643 OA
ENDBRANCH   3  23
BRANCH   1  26
ATOM     26  S21 IM2 d   1     -11.535  12.416 -15.169  0.00  0.00    -0.145 SA
ATOM     27  H10 IM2 d   1     -10.799  12.076 -15.768  0.00  0.00     0.107 HD
ENDBRANCH   1  26
TORSDOF 7
