REMARK  10 active torsions:
REMARK  status: ('A' for Active; 'I' for Inactive)
REMARK    1  A    between atoms: O3B_8  and  PG_1 
REMARK    2  A    between atoms: PB_5  and  O3B_8 
REMARK    3  A    between atoms: O3A_12  and  PB_5 
REMARK    4  A    between atoms: PA_9  and  O3A_12 
REMARK    5  A    between atoms: PA_9  and  O5'_13 
REMARK    6  A    between atoms: O5'_13  and  C5'_14 
REMARK    7  A    between atoms: C5'_14  and  C4'_15 
REMARK    8  A    between atoms: C3'_17  and  O3'_18 
REMARK    9  A    between atoms: C2'_19  and  O2'_20 
REMARK   10  A    between atoms: C1'_21  and  N9_22 
ROOT
ATOM      1  C4' ATP d   1      19.514  78.068  30.923  0.00  0.00     0.089 C 
ATOM      2  O4' ATP d   1      20.280  77.372  31.908  0.00  0.00    -0.353 OA
ATOM      3  C3' ATP d   1      20.201  79.406  30.699  0.00  0.00     0.091 C 
ATOM      4  C2' ATP d   1      21.599  79.201  31.242  0.00  0.00     0.105 C 
ATOM      5  C1' ATP d   1      21.330  78.220  32.357  0.00  0.00     0.139 C 
ATOM      6  H3  ATP d   1      18.490  78.237  31.289  0.00  0.00     0.090 H 
ATOM      7  H4  ATP d   1      20.216  79.689  29.636  0.00  0.00     0.091 H 
ATOM      8  H6  ATP d   1      22.261  78.770  30.477  0.00  0.00     0.093 H 
ATOM      9  H8  ATP d   1      20.994  78.773  33.246  0.00  0.00     0.122 H 
ENDROOT
BRANCH   1  10
ATOM     10  C5' ATP d   1      19.456  77.230  29.650  0.00  0.00     0.058 C 
ATOM     11  H1  ATP d   1      18.801  77.720  28.915  0.00  0.00     0.079 H 
ATOM     12  H2  ATP d   1      20.467  77.127  29.229  0.00  0.00     0.079 H 
BRANCH  10  13
ATOM     13  O5' ATP d   1      18.941  75.951  29.966  0.00  0.00    -0.287 OA
BRANCH  13  14
ATOM     14  PA  ATP d   1      18.181  75.094  28.842  0.00  0.00     0.417 P 
ATOM     15  O1A ATP d   1      19.090  75.004  27.638  0.00  0.00    -0.624 OA
ATOM     16  O2A ATP d   1      17.653  73.850  29.489  0.00  0.00    -0.624 OA
BRANCH  14  17
ATOM     17  O3A ATP d   1      16.950  76.084  28.531  0.00  0.00    -0.180 OA
BRANCH  17  18
ATOM     18  PB  ATP d   1      15.900  75.933  27.310  0.00  0.00     0.428 P 
ATOM     19  O1B ATP d   1      15.452  74.512  27.191  0.00  0.00    -0.624 OA
ATOM     20  O2B ATP d   1      16.531  76.623  26.118  0.00  0.00    -0.624 OA
BRANCH  18  21
ATOM     21  O3B ATP d   1      14.729  76.888  27.899  0.00  0.00    -0.173 OA
BRANCH  21  22
ATOM     22  PG  ATP d   1      13.163  76.618  28.245  0.00  0.00     0.431 P 
ATOM     23  O1G ATP d   1      12.393  77.102  27.038  0.00  0.00    -0.616 OA
ATOM     24  O2G ATP d   1      12.979  77.485  29.475  0.00  0.00    -0.616 OA
ATOM     25  O3G ATP d   1      12.991  75.159  28.540  0.00  0.00    -0.616 OA
ENDBRANCH  21  22
ENDBRANCH  18  21
ENDBRANCH  17  18
ENDBRANCH  14  17
ENDBRANCH  13  14
ENDBRANCH  10  13
ENDBRANCH   1  10
BRANCH   3  26
ATOM     26  O3' ATP d   1      19.517  80.393  31.481  0.00  0.00    -0.390 OA
ATOM     27  H5  ATP d   1      19.932  81.238  31.355  0.00  0.00     0.210 HD
ENDBRANCH   3  26
BRANCH   5  28
ATOM     28  N9  ATP d   1      22.530  77.439  32.729  0.00  0.00    -0.294 N 
ATOM     29  C8  ATP d   1      23.332  76.716  31.929  0.00  0.00     0.071 A 
ATOM     30  N7  ATP d   1      24.335  76.139  32.646  0.00  0.00    -0.236 NA
ATOM     31  H9  ATP d   1      23.198  76.607  30.854  0.00  0.00     0.144 H 
ATOM     32  C5  ATP d   1      24.169  76.509  33.930  0.00  0.00     0.149 A 
ATOM     33  C6  ATP d   1      24.865  76.267  35.211  0.00  0.00     0.155 A 
ATOM     34  C4  ATP d   1      22.981  77.369  33.977  0.00  0.00     0.167 A 
ATOM     35  N6  ATP d   1      25.974  75.493  35.252  0.00  0.00    -0.382 N 
ATOM     36  N1  ATP d   1      24.354  76.851  36.320  0.00  0.00    -0.222 NA
ATOM     37  H10 ATP d   1      26.454  75.328  36.148  0.00  0.00     0.157 HD
ATOM     38  H11 ATP d   1      26.338  75.068  34.387  0.00  0.00     0.157 HD
ATOM     39  C2  ATP d   1      23.254  77.628  36.288  0.00  0.00     0.091 A 
ATOM     40  N3  ATP d   1      22.568  77.888  35.161  0.00  0.00    -0.222 NA
ATOM     41  H12 ATP d   1      22.905  78.065  37.216  0.00  0.00     0.146 H 
ENDBRANCH   5  28
BRANCH   4  42
ATOM     42  O2' ATP d   1      22.189  80.406  31.749  0.00  0.00    -0.388 OA
ATOM     43  H7  ATP d   1      22.242  81.049  31.052  0.00  0.00     0.210 HD
ENDBRANCH   4  42
TORSDOF 10
