REMARK  8 active torsions:
REMARK  status: ('A' for Active; 'I' for Inactive)
REMARK       I    between atoms: C11_20  and  N1_1 
REMARK    1  A    between atoms: N1_1  and  C12_22 
REMARK    2  A    between atoms: C12_22  and  C13_3 
REMARK    3  A    between atoms: N01_7  and  C01_6 
REMARK    4  A    between atoms: C02_8  and  N01_7 
REMARK    5  A    between atoms: C03_10  and  C04_11 
REMARK    6  A    between atoms: N05_15  and  C05_13 
REMARK    7  A    between atoms: C08_18  and  C11_20 
REMARK    8  A    between atoms: C18_25  and  C1_26 
ROOT
ATOM      1  C10 1LF d   1     -10.136  26.395 -13.943  0.00  0.00     0.013 C 
ATOM      2  N05 1LF d   1     -10.789  26.747 -15.218  0.00  0.00    -0.213 N 
ATOM      3  C06 1LF d   1     -11.906  25.870 -15.607  0.00  0.00     0.013 C 
ATOM      4  C07 1LF d   1     -12.960  25.792 -14.489  0.00  0.00    -0.038 C 
ATOM      5  C08 1LF d   1     -12.281  25.374 -13.168  0.00  0.00     0.026 C 
ATOM      6  C09 1LF d   1     -11.136  26.330 -12.774  0.00  0.00    -0.038 C 
ATOM      7  H2  1LF d   1      -9.373  27.154 -13.714  0.00  0.00     0.065 H 
ATOM      8  H3  1LF d   1      -9.654  25.412 -14.052  0.00  0.00     0.065 H 
ATOM      9  H13 1LF d   1     -11.518  24.860 -15.807  0.00  0.00     0.065 H 
ATOM     10  H14 1LF d   1     -12.376  26.269 -16.518  0.00  0.00     0.065 H 
ATOM     11  H15 1LF d   1     -13.726  25.049 -14.758  0.00  0.00     0.036 H 
ATOM     12  H16 1LF d   1     -13.433  26.777 -14.362  0.00  0.00     0.036 H 
ATOM     13  H17 1LF d   1     -11.840  24.378 -13.319  0.00  0.00     0.054 H 
ATOM     14  H18 1LF d   1     -11.541  27.333 -12.575  0.00  0.00     0.036 H 
ATOM     15  H19 1LF d   1     -10.630  25.953 -11.873  0.00  0.00     0.036 H 
ENDROOT
BRANCH   5  16
ATOM     16  C11 1LF d   1     -13.312  25.260 -12.075  0.00  0.00     0.222 C 
ATOM     17  N1  1LF d   1     -13.956  24.102 -11.965  0.00  0.00    -0.356 N 
ATOM     18  H1  1LF d   1     -13.742  23.365 -12.606  0.00  0.00     0.162 HD
ATOM     19  O1  1LF d   1     -13.541  26.206 -11.319  0.00  0.00    -0.273 OA
BRANCH  17  20
ATOM     20  C12 1LF d   1     -14.968  23.874 -10.934  0.00  0.00     0.020 C 
ATOM     21  H20 1LF d   1     -14.723  24.500 -10.063  0.00  0.00     0.071 H 
ATOM     22  H21 1LF d   1     -14.935  22.813 -10.645  0.00  0.00     0.071 H 
BRANCH  20  23
ATOM     23  C13 1LF d   1     -16.384  24.206 -11.379  0.00  0.00    -0.025 A 
ATOM     24  C14 1LF d   1     -16.606  24.583 -12.718  0.00  0.00    -0.074 A 
ATOM     25  C15 1LF d   1     -17.894  24.892 -13.178  0.00  0.00    -0.082 A 
ATOM     26  H22 1LF d   1     -15.768  24.635 -13.403  0.00  0.00     0.084 H 
ATOM     27  C16 1LF d   1     -18.979  24.824 -12.296  0.00  0.00    -0.082 A 
ATOM     28  H4  1LF d   1     -18.049  25.182 -14.211  0.00  0.00     0.083 H 
ATOM     29  C17 1LF d   1     -18.771  24.451 -10.959  0.00  0.00    -0.068 A 
ATOM     30  H23 1LF d   1     -19.978  25.059 -12.645  0.00  0.00     0.083 H 
ATOM     31  C18 1LF d   1     -17.479  24.135 -10.484  0.00  0.00     0.055 A 
ATOM     32  H5  1LF d   1     -19.615  24.405 -10.280  0.00  0.00     0.084 H 
BRANCH  31  33
ATOM     33  C1  1LF d   1     -17.286  23.740  -9.024  0.00  0.00     0.418 C 
ATOM     34  F01 1LF d   1     -16.509  24.647  -8.441  0.00  0.00    -0.166 F 
ATOM     35  F02 1LF d   1     -16.717  22.536  -8.912  0.00  0.00    -0.166 F 
ATOM     36  F   1LF d   1     -18.441  23.715  -8.374  0.00  0.00    -0.166 F 
ENDBRANCH  31  33
ENDBRANCH  20  23
ENDBRANCH  17  20
ENDBRANCH   5  16
BRANCH   2  37
ATOM     37  C05 1LF d   1     -10.518  27.967 -15.873  0.00  0.00     0.742 A 
ATOM     38  N03 1LF d   1     -11.151  28.288 -17.018  0.00  0.00    -0.047 NA
ATOM     39  C03 1LF d   1     -10.878  29.451 -17.631  0.00  0.00     0.160 A 
ATOM     40  N02 1LF d   1      -9.971  30.285 -17.103  0.00  0.00    -0.047 NA
ATOM     41  C02 1LF d   1      -9.337  29.962 -15.961  0.00  0.00     0.739 A 
ATOM     42  N04 1LF d   1      -9.610  28.803 -15.345  0.00  0.00     0.130 NA
BRANCH  39  43
ATOM     43  C04 1LF d   1     -11.587  29.819 -18.913  0.00  0.00    -0.018 C 
ATOM     44  H10 1LF d   1     -11.232  30.801 -19.260  0.00  0.00     0.037 H 
ATOM     45  H11 1LF d   1     -12.671  29.864 -18.733  0.00  0.00     0.037 H 
ATOM     46  H12 1LF d   1     -11.374  29.060 -19.680  0.00  0.00     0.037 H 
ENDBRANCH  39  43
BRANCH  41  47
ATOM     47  N01 1LF d   1      -8.379  30.836 -15.403  0.00  0.00    -0.226 N 
ATOM     48  H9  1LF d   1      -8.664  31.562 -14.730  0.00  0.00     0.177 HD
BRANCH  47  49
ATOM     49  C01 1LF d   1      -6.966  30.695 -15.796  0.00  0.00    -0.005 C 
ATOM     50  H6  1LF d   1      -6.362  31.450 -15.271  0.00  0.00     0.057 H 
ATOM     51  H7  1LF d   1      -6.871  30.841 -16.882  0.00  0.00     0.057 H 
ATOM     52  H8  1LF d   1      -6.609  29.689 -15.528  0.00  0.00     0.057 H 
ENDBRANCH  47  49
ENDBRANCH  41  47
ENDBRANCH   2  37
TORSDOF 8
