REMARK  5 active torsions:
REMARK  status: ('A' for Active; 'I' for Inactive)
REMARK    1  A    between atoms: C11_1  and  C10_4 
REMARK    2  A    between atoms: C10_4  and  C9_5 
REMARK    3  A    between atoms: C9_5  and  C8_6 
REMARK    4  A    between atoms: C8_6  and  C7_7 
REMARK    5  A    between atoms: C7_7  and  C2_8 
ROOT
ATOM      1  C2  BTN d   1      36.190  -6.590 -27.246  0.00  0.00     0.012 C 
ATOM      2  S1  BTN d   1      35.291  -5.207 -27.897  0.00  0.00    -0.160 SA
ATOM      3  C6  BTN d   1      36.290  -4.011 -27.088  0.00  0.00    -0.002 C 
ATOM      4  C5  BTN d   1      37.699  -4.610 -27.096  0.00  0.00     0.042 A 
ATOM      5  N1  BTN d   1      38.413  -4.122 -28.261  0.00  0.00    -0.336 N 
ATOM      6  C3  BTN d   1      38.716  -5.197 -29.178  0.00  0.00     0.316 A 
ATOM      7  O3  BTN d   1      39.263  -5.064 -30.283  0.00  0.00    -0.247 OA
ATOM      8  N2  BTN d   1      38.268  -6.431 -28.563  0.00  0.00    -0.335 N 
ATOM      9  C4  BTN d   1      37.650  -6.143 -27.270  0.00  0.00     0.046 A 
ATOM     10  H9  BTN d   1      35.883  -6.761 -26.203  0.00  0.00     0.059 H 
ATOM     11  H10 BTN d   1      35.943  -3.850 -26.057  0.00  0.00     0.052 H 
ATOM     12  H11 BTN d   1      36.271  -3.057 -27.635  0.00  0.00     0.052 H 
ATOM     13  H12 BTN d   1      38.225  -4.341 -26.168  0.00  0.00     0.077 H 
ATOM     14  H13 BTN d   1      38.663  -3.165 -28.410  0.00  0.00     0.164 HD
ATOM     15  H14 BTN d   1      38.367  -7.342 -28.963  0.00  0.00     0.164 HD
ATOM     16  H15 BTN d   1      38.206  -6.644 -26.464  0.00  0.00     0.077 H 
ENDROOT
BRANCH   1  17
ATOM     17  C7  BTN d   1      35.939  -7.886 -28.013  0.00  0.00    -0.051 C 
ATOM     18  H7  BTN d   1      36.104  -7.714 -29.087  0.00  0.00     0.034 H 
ATOM     19  H8  BTN d   1      36.630  -8.664 -27.655  0.00  0.00     0.034 H 
BRANCH  17  20
ATOM     20  C8  BTN d   1      34.498  -8.341 -27.785  0.00  0.00    -0.063 C 
ATOM     21  H5  BTN d   1      34.287  -8.330 -26.706  0.00  0.00     0.033 H 
ATOM     22  H6  BTN d   1      33.819  -7.645 -28.299  0.00  0.00     0.033 H 
BRANCH  20  23
ATOM     23  C9  BTN d   1      34.260  -9.752 -28.322  0.00  0.00    -0.056 C 
ATOM     24  H3  BTN d   1      34.443  -9.752 -29.407  0.00  0.00     0.033 H 
ATOM     25  H4  BTN d   1      34.965 -10.440 -27.831  0.00  0.00     0.033 H 
BRANCH  23  26
ATOM     26  C10 BTN d   1      32.830 -10.246 -28.064  0.00  0.00     0.016 C 
ATOM     27  H1  BTN d   1      32.125  -9.437 -28.306  0.00  0.00     0.049 H 
ATOM     28  H2  BTN d   1      32.631 -11.112 -28.712  0.00  0.00     0.049 H 
BRANCH  26  29
ATOM     29  C11 BTN d   1      32.624 -10.661 -26.608  0.00  0.00     0.172 C 
ATOM     30  O11 BTN d   1      31.502 -10.500 -26.093  0.00  0.00    -0.648 OA
ATOM     31  O12 BTN d   1      33.567 -11.168 -25.981  0.00  0.00    -0.648 OA
ENDBRANCH  26  29
ENDBRANCH  23  26
ENDBRANCH  20  23
ENDBRANCH  17  20
ENDBRANCH   1  17
TORSDOF 5
