REMARK  6 active torsions:
REMARK  status: ('A' for Active; 'I' for Inactive)
REMARK    1  A    between atoms: S7_16  and  C4_1 
REMARK    2  A    between atoms: C10_4  and  S7_16 
REMARK    3  A    between atoms: N16_22  and  C13_5 
REMARK       I    between atoms: C17_7  and  N16_22 
REMARK       I    between atoms: N19_24  and  C17_7 
REMARK    4  A    between atoms: C20_8  and  C21_9 
REMARK    5  A    between atoms: C20_8  and  N19_24 
REMARK    6  A    between atoms: C24_11  and  N27_27 
ROOT
ATOM      1  C10 1LJ d   1      14.108   5.920  -1.881  0.00  0.00     0.064 A 
ATOM      2  C13 1LJ d   1      14.972   7.863  -0.097  0.00  0.00     0.036 A 
ATOM      3  C15 1LJ d   1      15.158   5.652  -1.023  0.00  0.00    -0.060 A 
ATOM      4  C11 1LJ d   1      13.489   7.155  -1.851  0.00  0.00    -0.060 A 
ATOM      5  C12 1LJ d   1      13.918   8.127  -0.966  0.00  0.00    -0.056 A 
ATOM      6  C14 1LJ d   1      15.588   6.618  -0.136  0.00  0.00    -0.056 A 
ATOM      7  H3  1LJ d   1      15.644   4.683  -1.047  0.00  0.00     0.085 H 
ATOM      8  H11 1LJ d   1      12.665   7.362  -2.523  0.00  0.00     0.085 H 
ATOM      9  H12 1LJ d   1      13.432   9.096  -0.949  0.00  0.00     0.087 H 
ATOM     10  H13 1LJ d   1      16.412   6.404   0.535  0.00  0.00     0.087 H 
ENDROOT
BRANCH   2  11
ATOM     11  N16 1LJ d   1      15.455   8.802   0.829  0.00  0.00    -0.309 N 
ATOM     12  C17 1LJ d   1      14.706   9.708   1.500  0.00  0.00     0.320 C 
ATOM     13  O18 1LJ d   1      13.502   9.819   1.342  0.00  0.00    -0.247 OA
ATOM     14  N19 1LJ d   1      15.333  10.517   2.376  0.00  0.00    -0.339 N 
ATOM     15  H15 1LJ d   1      16.323  10.439   2.497  0.00  0.00     0.164 HD
ATOM     16  H14 1LJ d   1      16.439   8.801   1.008  0.00  0.00     0.170 HD
BRANCH  14  17
ATOM     17  C20 1LJ d   1      14.588  11.508   3.153  0.00  0.00     0.022 C 
ATOM     18  H4  1LJ d   1      15.004  12.512   2.985  0.00  0.00     0.071 H 
ATOM     19  H5  1LJ d   1      13.527  11.498   2.864  0.00  0.00     0.071 H 
BRANCH  17  20
ATOM     20  C21 1LJ d   1      14.736  11.119   4.601  0.00  0.00    -0.023 A 
ATOM     21  C22 1LJ d   1      15.890  10.468   5.029  0.00  0.00    -0.070 A 
ATOM     22  C23 1LJ d   1      16.001  10.116   6.362  0.00  0.00    -0.039 A 
ATOM     23  H6  1LJ d   1      16.687  10.241   4.330  0.00  0.00     0.084 H 
ATOM     24  C24 1LJ d   1      14.954  10.425   7.227  0.00  0.00     0.120 A 
ATOM     25  H16 1LJ d   1      16.887   9.609   6.727  0.00  0.00     0.089 H 
ATOM     26  N25 1LJ d   1      13.871  11.044   6.780  0.00  0.00    -0.243 NA
ATOM     27  C26 1LJ d   1      13.737  11.390   5.513  0.00  0.00     0.012 A 
ATOM     28  H7  1LJ d   1      12.833  11.892   5.186  0.00  0.00     0.115 H 
BRANCH  24  29
ATOM     29  N27 1LJ d   1      15.046  10.082   8.571  0.00  0.00    -0.384 N 
ATOM     30  H17 1LJ d   1      14.274  10.309   9.214  0.00  0.00     0.157 HD
ATOM     31  H18 1LJ d   1      15.886   9.601   8.924  0.00  0.00     0.157 HD
ENDBRANCH  24  29
ENDBRANCH  17  20
ENDBRANCH  14  17
ENDBRANCH   2  11
BRANCH   1  32
ATOM     32  S7  1LJ d   1      13.571   4.675  -3.007  0.00  0.00     0.206 S 
ATOM     33  O8  1LJ d   1      12.217   4.959  -3.329  0.00  0.00    -0.217 OA
ATOM     34  O9  1LJ d   1      13.994   3.443  -2.441  0.00  0.00    -0.217 OA
BRANCH  32  35
ATOM     35  C4  1LJ d   1      14.482   4.896  -4.499  0.00  0.00     0.064 A 
ATOM     36  C5  1LJ d   1      13.816   5.209  -5.669  0.00  0.00    -0.062 A 
ATOM     37  C6  1LJ d   1      14.525   5.385  -6.842  0.00  0.00    -0.082 A 
ATOM     38  H1  1LJ d   1      12.737   5.316  -5.666  0.00  0.00     0.085 H 
ATOM     39  C1  1LJ d   1      15.901   5.247  -6.844  0.00  0.00    -0.083 A 
ATOM     40  H2  1LJ d   1      14.003   5.631  -7.760  0.00  0.00     0.083 H 
ATOM     41  C2  1LJ d   1      16.568   4.933  -5.675  0.00  0.00    -0.082 A 
ATOM     42  H8  1LJ d   1      16.457   5.385  -7.764  0.00  0.00     0.083 H 
ATOM     43  C3  1LJ d   1      15.858   4.758  -4.502  0.00  0.00    -0.062 A 
ATOM     44  H9  1LJ d   1      17.646   4.824  -5.678  0.00  0.00     0.083 H 
ATOM     45  H10 1LJ d   1      16.380   4.513  -3.584  0.00  0.00     0.085 H 
ENDBRANCH  32  35
ENDBRANCH   1  32
TORSDOF 6
