REMARK  5 active torsions:
REMARK  status: ('A' for Active; 'I' for Inactive)
REMARK    1  A    between atoms: C22_8  and  C21_9 
REMARK    2  A    between atoms: C21_9  and  N17_10 
REMARK    3  A    between atoms: C10_14  and  C9_15 
REMARK    4  A    between atoms: C1_23  and  C11_24 
REMARK    5  A    between atoms: N14_26  and  C20_27 
ROOT
ATOM      1  C9  3DK d   1       4.858  14.252  42.488  0.00  0.00     0.006 A 
ATOM      2  C8  3DK d   1       4.073  14.975  41.631  0.00  0.00    -0.009 A 
ATOM      3  N7  3DK d   1       2.899  14.292  41.547  0.00  0.00    -0.349 N 
ATOM      4  C4  3DK d   1       2.900  13.172  42.312  0.00  0.00     0.138 A 
ATOM      5  N3  3DK d   1       1.960  12.214  42.528  0.00  0.00    -0.242 NA
ATOM      6  C2  3DK d   1       2.199  11.176  43.345  0.00  0.00     0.015 A 
ATOM      7  C5  3DK d   1       4.124  13.065  42.958  0.00  0.00     0.023 A 
ATOM      8  C6  3DK d   1       4.414  12.009  43.813  0.00  0.00    -0.056 A 
ATOM      9  C1  3DK d   1       3.424  11.042  44.011  0.00  0.00    -0.004 A 
ATOM     10  H8  3DK d   1       4.333  15.902  41.123  0.00  0.00     0.112 H 
ATOM     11  H9  3DK d   1       2.101  14.591  40.969  0.00  0.00     0.167 HD
ATOM     12  H10 3DK d   1       1.429  10.427  43.492  0.00  0.00     0.116 H 
ATOM     13  H11 3DK d   1       5.375  11.937  44.309  0.00  0.00     0.086 H 
ENDROOT
BRANCH   1  14
ATOM     14  C10 3DK d   1       6.238  14.664  42.859  0.00  0.00     0.013 A 
ATOM     15  C16 3DK d   1       7.099  15.289  41.984  0.00  0.00     0.011 A 
ATOM     16  N17 3DK d   1       8.188  15.495  42.734  0.00  0.00    -0.276 N 
ATOM     17  H6  3DK d   1       6.934  15.551  40.940  0.00  0.00     0.115 H 
ATOM     18  N18 3DK d   1       8.016  15.001  44.042  0.00  0.00    -0.184 NA
ATOM     19  C19 3DK d   1       6.766  14.483  44.118  0.00  0.00     0.034 A 
ATOM     20  H7  3DK d   1       6.286  14.026  44.982  0.00  0.00     0.118 H 
BRANCH  16  21
ATOM     21  C21 3DK d   1       9.507  16.077  42.465  0.00  0.00     0.043 C 
ATOM     22  H4  3DK d   1      10.255  15.508  43.037  0.00  0.00     0.074 H 
ATOM     23  H5  3DK d   1       9.713  15.975  41.389  0.00  0.00     0.074 H 
BRANCH  21  24
ATOM     24  C22 3DK d   1       9.646  17.542  42.834  0.00  0.00     0.003 A 
ATOM     25  C23 3DK d   1      10.581  17.918  43.798  0.00  0.00    -0.035 A 
ATOM     26  C24 3DK d   1      10.739  19.260  44.141  0.00  0.00     0.117 A 
ATOM     27  H1  3DK d   1      11.188  17.163  44.283  0.00  0.00     0.089 H 
ATOM     28  F29 3DK d   1      11.639  19.611  45.077  0.00  0.00    -0.206 F 
ATOM     29  C25 3DK d   1       9.971  20.236  43.511  0.00  0.00    -0.043 A 
ATOM     30  C26 3DK d   1       9.044  19.865  42.542  0.00  0.00    -0.042 A 
ATOM     31  H2  3DK d   1      10.095  21.280  43.774  0.00  0.00     0.088 H 
ATOM     32  C27 3DK d   1       8.887  18.521  42.201  0.00  0.00     0.124 A 
ATOM     33  H3  3DK d   1       8.443  20.622  42.051  0.00  0.00     0.088 H 
ATOM     34  F28 3DK d   1       7.988  18.181  41.259  0.00  0.00    -0.205 F 
ENDBRANCH  21  24
ENDBRANCH  16  21
ENDBRANCH   1  14
BRANCH   9  35
ATOM     35  C11 3DK d   1       3.663   9.874  44.915  0.00  0.00     0.012 A 
ATOM     36  C15 3DK d   1       2.843   8.756  45.040  0.00  0.00     0.010 A 
ATOM     37  N14 3DK d   1       3.418   7.961  45.942  0.00  0.00    -0.285 N 
ATOM     38  H12 3DK d   1       1.913   8.568  44.505  0.00  0.00     0.115 H 
ATOM     39  N13 3DK d   1       4.607   8.521  46.423  0.00  0.00    -0.185 NA
ATOM     40  C12 3DK d   1       4.747   9.703  45.779  0.00  0.00     0.034 A 
ATOM     41  H16 3DK d   1       5.569  10.405  45.912  0.00  0.00     0.118 H 
BRANCH  37  42
ATOM     42  C20 3DK d   1       3.045   6.639  46.513  0.00  0.00     0.002 C 
ATOM     43  H13 3DK d   1       3.807   6.326  47.242  0.00  0.00     0.059 H 
ATOM     44  H14 3DK d   1       2.983   5.895  45.705  0.00  0.00     0.059 H 
ATOM     45  H15 3DK d   1       2.069   6.718  47.014  0.00  0.00     0.059 H 
ENDBRANCH  37  42
ENDBRANCH   9  35
TORSDOF 5
