REMARK WARNING: 32 MAX_TORS EXCEEDED!!!
REMARK  42 active torsions:
REMARK  status: ('A' for Active; 'I' for Inactive)
REMARK    1  A    between atoms: N_1  and  CA_2 
REMARK    2  A    between atoms: CA_2  and  C_3 
REMARK    3  A    between atoms: CA_2  and  CB_5 
REMARK       I    between atoms: C_3  and  N_6 
REMARK    4  A    between atoms: N_6  and  CA_7 
REMARK    5  A    between atoms: CA_7  and  C_8 
REMARK    6  A    between atoms: CA_7  and  CB_10 
REMARK       I    between atoms: C_8  and  N_14 
REMARK    7  A    between atoms: CB_10  and  CG_11 
REMARK       I    between atoms: CG_11  and  ND2_13 
REMARK    8  A    between atoms: N_14  and  CA_15 
REMARK    9  A    between atoms: CA_15  and  C_16 
REMARK   10  A    between atoms: CA_15  and  CB_18 
REMARK       I    between atoms: C_16  and  N_20 
REMARK   11  A    between atoms: CB_18  and  OG_19 
REMARK   12  A    between atoms: N_20  and  CA_21 
REMARK   13  A    between atoms: CA_21  and  C_22 
REMARK   14  A    between atoms: CA_21  and  CB_24 
REMARK       I    between atoms: C_22  and  N_31 
REMARK   15  A    between atoms: CB_24  and  CG_25 
REMARK   16  A    between atoms: CG_25  and  CD_26 
REMARK   17  A    between atoms: CD_26  and  NE_27 
REMARK       I    between atoms: NE_27  and  CZ_28 
REMARK       I    between atoms: CZ_28  and  NH1_29 
REMARK   18  A    between atoms: N_31  and  CA_32 
REMARK   19  A    between atoms: CA_32  and  C_33 
REMARK   20  A    between atoms: CA_32  and  CB_35 
REMARK       I    between atoms: C_33  and  N_36 
REMARK   21  A    between atoms: CA_37  and  C_38 
REMARK       I    between atoms: C_38  and  N_43 
REMARK   22  A    between atoms: N_43  and  CA_44 
REMARK   23  A    between atoms: CA_44  and  C_45 
REMARK   24  A    between atoms: CA_44  and  CB_47 
REMARK       I    between atoms: C_45  and  N_50 
REMARK   25  A    between atoms: CB_47  and  OG1_48 
REMARK   26  A    between atoms: CB_47  and  CG2_49 
REMARK   27  A    between atoms: N_50  and  CA_51 
REMARK   28  A    between atoms: CA_51  and  C_52 
REMARK   29  A    between atoms: CA_51  and  CB_54 
REMARK       I    between atoms: C_52  and  N_56 
REMARK   30  A    between atoms: CB_54  and  OG_55 
REMARK   31  A    between atoms: N_56  and  CA_57 
REMARK   32  A    between atoms: CA_57  and  C_58 
REMARK   33  A    between atoms: CA_57  and  CB_60 
REMARK       I    between atoms: C_58  and  N_64 
REMARK   34  A    between atoms: CB_60  and  CG1_61 
REMARK   35  A    between atoms: CB_60  and  CG2_62 
REMARK   36  A    between atoms: CG1_61  and  CD1_63 
REMARK   37  A    between atoms: N_64  and  CA_65 
REMARK   38  A    between atoms: CA_65  and  C_66 
REMARK   39  A    between atoms: CA_65  and  CB_68 
REMARK   40  A    between atoms: CB_68  and  CG1_69 
REMARK   41  A    between atoms: CB_68  and  CG2_70 
REMARK   42  A    between atoms: CG1_69  and  CD1_71 
ROOT
ATOM      1  C   ALA d   1      35.857  21.013  31.958  0.00  0.00     0.243 C 
ATOM      2  O   ALA d   1      36.569  22.015  32.047  0.00  0.00    -0.271 OA
ATOM      3  N   PRO d   1      35.063  20.787  30.907  0.00  0.00    -0.337 N 
ATOM      4  CA  PRO d   1      35.043  21.771  29.828  0.00  0.00     0.091 C 
ATOM      5  CB  PRO d   1      34.406  20.999  28.675  0.00  0.00    -0.036 C 
ATOM      6  CG  PRO d   1      33.458  20.086  29.350  0.00  0.00    -0.048 C 
ATOM      7  CD  PRO d   1      34.144  19.667  30.639  0.00  0.00    -0.001 C 
ATOM      8  H   PRO d   1      36.059  22.110  29.576  0.00  0.00     0.087 H 
ATOM      9  H   PRO d   1      35.165  20.433  28.114  0.00  0.00     0.036 H 
ATOM     10  H   PRO d   1      33.877  21.679  27.992  0.00  0.00     0.036 H 
ATOM     11  H   PRO d   1      33.255  19.208  28.720  0.00  0.00     0.035 H 
ATOM     12  H   PRO d   1      32.514  20.606  29.569  0.00  0.00     0.035 H 
ATOM     13  H   PRO d   1      33.415  19.550  31.454  0.00  0.00     0.064 H 
ATOM     14  H   PRO d   1      34.697  18.726  30.504  0.00  0.00     0.064 H 
ENDROOT
BRANCH   1  15
ATOM     15  CA  ALA d   1      35.845  19.976  33.072  0.00  0.00     0.086 C 
ATOM     16  H   ALA d   1      35.602  18.992  32.644  0.00  0.00     0.086 H 
BRANCH  15  17
ATOM     17  N   ALA d   1      37.169  19.915  33.680  0.00  0.00    -0.346 N 
ATOM     18  C   ARG d   1      38.196  19.368  33.034  0.00  0.00     0.241 C 
ATOM     19  O   ARG d   1      38.081  18.840  31.931  0.00  0.00    -0.271 OA
ATOM     20  H   ALA d   1      37.307  20.290  34.597  0.00  0.00     0.163 HD
BRANCH  18  21
ATOM     21  CA  ARG d   1      39.555  19.414  33.731  0.00  0.00     0.089 C 
ATOM     22  H   ARG d   1      40.295  19.774  33.001  0.00  0.00     0.087 H 
BRANCH  21  23
ATOM     23  N   ARG d   1      39.570  20.326  34.867  0.00  0.00    -0.346 N 
ATOM     24  C   SER d   1      39.756  21.632  34.717  0.00  0.00     0.243 C 
ATOM     25  O   SER d   1      39.883  22.170  33.615  0.00  0.00    -0.271 OA
ATOM     26  H   ARG d   1      39.436  19.957  35.787  0.00  0.00     0.163 HD
BRANCH  24  27
ATOM     27  CA  SER d   1      39.805  22.453  36.001  0.00  0.00     0.109 C 
ATOM     28  H   SER d   1      39.196  23.357  35.851  0.00  0.00     0.090 H 
BRANCH  27  29
ATOM     29  N   SER d   1      39.255  21.724  37.141  0.00  0.00    -0.344 N 
ATOM     30  C   ASN d   1      37.998  21.288  37.161  0.00  0.00     0.241 C 
ATOM     31  O   ASN d   1      37.227  21.418  36.209  0.00  0.00    -0.271 OA
ATOM     32  H   SER d   1      39.842  21.547  37.931  0.00  0.00     0.163 HD
BRANCH  30  33
ATOM     33  CA  ASN d   1      37.543  20.595  38.442  0.00  0.00     0.097 C 
ATOM     34  H   ASN d   1      38.439  20.299  39.007  0.00  0.00     0.088 H 
BRANCH  33  35
ATOM     35  N   ASN d   1      36.746  21.476  39.286  0.00  0.00    -0.346 N 
ATOM     36  C   ALA d   1      36.770  21.378  40.611  0.00  0.00     0.248 C 
ATOM     37  O   ALA d   1      37.493  20.581  41.211  0.00  0.00    -0.271 OA
ATOM     38  H   ASN d   1      36.168  22.171  38.858  0.00  0.00     0.163 HD
BRANCH  36  39
ATOM     39  CA  ALA d   1      35.845  22.318  41.375  0.00  0.00     0.172 C 
ATOM     40  H   ALA d   1      34.820  21.924  41.303  0.00  0.00     0.098 H 
BRANCH  39  41
ATOM     41  N   ALA d   1      36.211  22.380  42.785  0.00  0.00    -0.067 N 
ATOM     42  H   ALA d   1      35.586  23.007  43.267  0.00  0.00     0.275 HD
ATOM     43  H   ALA d   1      37.157  22.716  42.872  0.00  0.00     0.275 HD
ATOM     44  H   ALA d   1      36.143  21.460  43.191  0.00  0.00     0.275 HD
ENDBRANCH  39  41
BRANCH  39  45
ATOM     45  CB  ALA d   1      35.866  23.709  40.757  0.00  0.00    -0.042 C 
ATOM     46  H   ALA d   1      35.588  23.642  39.695  0.00  0.00     0.030 H 
ATOM     47  H   ALA d   1      36.877  24.134  40.845  0.00  0.00     0.030 H 
ATOM     48  H   ALA d   1      35.149  24.355  41.284  0.00  0.00     0.030 H 
ENDBRANCH  39  45
ENDBRANCH  36  39
ENDBRANCH  33  35
BRANCH  33  49
ATOM     49  CB  ASN d   1      36.747  19.335  38.103  0.00  0.00     0.036 C 
ATOM     50  H   ASN d   1      35.923  19.610  37.429  0.00  0.00     0.051 H 
ATOM     51  H   ASN d   1      36.336  18.917  39.034  0.00  0.00     0.051 H 
BRANCH  49  52
ATOM     52  CG  ASN d   1      37.592  18.275  37.428  0.00  0.00     0.217 C 
ATOM     53  OD1 ASN d   1      38.680  18.559  36.928  0.00  0.00    -0.274 OA
ATOM     54  ND2 ASN d   1      37.093  17.043  37.408  0.00  0.00    -0.370 N 
ATOM     55  H   ASN d   1      37.607  16.302  36.976  0.00  0.00     0.159 HD
ATOM     56  H   ASN d   1      36.203  16.857  37.825  0.00  0.00     0.159 HD
ENDBRANCH  49  52
ENDBRANCH  33  49
ENDBRANCH  30  33
ENDBRANCH  27  29
BRANCH  27  57
ATOM     57  CB  SER d   1      41.246  22.885  36.290  0.00  0.00     0.044 C 
ATOM     58  H   SER d   1      41.260  23.507  37.197  0.00  0.00     0.077 H 
ATOM     59  H   SER d   1      41.623  23.470  35.438  0.00  0.00     0.077 H 
BRANCH  57  60
ATOM     60  OG  SER d   1      42.086  21.761  36.487  0.00  0.00    -0.398 OA
ATOM     61  H   SER d   1      42.972  22.056  36.664  0.00  0.00     0.209 HD
ENDBRANCH  57  60
ENDBRANCH  27  57
ENDBRANCH  24  27
ENDBRANCH  21  23
BRANCH  21  62
ATOM     62  CB  ARG d   1      39.968  18.010  34.181  0.00  0.00    -0.036 C 
ATOM     63  H   ARG d   1      40.031  17.364  33.293  0.00  0.00     0.036 H 
ATOM     64  H   ARG d   1      39.197  17.622  34.862  0.00  0.00     0.036 H 
BRANCH  62  65
ATOM     65  CG  ARG d   1      41.309  17.970  34.900  0.00  0.00    -0.048 C 
ATOM     66  H   ARG d   1      41.336  18.773  35.651  0.00  0.00     0.035 H 
ATOM     67  H   ARG d   1      42.113  18.127  34.166  0.00  0.00     0.035 H 
BRANCH  65  68
ATOM     68  CD  ARG d   1      41.528  16.637  35.594  0.00  0.00     0.009 C 
ATOM     69  H   ARG d   1      42.545  16.617  36.014  0.00  0.00     0.064 H 
ATOM     70  H   ARG d   1      41.421  15.829  34.855  0.00  0.00     0.064 H 
BRANCH  68  71
ATOM     71  NE  ARG d   1      40.568  16.420  36.673  0.00  0.00    -0.227 N 
ATOM     72  CZ  ARG d   1      40.531  15.327  37.429  0.00  0.00     0.665 C 
ATOM     73  NH1 ARG d   1      41.407  14.352  37.226  0.00  0.00    -0.235 N 
ATOM     74  NH2 ARG d   1      39.626  15.207  38.392  0.00  0.00    -0.235 N 
ATOM     75  H   ARG d   1      41.379  13.505  37.811  0.00  0.00     0.174 HD
ATOM     76  H   ARG d   1      42.115  14.442  36.483  0.00  0.00     0.174 HD
ATOM     77  H   ARG d   1      38.943  15.961  38.554  0.00  0.00     0.174 HD
ATOM     78  H   ARG d   1      39.606  14.360  38.977  0.00  0.00     0.174 HD
ATOM     79  H   ARG d   1      39.876  17.160  36.860  0.00  0.00     0.177 HD
ENDBRANCH  68  71
ENDBRANCH  65  68
ENDBRANCH  62  65
ENDBRANCH  21  62
ENDBRANCH  18  21
ENDBRANCH  15  17
BRANCH  15  80
ATOM     80  CB  ALA d   1      34.796  20.329  34.111  0.00  0.00    -0.049 C 
ATOM     81  H   ALA d   1      33.806  20.370  33.633  0.00  0.00     0.030 H 
ATOM     82  H   ALA d   1      35.031  21.309  34.551  0.00  0.00     0.030 H 
ATOM     83  H   ALA d   1      34.790  19.564  34.901  0.00  0.00     0.030 H 
ENDBRANCH  15  80
ENDBRANCH   1  15
BRANCH   4  84
ATOM     84  C   PRO d   1      34.173  22.961  30.191  0.00  0.00     0.241 C 
ATOM     85  O   PRO d   1      33.507  22.970  31.233  0.00  0.00    -0.271 OA
ATOM     86  N   THR d   1      34.198  23.951  29.315  0.00  0.00    -0.344 N 
ATOM     87  H   THR d   1      34.786  23.865  28.511  0.00  0.00     0.163 HD
BRANCH  86  88
ATOM     88  CA  THR d   1      33.410  25.151  29.472  0.00  0.00     0.113 C 
ATOM     89  H   THR d   1      32.729  25.038  30.328  0.00  0.00     0.091 H 
BRANCH  88  90
ATOM     90  C   THR d   1      32.609  25.365  28.203  0.00  0.00     0.243 C 
ATOM     91  O   THR d   1      33.150  25.236  27.099  0.00  0.00    -0.271 OA
ATOM     92  N   SER d   1      31.320  25.665  28.353  0.00  0.00    -0.344 N 
ATOM     93  H   SER d   1      30.930  25.680  29.274  0.00  0.00     0.163 HD
BRANCH  92  94
ATOM     94  CA  SER d   1      30.461  25.972  27.218  0.00  0.00     0.109 C 
ATOM     95  H   SER d   1      31.070  25.969  26.302  0.00  0.00     0.090 H 
BRANCH  94  96
ATOM     96  C   SER d   1      29.854  27.351  27.407  0.00  0.00     0.243 C 
ATOM     97  O   SER d   1      29.415  27.703  28.507  0.00  0.00    -0.271 OA
ATOM     98  N   ILE d   1      29.851  28.122  26.327  0.00  0.00    -0.346 N 
ATOM     99  H   ILE d   1      30.321  27.795  25.507  0.00  0.00     0.163 HD
BRANCH  98 100
ATOM    100  CA  ILE d   1      29.197  29.421  26.279  0.00  0.00     0.092 C 
ATOM    101  H   ILE d   1      29.217  29.895  27.271  0.00  0.00     0.088 H 
BRANCH 100 102
ATOM    102  C   ILE d   1      27.766  29.180  25.827  0.00  0.00     0.241 C 
ATOM    103  O   ILE d   1      27.550  28.569  24.778  0.00  0.00    -0.271 OA
ATOM    104  N   ILE d   1      26.800  29.654  26.613  0.00  0.00    -0.344 N 
ATOM    105  H   ILE d   1      27.056  30.212  27.402  0.00  0.00     0.163 HD
BRANCH 104 106
ATOM    106  CA  ILE d   1      25.379  29.393  26.372  0.00  0.00     0.099 C 
ATOM    107  H   ILE d   1      25.282  29.122  25.311  0.00  0.00     0.090 H 
BRANCH 106 108
ATOM    108  C   ILE d   1      24.484  30.608  26.616  0.00  0.00     0.197 C 
ATOM    109  O   ILE d   1      24.948  31.660  27.103  0.00  0.00    -0.646 OA
ATOM    110  OXT ILE d   1      23.285  30.511  26.307  0.00  0.00    -0.646 OA
ENDBRANCH 106 108
BRANCH 106 111
ATOM    111  CB  ILE d   1      24.854  28.198  27.214  0.00  0.00    -0.029 C 
ATOM    112  H   ILE d   1      23.798  28.032  26.954  0.00  0.00     0.043 H 
BRANCH 111 113
ATOM    113  CG1 ILE d   1      24.935  28.502  28.707  0.00  0.00    -0.063 C 
ATOM    114  H   ILE d   1      24.430  29.460  28.898  0.00  0.00     0.033 H 
ATOM    115  H   ILE d   1      25.994  28.582  28.992  0.00  0.00     0.033 H 
BRANCH 113 116
ATOM    116  CD1 ILE d   1      24.284  27.433  29.560  0.00  0.00    -0.076 C 
ATOM    117  H   ILE d   1      24.374  27.706  30.622  0.00  0.00     0.027 H 
ATOM    118  H   ILE d   1      24.785  26.469  29.386  0.00  0.00     0.027 H 
ATOM    119  H   ILE d   1      23.221  27.347  29.292  0.00  0.00     0.027 H 
ENDBRANCH 113 116
ENDBRANCH 111 113
BRANCH 111 120
ATOM    120  CG2 ILE d   1      25.634  26.929  26.884  0.00  0.00    -0.070 C 
ATOM    121  H   ILE d   1      25.564  26.726  25.805  0.00  0.00     0.028 H 
ATOM    122  H   ILE d   1      25.211  26.082  27.444  0.00  0.00     0.028 H 
ATOM    123  H   ILE d   1      26.689  27.064  27.164  0.00  0.00     0.028 H 
ENDBRANCH 111 120
ENDBRANCH 106 111
ENDBRANCH 104 106
ENDBRANCH 100 102
BRANCH 100 124
ATOM    124  CB  ILE d   1      29.888  30.334  25.244  0.00  0.00    -0.030 C 
ATOM    125  H   ILE d   1      29.750  29.876  24.253  0.00  0.00     0.043 H 
BRANCH 124 126
ATOM    126  CG1 ILE d   1      31.399  30.415  25.500  0.00  0.00    -0.063 C 
ATOM    127  H   ILE d   1      31.784  29.393  25.634  0.00  0.00     0.033 H 
ATOM    128  H   ILE d   1      31.564  30.992  26.422  0.00  0.00     0.033 H 
BRANCH 126 129
ATOM    129  CD1 ILE d   1      32.178  31.078  24.371  0.00  0.00    -0.076 C 
ATOM    130  H   ILE d   1      33.248  31.099  24.627  0.00  0.00     0.027 H 
ATOM    131  H   ILE d   1      31.815  32.107  24.230  0.00  0.00     0.027 H 
ATOM    132  H   ILE d   1      32.034  30.507  23.442  0.00  0.00     0.027 H 
ENDBRANCH 126 129
ENDBRANCH 124 126
BRANCH 124 133
ATOM    133  CG2 ILE d   1      29.227  31.705  25.203  0.00  0.00    -0.071 C 
ATOM    134  H   ILE d   1      28.149  31.587  25.017  0.00  0.00     0.028 H 
ATOM    135  H   ILE d   1      29.675  32.304  24.396  0.00  0.00     0.028 H 
ATOM    136  H   ILE d   1      29.380  32.215  26.166  0.00  0.00     0.028 H 
ENDBRANCH 124 133
ENDBRANCH 100 124
ENDBRANCH  98 100
ENDBRANCH  94  96
BRANCH  94 137
ATOM    137  CB  SER d   1      29.344  24.935  27.069  0.00  0.00     0.044 C 
ATOM    138  H   SER d   1      28.667  25.250  26.261  0.00  0.00     0.077 H 
ATOM    139  H   SER d   1      28.784  24.873  28.014  0.00  0.00     0.077 H 
BRANCH 137 140
ATOM    140  OG  SER d   1      29.871  23.654  26.758  0.00  0.00    -0.398 OA
ATOM    141  H   SER d   1      30.453  23.375  27.455  0.00  0.00     0.209 HD
ENDBRANCH 137 140
ENDBRANCH  94 137
ENDBRANCH  92  94
ENDBRANCH  88  90
BRANCH  88 142
ATOM    142  CB  THR d   1      34.331  26.356  29.707  0.00  0.00     0.060 C 
ATOM    143  H   THR d   1      35.073  26.405  28.896  0.00  0.00     0.086 H 
BRANCH 142 144
ATOM    144  OG1 THR d   1      35.005  26.187  30.961  0.00  0.00    -0.393 OA
ATOM    145  H   THR d   1      35.519  25.389  30.938  0.00  0.00     0.210 HD
ENDBRANCH 142 144
BRANCH 142 146
ATOM    146  CG2 THR d   1      33.538  27.656  29.734  0.00  0.00    -0.050 C 
ATOM    147  H   THR d   1      34.223  28.500  29.904  0.00  0.00     0.031 H 
ATOM    148  H   THR d   1      32.797  27.617  30.546  0.00  0.00     0.031 H 
ATOM    149  H   THR d   1      33.022  27.791  28.772  0.00  0.00     0.031 H 
ENDBRANCH 142 146
ENDBRANCH  88 142
ENDBRANCH  86  88
ENDBRANCH   4  84
TORSDOF 42
