REMARK WARNING: 32 MAX_TORS EXCEEDED!!!
REMARK  37 active torsions:
REMARK  status: ('A' for Active; 'I' for Inactive)
REMARK    1  A    between atoms: N_1  and  CA_2 
REMARK    2  A    between atoms: CA_2  and  C_3 
REMARK    3  A    between atoms: CA_2  and  CB_5 
REMARK       I    between atoms: C_3  and  N_7 
REMARK    4  A    between atoms: CB_5  and  OG_6 
REMARK    5  A    between atoms: N_7  and  CA_8 
REMARK    6  A    between atoms: CA_8  and  C_9 
REMARK    7  A    between atoms: CA_8  and  CB_11 
REMARK       I    between atoms: C_9  and  N_18 
REMARK    8  A    between atoms: CB_11  and  CG_12 
REMARK    9  A    between atoms: CG_12  and  CD_13 
REMARK   10  A    between atoms: CD_13  and  NE_14 
REMARK       I    between atoms: NE_14  and  CZ_15 
REMARK       I    between atoms: CZ_15  and  NH1_16 
REMARK   11  A    between atoms: N_18  and  CA_19 
REMARK   12  A    between atoms: CA_19  and  C_20 
REMARK   13  A    between atoms: CA_19  and  CB_22 
REMARK       I    between atoms: C_20  and  N_25 
REMARK   14  A    between atoms: CB_22  and  CG1_23 
REMARK   15  A    between atoms: CB_22  and  CG2_24 
REMARK   16  A    between atoms: CA_26  and  C_27 
REMARK       I    between atoms: C_27  and  N_32 
REMARK   17  A    between atoms: N_32  and  CA_33 
REMARK   18  A    between atoms: CA_33  and  C_34 
REMARK   19  A    between atoms: CA_33  and  CB_36 
REMARK       I    between atoms: C_34  and  N_39 
REMARK   20  A    between atoms: CB_36  and  OG1_37 
REMARK   21  A    between atoms: CB_36  and  CG2_38 
REMARK   22  A    between atoms: N_39  and  CA_40 
REMARK   23  A    between atoms: CA_40  and  C_41 
REMARK   24  A    between atoms: CA_40  and  CB_43 
REMARK       I    between atoms: C_41  and  N_45 
REMARK   25  A    between atoms: CB_43  and  OG_44 
REMARK   26  A    between atoms: N_45  and  CA_46 
REMARK   27  A    between atoms: CA_46  and  C_47 
REMARK   28  A    between atoms: CA_46  and  CB_49 
REMARK       I    between atoms: C_47  and  N_53 
REMARK   29  A    between atoms: CB_49  and  CG1_50 
REMARK   30  A    between atoms: CB_49  and  CG2_51 
REMARK   31  A    between atoms: CG1_50  and  CD1_52 
REMARK   32  A    between atoms: N_53  and  CA_54 
REMARK   33  A    between atoms: CA_54  and  C_55 
REMARK   34  A    between atoms: CA_54  and  CB_57 
REMARK   35  A    between atoms: CB_57  and  CG1_58 
REMARK   36  A    between atoms: CB_57  and  CG2_59 
REMARK   37  A    between atoms: CG1_58  and  CD1_60 
ROOT
ATOM      1  C   PRO d   1      20.870  25.050  79.380  0.00  0.00     0.241 C 
ATOM      2  O   PRO d   1      21.510  25.014  80.435  0.00  0.00    -0.271 OA
ATOM      3  N   THR d   1      20.829  24.056  78.499  0.00  0.00    -0.344 N 
ATOM      4  H   THR d   1      20.218  24.143  77.713  0.00  0.00     0.163 HD
ENDROOT
BRANCH   1   5
ATOM      5  CA  PRO d   1      20.057  26.291  78.998  0.00  0.00     0.091 C 
ATOM      6  N   PRO d   1      19.655  27.110  80.147  0.00  0.00    -0.337 N 
ATOM      7  C   VAL d   1      18.670  26.733  80.970  0.00  0.00     0.243 C 
ATOM      8  CD  PRO d   1      20.428  28.361  80.230  0.00  0.00    -0.001 C 
ATOM      9  O   VAL d   1      18.100  25.648  80.869  0.00  0.00    -0.271 OA
ATOM     10  CG  PRO d   1      21.523  28.157  79.205  0.00  0.00    -0.048 C 
ATOM     11  H   PRO d   1      20.850  28.498  81.237  0.00  0.00     0.064 H 
ATOM     12  H   PRO d   1      19.803  29.229  79.973  0.00  0.00     0.064 H 
ATOM     13  CB  PRO d   1      20.930  27.251  78.182  0.00  0.00    -0.036 C 
ATOM     14  H   PRO d   1      21.811  29.117  78.751  0.00  0.00     0.035 H 
ATOM     15  H   PRO d   1      22.405  27.691  79.669  0.00  0.00     0.035 H 
ATOM     16  H   PRO d   1      20.321  27.819  77.463  0.00  0.00     0.036 H 
ATOM     17  H   PRO d   1      21.716  26.702  77.643  0.00  0.00     0.036 H 
ATOM     18  H   PRO d   1      19.172  25.976  78.426  0.00  0.00     0.087 H 
BRANCH   7  19
ATOM     19  CA  VAL d   1      18.263  27.726  82.057  0.00  0.00     0.092 C 
ATOM     20  H   VAL d   1      18.766  28.685  81.862  0.00  0.00     0.088 H 
BRANCH  19  21
ATOM     21  N   VAL d   1      16.826  27.947  82.029  0.00  0.00    -0.346 N 
ATOM     22  C   ARG d   1      16.297  29.037  81.479  0.00  0.00     0.241 C 
ATOM     23  O   ARG d   1      16.957  29.876  80.864  0.00  0.00    -0.271 OA
ATOM     24  H   VAL d   1      16.220  27.262  82.433  0.00  0.00     0.163 HD
BRANCH  22  25
ATOM     25  CA  ARG d   1      14.794  29.204  81.666  0.00  0.00     0.089 C 
ATOM     26  H   ARG d   1      14.381  29.753  80.807  0.00  0.00     0.087 H 
BRANCH  25  27
ATOM     27  N   ARG d   1      14.157  27.895  81.742  0.00  0.00    -0.346 N 
ATOM     28  C   SER d   1      14.144  27.063  80.703  0.00  0.00     0.251 C 
ATOM     29  O   SER d   1      14.601  27.364  79.596  0.00  0.00    -0.271 OA
ATOM     30  H   ARG d   1      13.719  27.615  82.596  0.00  0.00     0.163 HD
BRANCH  28  31
ATOM     31  CA  SER d   1      13.520  25.687  80.942  0.00  0.00     0.195 C 
ATOM     32  H   SER d   1      13.929  24.997  80.189  0.00  0.00     0.102 H 
BRANCH  31  33
ATOM     33  N   SER d   1      13.853  25.156  82.261  0.00  0.00    -0.064 N 
ATOM     34  H   SER d   1      13.424  24.251  82.377  0.00  0.00     0.275 HD
ATOM     35  H   SER d   1      13.512  25.784  82.972  0.00  0.00     0.275 HD
ATOM     36  H   SER d   1      14.854  25.066  82.344  0.00  0.00     0.275 HD
ENDBRANCH  31  33
BRANCH  31  37
ATOM     37  CB  SER d   1      12.000  25.747  80.755  0.00  0.00     0.051 C 
ATOM     38  H   SER d   1      11.547  26.201  81.648  0.00  0.00     0.077 H 
ATOM     39  H   SER d   1      11.614  24.725  80.627  0.00  0.00     0.077 H 
BRANCH  37  40
ATOM     40  OG  SER d   1      11.650  26.519  79.616  0.00  0.00    -0.398 OA
ATOM     41  H   SER d   1      10.704  26.538  79.526  0.00  0.00     0.209 HD
ENDBRANCH  37  40
ENDBRANCH  31  37
ENDBRANCH  28  31
ENDBRANCH  25  27
BRANCH  25  42
ATOM     42  CB  ARG d   1      14.533  30.008  82.946  0.00  0.00    -0.036 C 
ATOM     43  H   ARG d   1      15.244  30.847  82.976  0.00  0.00     0.036 H 
ATOM     44  H   ARG d   1      14.709  29.348  83.808  0.00  0.00     0.036 H 
BRANCH  42  45
ATOM     45  CG  ARG d   1      13.123  30.574  83.059  0.00  0.00    -0.048 C 
ATOM     46  H   ARG d   1      12.403  29.799  82.756  0.00  0.00     0.035 H 
ATOM     47  H   ARG d   1      13.033  31.441  82.388  0.00  0.00     0.035 H 
BRANCH  45  48
ATOM     48  CD  ARG d   1      12.803  31.016  84.482  0.00  0.00     0.009 C 
ATOM     49  H   ARG d   1      13.086  30.206  85.171  0.00  0.00     0.064 H 
ATOM     50  H   ARG d   1      11.721  31.198  84.556  0.00  0.00     0.064 H 
BRANCH  48  51
ATOM     51  NE  ARG d   1      13.506  32.233  84.883  0.00  0.00    -0.227 N 
ATOM     52  CZ  ARG d   1      13.017  33.466  84.749  0.00  0.00     0.665 C 
ATOM     53  NH1 ARG d   1      11.817  33.666  84.212  0.00  0.00    -0.235 N 
ATOM     54  NH2 ARG d   1      13.730  34.506  85.157  0.00  0.00    -0.235 N 
ATOM     55  H   ARG d   1      11.450  34.623  84.114  0.00  0.00     0.174 HD
ATOM     56  H   ARG d   1      11.255  32.864  83.894  0.00  0.00     0.174 HD
ATOM     57  H   ARG d   1      14.661  34.361  85.574  0.00  0.00     0.174 HD
ATOM     58  H   ARG d   1      13.354  35.460  85.057  0.00  0.00     0.174 HD
ATOM     59  H   ARG d   1      14.443  32.131  85.297  0.00  0.00     0.177 HD
ENDBRANCH  48  51
ENDBRANCH  45  48
ENDBRANCH  42  45
ENDBRANCH  25  42
ENDBRANCH  22  25
ENDBRANCH  19  21
BRANCH  19  60
ATOM     60  CB  VAL d   1      18.710  27.214  83.433  0.00  0.00    -0.033 C 
ATOM     61  H   VAL d   1      18.271  26.219  83.595  0.00  0.00     0.042 H 
BRANCH  60  62
ATOM     62  CG1 VAL d   1      20.220  27.089  83.485  0.00  0.00    -0.071 C 
ATOM     63  H   VAL d   1      20.523  26.721  84.476  0.00  0.00     0.028 H 
ATOM     64  H   VAL d   1      20.676  28.073  83.304  0.00  0.00     0.028 H 
ATOM     65  H   VAL d   1      20.556  26.381  82.713  0.00  0.00     0.028 H 
ENDBRANCH  60  62
BRANCH  60  66
ATOM     66  CG2 VAL d   1      18.215  28.151  84.540  0.00  0.00    -0.071 C 
ATOM     67  H   VAL d   1      17.119  28.232  84.489  0.00  0.00     0.028 H 
ATOM     68  H   VAL d   1      18.662  29.147  84.405  0.00  0.00     0.028 H 
ATOM     69  H   VAL d   1      18.508  27.747  85.520  0.00  0.00     0.028 H 
ENDBRANCH  60  66
ENDBRANCH  19  60
ENDBRANCH   7  19
ENDBRANCH   1   5
BRANCH   3  70
ATOM     70  CA  THR d   1      21.631  22.845  78.622  0.00  0.00     0.113 C 
ATOM     71  H   THR d   1      22.313  22.936  79.481  0.00  0.00     0.091 H 
BRANCH  70  72
ATOM     72  C   THR d   1      22.420  22.674  77.343  0.00  0.00     0.243 C 
ATOM     73  O   THR d   1      21.884  22.877  76.248  0.00  0.00    -0.271 OA
ATOM     74  N   SER d   1      23.687  22.285  77.467  0.00  0.00    -0.344 N 
ATOM     75  H   SER d   1      24.089  22.208  78.379  0.00  0.00     0.163 HD
BRANCH  74  76
ATOM     76  CA  SER d   1      24.502  21.969  76.298  0.00  0.00     0.109 C 
ATOM     77  H   SER d   1      23.860  21.977  75.404  0.00  0.00     0.090 H 
BRANCH  76  78
ATOM     78  C   SER d   1      25.108  20.588  76.468  0.00  0.00     0.243 C 
ATOM     79  O   SER d   1      25.550  20.228  77.562  0.00  0.00    -0.271 OA
ATOM     80  N   ILE d   1      25.116  19.821  75.383  0.00  0.00    -0.346 N 
ATOM     81  H   ILE d   1      24.651  20.155  74.563  0.00  0.00     0.163 HD
BRANCH  80  82
ATOM     82  CA  ILE d   1      25.768  18.517  75.327  0.00  0.00     0.092 C 
ATOM     83  H   ILE d   1      25.737  18.035  76.315  0.00  0.00     0.088 H 
BRANCH  82  84
ATOM     84  C   ILE d   1      27.208  18.763  74.896  0.00  0.00     0.241 C 
ATOM     85  O   ILE d   1      27.436  19.414  73.871  0.00  0.00    -0.271 OA
ATOM     86  N   ILE d   1      28.177  18.262  75.668  0.00  0.00    -0.344 N 
ATOM     87  H   ILE d   1      27.926  17.691  76.449  0.00  0.00     0.163 HD
BRANCH  86  88
ATOM     88  CA  ILE d   1      29.598  18.523  75.407  0.00  0.00     0.099 C 
ATOM     89  H   ILE d   1      29.680  18.811  74.349  0.00  0.00     0.090 H 
BRANCH  88  90
ATOM     90  C   ILE d   1      30.501  17.304  75.628  0.00  0.00     0.197 C 
ATOM     91  O   ILE d   1      30.077  16.243  76.104  0.00  0.00    -0.646 OA
ATOM     92  OXT ILE d   1      31.699  17.368  75.331  0.00  0.00    -0.646 OA
ENDBRANCH  88  90
BRANCH  88  93
ATOM     93  CB  ILE d   1      30.147  19.697  76.268  0.00  0.00    -0.029 C 
ATOM     94  H   ILE d   1      31.207  19.833  76.009  0.00  0.00     0.043 H 
BRANCH  93  95
ATOM     95  CG1 ILE d   1      30.067  19.383  77.763  0.00  0.00    -0.063 C 
ATOM     96  H   ILE d   1      30.550  18.412  77.944  0.00  0.00     0.033 H 
ATOM     97  H   ILE d   1      29.008  19.326  78.054  0.00  0.00     0.033 H 
BRANCH  95  98
ATOM     98  CD1 ILE d   1      30.757  20.443  78.632  0.00  0.00    -0.076 C 
ATOM     99  H   ILE d   1      30.667  20.164  79.692  0.00  0.00     0.027 H 
ATOM    100  H   ILE d   1      30.278  21.420  78.468  0.00  0.00     0.027 H 
ATOM    101  H   ILE d   1      31.821  20.506  78.359  0.00  0.00     0.027 H 
ENDBRANCH  95  98
ENDBRANCH  93  95
BRANCH  93 102
ATOM    102  CG2 ILE d   1      29.415  21.005  75.954  0.00  0.00    -0.070 C 
ATOM    103  H   ILE d   1      29.483  21.214  74.876  0.00  0.00     0.028 H 
ATOM    104  H   ILE d   1      29.878  21.829  76.517  0.00  0.00     0.028 H 
ATOM    105  H   ILE d   1      28.358  20.912  76.243  0.00  0.00     0.028 H 
ENDBRANCH  93 102
ENDBRANCH  88  93
ENDBRANCH  86  88
ENDBRANCH  82  84
BRANCH  82 106
ATOM    106  CB  ILE d   1      25.086  17.605  74.278  0.00  0.00    -0.030 C 
ATOM    107  H   ILE d   1      25.165  18.092  73.295  0.00  0.00     0.043 H 
BRANCH 106 108
ATOM    108  CG1 ILE d   1      23.604  17.416  74.602  0.00  0.00    -0.063 C 
ATOM    109  H   ILE d   1      23.178  18.395  74.866  0.00  0.00     0.033 H 
ATOM    110  H   ILE d   1      23.520  16.735  75.462  0.00  0.00     0.033 H 
BRANCH 108 111
ATOM    111  CD1 ILE d   1      22.792  16.831  73.437  0.00  0.00    -0.076 C 
ATOM    112  H   ILE d   1      21.740  16.723  73.741  0.00  0.00     0.027 H 
ATOM    113  H   ILE d   1      23.198  15.845  73.166  0.00  0.00     0.027 H 
ATOM    114  H   ILE d   1      22.856  17.505  72.570  0.00  0.00     0.027 H 
ENDBRANCH 108 111
ENDBRANCH 106 108
BRANCH 106 115
ATOM    115  CG2 ILE d   1      25.787  16.265  74.203  0.00  0.00    -0.071 C 
ATOM    116  H   ILE d   1      26.851  16.420  73.969  0.00  0.00     0.028 H 
ATOM    117  H   ILE d   1      25.324  15.653  73.415  0.00  0.00     0.028 H 
ATOM    118  H   ILE d   1      25.696  15.749  75.170  0.00  0.00     0.028 H 
ENDBRANCH 106 115
ENDBRANCH  82 106
ENDBRANCH  80  82
ENDBRANCH  76  78
BRANCH  76 119
ATOM    119  CB  SER d   1      25.626  22.991  76.110  0.00  0.00     0.044 C 
ATOM    120  H   SER d   1      26.299  22.640  75.314  0.00  0.00     0.077 H 
ATOM    121  H   SER d   1      26.188  23.082  77.051  0.00  0.00     0.077 H 
BRANCH 119 122
ATOM    122  OG  SER d   1      25.113  24.268  75.752  0.00  0.00    -0.398 OA
ATOM    123  H   SER d   1      24.534  24.579  76.438  0.00  0.00     0.209 HD
ENDBRANCH 119 122
ENDBRANCH  76 119
ENDBRANCH  74  76
ENDBRANCH  70  72
BRANCH  70 124
ATOM    124  CB  THR d   1      20.739  21.620  78.802  0.00  0.00     0.060 C 
ATOM    125  H   THR d   1      20.048  21.549  77.949  0.00  0.00     0.086 H 
BRANCH 124 126
ATOM    126  OG1 THR d   1      19.991  21.768  80.012  0.00  0.00    -0.393 OA
ATOM    127  H   THR d   1      19.456  22.551  79.959  0.00  0.00     0.210 HD
ENDBRANCH 124 126
BRANCH 124 128
ATOM    128  CG2 THR d   1      21.576  20.333  78.878  0.00  0.00    -0.050 C 
ATOM    129  H   THR d   1      20.908  19.468  79.007  0.00  0.00     0.031 H 
ATOM    130  H   THR d   1      22.266  20.394  79.732  0.00  0.00     0.031 H 
ATOM    131  H   THR d   1      22.152  20.215  77.949  0.00  0.00     0.031 H 
ENDBRANCH 124 128
ENDBRANCH  70 124
ENDBRANCH   3  70
TORSDOF 37
