REMARK  22 active torsions:
REMARK  status: ('A' for Active; 'I' for Inactive)
REMARK    1  A    between atoms: CA_2  and  C_3 
REMARK       I    between atoms: C_3  and  N_8 
REMARK    2  A    between atoms: N_8  and  CA_9 
REMARK    3  A    between atoms: CA_9  and  C_10 
REMARK    4  A    between atoms: CA_9  and  CB_12 
REMARK       I    between atoms: C_10  and  N_15 
REMARK    5  A    between atoms: CB_12  and  OG1_13 
REMARK    6  A    between atoms: CB_12  and  CG2_14 
REMARK    7  A    between atoms: N_15  and  CA_16 
REMARK    8  A    between atoms: CA_16  and  C_17 
REMARK    9  A    between atoms: CA_16  and  CB_19 
REMARK       I    between atoms: C_17  and  N_21 
REMARK   10  A    between atoms: CB_19  and  OG_20 
REMARK   11  A    between atoms: N_21  and  CA_22 
REMARK   12  A    between atoms: CA_22  and  C_23 
REMARK   13  A    between atoms: CA_22  and  CB_25 
REMARK       I    between atoms: C_23  and  N_29 
REMARK   14  A    between atoms: CB_25  and  CG1_26 
REMARK   15  A    between atoms: CB_25  and  CG2_27 
REMARK   16  A    between atoms: CG1_26  and  CD1_28 
REMARK   17  A    between atoms: N_29  and  CA_30 
REMARK   18  A    between atoms: CA_30  and  C_31 
REMARK   19  A    between atoms: CA_30  and  CB_33 
REMARK   20  A    between atoms: CB_33  and  CG1_34 
REMARK   21  A    between atoms: CB_33  and  CG2_35 
REMARK   22  A    between atoms: CG1_34  and  CD1_36 
ROOT
ATOM      1  C   SER d   1      13.667  24.712  45.742  0.00  0.00     0.243 C 
ATOM      2  O   SER d   1      13.785  23.606  45.219  0.00  0.00    -0.271 OA
ATOM      3  N   ILE d   1      12.786  24.977  46.694  0.00  0.00    -0.346 N 
ATOM      4  H   ILE d   1      12.828  25.857  47.167  0.00  0.00     0.163 HD
ENDROOT
BRANCH   1   5
ATOM      5  CA  SER d   1      14.555  25.860  45.331  0.00  0.00     0.109 C 
ATOM      6  H   SER d   1      14.784  26.479  46.211  0.00  0.00     0.090 H 
BRANCH   5   7
ATOM      7  N   SER d   1      15.793  25.327  44.789  0.00  0.00    -0.344 N 
ATOM      8  C   THR d   1      16.962  25.550  45.377  0.00  0.00     0.243 C 
ATOM      9  O   THR d   1      17.105  26.327  46.330  0.00  0.00    -0.271 OA
ATOM     10  H   SER d   1      15.764  24.779  43.953  0.00  0.00     0.163 HD
BRANCH   8  11
ATOM     11  CA  THR d   1      18.148  24.799  44.806  0.00  0.00     0.113 C 
ATOM     12  H   THR d   1      17.877  24.378  43.826  0.00  0.00     0.091 H 
BRANCH  11  13
ATOM     13  N   THR d   1      19.274  25.707  44.634  0.00  0.00    -0.344 N 
ATOM     14  C   PRO d   1      19.807  25.935  43.440  0.00  0.00     0.249 C 
ATOM     15  O   PRO d   1      19.377  25.431  42.408  0.00  0.00    -0.271 OA
ATOM     16  H   THR d   1      19.655  26.170  45.435  0.00  0.00     0.163 HD
BRANCH  14  17
ATOM     17  CA  PRO d   1      21.010  26.875  43.401  0.00  0.00     0.178 C 
ATOM     18  N   PRO d   1      22.128  26.333  42.619  0.00  0.00    -0.062 N 
ATOM     19  CD  PRO d   1      22.588  27.281  41.593  0.00  0.00     0.083 C 
ATOM     20  H   PRO d   1      21.828  25.483  42.167  0.00  0.00     0.278 HD
ATOM     21  H   PRO d   1      22.894  26.130  43.242  0.00  0.00     0.278 HD
ATOM     22  CG  PRO d   1      21.368  28.101  41.345  0.00  0.00    -0.040 C 
ATOM     23  H   PRO d   1      22.907  26.756  40.681  0.00  0.00     0.075 H 
ATOM     24  H   PRO d   1      23.415  27.902  41.967  0.00  0.00     0.075 H 
ATOM     25  CB  PRO d   1      20.654  28.173  42.662  0.00  0.00    -0.028 C 
ATOM     26  H   PRO d   1      21.646  29.109  41.004  0.00  0.00     0.035 H 
ATOM     27  H   PRO d   1      20.730  27.621  40.588  0.00  0.00     0.035 H 
ATOM     28  H   PRO d   1      20.996  29.047  43.236  0.00  0.00     0.036 H 
ATOM     29  H   PRO d   1      19.567  28.239  42.506  0.00  0.00     0.036 H 
ATOM     30  H   PRO d   1      21.331  27.087  44.431  0.00  0.00     0.099 H 
ENDBRANCH  14  17
ENDBRANCH  11  13
BRANCH  11  31
ATOM     31  CB  THR d   1      18.503  23.652  45.768  0.00  0.00     0.060 C 
ATOM     32  H   THR d   1      18.787  24.074  46.743  0.00  0.00     0.086 H 
BRANCH  31  33
ATOM     33  OG1 THR d   1      19.602  22.908  45.233  0.00  0.00    -0.393 OA
ATOM     34  H   THR d   1      19.359  22.550  44.387  0.00  0.00     0.210 HD
ENDBRANCH  31  33
BRANCH  31  35
ATOM     35  CG2 THR d   1      17.317  22.725  45.952  0.00  0.00    -0.050 C 
ATOM     36  H   THR d   1      17.590  21.913  46.642  0.00  0.00     0.031 H 
ATOM     37  H   THR d   1      17.030  22.299  44.979  0.00  0.00     0.031 H 
ATOM     38  H   THR d   1      16.471  23.291  46.368  0.00  0.00     0.031 H 
ENDBRANCH  31  35
ENDBRANCH  11  31
ENDBRANCH   8  11
ENDBRANCH   5   7
BRANCH   5  39
ATOM     39  CB  SER d   1      13.828  26.718  44.293  0.00  0.00     0.044 C 
ATOM     40  H   SER d   1      12.851  27.024  44.695  0.00  0.00     0.077 H 
ATOM     41  H   SER d   1      13.679  26.129  43.376  0.00  0.00     0.077 H 
BRANCH  39  42
ATOM     42  OG  SER d   1      14.587  27.869  43.989  0.00  0.00    -0.398 OA
ATOM     43  H   SER d   1      15.431  27.607  43.639  0.00  0.00     0.209 HD
ENDBRANCH  39  42
ENDBRANCH   5  39
ENDBRANCH   1   5
BRANCH   3  44
ATOM     44  CA  ILE d   1      11.761  24.020  47.066  0.00  0.00     0.092 C 
ATOM     45  H   ILE d   1      11.864  23.128  46.430  0.00  0.00     0.088 H 
BRANCH  44  46
ATOM     46  C   ILE d   1      10.398  24.644  46.808  0.00  0.00     0.241 C 
ATOM     47  O   ILE d   1      10.177  25.828  47.088  0.00  0.00    -0.271 OA
ATOM     48  N   ILE d   1       9.497  23.850  46.242  0.00  0.00    -0.344 N 
ATOM     49  H   ILE d   1       9.741  22.901  46.044  0.00  0.00     0.163 HD
BRANCH  48  50
ATOM     50  CA  ILE d   1       8.160  24.325  45.901  0.00  0.00     0.099 C 
ATOM     51  H   ILE d   1       8.010  25.311  46.365  0.00  0.00     0.090 H 
BRANCH  50  52
ATOM     52  C   ILE d   1       7.123  23.365  46.442  0.00  0.00     0.197 C 
ATOM     53  O   ILE d   1       7.486  22.295  46.940  0.00  0.00    -0.646 OA
ATOM     54  OXT ILE d   1       5.930  23.653  46.400  0.00  0.00    -0.646 OA
ENDBRANCH  50  52
BRANCH  50  55
ATOM     55  CB  ILE d   1       7.982  24.466  44.382  0.00  0.00    -0.029 C 
ATOM     56  H   ILE d   1       6.933  24.719  44.170  0.00  0.00     0.043 H 
BRANCH  55  57
ATOM     57  CG1 ILE d   1       8.329  23.153  43.678  0.00  0.00    -0.063 C 
ATOM     58  H   ILE d   1       7.721  22.350  44.121  0.00  0.00     0.033 H 
ATOM     59  H   ILE d   1       9.395  22.940  43.846  0.00  0.00     0.033 H 
BRANCH  57  60
ATOM     60  CD1 ILE d   1       8.074  23.177  42.179  0.00  0.00    -0.076 C 
ATOM     61  H   ILE d   1       8.346  22.203  41.745  0.00  0.00     0.027 H 
ATOM     62  H   ILE d   1       8.683  23.968  41.716  0.00  0.00     0.027 H 
ATOM     63  H   ILE d   1       7.009  23.377  41.991  0.00  0.00     0.027 H 
ENDBRANCH  57  60
ENDBRANCH  55  57
BRANCH  55  64
ATOM     64  CG2 ILE d   1       8.879  25.577  43.850  0.00  0.00    -0.070 C 
ATOM     65  H   ILE d   1       8.631  26.522  44.355  0.00  0.00     0.028 H 
ATOM     66  H   ILE d   1       8.722  25.688  42.767  0.00  0.00     0.028 H 
ATOM     67  H   ILE d   1       9.931  25.323  44.044  0.00  0.00     0.028 H 
ENDBRANCH  55  64
ENDBRANCH  50  55
ENDBRANCH  48  50
ENDBRANCH  44  46
BRANCH  44  68
ATOM     68  CB  ILE d   1      11.917  23.580  48.536  0.00  0.00    -0.030 C 
ATOM     69  H   ILE d   1      11.863  24.470  49.180  0.00  0.00     0.043 H 
BRANCH  68  70
ATOM     70  CG1 ILE d   1      13.285  22.931  48.719  0.00  0.00    -0.063 C 
ATOM     71  H   ILE d   1      14.054  23.662  48.428  0.00  0.00     0.033 H 
ATOM     72  H   ILE d   1      13.342  22.055  48.056  0.00  0.00     0.033 H 
BRANCH  70  73
ATOM     73  CD1 ILE d   1      13.579  22.470  50.144  0.00  0.00    -0.076 C 
ATOM     74  H   ILE d   1      14.581  22.017  50.184  0.00  0.00     0.027 H 
ATOM     75  H   ILE d   1      12.828  21.727  50.451  0.00  0.00     0.027 H 
ATOM     76  H   ILE d   1      13.540  23.334  50.824  0.00  0.00     0.027 H 
ENDBRANCH  70  73
ENDBRANCH  68  70
BRANCH  68  77
ATOM     77  CG2 ILE d   1      10.784  22.628  48.936  0.00  0.00    -0.071 C 
ATOM     78  H   ILE d   1       9.816  23.129  48.791  0.00  0.00     0.028 H 
ATOM     79  H   ILE d   1      10.897  22.348  49.994  0.00  0.00     0.028 H 
ATOM     80  H   ILE d   1      10.826  21.724  48.310  0.00  0.00     0.028 H 
ENDBRANCH  68  77
ENDBRANCH  44  68
ENDBRANCH   3  44
TORSDOF 22
