REMARK WARNING: 32 MAX_TORS EXCEEDED!!!
REMARK  36 active torsions:
REMARK  status: ('A' for Active; 'I' for Inactive)
REMARK    1  A    between atoms: N_1  and  CA_2 
REMARK    2  A    between atoms: CA_2  and  C_3 
REMARK    3  A    between atoms: CA_2  and  CB_5 
REMARK       I    between atoms: C_3  and  N_7 
REMARK    4  A    between atoms: CB_5  and  OG_6 
REMARK    5  A    between atoms: N_7  and  CA_8 
REMARK    6  A    between atoms: CA_8  and  C_9 
REMARK    7  A    between atoms: CA_8  and  CB_11 
REMARK       I    between atoms: C_9  and  N_18 
REMARK    8  A    between atoms: CB_11  and  CG_12 
REMARK    9  A    between atoms: CG_12  and  CD_13 
REMARK   10  A    between atoms: CD_13  and  NE_14 
REMARK       I    between atoms: NE_14  and  CZ_15 
REMARK       I    between atoms: CZ_15  and  NH1_16 
REMARK   11  A    between atoms: N_18  and  CA_19 
REMARK   12  A    between atoms: CA_19  and  C_20 
REMARK   13  A    between atoms: CA_19  and  CB_22 
REMARK       I    between atoms: C_20  and  N_29 
REMARK   14  A    between atoms: CB_22  and  CG_23 
REMARK   15  A    between atoms: CA_30  and  C_31 
REMARK       I    between atoms: C_31  and  N_36 
REMARK   16  A    between atoms: N_36  and  CA_37 
REMARK   17  A    between atoms: CA_37  and  C_38 
REMARK   18  A    between atoms: CA_37  and  CB_40 
REMARK       I    between atoms: C_38  and  N_43 
REMARK   19  A    between atoms: CB_40  and  OG1_41 
REMARK   20  A    between atoms: CB_40  and  CG2_42 
REMARK   21  A    between atoms: N_43  and  CA_44 
REMARK   22  A    between atoms: CA_44  and  C_45 
REMARK   23  A    between atoms: CA_44  and  CB_47 
REMARK       I    between atoms: C_45  and  N_49 
REMARK   24  A    between atoms: CB_47  and  OG_48 
REMARK   25  A    between atoms: N_49  and  CA_50 
REMARK   26  A    between atoms: CA_50  and  C_51 
REMARK   27  A    between atoms: CA_50  and  CB_53 
REMARK       I    between atoms: C_51  and  N_57 
REMARK   28  A    between atoms: CB_53  and  CG1_54 
REMARK   29  A    between atoms: CB_53  and  CG2_55 
REMARK   30  A    between atoms: CG1_54  and  CD1_56 
REMARK   31  A    between atoms: N_57  and  CA_58 
REMARK   32  A    between atoms: CA_58  and  C_59 
REMARK   33  A    between atoms: CA_58  and  CB_61 
REMARK   34  A    between atoms: CB_61  and  CG1_62 
REMARK   35  A    between atoms: CB_61  and  CG2_63 
REMARK   36  A    between atoms: CG1_62  and  CD1_64 
ROOT
ATOM      1  C   PHE d   1      18.031  26.034  16.760  0.00  0.00     0.243 C 
ATOM      2  O   PHE d   1      18.179  24.817  16.814  0.00  0.00    -0.271 OA
ATOM      3  N   PRO d   1      17.388  26.728  17.714  0.00  0.00    -0.337 N 
ATOM      4  CA  PRO d   1      16.876  26.035  18.904  0.00  0.00     0.091 C 
ATOM      5  CB  PRO d   1      16.137  27.141  19.675  0.00  0.00    -0.036 C 
ATOM      6  CG  PRO d   1      15.925  28.236  18.690  0.00  0.00    -0.048 C 
ATOM      7  CD  PRO d   1      17.073  28.165  17.736  0.00  0.00    -0.001 C 
ATOM      8  H   PRO d   1      17.712  25.640  19.500  0.00  0.00     0.087 H 
ATOM      9  H   PRO d   1      16.747  27.495  20.519  0.00  0.00     0.036 H 
ATOM     10  H   PRO d   1      15.172  26.769  20.051  0.00  0.00     0.036 H 
ATOM     11  H   PRO d   1      15.912  29.211  19.200  0.00  0.00     0.035 H 
ATOM     12  H   PRO d   1      14.975  28.090  18.155  0.00  0.00     0.035 H 
ATOM     13  H   PRO d   1      16.781  28.522  16.737  0.00  0.00     0.064 H 
ATOM     14  H   PRO d   1      17.928  28.753  18.101  0.00  0.00     0.064 H 
ENDROOT
BRANCH   4  15
ATOM     15  C   PRO d   1      15.927  24.883  18.568  0.00  0.00     0.241 C 
ATOM     16  O   PRO d   1      15.229  24.926  17.557  0.00  0.00    -0.271 OA
ATOM     17  N   THR d   1      15.928  23.861  19.414  0.00  0.00    -0.344 N 
ATOM     18  H   THR d   1      16.543  23.885  20.203  0.00  0.00     0.163 HD
BRANCH  17  19
ATOM     19  CA  THR d   1      15.063  22.707  19.230  0.00  0.00     0.113 C 
ATOM     20  H   THR d   1      14.394  22.881  18.375  0.00  0.00     0.091 H 
BRANCH  19  21
ATOM     21  C   THR d   1      14.244  22.525  20.492  0.00  0.00     0.243 C 
ATOM     22  O   THR d   1      14.764  22.669  21.597  0.00  0.00    -0.271 OA
ATOM     23  N   SER d   1      12.962  22.205  20.335  0.00  0.00    -0.344 N 
ATOM     24  H   SER d   1      12.575  22.193  19.413  0.00  0.00     0.163 HD
BRANCH  23  25
ATOM     25  CA  SER d   1      12.106  21.872  21.461  0.00  0.00     0.109 C 
ATOM     26  H   SER d   1      12.712  21.879  22.379  0.00  0.00     0.090 H 
BRANCH  25  27
ATOM     27  C   SER d   1      11.517  20.486  21.264  0.00  0.00     0.243 C 
ATOM     28  O   SER d   1      11.089  20.137  20.153  0.00  0.00    -0.271 OA
ATOM     29  N   ILE d   1      11.501  19.699  22.335  0.00  0.00    -0.346 N 
ATOM     30  H   ILE d   1      11.967  20.003  23.166  0.00  0.00     0.163 HD
BRANCH  29  31
ATOM     31  CA  ILE d   1      10.825  18.407  22.337  0.00  0.00     0.092 C 
ATOM     32  H   ILE d   1      10.810  17.987  21.320  0.00  0.00     0.088 H 
BRANCH  31  33
ATOM     33  C   ILE d   1       9.406  18.645  22.830  0.00  0.00     0.241 C 
ATOM     34  O   ILE d   1       9.208  19.261  23.879  0.00  0.00    -0.271 OA
ATOM     35  N   ILE d   1       8.423  18.163  22.074  0.00  0.00    -0.344 N 
ATOM     36  H   ILE d   1       8.656  17.602  21.280  0.00  0.00     0.163 HD
BRANCH  35  37
ATOM     37  CA  ILE d   1       7.014  18.425  22.363  0.00  0.00     0.099 C 
ATOM     38  H   ILE d   1       6.938  18.702  23.425  0.00  0.00     0.090 H 
BRANCH  37  39
ATOM     39  C   ILE d   1       6.143  17.197  22.130  0.00  0.00     0.197 C 
ATOM     40  O   ILE d   1       6.605  16.158  21.612  0.00  0.00    -0.646 OA
ATOM     41  OXT ILE d   1       4.950  17.252  22.459  0.00  0.00    -0.646 OA
ENDBRANCH  37  39
BRANCH  37  42
ATOM     42  CB  ILE d   1       6.462  19.601  21.514  0.00  0.00    -0.029 C 
ATOM     43  H   ILE d   1       5.410  19.755  21.797  0.00  0.00     0.043 H 
BRANCH  42  44
ATOM     44  CG1 ILE d   1       6.508  19.283  20.022  0.00  0.00    -0.063 C 
ATOM     45  H   ILE d   1       5.972  18.337  19.852  0.00  0.00     0.033 H 
ATOM     46  H   ILE d   1       7.561  19.166  19.725  0.00  0.00     0.033 H 
BRANCH  44  47
ATOM     47  CD1 ILE d   1       5.875  20.360  19.141  0.00  0.00    -0.076 C 
ATOM     48  H   ILE d   1       5.947  20.059  18.085  0.00  0.00     0.027 H 
ATOM     49  H   ILE d   1       6.405  21.312  19.288  0.00  0.00     0.027 H 
ATOM     50  H   ILE d   1       4.817  20.483  19.416  0.00  0.00     0.027 H 
ENDBRANCH  44  47
ENDBRANCH  42  44
BRANCH  42  51
ATOM     51  CG2 ILE d   1       7.223  20.895  21.797  0.00  0.00    -0.070 C 
ATOM     52  H   ILE d   1       7.184  21.115  22.874  0.00  0.00     0.028 H 
ATOM     53  H   ILE d   1       6.762  21.722  21.237  0.00  0.00     0.028 H 
ATOM     54  H   ILE d   1       8.271  20.780  21.484  0.00  0.00     0.028 H 
ENDBRANCH  42  51
ENDBRANCH  37  42
ENDBRANCH  35  37
ENDBRANCH  31  33
BRANCH  31  55
ATOM     55  CB  ILE d   1      11.540  17.431  23.290  0.00  0.00    -0.030 C 
ATOM     56  H   ILE d   1      11.534  17.882  24.293  0.00  0.00     0.043 H 
BRANCH  55  57
ATOM     57  CG1 ILE d   1      13.003  17.235  22.883  0.00  0.00    -0.063 C 
ATOM     58  H   ILE d   1      13.395  18.194  22.515  0.00  0.00     0.033 H 
ATOM     59  H   ILE d   1      13.045  16.488  22.077  0.00  0.00     0.033 H 
BRANCH  57  60
ATOM     60  CD1 ILE d   1      13.887  16.759  24.031  0.00  0.00    -0.076 C 
ATOM     61  H   ILE d   1      14.920  16.639  23.673  0.00  0.00     0.027 H 
ATOM     62  H   ILE d   1      13.514  15.794  24.405  0.00  0.00     0.027 H 
ATOM     63  H   ILE d   1      13.864  17.501  24.843  0.00  0.00     0.027 H 
ENDBRANCH  57  60
ENDBRANCH  55  57
BRANCH  55  64
ATOM     64  CG2 ILE d   1      10.802  16.108  23.382  0.00  0.00    -0.071 C 
ATOM     65  H   ILE d   1       9.758  16.290  23.676  0.00  0.00     0.028 H 
ATOM     66  H   ILE d   1      11.288  15.469  24.134  0.00  0.00     0.028 H 
ATOM     67  H   ILE d   1      10.825  15.606  22.403  0.00  0.00     0.028 H 
ENDBRANCH  55  64
ENDBRANCH  31  55
ENDBRANCH  29  31
ENDBRANCH  25  27
BRANCH  25  68
ATOM     68  CB  SER d   1      10.969  22.883  21.612  0.00  0.00     0.044 C 
ATOM     69  H   SER d   1      10.291  22.545  22.409  0.00  0.00     0.077 H 
ATOM     70  H   SER d   1      10.416  22.947  20.663  0.00  0.00     0.077 H 
BRANCH  68  71
ATOM     71  OG  SER d   1      11.470  24.167  21.944  0.00  0.00    -0.398 OA
ATOM     72  H   SER d   1      12.054  24.465  21.256  0.00  0.00     0.209 HD
ENDBRANCH  68  71
ENDBRANCH  25  68
ENDBRANCH  23  25
ENDBRANCH  19  21
BRANCH  19  73
ATOM     73  CB  THR d   1      15.893  21.447  18.973  0.00  0.00     0.060 C 
ATOM     74  H   THR d   1      16.616  21.320  19.792  0.00  0.00     0.086 H 
BRANCH  73  75
ATOM     75  OG1 THR d   1      16.594  21.602  17.737  0.00  0.00    -0.393 OA
ATOM     76  H   THR d   1      17.113  20.824  17.569  0.00  0.00     0.210 HD
ENDBRANCH  73  75
BRANCH  73  77
ATOM     77  CG2 THR d   1      15.004  20.201  18.894  0.00  0.00    -0.050 C 
ATOM     78  H   THR d   1      15.630  19.315  18.709  0.00  0.00     0.031 H 
ATOM     79  H   THR d   1      14.281  20.317  18.073  0.00  0.00     0.031 H 
ATOM     80  H   THR d   1      14.463  20.076  19.843  0.00  0.00     0.031 H 
ENDBRANCH  73  77
ENDBRANCH  19  73
ENDBRANCH  17  19
ENDBRANCH   4  15
BRANCH   1  81
ATOM     81  CA  PHE d   1      18.579  26.813  15.573  0.00  0.00     0.093 C 
ATOM     82  H   PHE d   1      19.171  27.664  15.942  0.00  0.00     0.088 H 
BRANCH  81  83
ATOM     83  N   PHE d   1      19.433  25.938  14.788  0.00  0.00    -0.346 N 
ATOM     84  C   ARG d   1      20.712  26.217  14.573  0.00  0.00     0.241 C 
ATOM     85  O   ARG d   1      21.247  27.258  14.955  0.00  0.00    -0.271 OA
ATOM     86  H   PHE d   1      19.046  25.102  14.399  0.00  0.00     0.163 HD
BRANCH  84  87
ATOM     87  CA  ARG d   1      21.501  25.160  13.812  0.00  0.00     0.089 C 
ATOM     88  H   ARG d   1      22.575  25.365  13.935  0.00  0.00     0.087 H 
BRANCH  87  89
ATOM     89  N   ARG d   1      21.215  23.833  14.351  0.00  0.00    -0.346 N 
ATOM     90  C   SER d   1      21.335  23.563  15.649  0.00  0.00     0.251 C 
ATOM     91  O   SER d   1      21.725  24.392  16.473  0.00  0.00    -0.271 OA
ATOM     92  H   ARG d   1      20.921  23.108  13.728  0.00  0.00     0.163 HD
BRANCH  90  93
ATOM     93  CA  SER d   1      20.971  22.142  16.086  0.00  0.00     0.195 C 
ATOM     94  H   SER d   1      21.192  21.465  15.248  0.00  0.00     0.102 H 
BRANCH  93  95
ATOM     95  N   SER d   1      21.766  21.712  17.232  0.00  0.00    -0.064 N 
ATOM     96  H   SER d   1      21.501  20.775  17.492  0.00  0.00     0.275 HD
ATOM     97  H   SER d   1      21.602  22.335  18.007  0.00  0.00     0.275 HD
ATOM     98  H   SER d   1      22.744  21.729  16.988  0.00  0.00     0.275 HD
ENDBRANCH  93  95
BRANCH  93  99
ATOM     99  CB  SER d   1      19.474  22.036  16.401  0.00  0.00     0.051 C 
ATOM    100  H   SER d   1      19.199  20.974  16.476  0.00  0.00     0.077 H 
ATOM    101  H   SER d   1      18.904  22.506  15.586  0.00  0.00     0.077 H 
BRANCH  99 102
ATOM    102  OG  SER d   1      19.149  22.683  17.623  0.00  0.00    -0.398 OA
ATOM    103  H   SER d   1      18.217  22.598  17.787  0.00  0.00     0.209 HD
ENDBRANCH  99 102
ENDBRANCH  93  99
ENDBRANCH  90  93
ENDBRANCH  87  89
BRANCH  87 104
ATOM    104  CB  ARG d   1      21.160  25.222  12.320  0.00  0.00    -0.036 C 
ATOM    105  H   ARG d   1      20.096  24.970  12.198  0.00  0.00     0.036 H 
ATOM    106  H   ARG d   1      21.776  24.478  11.794  0.00  0.00     0.036 H 
BRANCH 104 107
ATOM    107  CG  ARG d   1      21.405  26.584  11.681  0.00  0.00    -0.048 C 
ATOM    108  H   ARG d   1      22.410  26.932  11.962  0.00  0.00     0.035 H 
ATOM    109  H   ARG d   1      20.653  27.293  12.057  0.00  0.00     0.035 H 
BRANCH 107 110
ATOM    110  CD  ARG d   1      21.311  26.528  10.158  0.00  0.00     0.009 C 
ATOM    111  H   ARG d   1      22.011  25.763   9.791  0.00  0.00     0.064 H 
ATOM    112  H   ARG d   1      21.595  27.510   9.752  0.00  0.00     0.064 H 
BRANCH 110 113
ATOM    113  NE  ARG d   1      19.968  26.198   9.685  0.00  0.00    -0.227 N 
ATOM    114  CZ  ARG d   1      19.598  24.997   9.251  0.00  0.00     0.665 C 
ATOM    115  NH1 ARG d   1      20.474  24.001   9.224  0.00  0.00    -0.235 N 
ATOM    116  NH2 ARG d   1      18.353  24.791   8.839  0.00  0.00    -0.235 N 
ATOM    117  H   ARG d   1      20.186  23.071   8.888  0.00  0.00     0.174 HD
ATOM    118  H   ARG d   1      21.442  24.158   9.540  0.00  0.00     0.174 HD
ATOM    119  H   ARG d   1      17.670  25.562   8.858  0.00  0.00     0.174 HD
ATOM    120  H   ARG d   1      18.070  23.860   8.500  0.00  0.00     0.174 HD
ATOM    121  H   ARG d   1      19.260  26.947   9.688  0.00  0.00     0.177 HD
ENDBRANCH 110 113
ENDBRANCH 107 110
ENDBRANCH 104 107
ENDBRANCH  87 104
ENDBRANCH  84  87
ENDBRANCH  81  83
BRANCH  81 122
ATOM    122  CB  PHE d   1      17.443  27.339  14.706  0.00  0.00    -0.014 C 
ATOM    123  H   PHE d   1      16.844  28.040  15.306  0.00  0.00     0.043 H 
ATOM    124  H   PHE d   1      16.816  26.488  14.401  0.00  0.00     0.043 H 
BRANCH 122 125
ATOM    125  CG  PHE d   1      17.908  28.050  13.472  0.00  0.00    -0.056 A 
ATOM    126  CD1 PHE d   1      18.583  29.256  13.564  0.00  0.00    -0.077 A 
ATOM    127  CE1 PHE d   1      19.011  29.916  12.427  0.00  0.00    -0.082 A 
ATOM    128  H   PHE d   1      18.778  29.688  14.539  0.00  0.00     0.084 H 
ATOM    129  CZ  PHE d   1      18.765  29.374  11.185  0.00  0.00    -0.083 A 
ATOM    130  H   PHE d   1      19.539  30.859  12.513  0.00  0.00     0.083 H 
ATOM    131  CE2 PHE d   1      18.091  28.178  11.077  0.00  0.00    -0.082 A 
ATOM    132  H   PHE d   1      19.102  29.889  10.293  0.00  0.00     0.083 H 
ATOM    133  CD2 PHE d   1      17.666  27.519  12.216  0.00  0.00    -0.077 A 
ATOM    134  H   PHE d   1      17.894  27.753  10.099  0.00  0.00     0.083 H 
ATOM    135  H   PHE d   1      17.138  26.577  12.125  0.00  0.00     0.084 H 
ENDBRANCH 122 125
ENDBRANCH  81 122
ENDBRANCH   1  81
TORSDOF 36
