REMARK WARNING: 32 MAX_TORS EXCEEDED!!!
REMARK  41 active torsions:
REMARK  status: ('A' for Active; 'I' for Inactive)
REMARK    1  A    between atoms: N_1  and  CA_2 
REMARK    2  A    between atoms: CA_2  and  C_3 
REMARK    3  A    between atoms: CA_2  and  CB_5 
REMARK       I    between atoms: C_3  and  N_9 
REMARK    4  A    between atoms: CB_5  and  CG_6 
REMARK       I    between atoms: CG_6  and  ND2_8 
REMARK    5  A    between atoms: N_9  and  CA_10 
REMARK    6  A    between atoms: CA_10  and  C_11 
REMARK    7  A    between atoms: CA_10  and  CB_13 
REMARK       I    between atoms: C_11  and  N_15 
REMARK    8  A    between atoms: CB_13  and  OG_14 
REMARK    9  A    between atoms: N_15  and  CA_16 
REMARK   10  A    between atoms: CA_16  and  C_17 
REMARK   11  A    between atoms: CA_16  and  CB_19 
REMARK       I    between atoms: C_17  and  N_26 
REMARK   12  A    between atoms: CB_19  and  CG_20 
REMARK   13  A    between atoms: CG_20  and  CD_21 
REMARK   14  A    between atoms: CD_21  and  NE_22 
REMARK       I    between atoms: NE_22  and  CZ_23 
REMARK       I    between atoms: CZ_23  and  NH1_24 
REMARK   15  A    between atoms: N_26  and  CA_27 
REMARK   16  A    between atoms: CA_27  and  C_28 
REMARK   17  A    between atoms: CA_27  and  CB_30 
REMARK       I    between atoms: C_28  and  N_38 
REMARK   18  A    between atoms: CB_30  and  CG_31 
REMARK   19  A    between atoms: CZ_36  and  OH_37 
REMARK   20  A    between atoms: CA_39  and  C_40 
REMARK       I    between atoms: C_40  and  N_45 
REMARK   21  A    between atoms: N_45  and  CA_46 
REMARK   22  A    between atoms: CA_46  and  C_47 
REMARK   23  A    between atoms: CA_46  and  CB_49 
REMARK       I    between atoms: C_47  and  N_52 
REMARK   24  A    between atoms: CB_49  and  OG1_50 
REMARK   25  A    between atoms: CB_49  and  CG2_51 
REMARK   26  A    between atoms: N_52  and  CA_53 
REMARK   27  A    between atoms: CA_53  and  C_54 
REMARK   28  A    between atoms: CA_53  and  CB_56 
REMARK       I    between atoms: C_54  and  N_58 
REMARK   29  A    between atoms: CB_56  and  OG_57 
REMARK   30  A    between atoms: N_58  and  CA_59 
REMARK   31  A    between atoms: CA_59  and  C_60 
REMARK   32  A    between atoms: CA_59  and  CB_62 
REMARK       I    between atoms: C_60  and  N_66 
REMARK   33  A    between atoms: CB_62  and  CG1_63 
REMARK   34  A    between atoms: CB_62  and  CG2_64 
REMARK   35  A    between atoms: CG1_63  and  CD1_65 
REMARK   36  A    between atoms: N_66  and  CA_67 
REMARK   37  A    between atoms: CA_67  and  C_68 
REMARK   38  A    between atoms: CA_67  and  CB_70 
REMARK   39  A    between atoms: CB_70  and  CG1_71 
REMARK   40  A    between atoms: CB_70  and  CG2_72 
REMARK   41  A    between atoms: CG1_71  and  CD1_73 
ROOT
ATOM      1  C   TYR d   1      17.942  25.810  16.614  0.00  0.00     0.243 C 
ATOM      2  O   TYR d   1      17.952  24.580  16.629  0.00  0.00    -0.271 OA
ATOM      3  N   PRO d   1      17.449  26.548  17.625  0.00  0.00    -0.337 N 
ATOM      4  CA  PRO d   1      16.871  25.900  18.807  0.00  0.00     0.091 C 
ATOM      5  CB  PRO d   1      16.143  27.048  19.509  0.00  0.00    -0.036 C 
ATOM      6  CG  PRO d   1      16.951  28.250  19.160  0.00  0.00    -0.048 C 
ATOM      7  CD  PRO d   1      17.476  28.016  17.758  0.00  0.00    -0.001 C 
ATOM      8  H   PRO d   1      17.670  25.496  19.446  0.00  0.00     0.087 H 
ATOM      9  H   PRO d   1      16.124  26.892  20.598  0.00  0.00     0.036 H 
ATOM     10  H   PRO d   1      15.114  27.146  19.134  0.00  0.00     0.036 H 
ATOM     11  H   PRO d   1      17.787  28.365  19.866  0.00  0.00     0.035 H 
ATOM     12  H   PRO d   1      16.322  29.152  19.186  0.00  0.00     0.035 H 
ATOM     13  H   PRO d   1      16.825  28.491  17.009  0.00  0.00     0.064 H 
ATOM     14  H   PRO d   1      18.500  28.402  17.651  0.00  0.00     0.064 H 
ENDROOT
BRANCH   1  15
ATOM     15  CA  TYR d   1      18.505  26.556  15.413  0.00  0.00     0.093 C 
ATOM     16  H   TYR d   1      19.131  27.392  15.759  0.00  0.00     0.088 H 
BRANCH  15  17
ATOM     17  N   TYR d   1      19.316  25.625  14.640  0.00  0.00    -0.346 N 
ATOM     18  C   ARG d   1      20.547  25.916  14.238  0.00  0.00     0.241 C 
ATOM     19  O   ARG d   1      21.079  27.010  14.428  0.00  0.00    -0.271 OA
ATOM     20  H   TYR d   1      18.931  24.733  14.403  0.00  0.00     0.163 HD
BRANCH  18  21
ATOM     21  CA  ARG d   1      21.286  24.799  13.510  0.00  0.00     0.089 C 
ATOM     22  H   ARG d   1      22.366  24.997  13.569  0.00  0.00     0.087 H 
BRANCH  21  23
ATOM     23  N   ARG d   1      21.017  23.512  14.141  0.00  0.00    -0.346 N 
ATOM     24  C   SER d   1      21.228  23.321  15.439  0.00  0.00     0.243 C 
ATOM     25  O   SER d   1      21.675  24.197  16.179  0.00  0.00    -0.271 OA
ATOM     26  H   ARG d   1      20.667  22.758  13.585  0.00  0.00     0.163 HD
BRANCH  24  27
ATOM     27  CA  SER d   1      20.897  21.936  15.988  0.00  0.00     0.109 C 
ATOM     28  H   SER d   1      21.134  21.186  15.219  0.00  0.00     0.090 H 
BRANCH  27  29
ATOM     29  N   SER d   1      21.699  21.663  17.171  0.00  0.00    -0.344 N 
ATOM     30  C   ASN d   1      23.015  21.493  17.100  0.00  0.00     0.249 C 
ATOM     31  O   ASN d   1      23.635  21.466  16.036  0.00  0.00    -0.271 OA
ATOM     32  H   SER d   1      21.248  21.602  18.061  0.00  0.00     0.163 HD
BRANCH  30  33
ATOM     33  CA  ASN d   1      23.734  21.331  18.434  0.00  0.00     0.183 C 
ATOM     34  H   ASN d   1      23.049  20.820  19.126  0.00  0.00     0.099 H 
BRANCH  33  35
ATOM     35  N   ASN d   1      24.942  20.519  18.332  0.00  0.00    -0.066 N 
ATOM     36  H   ASN d   1      25.375  20.445  19.239  0.00  0.00     0.275 HD
ATOM     37  H   ASN d   1      25.584  20.952  17.687  0.00  0.00     0.275 HD
ATOM     38  H   ASN d   1      24.701  19.599  17.999  0.00  0.00     0.275 HD
ENDBRANCH  33  35
BRANCH  33  39
ATOM     39  CB  ASN d   1      24.052  22.715  19.010  0.00  0.00     0.044 C 
ATOM     40  H   ASN d   1      23.137  23.325  18.986  0.00  0.00     0.051 H 
ATOM     41  H   ASN d   1      24.824  23.187  18.385  0.00  0.00     0.051 H 
BRANCH  39  42
ATOM     42  CG  ASN d   1      24.555  22.652  20.438  0.00  0.00     0.217 C 
ATOM     43  OD1 ASN d   1      25.100  23.627  20.959  0.00  0.00    -0.274 OA
ATOM     44  ND2 ASN d   1      24.381  21.502  21.079  0.00  0.00    -0.370 N 
ATOM     45  H   ASN d   1      24.694  21.404  22.024  0.00  0.00     0.159 HD
ATOM     46  H   ASN d   1      23.937  20.734  20.617  0.00  0.00     0.159 HD
ENDBRANCH  39  42
ENDBRANCH  33  39
ENDBRANCH  30  33
ENDBRANCH  27  29
BRANCH  27  47
ATOM     47  CB  SER d   1      19.408  21.835  16.327  0.00  0.00     0.044 C 
ATOM     48  H   SER d   1      19.141  20.776  16.460  0.00  0.00     0.077 H 
ATOM     49  H   SER d   1      18.822  22.259  15.499  0.00  0.00     0.077 H 
BRANCH  47  50
ATOM     50  OG  SER d   1      19.104  22.543  17.520  0.00  0.00    -0.398 OA
ATOM     51  H   SER d   1      18.176  22.464  17.706  0.00  0.00     0.209 HD
ENDBRANCH  47  50
ENDBRANCH  27  47
ENDBRANCH  24  27
ENDBRANCH  21  23
BRANCH  21  52
ATOM     52  CB  ARG d   1      20.877  24.773  12.038  0.00  0.00    -0.036 C 
ATOM     53  H   ARG d   1      19.781  24.691  11.983  0.00  0.00     0.036 H 
ATOM     54  H   ARG d   1      21.335  23.891  11.566  0.00  0.00     0.036 H 
BRANCH  52  55
ATOM     55  CG  ARG d   1      21.305  26.008  11.265  0.00  0.00    -0.048 C 
ATOM     56  H   ARG d   1      22.399  26.108  11.327  0.00  0.00     0.035 H 
ATOM     57  H   ARG d   1      20.830  26.893  11.714  0.00  0.00     0.035 H 
BRANCH  55  58
ATOM     58  CD  ARG d   1      20.899  25.917   9.803  0.00  0.00     0.009 C 
ATOM     59  H   ARG d   1      21.417  26.708   9.241  0.00  0.00     0.064 H 
ATOM     60  H   ARG d   1      19.812  26.064   9.727  0.00  0.00     0.064 H 
BRANCH  58  61
ATOM     61  NE  ARG d   1      21.241  24.624   9.219  0.00  0.00    -0.227 N 
ATOM     62  CZ  ARG d   1      20.349  23.745   8.773  0.00  0.00     0.665 C 
ATOM     63  NH1 ARG d   1      19.054  24.023   8.832  0.00  0.00    -0.235 N 
ATOM     64  NH2 ARG d   1      20.752  22.591   8.259  0.00  0.00    -0.235 N 
ATOM     65  H   ARG d   1      18.364  23.341   8.486  0.00  0.00     0.174 HD
ATOM     66  H   ARG d   1      18.738  24.921   9.224  0.00  0.00     0.174 HD
ATOM     67  H   ARG d   1      21.757  22.371   8.211  0.00  0.00     0.174 HD
ATOM     68  H   ARG d   1      20.060  21.914   7.907  0.00  0.00     0.174 HD
ATOM     69  H   ARG d   1      22.238  24.376   9.148  0.00  0.00     0.177 HD
ENDBRANCH  58  61
ENDBRANCH  55  58
ENDBRANCH  52  55
ENDBRANCH  21  52
ENDBRANCH  18  21
ENDBRANCH  15  17
BRANCH  15  70
ATOM     70  CB  TYR d   1      17.371  27.103  14.550  0.00  0.00    -0.014 C 
ATOM     71  H   TYR d   1      16.814  27.849  15.137  0.00  0.00     0.043 H 
ATOM     72  H   TYR d   1      16.702  26.271  14.285  0.00  0.00     0.043 H 
BRANCH  70  73
ATOM     73  CG  TYR d   1      17.849  27.756  13.278  0.00  0.00    -0.056 A 
ATOM     74  CD1 TYR d   1      18.401  29.029  13.297  0.00  0.00    -0.074 A 
ATOM     75  CE1 TYR d   1      18.841  29.633  12.138  0.00  0.00    -0.051 A 
ATOM     76  H   TYR d   1      18.488  29.558  14.239  0.00  0.00     0.084 H 
ATOM     77  CZ  TYR d   1      18.729  28.966  10.940  0.00  0.00     0.065 A 
ATOM     78  H   TYR d   1      19.272  30.627  12.171  0.00  0.00     0.087 H 
ATOM     79  CE2 TYR d   1      18.184  27.702  10.891  0.00  0.00    -0.051 A 
ATOM     80  CD2 TYR d   1      17.747  27.103  12.057  0.00  0.00    -0.074 A 
ATOM     81  H   TYR d   1      18.099  27.181   9.944  0.00  0.00     0.087 H 
ATOM     82  H   TYR d   1      17.318  26.108  12.018  0.00  0.00     0.084 H 
BRANCH  77  83
ATOM     83  OH  TYR d   1      19.166  29.568   9.783  0.00  0.00    -0.361 OA
ATOM     84  H   TYR d   1      19.512  30.429   9.986  0.00  0.00     0.217 HD
ENDBRANCH  77  83
ENDBRANCH  70  73
ENDBRANCH  15  70
ENDBRANCH   1  15
BRANCH   4  85
ATOM     85  C   PRO d   1      15.895  24.771  18.469  0.00  0.00     0.241 C 
ATOM     86  O   PRO d   1      15.202  24.799  17.450  0.00  0.00    -0.271 OA
ATOM     87  N   THR d   1      15.858  23.784  19.350  0.00  0.00    -0.344 N 
ATOM     88  H   THR d   1      16.444  23.838  20.158  0.00  0.00     0.163 HD
BRANCH  87  89
ATOM     89  CA  THR d   1      15.000  22.627  19.188  0.00  0.00     0.113 C 
ATOM     90  H   THR d   1      14.318  22.790  18.340  0.00  0.00     0.091 H 
BRANCH  89  91
ATOM     91  C   THR d   1      14.197  22.433  20.462  0.00  0.00     0.243 C 
ATOM     92  O   THR d   1      14.725  22.612  21.559  0.00  0.00    -0.271 OA
ATOM     93  N   SER d   1      12.925  22.074  20.315  0.00  0.00    -0.344 N 
ATOM     94  H   SER d   1      12.537  22.033  19.395  0.00  0.00     0.163 HD
BRANCH  93  95
ATOM     95  CA  SER d   1      12.081  21.739  21.452  0.00  0.00     0.109 C 
ATOM     96  H   SER d   1      12.695  21.744  22.364  0.00  0.00     0.090 H 
BRANCH  95  97
ATOM     97  C   SER d   1      11.495  20.355  21.250  0.00  0.00     0.243 C 
ATOM     98  O   SER d   1      11.069  20.010  20.144  0.00  0.00    -0.271 OA
ATOM     99  N   ILE d   1      11.480  19.568  22.319  0.00  0.00    -0.346 N 
ATOM    100  H   ILE d   1      11.950  19.866  23.150  0.00  0.00     0.163 HD
BRANCH  99 101
ATOM    101  CA  ILE d   1      10.797  18.284  22.312  0.00  0.00     0.092 C 
ATOM    102  H   ILE d   1      10.749  17.916  21.277  0.00  0.00     0.088 H 
BRANCH 101 103
ATOM    103  C   ILE d   1       9.383  18.510  22.822  0.00  0.00     0.241 C 
ATOM    104  O   ILE d   1       9.191  19.135  23.866  0.00  0.00    -0.271 OA
ATOM    105  N   ILE d   1       8.398  18.030  22.069  0.00  0.00    -0.344 N 
ATOM    106  H   ILE d   1       8.630  17.462  21.279  0.00  0.00     0.163 HD
BRANCH 105 107
ATOM    107  CA  ILE d   1       6.991  18.300  22.350  0.00  0.00     0.099 C 
ATOM    108  H   ILE d   1       6.916  18.569  23.414  0.00  0.00     0.090 H 
BRANCH 107 109
ATOM    109  C   ILE d   1       6.118  17.082  22.113  0.00  0.00     0.197 C 
ATOM    110  O   ILE d   1       6.584  16.038  21.610  0.00  0.00    -0.646 OA
ATOM    111  OXT ILE d   1       4.930  17.156  22.454  0.00  0.00    -0.646 OA
ENDBRANCH 107 109
BRANCH 107 112
ATOM    112  CB  ILE d   1       6.442  19.486  21.520  0.00  0.00    -0.029 C 
ATOM    113  H   ILE d   1       5.390  19.641  21.803  0.00  0.00     0.043 H 
BRANCH 112 114
ATOM    114  CG1 ILE d   1       6.493  19.177  20.021  0.00  0.00    -0.063 C 
ATOM    115  H   ILE d   1       5.992  18.213  19.849  0.00  0.00     0.033 H 
ATOM    116  H   ILE d   1       7.548  19.101  19.719  0.00  0.00     0.033 H 
BRANCH 114 117
ATOM    117  CD1 ILE d   1       5.822  20.224  19.151  0.00  0.00    -0.076 C 
ATOM    118  H   ILE d   1       5.902  19.929  18.094  0.00  0.00     0.027 H 
ATOM    119  H   ILE d   1       6.317  21.195  19.299  0.00  0.00     0.027 H 
ATOM    120  H   ILE d   1       4.761  20.307  19.429  0.00  0.00     0.027 H 
ENDBRANCH 114 117
ENDBRANCH 112 114
BRANCH 112 121
ATOM    121  CG2 ILE d   1       7.209  20.771  21.821  0.00  0.00    -0.070 C 
ATOM    122  H   ILE d   1       7.164  20.981  22.900  0.00  0.00     0.028 H 
ATOM    123  H   ILE d   1       6.757  21.606  21.266  0.00  0.00     0.028 H 
ATOM    124  H   ILE d   1       8.258  20.652  21.514  0.00  0.00     0.028 H 
ENDBRANCH 112 121
ENDBRANCH 107 112
ENDBRANCH 105 107
ENDBRANCH 101 103
BRANCH 101 125
ATOM    125  CB  ILE d   1      11.530  17.225  23.162  0.00  0.00    -0.030 C 
ATOM    126  H   ILE d   1      10.920  16.309  23.162  0.00  0.00     0.043 H 
BRANCH 125 127
ATOM    127  CG1 ILE d   1      11.696  17.680  24.609  0.00  0.00    -0.063 C 
ATOM    128  H   ILE d   1      10.710  17.972  25.000  0.00  0.00     0.033 H 
ATOM    129  H   ILE d   1      12.370  18.549  24.628  0.00  0.00     0.033 H 
BRANCH 127 130
ATOM    130  CD1 ILE d   1      12.272  16.603  25.509  0.00  0.00    -0.076 C 
ATOM    131  H   ILE d   1      12.366  16.993  26.533  0.00  0.00     0.027 H 
ATOM    132  H   ILE d   1      13.264  16.306  25.137  0.00  0.00     0.027 H 
ATOM    133  H   ILE d   1      11.604  15.729  25.509  0.00  0.00     0.027 H 
ENDBRANCH 127 130
ENDBRANCH 125 127
BRANCH 125 134
ATOM    134  CG2 ILE d   1      12.890  16.892  22.553  0.00  0.00    -0.071 C 
ATOM    135  H   ILE d   1      12.755  16.566  21.511  0.00  0.00     0.028 H 
ATOM    136  H   ILE d   1      13.363  16.085  23.131  0.00  0.00     0.028 H 
ATOM    137  H   ILE d   1      13.531  17.785  22.578  0.00  0.00     0.028 H 
ENDBRANCH 125 134
ENDBRANCH 101 125
ENDBRANCH  99 101
ENDBRANCH  95  97
BRANCH  95 138
ATOM    138  CB  SER d   1      10.943  22.744  21.617  0.00  0.00     0.044 C 
ATOM    139  H   SER d   1      10.268  22.396  22.412  0.00  0.00     0.077 H 
ATOM    140  H   SER d   1      10.388  22.818  20.670  0.00  0.00     0.077 H 
BRANCH 138 141
ATOM    141  OG  SER d   1      11.443  24.021  21.961  0.00  0.00    -0.398 OA
ATOM    142  H   SER d   1      12.025  24.328  21.275  0.00  0.00     0.209 HD
ENDBRANCH 138 141
ENDBRANCH  95 138
ENDBRANCH  93  95
ENDBRANCH  89  91
BRANCH  89 143
ATOM    143  CB  THR d   1      15.846  21.381  18.929  0.00  0.00     0.060 C 
ATOM    144  H   THR d   1      16.575  21.267  19.745  0.00  0.00     0.086 H 
BRANCH 143 145
ATOM    145  OG1 THR d   1      16.542  21.540  17.688  0.00  0.00    -0.393 OA
ATOM    146  H   THR d   1      17.070  20.768  17.521  0.00  0.00     0.210 HD
ENDBRANCH 143 145
BRANCH 143 147
ATOM    147  CG2 THR d   1      14.980  20.134  18.863  0.00  0.00    -0.050 C 
ATOM    148  H   THR d   1      15.616  19.256  18.676  0.00  0.00     0.031 H 
ATOM    149  H   THR d   1      14.249  20.238  18.048  0.00  0.00     0.031 H 
ATOM    150  H   THR d   1      14.449  20.006  19.818  0.00  0.00     0.031 H 
ENDBRANCH 143 147
ENDBRANCH  89 143
ENDBRANCH  87  89
ENDBRANCH   4  85
TORSDOF 41
