REMARK  4 active torsions:
REMARK  status: ('A' for Active; 'I' for Inactive)
REMARK    1  A    between atoms: C9_9  and  C18_19 
REMARK    2  A    between atoms: C9_9  and  C19_20 
REMARK    3  A    between atoms: N12_12  and  C17_17 
REMARK    4  A    between atoms: C13_13  and  N16_16 
ROOT
ATOM      1  C1  1M4 d   1      25.070  14.057   8.733  0.00  0.00     0.015 A 
ATOM      2  C2  1M4 d   1      25.759  12.850   8.457  0.00  0.00     0.079 A 
ATOM      3  C3  1M4 d   1      27.133  12.748   8.756  0.00  0.00    -0.049 A 
ATOM      4  C4  1M4 d   1      27.828  13.832   9.339  0.00  0.00    -0.064 A 
ATOM      5  C5  1M4 d   1      27.141  15.034   9.622  0.00  0.00     0.011 A 
ATOM      6  C6  1M4 d   1      25.762  15.140   9.319  0.00  0.00    -0.054 A 
ATOM      7  C7  1M4 d   1      23.582  14.184   8.389  0.00  0.00     0.162 A 
ATOM      8  C8  1M4 d   1      22.981  12.932   7.712  0.00  0.00     0.000 C 
ATOM      9  C9  1M4 d   1      23.685  11.613   8.111  0.00  0.00     0.064 C 
ATOM     10  O10 1M4 d   1      25.089  11.781   7.895  0.00  0.00    -0.340 OA
ATOM     11  C11 1M4 d   1      23.421  15.407   7.471  0.00  0.00     0.271 A 
ATOM     12  N12 1M4 d   1      22.626  16.337   8.122  0.00  0.00    -0.154 N 
ATOM     13  C13 1M4 d   1      22.265  15.824   9.357  0.00  0.00     0.677 A 
ATOM     14  N14 1M4 d   1      22.770  14.597   9.548  0.00  0.00    -0.203 N 
ATOM     15  O15 1M4 d   1      23.921  15.576   6.359  0.00  0.00    -0.269 OA
ATOM     16 BR1  1M4 d   1      28.057  16.498  10.403  0.00  0.00    -0.051 Br
ATOM     17  H1  1M4 d   1      27.662  11.828   8.536  0.00  0.00     0.087 H 
ATOM     18  H2  1M4 d   1      28.884  13.742   9.568  0.00  0.00     0.085 H 
ATOM     19  H3  1M4 d   1      25.233  16.060   9.539  0.00  0.00     0.086 H 
ATOM     20  H4  1M4 d   1      23.062  13.053   6.622  0.00  0.00     0.042 H 
ATOM     21  H5  1M4 d   1      21.920  12.859   7.995  0.00  0.00     0.042 H 
ATOM     22  H6  1M4 d   1      22.613  14.022  10.388  0.00  0.00     0.179 HD
ENDROOT
BRANCH   9  23
ATOM     23  C18 1M4 d   1      23.373  11.244   9.588  0.00  0.00    -0.047 C 
ATOM     24  H12 1M4 d   1      23.884  10.305   9.847  0.00  0.00     0.031 H 
ATOM     25  H13 1M4 d   1      22.288  11.118   9.713  0.00  0.00     0.031 H 
ATOM     26  H14 1M4 d   1      23.727  12.048  10.250  0.00  0.00     0.031 H 
ENDBRANCH   9  23
BRANCH   9  27
ATOM     27  C19 1M4 d   1      23.233  10.460   7.194  0.00  0.00    -0.047 C 
ATOM     28  H15 1M4 d   1      23.743   9.532   7.493  0.00  0.00     0.031 H 
ATOM     29  H16 1M4 d   1      23.488  10.699   6.151  0.00  0.00     0.031 H 
ATOM     30  H17 1M4 d   1      22.145  10.325   7.284  0.00  0.00     0.031 H 
ENDBRANCH   9  27
BRANCH  12  31
ATOM     31  C17 1M4 d   1      22.250  17.652   7.580  0.00  0.00     0.005 C 
ATOM     32  H9  1M4 d   1      22.687  17.774   6.578  0.00  0.00     0.058 H 
ATOM     33  H10 1M4 d   1      22.628  18.444   8.244  0.00  0.00     0.058 H 
ATOM     34  H11 1M4 d   1      21.154  17.721   7.513  0.00  0.00     0.058 H 
ENDBRANCH  12  31
BRANCH  13  35
ATOM     35  N16 1M4 d   1      21.491  16.448  10.255  0.00  0.00    -0.234 N 
ATOM     36  H7  1M4 d   1      21.130  17.392  10.056  0.00  0.00     0.174 HD
ATOM     37  H8  1M4 d   1      21.257  15.984  11.144  0.00  0.00     0.174 HD
ENDBRANCH  13  35
TORSDOF 4
