REMARK  5 active torsions:
REMARK  status: ('A' for Active; 'I' for Inactive)
REMARK    1  A    between atoms: C1_1  and  C11_11 
REMARK    2  A    between atoms: C8_8  and  C12_12 
REMARK    3  A    between atoms: C8_8  and  C13_13 
REMARK    4  A    between atoms: N15_15  and  C20_20 
REMARK    5  A    between atoms: C16_16  and  N18_18 
ROOT
ATOM      1  C1  1M5 d   1      27.042  15.498   9.436  0.00  0.00    -0.025 A 
ATOM      2  C2  1M5 d   1      27.763  14.288   9.262  0.00  0.00    -0.070 A 
ATOM      3  C3  1M5 d   1      27.101  13.118   8.814  0.00  0.00    -0.049 A 
ATOM      4  C4  1M5 d   1      25.715  13.152   8.535  0.00  0.00     0.079 A 
ATOM      5  C5  1M5 d   1      24.989  14.358   8.710  0.00  0.00     0.014 A 
ATOM      6  C6  1M5 d   1      25.652  15.528   9.155  0.00  0.00    -0.060 A 
ATOM      7  O7  1M5 d   1      25.088  12.002   8.108  0.00  0.00    -0.340 OA
ATOM      8  C8  1M5 d   1      23.670  11.833   8.205  0.00  0.00     0.064 C 
ATOM      9  C9  1M5 d   1      22.973  13.116   7.705  0.00  0.00     0.000 C 
ATOM     10  C10 1M5 d   1      23.496  14.405   8.380  0.00  0.00     0.162 A 
ATOM     11  C14 1M5 d   1      23.249  15.610   7.459  0.00  0.00     0.271 A 
ATOM     12  N15 1M5 d   1      22.443  16.476   8.107  0.00  0.00    -0.154 N 
ATOM     13  C16 1M5 d   1      22.142  15.928   9.320  0.00  0.00     0.677 A 
ATOM     14  N17 1M5 d   1      22.690  14.779   9.531  0.00  0.00    -0.203 N 
ATOM     15  O19 1M5 d   1      23.804  15.770   6.367  0.00  0.00    -0.269 OA
ATOM     16  H1  1M5 d   1      28.826  14.259   9.473  0.00  0.00     0.085 H 
ATOM     17  H2  1M5 d   1      27.657  12.197   8.685  0.00  0.00     0.087 H 
ATOM     18  H3  1M5 d   1      25.095  16.450   9.281  0.00  0.00     0.086 H 
ATOM     19  H4  1M5 d   1      21.895  13.029   7.909  0.00  0.00     0.042 H 
ATOM     20  H5  1M5 d   1      23.136  13.200   6.620  0.00  0.00     0.042 H 
ATOM     21  H12 1M5 d   1      22.574  14.213  10.384  0.00  0.00     0.179 HD
ENDROOT
BRANCH   8  22
ATOM     22  C12 1M5 d   1      23.292  10.644   7.300  0.00  0.00    -0.047 C 
ATOM     23  H6  1M5 d   1      22.205  10.479   7.346  0.00  0.00     0.031 H 
ATOM     24  H7  1M5 d   1      23.815   9.740   7.645  0.00  0.00     0.031 H 
ATOM     25  H8  1M5 d   1      23.586  10.864   6.263  0.00  0.00     0.031 H 
ENDBRANCH   8  22
BRANCH   8  26
ATOM     26  C13 1M5 d   1      23.292  11.520   9.674  0.00  0.00    -0.047 C 
ATOM     27  H9  1M5 d   1      22.203  11.389   9.752  0.00  0.00     0.031 H 
ATOM     28  H10 1M5 d   1      23.609  12.352  10.319  0.00  0.00     0.031 H 
ATOM     29  H11 1M5 d   1      23.796  10.596   9.993  0.00  0.00     0.031 H 
ENDBRANCH   8  26
BRANCH  12  30
ATOM     30  C20 1M5 d   1      22.006  17.763   7.566  0.00  0.00     0.005 C 
ATOM     31  H15 1M5 d   1      22.429  17.901   6.560  0.00  0.00     0.058 H 
ATOM     32  H16 1M5 d   1      22.352  18.574   8.224  0.00  0.00     0.058 H 
ATOM     33  H17 1M5 d   1      20.908  17.782   7.508  0.00  0.00     0.058 H 
ENDBRANCH  12  30
BRANCH  13  34
ATOM     34  N18 1M5 d   1      21.332  16.614  10.200  0.00  0.00    -0.234 N 
ATOM     35  H13 1M5 d   1      20.942  17.530   9.934  0.00  0.00     0.174 HD
ATOM     36  H14 1M5 d   1      21.117  16.211  11.123  0.00  0.00     0.174 HD
ENDBRANCH  13  34
BRANCH   1  37
ATOM     37  C11 1M5 d   1      27.696  16.679   9.859  0.00  0.00    -0.024 A 
ATOM     38  C21 1M5 d   1      27.030  17.606  10.697  0.00  0.00    -0.051 A 
ATOM     39  C22 1M5 d   1      27.684  18.801  11.083  0.00  0.00     0.034 A 
ATOM     40  H18 1M5 d   1      26.023  17.401  11.042  0.00  0.00     0.087 H 
ATOM     41  C23 1M5 d   1      29.003  19.081  10.640  0.00  0.00    -0.062 A 
ATOM     42 CL1  1M5 d   1      26.856  19.911  12.098  0.00  0.00    -0.084 Cl
ATOM     43  C24 1M5 d   1      29.668  18.157   9.797  0.00  0.00    -0.081 A 
ATOM     44  H19 1M5 d   1      29.498  19.996  10.945  0.00  0.00     0.086 H 
ATOM     45  C25 1M5 d   1      29.013  16.963   9.404  0.00  0.00    -0.072 A 
ATOM     46  H20 1M5 d   1      30.675  18.363   9.453  0.00  0.00     0.083 H 
ATOM     47  H21 1M5 d   1      29.520  16.261   8.752  0.00  0.00     0.084 H 
ENDBRANCH   1  37
TORSDOF 5
