REMARK  8 active torsions:
REMARK  status: ('A' for Active; 'I' for Inactive)
REMARK    1  A    between atoms: C2_2  and  C1_1 
REMARK    2  A    between atoms: C3_3  and  C2_2 
REMARK    3  A    between atoms: S1_20  and  C3_3 
REMARK    4  A    between atoms: N2_26  and  C8_8 
REMARK    5  A    between atoms: C10_10  and  O3_29 
REMARK    6  A    between atoms: C11_11  and  C12_12 
REMARK    7  A    between atoms: O3_29  and  C11_11 
REMARK    8  A    between atoms: N1_23  and  S1_20 
ROOT
ATOM      1  C12 AZ6 d   1      45.744 -14.465   9.876  0.00  0.00    -0.033 A 
ATOM      2  C13 AZ6 d   1      45.164 -14.384   8.625  0.00  0.00    -0.075 A 
ATOM      3  C14 AZ6 d   1      45.951 -14.240   7.504  0.00  0.00    -0.081 A 
ATOM      4  C15 AZ6 d   1      47.324 -14.180   7.624  0.00  0.00    -0.063 A 
ATOM      5  C16 AZ6 d   1      47.899 -14.260   8.875  0.00  0.00     0.045 A 
ATOM      6  C17 AZ6 d   1      49.308 -14.202   9.028  0.00  0.00     0.099 C 
ATOM      7  N4  AZ6 d   1      50.464 -14.170   9.121  0.00  0.00    -0.191 NA
ATOM      8  C18 AZ6 d   1      47.115 -14.402   9.996  0.00  0.00    -0.055 A 
ATOM      9  H   AZ6 d   1      44.086 -14.434   8.525  0.00  0.00     0.084 H 
ATOM     10  H   AZ6 d   1      45.490 -14.174   6.525  0.00  0.00     0.083 H 
ATOM     11  H   AZ6 d   1      47.946 -14.071   6.743  0.00  0.00     0.085 H 
ATOM     12  H   AZ6 d   1      47.576 -14.464  10.975  0.00  0.00     0.086 H 
ENDROOT
BRANCH   1  13
ATOM     13  C11 AZ6 d   1      44.910 -14.619  11.103  0.00  0.00     0.050 C 
ATOM     14  H   AZ6 d   1      45.246 -15.493  11.680  0.00  0.00     0.082 H 
ATOM     15  H   AZ6 d   1      43.853 -14.746  10.827  0.00  0.00     0.082 H 
BRANCH  13  16
ATOM     16  O3  AZ6 d   1      45.073 -13.434  11.874  0.00  0.00    -0.344 OA
BRANCH  16  17
ATOM     17  C10 AZ6 d   1      44.437 -13.573  13.108  0.00  0.00     0.104 A 
ATOM     18  C9  AZ6 d   1      43.494 -14.528  13.394  0.00  0.00     0.039 A 
ATOM     19  N3  AZ6 d   1      42.909 -14.627  14.595  0.00  0.00    -0.228 NA
ATOM     20  H   AZ6 d   1      43.211 -15.230  12.618  0.00  0.00     0.119 H 
ATOM     21  C8  AZ6 d   1      43.275 -13.738  15.534  0.00  0.00     0.203 A 
ATOM     22  N5  AZ6 d   1      44.183 -12.768  15.337  0.00  0.00    -0.228 NA
ATOM     23  C19 AZ6 d   1      44.747 -12.709  14.129  0.00  0.00     0.039 A 
ATOM     24  H   AZ6 d   1      45.488 -11.940  13.944  0.00  0.00     0.119 H 
BRANCH  21  25
ATOM     25  N2  AZ6 d   1      42.646 -13.836  16.793  0.00  0.00    -0.248 NA
ATOM     26  C5  AZ6 d   1      42.522 -15.187  17.297  0.00  0.00     0.002 C 
ATOM     27  C4  AZ6 d   1      41.310 -15.175  18.197  0.00  0.00     0.016 C 
ATOM     28  H   AZ6 d   1      42.377 -15.895  16.467  0.00  0.00     0.059 H 
ATOM     29  H   AZ6 d   1      43.420 -15.468  17.866  0.00  0.00     0.059 H 
ATOM     30  N1  AZ6 d   1      41.401 -14.096  19.225  0.00  0.00    -0.308 N 
ATOM     31  H   AZ6 d   1      40.412 -15.010  17.584  0.00  0.00     0.067 H 
ATOM     32  H   AZ6 d   1      41.233 -16.147  18.706  0.00  0.00     0.067 H 
ATOM     33  C7  AZ6 d   1      42.001 -12.780  18.847  0.00  0.00     0.016 C 
ATOM     34  C6  AZ6 d   1      43.075 -12.869  17.779  0.00  0.00     0.002 C 
ATOM     35  H   AZ6 d   1      42.447 -12.333  19.748  0.00  0.00     0.067 H 
ATOM     36  H   AZ6 d   1      41.197 -12.129  18.474  0.00  0.00     0.067 H 
ATOM     37  H   AZ6 d   1      44.025 -13.193  18.230  0.00  0.00     0.059 H 
ATOM     38  H   AZ6 d   1      43.211 -11.886  17.304  0.00  0.00     0.059 H 
BRANCH  30  39
ATOM     39  S1  AZ6 d   1      41.376 -14.514  20.890  0.00  0.00     0.231 S 
ATOM     40  O1  AZ6 d   1      41.692 -13.360  21.707  0.00  0.00    -0.206 OA
ATOM     41  O2  AZ6 d   1      42.115 -15.745  21.077  0.00  0.00    -0.206 OA
BRANCH  39  42
ATOM     42  C3  AZ6 d   1      39.692 -14.992  21.215  0.00  0.00     0.077 C 
ATOM     43  H   AZ6 d   1      39.497 -15.923  20.663  0.00  0.00     0.063 H 
ATOM     44  H   AZ6 d   1      39.602 -15.181  22.295  0.00  0.00     0.063 H 
BRANCH  42  45
ATOM     45  C2  AZ6 d   1      38.616 -13.997  20.831  0.00  0.00     0.126 C 
ATOM     46  N6  AZ6 d   1      38.996 -12.623  20.920  0.00  0.00    -0.324 N 
ATOM     47  C20 AZ6 d   1      38.747 -11.978  19.741  0.00  0.00     0.323 C 
ATOM     48  H   AZ6 d   1      39.390 -12.193  21.732  0.00  0.00     0.165 HD
ATOM     49  O4  AZ6 d   1      38.809 -10.769  19.563  0.00  0.00    -0.247 OA
ATOM     50  N7  AZ6 d   1      38.415 -12.878  18.815  0.00  0.00    -0.277 N 
ATOM     51  C21 AZ6 d   1      38.329 -14.083  19.362  0.00  0.00     0.254 C 
ATOM     52  H   AZ6 d   1      38.254 -12.674  17.849  0.00  0.00     0.173 HD
ATOM     53  O5  AZ6 d   1      38.067 -15.127  18.777  0.00  0.00    -0.270 OA
BRANCH  45  54
ATOM     54  C1  AZ6 d   1      37.323 -14.293  21.568  0.00  0.00    -0.043 C 
ATOM     55  H   AZ6 d   1      37.079 -15.361  21.467  0.00  0.00     0.031 H 
ATOM     56  H   AZ6 d   1      36.510 -13.689  21.139  0.00  0.00     0.031 H 
ATOM     57  H   AZ6 d   1      37.443 -14.044  22.633  0.00  0.00     0.031 H 
ENDBRANCH  45  54
ENDBRANCH  42  45
ENDBRANCH  39  42
ENDBRANCH  30  39
ENDBRANCH  21  25
ENDBRANCH  16  17
ENDBRANCH  13  16
ENDBRANCH   1  13
TORSDOF 8
