REMARK  5 active torsions:
REMARK  status: ('A' for Active; 'I' for Inactive)
REMARK    1  A    between atoms: C1_1  and  C15_15 
REMARK    2  A    between atoms: C8_8  and  C24_24 
REMARK    3  A    between atoms: C8_8  and  C25_25 
REMARK    4  A    between atoms: N12_12  and  C16_16 
REMARK    5  A    between atoms: C13_13  and  N17_17 
ROOT
ATOM      1  C15 1M6 d   1      27.639  16.506   9.538  0.00  0.00    -0.025 A 
ATOM      2  C18 1M6 d   1      27.045  17.457  10.403  0.00  0.00    -0.052 A 
ATOM      3  C19 1M6 d   1      27.742  18.646  10.727  0.00  0.00     0.045 A 
ATOM      4  C20 1M6 d   1      29.029  18.900  10.188  0.00  0.00    -0.063 A 
ATOM      5  C21 1M6 d   1      29.622  17.954   9.315  0.00  0.00    -0.081 A 
ATOM      6  C22 1M6 d   1      28.924  16.766   8.988  0.00  0.00    -0.072 A 
ATOM      7  C26 1M6 d   1      27.133  19.628  11.596  0.00  0.00     0.099 C 
ATOM      8  N27 1M6 d   1      26.629  20.393  12.301  0.00  0.00    -0.191 NA
ATOM      9  H12 1M6 d   1      26.059  17.275  10.816  0.00  0.00     0.087 H 
ATOM     10  H13 1M6 d   1      29.556  19.812  10.442  0.00  0.00     0.085 H 
ATOM     11  H14 1M6 d   1      30.606  18.139   8.899  0.00  0.00     0.083 H 
ATOM     12  H15 1M6 d   1      29.374  16.048   8.312  0.00  0.00     0.084 H 
ENDROOT
BRANCH   1  13
ATOM     13  C1  1M6 d   1      26.947  15.325   9.186  0.00  0.00    -0.025 A 
ATOM     14  C2  1M6 d   1      27.632  14.095   9.014  0.00  0.00    -0.070 A 
ATOM     15  C3  1M6 d   1      26.922  12.931   8.641  0.00  0.00    -0.049 A 
ATOM     16  H1  1M6 d   1      28.704  14.047   9.169  0.00  0.00     0.085 H 
ATOM     17  C4  1M6 d   1      25.521  12.994   8.442  0.00  0.00     0.079 A 
ATOM     18  H2  1M6 d   1      27.448  11.993   8.508  0.00  0.00     0.087 H 
ATOM     19  C5  1M6 d   1      24.826  14.219   8.619  0.00  0.00     0.014 A 
ATOM     20  O7  1M6 d   1      24.850  11.851   8.094  0.00  0.00    -0.340 OA
ATOM     21  C6  1M6 d   1      25.544  15.380   8.982  0.00  0.00    -0.060 A 
ATOM     22  C10 1M6 d   1      23.311  14.304   8.382  0.00  0.00     0.162 A 
ATOM     23  H3  1M6 d   1      25.019  16.320   9.106  0.00  0.00     0.086 H 
ATOM     24  C9  1M6 d   1      22.718  13.005   7.798  0.00  0.00     0.000 C 
ATOM     25  C11 1M6 d   1      23.036  15.490   7.439  0.00  0.00     0.271 A 
ATOM     26  N14 1M6 d   1      22.574  14.739   9.568  0.00  0.00    -0.203 N 
ATOM     27  C8  1M6 d   1      23.436  11.710   8.252  0.00  0.00     0.064 C 
ATOM     28  H4  1M6 d   1      21.664  12.940   8.106  0.00  0.00     0.042 H 
ATOM     29  H5  1M6 d   1      22.776  13.064   6.701  0.00  0.00     0.042 H 
ATOM     30  N12 1M6 d   1      22.329  16.414   8.124  0.00  0.00    -0.154 N 
ATOM     31  O23 1M6 d   1      23.515  15.606   6.306  0.00  0.00    -0.269 OA
ATOM     32  C13 1M6 d   1      22.088  15.917   9.372  0.00  0.00     0.677 A 
ATOM     33  H6  1M6 d   1      22.460  14.187  10.430  0.00  0.00     0.179 HD
BRANCH  27  34
ATOM     34  C24 1M6 d   1      23.015  10.522   7.359  0.00  0.00    -0.047 C 
ATOM     35  H16 1M6 d   1      21.929  10.367   7.442  0.00  0.00     0.031 H 
ATOM     36  H17 1M6 d   1      23.541   9.613   7.686  0.00  0.00     0.031 H 
ATOM     37  H18 1M6 d   1      23.275  10.740   6.313  0.00  0.00     0.031 H 
ENDBRANCH  27  34
BRANCH  27  38
ATOM     38  C25 1M6 d   1      23.075  11.391   9.723  0.00  0.00    -0.047 C 
ATOM     39  H19 1M6 d   1      21.984  11.287   9.819  0.00  0.00     0.031 H 
ATOM     40  H20 1M6 d   1      23.424  12.208  10.372  0.00  0.00     0.031 H 
ATOM     41  H21 1M6 d   1      23.560  10.451  10.024  0.00  0.00     0.031 H 
ENDBRANCH  27  38
BRANCH  30  42
ATOM     42  C16 1M6 d   1      21.933  17.720   7.594  0.00  0.00     0.005 C 
ATOM     43  H7  1M6 d   1      22.279  17.814   6.554  0.00  0.00     0.058 H 
ATOM     44  H8  1M6 d   1      22.385  18.516   8.204  0.00  0.00     0.058 H 
ATOM     45  H9  1M6 d   1      20.837  17.811   7.625  0.00  0.00     0.058 H 
ENDBRANCH  30  42
BRANCH  32  46
ATOM     46  N17 1M6 d   1      21.321  16.653  10.263  0.00  0.00    -0.234 N 
ATOM     47  H10 1M6 d   1      20.983  17.590  10.000  0.00  0.00     0.174 HD
ATOM     48  H11 1M6 d   1      21.089  16.263  11.188  0.00  0.00     0.174 HD
ENDBRANCH  32  46
ENDBRANCH   1  13
TORSDOF 5
