REMARK  5 active torsions:
REMARK  status: ('A' for Active; 'I' for Inactive)
REMARK    1  A    between atoms: C1_1  and  C11_11 
REMARK    2  A    between atoms: C8_8  and  C24_24 
REMARK    3  A    between atoms: C8_8  and  C25_25 
REMARK    4  A    between atoms: N13_13  and  C17_17 
REMARK    5  A    between atoms: C14_14  and  N18_18 
ROOT
ATOM      1  C1  1M7 d   1      26.922  15.528   9.471  0.00  0.00    -0.022 A 
ATOM      2  C2  1M7 d   1      27.693  14.362   9.199  0.00  0.00    -0.072 A 
ATOM      3  C3  1M7 d   1      27.062  13.195   8.692  0.00  0.00    -0.075 A 
ATOM      4  C4  1M7 d   1      25.661  13.167   8.442  0.00  0.00    -0.048 A 
ATOM      5  C5  1M7 d   1      24.886  14.329   8.711  0.00  0.00    -0.013 A 
ATOM      6  C6  1M7 d   1      25.520  15.495   9.217  0.00  0.00    -0.063 A 
ATOM      7  C7  1M7 d   1      24.990  11.898   7.902  0.00  0.00    -0.034 C 
ATOM      8  C8  1M7 d   1      23.472  11.782   8.196  0.00  0.00    -0.041 C 
ATOM      9  C9  1M7 d   1      22.770  13.092   7.768  0.00  0.00    -0.022 C 
ATOM     10  C10 1M7 d   1      23.379  14.352   8.432  0.00  0.00     0.157 A 
ATOM     11  C12 1M7 d   1      23.083  15.572   7.543  0.00  0.00     0.271 A 
ATOM     12  N13 1M7 d   1      22.280  16.410   8.225  0.00  0.00    -0.154 N 
ATOM     13  C14 1M7 d   1      22.047  15.854   9.448  0.00  0.00     0.677 A 
ATOM     14  N15 1M7 d   1      22.618  14.712   9.631  0.00  0.00    -0.204 N 
ATOM     15  O16 1M7 d   1      23.512  15.730   6.395  0.00  0.00    -0.269 OA
ATOM     16  H1  1M7 d   1      28.762  14.365   9.379  0.00  0.00     0.084 H 
ATOM     17  H2  1M7 d   1      27.657  12.311   8.492  0.00  0.00     0.084 H 
ATOM     18  H3  1M7 d   1      24.924  16.379   9.414  0.00  0.00     0.085 H 
ATOM     19  H4  1M7 d   1      25.492  11.029   8.352  0.00  0.00     0.041 H 
ATOM     20  H5  1M7 d   1      25.129  11.877   6.811  0.00  0.00     0.041 H 
ATOM     21  H6  1M7 d   1      21.708  13.028   8.047  0.00  0.00     0.039 H 
ATOM     22  H7  1M7 d   1      22.856  13.195   6.676  0.00  0.00     0.039 H 
ATOM     23  H8  1M7 d   1      22.550  14.142  10.486  0.00  0.00     0.179 HD
ENDROOT
BRANCH   8  24
ATOM     24  C24 1M7 d   1      22.851  10.623   7.377  0.00  0.00    -0.069 C 
ATOM     25  H17 1M7 d   1      23.332   9.675   7.660  0.00  0.00     0.028 H 
ATOM     26  H18 1M7 d   1      23.008  10.807   6.304  0.00  0.00     0.028 H 
ATOM     27  H19 1M7 d   1      21.773  10.564   7.585  0.00  0.00     0.028 H 
ENDBRANCH   8  24
BRANCH   8  28
ATOM     28  C25 1M7 d   1      23.222  11.487   9.701  0.00  0.00    -0.069 C 
ATOM     29  H20 1M7 d   1      23.653  12.296  10.310  0.00  0.00     0.028 H 
ATOM     30  H21 1M7 d   1      23.696  10.532   9.971  0.00  0.00     0.028 H 
ATOM     31  H22 1M7 d   1      22.140  11.425   9.888  0.00  0.00     0.028 H 
ENDBRANCH   8  28
BRANCH  12  32
ATOM     32  C17 1M7 d   1      21.775  17.687   7.706  0.00  0.00     0.005 C 
ATOM     33  H9  1M7 d   1      22.150  17.841   6.684  0.00  0.00     0.058 H 
ATOM     34  H10 1M7 d   1      22.121  18.508   8.351  0.00  0.00     0.058 H 
ATOM     35  H11 1M7 d   1      20.675  17.669   7.694  0.00  0.00     0.058 H 
ENDBRANCH  12  32
BRANCH  13  36
ATOM     36  N18 1M7 d   1      21.250  16.531  10.344  0.00  0.00    -0.234 N 
ATOM     37  H12 1M7 d   1      20.845  17.442  10.087  0.00  0.00     0.174 HD
ATOM     38  H13 1M7 d   1      21.059  16.126  11.271  0.00  0.00     0.174 HD
ENDBRANCH  13  36
BRANCH   1  39
ATOM     39  C11 1M7 d   1      27.510  16.727   9.963  0.00  0.00     0.009 A 
ATOM     40  C19 1M7 d   1      28.733  17.228   9.432  0.00  0.00     0.015 A 
ATOM     41  N20 1M7 d   1      29.265  18.375   9.889  0.00  0.00    -0.253 NA
ATOM     42  H14 1M7 d   1      29.242  16.677   8.649  0.00  0.00     0.116 H 
ATOM     43  C21 1M7 d   1      28.588  19.029  10.852  0.00  0.00     0.086 A 
ATOM     44  N22 1M7 d   1      27.423  18.656  11.406  0.00  0.00    -0.253 NA
ATOM     45  H15 1M7 d   1      29.028  19.950  11.217  0.00  0.00     0.146 H 
ATOM     46  C23 1M7 d   1      26.881  17.510  10.966  0.00  0.00     0.015 A 
ATOM     47  H16 1M7 d   1      25.940  17.174  11.387  0.00  0.00     0.116 H 
ENDBRANCH   1  39
TORSDOF 5
