REMARK  7 active torsions:
REMARK  status: ('A' for Active; 'I' for Inactive)
REMARK    1  A    between atoms: C2_2  and  C11_26 
REMARK    2  A    between atoms: N_17  and  C6_5 
REMARK    3  A    between atoms: C1_7  and  C10_20 
REMARK    4  A    between atoms: CA_14  and  C22_13 
REMARK    5  A    between atoms: CA_14  and  C_15 
REMARK    6  A    between atoms: CA_14  and  N_17 
REMARK    7  A    between atoms: C_15  and  O_16 
ROOT
ATOM      1  C3  KJQ d   1     -52.706   0.153 -22.087  0.00  0.00     0.077 A 
ATOM      2  C2  KJQ d   1     -51.792  -0.273 -21.171  0.00  0.00     0.027 A 
ATOM      3  N8  KJQ d   1     -53.975   0.622 -24.029  0.00  0.00    -0.224 NA
ATOM      4  C9  KJQ d   1     -54.885   1.364 -23.292  0.00  0.00     0.091 A 
ATOM      5  C6  KJQ d   1     -52.921   0.031 -23.433  0.00  0.00     0.141 A 
ATOM      6  C4  KJQ d   1     -53.595   0.879 -21.371  0.00  0.00     0.186 A 
ATOM      7  C1  KJQ d   1     -52.161   0.200 -19.956  0.00  0.00     0.100 A 
ATOM      8  N7  KJQ d   1     -54.663   1.477 -21.926  0.00  0.00    -0.217 NA
ATOM      9  O5  KJQ d   1     -53.245   0.881 -20.122  0.00  0.00    -0.289 OA
ATOM     10  H1  KJQ d   1     -55.738   1.838 -23.764  0.00  0.00     0.146 H 
ENDROOT
BRANCH   5  11
ATOM     11  N   KJQ d   1     -52.070  -0.656 -24.226  0.00  0.00    -0.363 N 
ATOM     12  H11 KJQ d   1     -51.146  -0.919 -23.854  0.00  0.00     0.162 HD
BRANCH  11  13
ATOM     13  CA  KJQ d   1     -52.424  -1.047 -25.626  0.00  0.00     0.057 C 
ATOM     14  H7  KJQ d   1     -53.435  -1.479 -25.608  0.00  0.00     0.083 H 
BRANCH  13  15
ATOM     15  C22 KJQ d   1     -52.424   0.035 -26.556  0.00  0.00    -0.034 A 
ATOM     16  C23 KJQ d   1     -52.901  -0.200 -27.852  0.00  0.00    -0.075 A 
ATOM     17  C25 KJQ d   1     -52.928   0.814 -28.807  0.00  0.00    -0.082 A 
ATOM     18  H2  KJQ d   1     -53.256  -1.190 -28.117  0.00  0.00     0.084 H 
ATOM     19  C27 KJQ d   1     -52.484   2.091 -28.479  0.00  0.00    -0.083 A 
ATOM     20  H3  KJQ d   1     -53.295   0.608 -29.806  0.00  0.00     0.083 H 
ATOM     21  C26 KJQ d   1     -52.014   2.345 -27.194  0.00  0.00    -0.082 A 
ATOM     22  H4  KJQ d   1     -52.504   2.883 -29.219  0.00  0.00     0.083 H 
ATOM     23  C24 KJQ d   1     -51.976   1.326 -26.240  0.00  0.00    -0.075 A 
ATOM     24  H5  KJQ d   1     -51.675   3.341 -26.932  0.00  0.00     0.083 H 
ATOM     25  H6  KJQ d   1     -51.597   1.535 -25.246  0.00  0.00     0.084 H 
ENDBRANCH  13  15
BRANCH  13  26
ATOM     26  C   KJQ d   1     -51.442  -2.105 -26.120  0.00  0.00     0.039 C 
ATOM     27  H8  KJQ d   1     -50.408  -1.744 -26.017  0.00  0.00     0.077 H 
ATOM     28  H9  KJQ d   1     -51.642  -2.350 -27.174  0.00  0.00     0.077 H 
BRANCH  26  29
ATOM     29  O   KJQ d   1     -51.653  -3.257 -25.292  0.00  0.00    -0.399 OA
ATOM     30  H10 KJQ d   1     -51.062  -3.951 -25.560  0.00  0.00     0.209 HD
ENDBRANCH  26  29
ENDBRANCH  13  26
ENDBRANCH  11  13
ENDBRANCH   5  11
BRANCH   2  31
ATOM     31  C11 KJQ d   1     -50.723  -1.046 -21.430  0.00  0.00    -0.022 A 
ATOM     32  C13 KJQ d   1     -49.420  -0.568 -21.270  0.00  0.00    -0.072 A 
ATOM     33  C16 KJQ d   1     -48.330  -1.401 -21.537  0.00  0.00    -0.082 A 
ATOM     34  H17 KJQ d   1     -49.254   0.451 -20.938  0.00  0.00     0.084 H 
ATOM     35  C20 KJQ d   1     -48.528  -2.712 -21.967  0.00  0.00    -0.083 A 
ATOM     36  H18 KJQ d   1     -47.322  -1.024 -21.409  0.00  0.00     0.083 H 
ATOM     37  C19 KJQ d   1     -49.825  -3.195 -22.127  0.00  0.00    -0.082 A 
ATOM     38  H19 KJQ d   1     -47.678  -3.352 -22.176  0.00  0.00     0.083 H 
ATOM     39  C12 KJQ d   1     -50.915  -2.368 -21.852  0.00  0.00    -0.072 A 
ATOM     40  H20 KJQ d   1     -49.987  -4.212 -22.465  0.00  0.00     0.083 H 
ATOM     41  H21 KJQ d   1     -51.922  -2.753 -21.966  0.00  0.00     0.084 H 
ENDBRANCH   2  31
BRANCH   7  42
ATOM     42  C10 KJQ d   1     -51.649   0.074 -18.713  0.00  0.00    -0.001 A 
ATOM     43  C14 KJQ d   1     -50.747  -0.920 -18.303  0.00  0.00    -0.070 A 
ATOM     44  C17 KJQ d   1     -50.302  -0.981 -16.977  0.00  0.00    -0.082 A 
ATOM     45  H12 KJQ d   1     -50.391  -1.649 -19.022  0.00  0.00     0.084 H 
ATOM     46  C21 KJQ d   1     -50.760  -0.064 -16.034  0.00  0.00    -0.083 A 
ATOM     47  H13 KJQ d   1     -49.595  -1.748 -16.682  0.00  0.00     0.083 H 
ATOM     48  C18 KJQ d   1     -51.667   0.917 -16.421  0.00  0.00    -0.082 A 
ATOM     49  H14 KJQ d   1     -50.413  -0.114 -15.008  0.00  0.00     0.083 H 
ATOM     50  C15 KJQ d   1     -52.110   0.978 -17.741  0.00  0.00    -0.070 A 
ATOM     51  H15 KJQ d   1     -52.030   1.635 -15.695  0.00  0.00     0.083 H 
ATOM     52  H16 KJQ d   1     -52.827   1.740 -18.024  0.00  0.00     0.084 H 
ENDBRANCH   7  42
TORSDOF 7
