REMARK  13 active torsions:
REMARK  status: ('A' for Active; 'I' for Inactive)
REMARK    1  A    between atoms: C35_1  and  N32_2 
REMARK    2  A    between atoms: N32_2  and  C34_3 
REMARK    3  A    between atoms: N32_2  and  C31_4 
REMARK    4  A    between atoms: C31_4  and  C30_5 
REMARK    5  A    between atoms: C30_5  and  C29_6 
REMARK       I    between atoms: C29_6  and  N28_8 
REMARK    6  A    between atoms: N28_8  and  C26_9 
REMARK    7  A    between atoms: C16_14  and  C1_15 
REMARK    8  A    between atoms: C2_17  and  C10_18 
REMARK    9  A    between atoms: C9_29  and  N_30 
REMARK   10  A    between atoms: N_30  and  CA_31 
REMARK   11  A    between atoms: CA_31  and  C_32 
REMARK   12  A    between atoms: CA_31  and  C17_34 
REMARK   13  A    between atoms: C_32  and  O_33 
ROOT
ATOM      1  C1  KJ8 d   1     146.961 125.393 199.220  0.00  0.00     0.027 A 
ATOM      2  C5  KJ8 d   1     146.509 124.460 200.116  0.00  0.00     0.077 A 
ATOM      3  C2  KJ8 d   1     146.394 126.580 199.548  0.00  0.00     0.100 A 
ATOM      4  O3  KJ8 d   1     145.629 126.414 200.627  0.00  0.00    -0.289 OA
ATOM      5  C4  KJ8 d   1     145.691 125.124 200.976  0.00  0.00     0.186 A 
ATOM      6  N6  KJ8 d   1     145.071 124.516 201.998  0.00  0.00    -0.217 NA
ATOM      7  C7  KJ8 d   1     145.277 123.154 202.202  0.00  0.00     0.091 A 
ATOM      8  N8  KJ8 d   1     146.115 122.472 201.334  0.00  0.00    -0.224 NA
ATOM      9  C9  KJ8 d   1     146.709 123.124 200.313  0.00  0.00     0.141 A 
ATOM     10  H22 KJ8 d   1     144.792 122.638 203.023  0.00  0.00     0.146 H 
ENDROOT
BRANCH   1  11
ATOM     11  C16 KJ8 d   1     147.797 125.130 198.174  0.00  0.00    -0.020 A 
ATOM     12  C27 KJ8 d   1     149.061 124.551 198.382  0.00  0.00    -0.046 A 
ATOM     13  C26 KJ8 d   1     149.949 124.232 197.334  0.00  0.00     0.035 A 
ATOM     14  H13 KJ8 d   1     149.369 124.339 199.400  0.00  0.00     0.088 H 
ATOM     15  C25 KJ8 d   1     149.538 124.523 196.021  0.00  0.00    -0.057 A 
ATOM     16  C24 KJ8 d   1     148.285 125.094 195.796  0.00  0.00    -0.080 A 
ATOM     17  H14 KJ8 d   1     150.193 124.304 195.186  0.00  0.00     0.086 H 
ATOM     18  C23 KJ8 d   1     147.419 125.387 196.850  0.00  0.00    -0.072 A 
ATOM     19  H15 KJ8 d   1     147.978 125.315 194.780  0.00  0.00     0.083 H 
ATOM     20  H16 KJ8 d   1     146.446 125.817 196.643  0.00  0.00     0.084 H 
BRANCH  13  21
ATOM     21  N28 KJ8 d   1     151.145 123.663 197.674  0.00  0.00    -0.327 N 
ATOM     22  C29 KJ8 d   1     152.164 123.567 196.771  0.00  0.00     0.223 C 
ATOM     23  O33 KJ8 d   1     152.111 124.038 195.644  0.00  0.00    -0.273 OA
ATOM     24  H12 KJ8 d   1     151.275 123.311 198.601  0.00  0.00     0.169 HD
BRANCH  22  25
ATOM     25  C30 KJ8 d   1     153.499 122.941 197.277  0.00  0.00     0.032 C 
ATOM     26  H10 KJ8 d   1     154.186 123.741 197.589  0.00  0.00     0.049 H 
ATOM     27  H11 KJ8 d   1     153.295 122.279 198.132  0.00  0.00     0.049 H 
BRANCH  25  28
ATOM     28  C31 KJ8 d   1     154.133 122.135 196.147  0.00  0.00     0.090 C 
ATOM     29  H8  KJ8 d   1     153.472 122.161 195.268  0.00  0.00     0.076 H 
ATOM     30  H9  KJ8 d   1     155.106 122.578 195.887  0.00  0.00     0.076 H 
BRANCH  28  31
ATOM     31  N32 KJ8 d   1     154.333 120.733 196.565  0.00  0.00    -0.078 N 
ATOM     32  H4  KJ8 d   1     154.252 120.738 197.570  0.00  0.00     0.278 HD
BRANCH  31  33
ATOM     33  C35 KJ8 d   1     155.673 120.192 196.261  0.00  0.00     0.066 C 
ATOM     34  H1  KJ8 d   1     155.734 119.149 196.605  0.00  0.00     0.068 H 
ATOM     35  H2  KJ8 d   1     156.437 120.793 196.777  0.00  0.00     0.068 H 
ATOM     36  H3  KJ8 d   1     155.847 120.231 195.175  0.00  0.00     0.068 H 
ENDBRANCH  31  33
BRANCH  31  37
ATOM     37  C34 KJ8 d   1     153.294 119.809 196.069  0.00  0.00     0.066 C 
ATOM     38  H5  KJ8 d   1     152.299 120.218 196.299  0.00  0.00     0.068 H 
ATOM     39  H6  KJ8 d   1     153.410 118.831 196.558  0.00  0.00     0.068 H 
ATOM     40  H7  KJ8 d   1     153.399 119.690 194.981  0.00  0.00     0.068 H 
ENDBRANCH  31  37
ENDBRANCH  28  31
ENDBRANCH  25  28
ENDBRANCH  22  25
ENDBRANCH  13  21
ENDBRANCH   1  11
BRANCH   3  41
ATOM     41  C10 KJ8 d   1     146.528 127.805 199.040  0.00  0.00    -0.001 A 
ATOM     42  C11 KJ8 d   1     147.552 128.170 198.152  0.00  0.00    -0.070 A 
ATOM     43  C12 KJ8 d   1     147.644 129.483 197.704  0.00  0.00    -0.082 A 
ATOM     44  H17 KJ8 d   1     148.269 127.430 197.816  0.00  0.00     0.084 H 
ATOM     45  C13 KJ8 d   1     146.754 130.447 198.167  0.00  0.00    -0.083 A 
ATOM     46  H18 KJ8 d   1     148.413 129.757 196.991  0.00  0.00     0.083 H 
ATOM     47  C14 KJ8 d   1     145.764 130.109 199.080  0.00  0.00    -0.082 A 
ATOM     48  H19 KJ8 d   1     146.834 131.468 197.813  0.00  0.00     0.083 H 
ATOM     49  C15 KJ8 d   1     145.656 128.796 199.520  0.00  0.00    -0.070 A 
ATOM     50  H20 KJ8 d   1     145.080 130.865 199.447  0.00  0.00     0.083 H 
ATOM     51  H21 KJ8 d   1     144.891 128.533 200.241  0.00  0.00     0.084 H 
ENDBRANCH   3  41
BRANCH   9  52
ATOM     52  N   KJ8 d   1     147.482 122.416 199.448  0.00  0.00    -0.363 N 
ATOM     53  H23 KJ8 d   1     147.853 122.900 198.618  0.00  0.00     0.162 HD
BRANCH  52  54
ATOM     54  CA  KJ8 d   1     147.822 120.976 199.637  0.00  0.00     0.057 C 
ATOM     55  H24 KJ8 d   1     148.311 120.876 200.617  0.00  0.00     0.083 H 
BRANCH  54  56
ATOM     56  C   KJ8 d   1     148.777 120.507 198.566  0.00  0.00     0.039 C 
ATOM     57  H25 KJ8 d   1     148.418 120.844 197.583  0.00  0.00     0.077 H 
ATOM     58  H26 KJ8 d   1     148.831 119.408 198.580  0.00  0.00     0.077 H 
BRANCH  56  59
ATOM     59  O   KJ8 d   1     150.070 121.046 198.807  0.00  0.00    -0.399 OA
ATOM     60  H27 KJ8 d   1     150.380 120.754 199.656  0.00  0.00     0.209 HD
ENDBRANCH  56  59
ENDBRANCH  54  56
BRANCH  54  61
ATOM     61  C17 KJ8 d   1     146.688 120.104 199.613  0.00  0.00    -0.034 A 
ATOM     62  C18 KJ8 d   1     145.433 120.496 199.144  0.00  0.00    -0.075 A 
ATOM     63  C19 KJ8 d   1     144.350 119.611 199.149  0.00  0.00    -0.082 A 
ATOM     64  H28 KJ8 d   1     145.295 121.504 198.769  0.00  0.00     0.084 H 
ATOM     65  C20 KJ8 d   1     144.499 118.309 199.609  0.00  0.00    -0.083 A 
ATOM     66  H29 KJ8 d   1     143.383 119.945 198.790  0.00  0.00     0.083 H 
ATOM     67  C21 KJ8 d   1     145.742 117.903 200.066  0.00  0.00    -0.082 A 
ATOM     68  H30 KJ8 d   1     143.659 117.624 199.610  0.00  0.00     0.083 H 
ATOM     69  C22 KJ8 d   1     146.818 118.791 200.075  0.00  0.00    -0.075 A 
ATOM     70  H31 KJ8 d   1     145.880 116.888 200.419  0.00  0.00     0.083 H 
ATOM     71  H32 KJ8 d   1     147.778 118.455 200.449  0.00  0.00     0.084 H 
ENDBRANCH  54  61
ENDBRANCH  52  54
ENDBRANCH   9  52
TORSDOF 13
