REMARK  13 active torsions:
REMARK  status: ('A' for Active; 'I' for Inactive)
REMARK    1  A    between atoms: C2_4  and  C22_34 
REMARK       I    between atoms: C24_36  and  N2_5 
REMARK    2  A    between atoms: C6_14  and  O2_6 
REMARK    3  A    between atoms: O2_6  and  C23_35 
REMARK       I    between atoms: C23_35  and  N3_8 
REMARK    4  A    between atoms: C7_16  and  O3_9 
REMARK    5  A    between atoms: O3_9  and  C24_36 
REMARK    6  A    between atoms: C11_23  and  O5_13 
REMARK    7  A    between atoms: O5_13  and  C14_26 
REMARK    8  A    between atoms: C12_24  and  O6_15 
REMARK    9  A    between atoms: O6_15  and  C27_39 
REMARK   10  A    between atoms: C8_18  and  C25_37 
REMARK   11  A    between atoms: C18_30  and  O8_19 
REMARK   12  A    between atoms: O8_19  and  C28_40 
REMARK   13  A    between atoms: C10_22  and  C26_38 
ROOT
ATOM      1  C1  VJ6 d   1      36.051   2.689  54.992  0.00  0.00     0.251 C 
ATOM      2  N1  VJ6 d   1      35.622   3.632  54.014  0.00  0.00    -0.323 N 
ATOM      3  O1  VJ6 d   1      36.882   1.883  54.622  0.00  0.00    -0.268 OA
ATOM      4  C2  VJ6 d   1      35.537   2.677  56.399  0.00  0.00     0.002 C 
ATOM      5  C3  VJ6 d   1      35.648   3.793  57.229  0.00  0.00    -0.092 C 
ATOM      6  C4  VJ6 d   1      35.186   3.790  58.668  0.00  0.00    -0.047 C 
ATOM      7  C5  VJ6 d   1      34.891   5.198  59.116  0.00  0.00    -0.035 C 
ATOM      8  C6  VJ6 d   1      36.127   6.037  59.078  0.00  0.00     0.079 C 
ATOM      9  C7  VJ6 d   1      35.837   7.453  59.446  0.00  0.00     0.096 C 
ATOM     10  C8  VJ6 d   1      34.822   8.076  58.536  0.00  0.00    -0.055 C 
ATOM     11  C9  VJ6 d   1      33.639   8.499  59.135  0.00  0.00    -0.092 C 
ATOM     12  O9  VJ6 d   1      31.190   5.573  56.965  0.00  0.00    -0.384 OA
ATOM     13  C10 VJ6 d   1      32.545   9.256  58.434  0.00  0.00    -0.013 C 
ATOM     14  C11 VJ6 d   1      31.185   8.734  58.844  0.00  0.00     0.071 C 
ATOM     15  C12 VJ6 d   1      31.079   7.234  58.676  0.00  0.00     0.084 C 
ATOM     16  C13 VJ6 d   1      31.031   6.927  57.208  0.00  0.00     0.046 C 
ATOM     17  C15 VJ6 d   1      31.124   5.140  55.642  0.00  0.00     0.043 C 
ATOM     18  C16 VJ6 d   1      32.421   5.395  54.952  0.00  0.00    -0.030 A 
ATOM     19  C17 VJ6 d   1      32.710   6.739  54.374  0.00  0.00    -0.043 A 
ATOM     20  C18 VJ6 d   1      33.904   6.953  53.764  0.00  0.00     0.070 A 
ATOM     21  C19 VJ6 d   1      34.908   5.868  53.643  0.00  0.00    -0.025 A 
ATOM     22  C20 VJ6 d   1      34.648   4.653  54.176  0.00  0.00     0.038 A 
ATOM     23  C21 VJ6 d   1      33.338   4.392  54.846  0.00  0.00    -0.049 A 
ATOM     24  H1  VJ6 d   1      36.054   3.568  53.114  0.00  0.00     0.169 HD
ATOM     25  H4  VJ6 d   1      36.086   4.704  56.823  0.00  0.00     0.077 H 
ATOM     26  H7  VJ6 d   1      35.976   3.363  59.304  0.00  0.00     0.038 H 
ATOM     27  H8  VJ6 d   1      34.275   3.181  58.757  0.00  0.00     0.038 H 
ATOM     28  H9  VJ6 d   1      34.502   5.175  60.145  0.00  0.00     0.037 H 
ATOM     29  H10 VJ6 d   1      34.136   5.638  58.448  0.00  0.00     0.037 H 
ATOM     30  H11 VJ6 d   1      36.538   6.003  58.058  0.00  0.00     0.088 H 
ATOM     31  H12 VJ6 d   1      35.462   7.487  60.479  0.00  0.00     0.095 H 
ATOM     32  H13 VJ6 d   1      33.495   8.264  60.189  0.00  0.00     0.078 H 
ATOM     33  H14 VJ6 d   1      32.662   9.146  57.346  0.00  0.00     0.049 H 
ATOM     34  H15 VJ6 d   1      31.021   8.982  59.903  0.00  0.00     0.088 H 
ATOM     35  H16 VJ6 d   1      31.963   6.760  59.128  0.00  0.00     0.090 H 
ATOM     36  H17 VJ6 d   1      30.059   7.250  56.807  0.00  0.00     0.078 H 
ATOM     37  H18 VJ6 d   1      31.837   7.478  56.702  0.00  0.00     0.078 H 
ATOM     38  H22 VJ6 d   1      30.322   5.684  55.121  0.00  0.00     0.081 H 
ATOM     39  H23 VJ6 d   1      30.908   4.062  55.623  0.00  0.00     0.081 H 
ATOM     40  H24 VJ6 d   1      31.977   7.535  54.440  0.00  0.00     0.088 H 
ATOM     41  H25 VJ6 d   1      35.846   6.048  53.130  0.00  0.00     0.091 H 
ATOM     42  H26 VJ6 d   1      33.118   3.409  55.246  0.00  0.00     0.087 H 
ENDROOT
BRANCH   8  43
ATOM     43  O2  VJ6 d   1      37.083   5.580  59.972  0.00  0.00    -0.296 OA
BRANCH  43  44
ATOM     44  C23 VJ6 d   1      38.431   5.534  59.684  0.00  0.00     0.358 C 
ATOM     45  N3  VJ6 d   1      39.340   6.036  60.673  0.00  0.00    -0.346 N 
ATOM     46  H5  VJ6 d   1      40.325   6.020  60.501  0.00  0.00     0.161 HD
ATOM     47  H6  VJ6 d   1      38.989   6.402  61.535  0.00  0.00     0.161 HD
ATOM     48  O7  VJ6 d   1      38.778   5.621  58.512  0.00  0.00    -0.239 OA
ENDBRANCH  43  44
ENDBRANCH   8  43
BRANCH   9  49
ATOM     49  O3  VJ6 d   1      37.007   8.168  59.350  0.00  0.00    -0.292 OA
BRANCH  49  50
ATOM     50  C24 VJ6 d   1      37.209   9.253  60.174  0.00  0.00     0.359 C 
ATOM     51  N2  VJ6 d   1      38.520   9.819  60.236  0.00  0.00    -0.346 N 
ATOM     52  H2  VJ6 d   1      38.697  10.607  60.825  0.00  0.00     0.161 HD
ATOM     53  H3  VJ6 d   1      39.260   9.427  59.690  0.00  0.00     0.161 HD
ATOM     54  O4  VJ6 d   1      36.317   9.677  60.895  0.00  0.00    -0.239 OA
ENDBRANCH  49  50
ENDBRANCH   9  49
BRANCH  10  55
ATOM     55  C25 VJ6 d   1      35.157   8.256  57.078  0.00  0.00    -0.052 C 
ATOM     56  H30 VJ6 d   1      34.306   8.724  56.561  0.00  0.00     0.033 H 
ATOM     57  H31 VJ6 d   1      35.366   7.275  56.626  0.00  0.00     0.033 H 
ATOM     58  H32 VJ6 d   1      36.044   8.900  56.982  0.00  0.00     0.033 H 
ENDBRANCH  10  55
BRANCH   4  59
ATOM     59  C22 VJ6 d   1      34.937   1.413  56.921  0.00  0.00    -0.046 C 
ATOM     60  H27 VJ6 d   1      34.936   0.652  56.126  0.00  0.00     0.033 H 
ATOM     61  H28 VJ6 d   1      33.904   1.605  57.247  0.00  0.00     0.033 H 
ATOM     62  H29 VJ6 d   1      35.529   1.051  57.774  0.00  0.00     0.033 H 
ENDBRANCH   4  59
BRANCH  13  63
ATOM     63  C26 VJ6 d   1      32.657  10.691  58.809  0.00  0.00    -0.067 C 
ATOM     64  H33 VJ6 d   1      33.645  11.072  58.511  0.00  0.00     0.028 H 
ATOM     65  H34 VJ6 d   1      32.536  10.796  59.897  0.00  0.00     0.028 H 
ATOM     66  H35 VJ6 d   1      31.873  11.267  58.296  0.00  0.00     0.028 H 
ENDBRANCH  13  63
BRANCH  14  67
ATOM     67  O5  VJ6 d   1      30.208   9.336  58.083  0.00  0.00    -0.387 OA
BRANCH  67  68
ATOM     68  C14 VJ6 d   1      29.003   9.739  58.662  0.00  0.00     0.005 C 
ATOM     69  H19 VJ6 d   1      28.361  10.194  57.894  0.00  0.00     0.066 H 
ATOM     70  H20 VJ6 d   1      29.205  10.475  59.454  0.00  0.00     0.066 H 
ATOM     71  H21 VJ6 d   1      28.494   8.865  59.094  0.00  0.00     0.066 H 
ENDBRANCH  67  68
ENDBRANCH  14  67
BRANCH  15  72
ATOM     72  O6  VJ6 d   1      29.953   6.719  59.254  0.00  0.00    -0.386 OA
BRANCH  72  73
ATOM     73  C27 VJ6 d   1      29.768   6.848  60.612  0.00  0.00     0.005 C 
ATOM     74  H36 VJ6 d   1      28.816   6.378  60.898  0.00  0.00     0.066 H 
ATOM     75  H37 VJ6 d   1      29.746   7.915  60.879  0.00  0.00     0.066 H 
ATOM     76  H38 VJ6 d   1      30.595   6.354  61.143  0.00  0.00     0.066 H 
ENDBRANCH  72  73
ENDBRANCH  15  72
BRANCH  20  77
ATOM     77  O8  VJ6 d   1      34.232   8.162  53.202  0.00  0.00    -0.356 OA
BRANCH  77  78
ATOM     78  C28 VJ6 d   1      34.901   8.033  51.995  0.00  0.00     0.010 C 
ATOM     79  H39 VJ6 d   1      35.135   9.031  51.597  0.00  0.00     0.066 H 
ATOM     80  H40 VJ6 d   1      34.264   7.493  51.279  0.00  0.00     0.066 H 
ATOM     81  H41 VJ6 d   1      35.834   7.473  52.151  0.00  0.00     0.066 H 
ENDBRANCH  77  78
ENDBRANCH  20  77
TORSDOF 13
