REMARK  9 active torsions:
REMARK  status: ('A' for Active; 'I' for Inactive)
REMARK    1  A    between atoms: C24_1  and  C23_2 
REMARK       I    between atoms: C23_2  and  N22_4 
REMARK    2  A    between atoms: N22_4  and  C20_5 
REMARK    3  A    between atoms: C16_10  and  C15_11 
REMARK    4  A    between atoms: C14_13  and  C26_14 
REMARK    5  A    between atoms: C6_25  and  N_26 
REMARK    6  A    between atoms: N_26  and  CA_27 
REMARK    7  A    between atoms: CA_27  and  C_28 
REMARK    8  A    between atoms: CA_27  and  C7_30 
REMARK    9  A    between atoms: C_28  and  O_29 
ROOT
ATOM      1  C15 KJR d   1      51.876  21.032   0.169  0.00  0.00     0.027 A 
ATOM      2  C1  KJR d   1      52.767  21.952  -0.292  0.00  0.00     0.077 A 
ATOM      3  C14 KJR d   1      52.260  19.817  -0.266  0.00  0.00     0.100 A 
ATOM      4  O13 KJR d   1      53.346  19.976  -0.981  0.00  0.00    -0.289 OA
ATOM      5  C2  KJR d   1      53.673  21.264  -1.011  0.00  0.00     0.186 A 
ATOM      6  N3  KJR d   1      54.708  21.869  -1.621  0.00  0.00    -0.217 NA
ATOM      7  C4  KJR d   1      54.870  23.249  -1.518  0.00  0.00     0.091 A 
ATOM      8  N5  KJR d   1      53.938  23.955  -0.779  0.00  0.00    -0.224 NA
ATOM      9  C6  KJR d   1      52.928  23.300  -0.179  0.00  0.00     0.141 A 
ATOM     10  H14 KJR d   1      55.699  23.753  -2.001  0.00  0.00     0.146 H 
ENDROOT
BRANCH   9  11
ATOM     11  N   KJR d   1      52.021  24.009   0.500  0.00  0.00    -0.363 N 
ATOM     12  H15 KJR d   1      51.093  23.587   0.648  0.00  0.00     0.162 HD
BRANCH  11  13
ATOM     13  CA  KJR d   1      52.261  25.361   1.054  0.00  0.00     0.057 C 
ATOM     14  H16 KJR d   1      53.228  25.377   1.579  0.00  0.00     0.083 H 
BRANCH  13  15
ATOM     15  C   KJR d   1      51.136  25.617   2.044  0.00  0.00     0.039 C 
ATOM     16  H17 KJR d   1      50.596  24.685   2.266  0.00  0.00     0.077 H 
ATOM     17  H18 KJR d   1      50.432  26.363   1.646  0.00  0.00     0.077 H 
BRANCH  15  18
ATOM     18  O   KJR d   1      51.785  26.112   3.212  0.00  0.00    -0.399 OA
ATOM     19  H19 KJR d   1      51.135  26.296   3.880  0.00  0.00     0.209 HD
ENDBRANCH  15  18
ENDBRANCH  13  15
BRANCH  13  20
ATOM     20  C7  KJR d   1      52.281  26.351   0.041  0.00  0.00    -0.034 A 
ATOM     21  C8  KJR d   1      51.783  26.121  -1.254  0.00  0.00    -0.075 A 
ATOM     22  C9  KJR d   1      51.833  27.118  -2.229  0.00  0.00    -0.082 A 
ATOM     23  H20 KJR d   1      51.354  25.156  -1.498  0.00  0.00     0.084 H 
ATOM     24  C10 KJR d   1      52.373  28.362  -1.920  0.00  0.00    -0.083 A 
ATOM     25  H21 KJR d   1      51.452  26.923  -3.225  0.00  0.00     0.083 H 
ATOM     26  C11 KJR d   1      52.868  28.600  -0.639  0.00  0.00    -0.082 A 
ATOM     27  H22 KJR d   1      52.409  29.142  -2.672  0.00  0.00     0.083 H 
ATOM     28  C12 KJR d   1      52.826  27.601   0.334  0.00  0.00    -0.075 A 
ATOM     29  H23 KJR d   1      53.289  29.569  -0.397  0.00  0.00     0.083 H 
ATOM     30  H24 KJR d   1      53.220  27.798   1.325  0.00  0.00     0.084 H 
ENDBRANCH  13  20
ENDBRANCH  11  13
ENDBRANCH   9  11
BRANCH   1  31
ATOM     31  C16 KJR d   1      50.808  21.299   0.952  0.00  0.00    -0.020 A 
ATOM     32  C21 KJR d   1      51.013  21.817   2.240  0.00  0.00    -0.046 A 
ATOM     33  C20 KJR d   1      49.953  22.110   3.104  0.00  0.00     0.035 A 
ATOM     34  H5  KJR d   1      52.028  21.996   2.577  0.00  0.00     0.088 H 
ATOM     35  C19 KJR d   1      48.645  21.885   2.652  0.00  0.00    -0.057 A 
ATOM     36  C18 KJR d   1      48.429  21.356   1.378  0.00  0.00    -0.080 A 
ATOM     37  H6  KJR d   1      47.802  22.122   3.291  0.00  0.00     0.086 H 
ATOM     38  C17 KJR d   1      49.499  21.066   0.528  0.00  0.00    -0.072 A 
ATOM     39  H7  KJR d   1      47.415  21.167   1.043  0.00  0.00     0.083 H 
ATOM     40  H8  KJR d   1      49.313  20.660  -0.460  0.00  0.00     0.084 H 
BRANCH  33  41
ATOM     41  N22 KJR d   1      50.252  22.642   4.310  0.00  0.00    -0.327 N 
ATOM     42  C23 KJR d   1      49.543  22.348   5.426  0.00  0.00     0.218 C 
ATOM     43  O25 KJR d   1      48.588  21.574   5.493  0.00  0.00    -0.274 OA
ATOM     44  H4  KJR d   1      51.023  23.274   4.381  0.00  0.00     0.169 HD
BRANCH  42  45
ATOM     45  C24 KJR d   1      50.026  23.073   6.686  0.00  0.00    -0.003 C 
ATOM     46  H1  KJR d   1      50.882  23.717   6.433  0.00  0.00     0.040 H 
ATOM     47  H2  KJR d   1      50.334  22.333   7.439  0.00  0.00     0.040 H 
ATOM     48  H3  KJR d   1      49.210  23.690   7.090  0.00  0.00     0.040 H 
ENDBRANCH  42  45
ENDBRANCH  33  41
ENDBRANCH   1  31
BRANCH   3  49
ATOM     49  C26 KJR d   1      51.717  18.595  -0.090  0.00  0.00    -0.001 A 
ATOM     50  C27 KJR d   1      50.934  18.236   1.018  0.00  0.00    -0.070 A 
ATOM     51  C28 KJR d   1      50.415  16.945   1.134  0.00  0.00    -0.082 A 
ATOM     52  H9  KJR d   1      50.730  18.968   1.791  0.00  0.00     0.084 H 
ATOM     53  C29 KJR d   1      50.675  15.990   0.157  0.00  0.00    -0.083 A 
ATOM     54  H10 KJR d   1      49.805  16.685   1.992  0.00  0.00     0.083 H 
ATOM     55  C30 KJR d   1      51.457  16.329  -0.942  0.00  0.00    -0.082 A 
ATOM     56  H11 KJR d   1      50.271  14.989   0.251  0.00  0.00     0.083 H 
ATOM     57  C31 KJR d   1      51.975  17.619  -1.063  0.00  0.00    -0.070 A 
ATOM     58  H12 KJR d   1      51.665  15.589  -1.707  0.00  0.00     0.083 H 
ATOM     59  H13 KJR d   1      52.586  17.870  -1.922  0.00  0.00     0.084 H 
ENDBRANCH   3  49
TORSDOF 9
