REMARK  6 active torsions:
REMARK  status: ('A' for Active; 'I' for Inactive)
REMARK    1  A    between atoms: C7_3  and  C3_12 
REMARK    2  A    between atoms: N8_14  and  C7_3 
REMARK    3  A    between atoms: S18_21  and  C15_5 
REMARK    4  A    between atoms: C9_15  and  N8_14 
REMARK    5  A    between atoms: C12_18  and  N11_17 
REMARK    6  A    between atoms: S18_21  and  N21_24 
ROOT
ATOM      1  C13 1LS d   1      14.659   8.386  -0.995  0.00  0.00    -0.056 A 
ATOM      2  C15 1LS d   1      14.042   6.154  -1.661  0.00  0.00     0.079 A 
ATOM      3  C17 1LS d   1      14.983   6.549   0.500  0.00  0.00    -0.056 A 
ATOM      4  C12 1LS d   1      15.081   7.911   0.233  0.00  0.00     0.034 A 
ATOM      5  C14 1LS d   1      14.142   7.503  -1.937  0.00  0.00    -0.058 A 
ATOM      6  C16 1LS d   1      14.470   5.677  -0.438  0.00  0.00    -0.058 A 
ATOM      7  H5  1LS d   1      14.731   9.443  -1.223  0.00  0.00     0.087 H 
ATOM      8  H6  1LS d   1      15.315   6.168   1.459  0.00  0.00     0.087 H 
ATOM      9  H17 1LS d   1      13.814   7.878  -2.899  0.00  0.00     0.086 H 
ATOM     10  H18 1LS d   1      14.403   4.618  -0.215  0.00  0.00     0.086 H 
ENDROOT
BRANCH   2  11
ATOM     11  S18 1LS d   1      13.391   5.025  -2.860  0.00  0.00     0.260 S 
ATOM     12  O19 1LS d   1      13.126   3.806  -2.176  0.00  0.00    -0.200 OA
ATOM     13  O20 1LS d   1      12.392   5.734  -3.564  0.00  0.00    -0.200 OA
BRANCH  11  14
ATOM     14  N21 1LS d   1      14.703   4.765  -3.829  0.00  0.00    -0.307 N 
ATOM     15  C22 1LS d   1      14.836   5.551  -5.067  0.00  0.00     0.005 C 
ATOM     16  C23 1LS d   1      15.578   4.778  -6.155  0.00  0.00    -0.049 C 
ATOM     17  H7  1LS d   1      15.392   6.474  -4.845  0.00  0.00     0.065 H 
ATOM     18  H8  1LS d   1      13.832   5.808  -5.435  0.00  0.00     0.065 H 
ATOM     19  C24 1LS d   1      16.877   4.233  -5.570  0.00  0.00    -0.062 C 
ATOM     20  H19 1LS d   1      15.804   5.449  -6.997  0.00  0.00     0.035 H 
ATOM     21  H20 1LS d   1      14.953   3.945  -6.508  0.00  0.00     0.035 H 
ATOM     22  C25 1LS d   1      16.517   3.160  -4.543  0.00  0.00    -0.049 C 
ATOM     23  H9  1LS d   1      17.436   5.045  -5.082  0.00  0.00     0.033 H 
ATOM     24  H10 1LS d   1      17.491   3.794  -6.370  0.00  0.00     0.033 H 
ATOM     25  C26 1LS d   1      15.722   3.789  -3.382  0.00  0.00     0.005 C 
ATOM     26  H21 1LS d   1      17.439   2.707  -4.150  0.00  0.00     0.035 H 
ATOM     27  H22 1LS d   1      15.905   2.384  -5.026  0.00  0.00     0.035 H 
ATOM     28  H11 1LS d   1      15.215   2.984  -2.830  0.00  0.00     0.065 H 
ATOM     29  H12 1LS d   1      16.428   4.303  -2.714  0.00  0.00     0.065 H 
ENDBRANCH  11  14
ENDBRANCH   2  11
BRANCH   4  30
ATOM     30  N11 1LS d   1      15.608   8.687   1.269  0.00  0.00    -0.333 N 
ATOM     31  C9  1LS d   1      14.913   9.628   1.934  0.00  0.00     0.172 C 
ATOM     32  S10 1LS d   1      13.316  10.056   1.472  0.00  0.00    -0.041 SA
ATOM     33  H16 1LS d   1      16.560   8.534   1.532  0.00  0.00     0.168 HD
BRANCH  31  34
ATOM     34  N8  1LS d   1      15.517  10.244   2.976  0.00  0.00    -0.363 N 
ATOM     35  H15 1LS d   1      16.463  10.015   3.204  0.00  0.00     0.162 HD
BRANCH  34  36
ATOM     36  C7  1LS d   1      14.802  11.243   3.775  0.00  0.00     0.020 C 
ATOM     37  H3  1LS d   1      15.253  12.233   3.611  0.00  0.00     0.071 H 
ATOM     38  H4  1LS d   1      13.745  11.266   3.470  0.00  0.00     0.071 H 
BRANCH  36  39
ATOM     39  C3  1LS d   1      14.894  10.884   5.257  0.00  0.00    -0.023 A 
ATOM     40  C4  1LS d   1      13.891  11.263   6.131  0.00  0.00     0.009 A 
ATOM     41  N5  1LS d   1      13.951  10.970   7.421  0.00  0.00    -0.273 NA
ATOM     42  H1  1LS d   1      13.037  11.812   5.752  0.00  0.00     0.115 H 
ATOM     43  C6  1LS d   1      14.970  10.299   7.943  0.00  0.00     0.002 A 
ATOM     44  C1  1LS d   1      16.014   9.876   7.136  0.00  0.00    -0.065 A 
ATOM     45  H2  1LS d   1      14.986  10.081   9.005  0.00  0.00     0.114 H 
ATOM     46  C2  1LS d   1      15.977  10.169   5.772  0.00  0.00    -0.072 A 
ATOM     47  H13 1LS d   1      16.847   9.326   7.558  0.00  0.00     0.085 H 
ATOM     48  H14 1LS d   1      16.780   9.845   5.120  0.00  0.00     0.084 H 
ENDBRANCH  36  39
ENDBRANCH  34  36
ENDBRANCH  31  34
ENDBRANCH   4  30
TORSDOF 6
