REMARK  14 active torsions:
REMARK  status: ('A' for Active; 'I' for Inactive)
REMARK    1  A    between atoms: C1_1  and  C10_2 
REMARK       I    between atoms: C10_2  and  N11_3 
REMARK    2  A    between atoms: N11_3  and  C12_4 
REMARK    3  A    between atoms: C12_4  and  C13_5 
REMARK    4  A    between atoms: C13_5  and  C14_6 
REMARK    5  A    between atoms: C14_6  and  O14_7 
REMARK    6  A    between atoms: C14_6  and  C15_8 
REMARK    7  A    between atoms: C15_8  and  O15_9 
REMARK    8  A    between atoms: C2_12  and  C21_13 
REMARK    9  A    between atoms: C3_20  and  C31_23 
REMARK   10  A    between atoms: C4_30  and  C41_31 
REMARK   11  A    between atoms: C41_31  and  C42_32 
REMARK   12  A    between atoms: C42_32  and  C45_33 
REMARK   13  A    between atoms: C42_32  and  C44_34 
REMARK   14  A    between atoms: C42_32  and  C43_35 
ROOT
ATOM      1  C1  I09 d   1      11.781  10.738  -1.043  0.00  0.00     0.187 C 
ATOM      2  N1  I09 d   1      10.350  10.632  -0.589  0.00  0.00    -0.055 N 
ATOM      3  C2  I09 d   1      12.467   9.466  -0.549  0.00  0.00     0.034 C 
ATOM      4  C3  I09 d   1      11.330   8.456  -0.438  0.00  0.00     0.114 C 
ATOM      5  C37 I09 d   1      10.965   7.977  -1.780  0.00  0.00     0.077 C 
ATOM      6  N37 I09 d   1      10.689   7.604  -2.820  0.00  0.00    -0.196 NA
ATOM      7  C4  I09 d   1      10.187   9.303   0.095  0.00  0.00     0.128 C 
ATOM      8  H1  I09 d   1      11.837  10.803  -2.140  0.00  0.00     0.100 H 
ATOM      9  H12 I09 d   1       9.732  10.688  -1.384  0.00  0.00     0.278 HD
ATOM     10  H13 I09 d   1      10.137  11.378   0.055  0.00  0.00     0.278 HD
ATOM     11  H14 I09 d   1      12.889   9.647   0.451  0.00  0.00     0.054 H 
ATOM     12  H23 I09 d   1      10.284   9.425   1.184  0.00  0.00     0.087 H 
ENDROOT
BRANCH   4  13
ATOM     13  C31 I09 d   1      11.662   7.293   0.469  0.00  0.00    -0.033 A 
ATOM     14  C32 I09 d   1      12.218   7.516   1.745  0.00  0.00    -0.073 A 
ATOM     15  C33 I09 d   1      12.538   6.429   2.561  0.00  0.00    -0.061 A 
ATOM     16  H19 I09 d   1      12.396   8.527   2.091  0.00  0.00     0.084 H 
ATOM     17  C34 I09 d   1      12.299   5.122   2.104  0.00  0.00     0.034 A 
ATOM     18  H20 I09 d   1      12.969   6.593   3.542  0.00  0.00     0.086 H 
ATOM     19  C35 I09 d   1      11.742   4.901   0.841  0.00  0.00    -0.061 A 
ATOM     20 CL3  I09 d   1      12.718   3.745   3.119  0.00  0.00    -0.084 Cl
ATOM     21  C36 I09 d   1      11.426   5.988   0.024  0.00  0.00    -0.073 A 
ATOM     22  H22 I09 d   1      11.556   3.890   0.497  0.00  0.00     0.086 H 
ATOM     23  H21 I09 d   1      10.997   5.820  -0.957  0.00  0.00     0.084 H 
ENDBRANCH   4  13
BRANCH   3  24
ATOM     24  C21 I09 d   1      13.595   9.007  -1.435  0.00  0.00    -0.048 A 
ATOM     25  C26 I09 d   1      13.601   9.292  -2.802  0.00  0.00    -0.076 A 
ATOM     26  C25 I09 d   1      14.641   8.817  -3.613  0.00  0.00    -0.081 A 
ATOM     27  H15 I09 d   1      12.801   9.881  -3.236  0.00  0.00     0.084 H 
ATOM     28  C24 I09 d   1      15.678   8.063  -3.063  0.00  0.00    -0.062 A 
ATOM     29  H16 I09 d   1      14.639   9.037  -4.675  0.00  0.00     0.083 H 
ATOM     30  C23 I09 d   1      15.669   7.801  -1.685  0.00  0.00     0.034 A 
ATOM     31  H18 I09 d   1      16.478   7.686  -3.690  0.00  0.00     0.086 H 
ATOM     32  C22 I09 d   1      14.630   8.269  -0.877  0.00  0.00    -0.055 A 
ATOM     33 CL2  I09 d   1      16.985   6.894  -0.955  0.00  0.00    -0.084 Cl
ATOM     34  H17 I09 d   1      14.632   8.056   0.186  0.00  0.00     0.086 H 
ENDBRANCH   3  24
BRANCH   7  35
ATOM     35  C41 I09 d   1       8.816   8.670  -0.208  0.00  0.00    -0.030 C 
ATOM     36  H24 I09 d   1       8.897   7.578  -0.104  0.00  0.00     0.037 H 
ATOM     37  H25 I09 d   1       8.528   8.920  -1.240  0.00  0.00     0.037 H 
BRANCH  35  38
ATOM     38  C42 I09 d   1       7.720   9.186   0.758  0.00  0.00    -0.049 C 
BRANCH  38  39
ATOM     39  C45 I09 d   1       7.803  10.724   0.897  0.00  0.00    -0.070 C 
ATOM     40  H26 I09 d   1       7.019  11.073   1.585  0.00  0.00     0.028 H 
ATOM     41  H27 I09 d   1       7.659  11.190  -0.089  0.00  0.00     0.028 H 
ATOM     42  H28 I09 d   1       8.790  11.004   1.294  0.00  0.00     0.028 H 
ENDBRANCH  38  39
BRANCH  38  43
ATOM     43  C44 I09 d   1       7.901   8.544   2.142  0.00  0.00    -0.070 C 
ATOM     44  H29 I09 d   1       7.843   7.449   2.049  0.00  0.00     0.028 H 
ATOM     45  H30 I09 d   1       7.107   8.897   2.817  0.00  0.00     0.028 H 
ATOM     46  H31 I09 d   1       8.883   8.825   2.551  0.00  0.00     0.028 H 
ENDBRANCH  38  43
BRANCH  38  47
ATOM     47  C43 I09 d   1       6.336   8.796   0.210  0.00  0.00    -0.070 C 
ATOM     48  H32 I09 d   1       6.193   9.250  -0.782  0.00  0.00     0.028 H 
ATOM     49  H33 I09 d   1       5.555   9.158   0.895  0.00  0.00     0.028 H 
ATOM     50  H34 I09 d   1       6.270   7.701   0.125  0.00  0.00     0.028 H 
ENDBRANCH  38  47
ENDBRANCH  35  38
ENDBRANCH   7  35
BRANCH   1  51
ATOM     51  C10 I09 d   1      12.414  11.957  -0.431  0.00  0.00     0.249 C 
ATOM     52  N11 I09 d   1      11.556  12.817   0.220  0.00  0.00    -0.359 N 
ATOM     53  H2  I09 d   1      10.578  12.609   0.234  0.00  0.00     0.162 HD
ATOM     54  O10 I09 d   1      13.634  12.192  -0.479  0.00  0.00    -0.271 OA
BRANCH  52  55
ATOM     55  C12 I09 d   1      12.033  14.023   0.890  0.00  0.00    -0.003 C 
ATOM     56  H3  I09 d   1      12.988  13.806   1.391  0.00  0.00     0.064 H 
ATOM     57  H4  I09 d   1      11.291  14.340   1.637  0.00  0.00     0.064 H 
BRANCH  55  58
ATOM     58  C13 I09 d   1      12.241  15.149  -0.123  0.00  0.00    -0.024 C 
ATOM     59  H5  I09 d   1      11.305  15.325  -0.674  0.00  0.00     0.039 H 
ATOM     60  H6  I09 d   1      13.035  14.866  -0.830  0.00  0.00     0.039 H 
BRANCH  58  61
ATOM     61  C14 I09 d   1      12.646  16.423   0.616  0.00  0.00     0.057 C 
ATOM     62  H7  I09 d   1      13.322  16.141   1.437  0.00  0.00     0.086 H 
BRANCH  61  63
ATOM     63  O14 I09 d   1      11.500  17.054   1.182  0.00  0.00    -0.393 OA
ATOM     64  H8  I09 d   1      10.889  17.278   0.490  0.00  0.00     0.210 HD
ENDBRANCH  61  63
BRANCH  61  65
ATOM     65  C15 I09 d   1      13.403  17.385  -0.310  0.00  0.00     0.041 C 
ATOM     66  H9  I09 d   1      14.277  16.867  -0.733  0.00  0.00     0.077 H 
ATOM     67  H10 I09 d   1      13.739  18.257   0.271  0.00  0.00     0.077 H 
BRANCH  65  68
ATOM     68  O15 I09 d   1      12.564  17.825  -1.369  0.00  0.00    -0.398 OA
ATOM     69  H11 I09 d   1      11.809  18.275  -1.008  0.00  0.00     0.209 HD
ENDBRANCH  65  68
ENDBRANCH  61  65
ENDBRANCH  58  61
ENDBRANCH  55  58
ENDBRANCH  52  55
ENDBRANCH   1  51
TORSDOF 14
