REMARK  14 active torsions:
REMARK  status: ('A' for Active; 'I' for Inactive)
REMARK    1  A    between atoms: C35_1  and  N34_2 
REMARK    2  A    between atoms: N34_2  and  C36_3 
REMARK    3  A    between atoms: N34_2  and  C33_4 
REMARK    4  A    between atoms: C33_4  and  C32_5 
REMARK    5  A    between atoms: C32_5  and  C31_6 
REMARK    6  A    between atoms: C31_6  and  C29_7 
REMARK       I    between atoms: C29_7  and  N28_9 
REMARK    7  A    between atoms: N28_9  and  C21_10 
REMARK    8  A    between atoms: C10_15  and  C7_16 
REMARK    9  A    between atoms: C8_18  and  C11_19 
REMARK   10  A    between atoms: C6_30  and  N_31 
REMARK   11  A    between atoms: N_31  and  CA_32 
REMARK   12  A    between atoms: CA_32  and  C_33 
REMARK   13  A    between atoms: CA_32  and  C12_35 
REMARK   14  A    between atoms: C_33  and  O_34 
ROOT
ATOM      1  C7  KJV d   1     -21.459 -52.277  -0.302  0.00  0.00     0.027 A 
ATOM      2  C1  KJV d   1     -22.430 -53.151   0.077  0.00  0.00     0.077 A 
ATOM      3  C8  KJV d   1     -20.298 -52.662   0.263  0.00  0.00     0.100 A 
ATOM      4  O9  KJV d   1     -20.538 -53.742   0.960  0.00  0.00    -0.289 OA
ATOM      5  C2  KJV d   1     -21.810 -54.055   0.865  0.00  0.00     0.186 A 
ATOM      6  N3  KJV d   1     -22.459 -55.091   1.426  0.00  0.00    -0.217 NA
ATOM      7  C4  KJV d   1     -23.819 -55.258   1.208  0.00  0.00     0.091 A 
ATOM      8  N5  KJV d   1     -24.456 -54.331   0.399  0.00  0.00    -0.224 NA
ATOM      9  C6  KJV d   1     -23.766 -53.312  -0.153  0.00  0.00     0.141 A 
ATOM     10  H24 KJV d   1     -24.363 -56.083   1.654  0.00  0.00     0.146 H 
ENDROOT
BRANCH   1  11
ATOM     11  C10 KJV d   1     -21.649 -51.207  -1.097  0.00  0.00    -0.020 A 
ATOM     12  C22 KJV d   1     -21.965 -51.377  -2.450  0.00  0.00    -0.046 A 
ATOM     13  C21 KJV d   1     -22.170 -50.289  -3.295  0.00  0.00     0.035 A 
ATOM     14  H15 KJV d   1     -22.052 -52.381  -2.850  0.00  0.00     0.088 H 
ATOM     15  C20 KJV d   1     -22.072 -48.995  -2.765  0.00  0.00    -0.057 A 
ATOM     16  C19 KJV d   1     -21.752 -48.816  -1.423  0.00  0.00    -0.080 A 
ATOM     17  H16 KJV d   1     -22.245 -48.134  -3.401  0.00  0.00     0.086 H 
ATOM     18  C18 KJV d   1     -21.545 -49.912  -0.588  0.00  0.00    -0.072 A 
ATOM     19  H17 KJV d   1     -21.663 -47.813  -1.022  0.00  0.00     0.083 H 
ATOM     20  H18 KJV d   1     -21.303 -49.759   0.458  0.00  0.00     0.084 H 
BRANCH  13  21
ATOM     21  N28 KJV d   1     -22.502 -50.528  -4.580  0.00  0.00    -0.327 N 
ATOM     22  C29 KJV d   1     -22.371 -49.579  -5.537  0.00  0.00     0.222 C 
ATOM     23  O30 KJV d   1     -21.928 -48.444  -5.358  0.00  0.00    -0.273 OA
ATOM     24  H14 KJV d   1     -22.854 -51.429  -4.833  0.00  0.00     0.169 HD
BRANCH  22  25
ATOM     25  C31 KJV d   1     -22.843 -50.014  -6.933  0.00  0.00     0.011 C 
ATOM     26  H12 KJV d   1     -22.568 -49.250  -7.675  0.00  0.00     0.047 H 
ATOM     27  H13 KJV d   1     -22.376 -50.973  -7.203  0.00  0.00     0.047 H 
BRANCH  25  28
ATOM     28  C32 KJV d   1     -24.363 -50.171  -6.889  0.00  0.00    -0.035 C 
ATOM     29  H10 KJV d   1     -24.609 -51.233  -6.745  0.00  0.00     0.036 H 
ATOM     30  H11 KJV d   1     -24.759 -49.585  -6.047  0.00  0.00     0.036 H 
BRANCH  28  31
ATOM     31  C33 KJV d   1     -25.012 -49.680  -8.188  0.00  0.00     0.083 C 
ATOM     32  H8  KJV d   1     -24.537 -48.735  -8.492  0.00  0.00     0.075 H 
ATOM     33  H9  KJV d   1     -24.860 -50.435  -8.973  0.00  0.00     0.075 H 
BRANCH  31  34
ATOM     34  N34 KJV d   1     -26.466 -49.455  -8.007  0.00  0.00    -0.079 N 
ATOM     35  H4  KJV d   1     -26.763 -49.903  -7.154  0.00  0.00     0.278 HD
BRANCH  34  36
ATOM     36  C35 KJV d   1     -26.736 -48.011  -7.921  0.00  0.00     0.066 C 
ATOM     37  H1  KJV d   1     -27.815 -47.847  -7.787  0.00  0.00     0.068 H 
ATOM     38  H2  KJV d   1     -26.403 -47.520  -8.847  0.00  0.00     0.068 H 
ATOM     39  H3  KJV d   1     -26.192 -47.587  -7.065  0.00  0.00     0.068 H 
ENDBRANCH  34  36
BRANCH  34  40
ATOM     40  C36 KJV d   1     -27.227 -50.013  -9.136  0.00  0.00     0.066 C 
ATOM     41  H5  KJV d   1     -27.033 -51.093  -9.211  0.00  0.00     0.068 H 
ATOM     42  H6  KJV d   1     -26.915 -49.519 -10.068  0.00  0.00     0.068 H 
ATOM     43  H7  KJV d   1     -28.302 -49.844  -8.973  0.00  0.00     0.068 H 
ENDBRANCH  34  40
ENDBRANCH  31  34
ENDBRANCH  28  31
ENDBRANCH  25  28
ENDBRANCH  22  25
ENDBRANCH  13  21
ENDBRANCH   1  11
BRANCH   3  44
ATOM     44  C11 KJV d   1     -19.050 -52.160   0.201  0.00  0.00    -0.001 A 
ATOM     45  C23 KJV d   1     -18.611 -51.279  -0.799  0.00  0.00    -0.070 A 
ATOM     46  C24 KJV d   1     -17.292 -50.819  -0.813  0.00  0.00    -0.082 A 
ATOM     47  H19 KJV d   1     -19.302 -50.952  -1.568  0.00  0.00     0.084 H 
ATOM     48  C25 KJV d   1     -16.388 -51.248   0.155  0.00  0.00    -0.083 A 
ATOM     49  H20 KJV d   1     -16.971 -50.125  -1.581  0.00  0.00     0.083 H 
ATOM     50  C26 KJV d   1     -16.806 -52.136   1.141  0.00  0.00    -0.082 A 
ATOM     51  H21 KJV d   1     -15.364 -50.892   0.141  0.00  0.00     0.083 H 
ATOM     52  C27 KJV d   1     -18.123 -52.591   1.158  0.00  0.00    -0.070 A 
ATOM     53  H22 KJV d   1     -16.107 -52.474   1.897  0.00  0.00     0.083 H 
ATOM     54  H23 KJV d   1     -18.435 -53.290   1.925  0.00  0.00     0.084 H 
ENDBRANCH   3  44
BRANCH   9  55
ATOM     55  N   KJV d   1     -24.451 -52.430  -0.908  0.00  0.00    -0.363 N 
ATOM     56  H25 KJV d   1     -23.972 -51.582  -1.243  0.00  0.00     0.162 HD
BRANCH  55  57
ATOM     57  CA  KJV d   1     -25.879 -52.643  -1.273  0.00  0.00     0.057 C 
ATOM     58  H26 KJV d   1     -25.952 -53.602  -1.807  0.00  0.00     0.083 H 
BRANCH  57  59
ATOM     59  C   KJV d   1     -26.368 -51.535  -2.185  0.00  0.00     0.039 C 
ATOM     60  H27 KJV d   1     -26.442 -50.583  -1.639  0.00  0.00     0.077 H 
ATOM     61  H28 KJV d   1     -27.348 -51.788  -2.616  0.00  0.00     0.077 H 
BRANCH  59  62
ATOM     62  O   KJV d   1     -25.367 -51.459  -3.206  0.00  0.00    -0.399 OA
ATOM     63  H29 KJV d   1     -25.311 -52.294  -3.655  0.00  0.00     0.209 HD
ENDBRANCH  59  62
ENDBRANCH  57  59
BRANCH  57  64
ATOM     64  C12 KJV d   1     -26.736 -52.693  -0.148  0.00  0.00    -0.034 A 
ATOM     65  C13 KJV d   1     -26.283 -52.499   1.164  0.00  0.00    -0.075 A 
ATOM     66  C14 KJV d   1     -27.171 -52.569   2.234  0.00  0.00    -0.082 A 
ATOM     67  H30 KJV d   1     -25.235 -52.293   1.347  0.00  0.00     0.084 H 
ATOM     68  C15 KJV d   1     -28.521 -52.822   2.012  0.00  0.00    -0.083 A 
ATOM     69  H31 KJV d   1     -26.809 -52.426   3.245  0.00  0.00     0.083 H 
ATOM     70  C16 KJV d   1     -28.979 -53.011   0.712  0.00  0.00    -0.082 A 
ATOM     71  H32 KJV d   1     -29.211 -52.871   2.846  0.00  0.00     0.083 H 
ATOM     72  C17 KJV d   1     -28.090 -52.947  -0.360  0.00  0.00    -0.075 A 
ATOM     73  H33 KJV d   1     -30.030 -53.209   0.532  0.00  0.00     0.083 H 
ATOM     74  H34 KJV d   1     -28.456 -53.096  -1.369  0.00  0.00     0.084 H 
ENDBRANCH  57  64
ENDBRANCH  55  57
ENDBRANCH   9  55
TORSDOF 14
