REMARK  14 active torsions:
REMARK  status: ('A' for Active; 'I' for Inactive)
REMARK    1  A    between atoms: C1_1  and  C10_2 
REMARK       I    between atoms: C10_2  and  N11_3 
REMARK    2  A    between atoms: N11_3  and  C12_4 
REMARK    3  A    between atoms: C12_4  and  C13_5 
REMARK    4  A    between atoms: C13_5  and  C14_6 
REMARK    5  A    between atoms: C14_6  and  O14_7 
REMARK    6  A    between atoms: C14_6  and  C15_8 
REMARK    7  A    between atoms: C15_8  and  O15_9 
REMARK    8  A    between atoms: C2_12  and  C21_13 
REMARK    9  A    between atoms: C3_21  and  C31_24 
REMARK   10  A    between atoms: C4_32  and  C41_33 
REMARK   11  A    between atoms: C41_33  and  C42_34 
REMARK   12  A    between atoms: C42_34  and  C45_35 
REMARK   13  A    between atoms: C42_34  and  C44_36 
REMARK   14  A    between atoms: C42_34  and  C43_37 
ROOT
ATOM      1  C1  1OY d   1     -11.511  20.868   0.839  0.00  0.00     0.187 C 
ATOM      2  N1  1OY d   1     -10.184  20.832   0.146  0.00  0.00    -0.055 N 
ATOM      3  C2  1OY d   1     -12.193  19.575   0.447  0.00  0.00     0.037 C 
ATOM      4  C3  1OY d   1     -11.033  18.600   0.347  0.00  0.00     0.117 C 
ATOM      5  C37 1OY d   1     -10.499  18.280   1.676  0.00  0.00     0.077 C 
ATOM      6  N37 1OY d   1     -10.066  18.031   2.707  0.00  0.00    -0.196 NA
ATOM      7  C4  1OY d   1      -9.999  19.432  -0.379  0.00  0.00     0.128 C 
ATOM      8  H1  1OY d   1     -11.370  20.902   1.929  0.00  0.00     0.100 H 
ATOM      9  H12 1OY d   1      -9.448  21.058   0.796  0.00  0.00     0.278 HD
ATOM     10  H13 1OY d   1     -10.173  21.492  -0.616  0.00  0.00     0.278 HD
ATOM     11  H14 1OY d   1     -12.661  19.690  -0.542  0.00  0.00     0.054 H 
ATOM     12  H21 1OY d   1     -10.185  19.407  -1.463  0.00  0.00     0.087 H 
ENDROOT
BRANCH   4  13
ATOM     13  C31 1OY d   1     -11.358  17.321  -0.370  0.00  0.00     0.006 A 
ATOM     14  C32 1OY d   1     -11.969  17.319  -1.607  0.00  0.00     0.126 A 
ATOM     15  F3  1OY d   1     -12.180  18.505  -2.230  0.00  0.00    -0.205 F 
ATOM     16  C33 1OY d   1     -12.366  16.171  -2.249  0.00  0.00    -0.024 A 
ATOM     17  C34 1OY d   1     -12.118  14.959  -1.627  0.00  0.00     0.036 A 
ATOM     18  H18 1OY d   1     -12.859  16.213  -3.214  0.00  0.00     0.090 H 
ATOM     19  C35 1OY d   1     -11.446  14.908  -0.398  0.00  0.00    -0.061 A 
ATOM     20 CL3  1OY d   1     -12.683  13.482  -2.379  0.00  0.00    -0.084 Cl
ATOM     21  C36 1OY d   1     -11.068  16.095   0.230  0.00  0.00    -0.070 A 
ATOM     22  H20 1OY d   1     -11.221  13.952   0.062  0.00  0.00     0.086 H 
ATOM     23  H19 1OY d   1     -10.550  16.065   1.182  0.00  0.00     0.084 H 
ENDBRANCH   4  13
BRANCH   3  24
ATOM     24  C21 1OY d   1     -13.261  19.157   1.400  0.00  0.00    -0.009 A 
ATOM     25  C26 1OY d   1     -13.145  19.374   2.771  0.00  0.00    -0.073 A 
ATOM     26  C25 1OY d   1     -14.161  18.914   3.630  0.00  0.00    -0.081 A 
ATOM     27  H15 1OY d   1     -12.281  19.892   3.172  0.00  0.00     0.084 H 
ATOM     28  C24 1OY d   1     -15.275  18.233   3.114  0.00  0.00    -0.059 A 
ATOM     29  H16 1OY d   1     -14.083  19.087   4.697  0.00  0.00     0.083 H 
ATOM     30  C23 1OY d   1     -15.371  18.035   1.736  0.00  0.00     0.073 A 
ATOM     31  H17 1OY d   1     -16.050  17.866   3.777  0.00  0.00     0.086 H 
ATOM     32  C22 1OY d   1     -14.387  18.534   0.926  0.00  0.00     0.144 A 
ATOM     33 CL2  1OY d   1     -16.715  17.148   1.021  0.00  0.00    -0.081 Cl
ATOM     34  F2  1OY d   1     -14.568  18.435  -0.395  0.00  0.00    -0.204 F 
ENDBRANCH   3  24
BRANCH   7  35
ATOM     35  C41 1OY d   1      -8.593  18.914  -0.107  0.00  0.00    -0.030 C 
ATOM     36  H22 1OY d   1      -8.629  17.823   0.030  0.00  0.00     0.037 H 
ATOM     37  H23 1OY d   1      -8.204  19.386   0.807  0.00  0.00     0.037 H 
BRANCH  35  38
ATOM     38  C42 1OY d   1      -7.664  19.244  -1.279  0.00  0.00    -0.049 C 
BRANCH  38  39
ATOM     39  C45 1OY d   1      -8.040  20.603  -1.877  0.00  0.00    -0.070 C 
ATOM     40  H24 1OY d   1      -7.368  20.832  -2.717  0.00  0.00     0.028 H 
ATOM     41  H25 1OY d   1      -7.942  21.382  -1.107  0.00  0.00     0.028 H 
ATOM     42  H26 1OY d   1      -9.079  20.571  -2.236  0.00  0.00     0.028 H 
ENDBRANCH  38  39
BRANCH  38  43
ATOM     43  C44 1OY d   1      -7.818  18.156  -2.348  0.00  0.00    -0.070 C 
ATOM     44  H27 1OY d   1      -7.548  17.180  -1.919  0.00  0.00     0.028 H 
ATOM     45  H28 1OY d   1      -7.155  18.379  -3.197  0.00  0.00     0.028 H 
ATOM     46  H29 1OY d   1      -8.861  18.128  -2.695  0.00  0.00     0.028 H 
ENDBRANCH  38  43
BRANCH  38  47
ATOM     47  C43 1OY d   1      -6.209  19.282  -0.784  0.00  0.00    -0.070 C 
ATOM     48  H30 1OY d   1      -6.103  20.064  -0.017  0.00  0.00     0.028 H 
ATOM     49  H31 1OY d   1      -5.540  19.503  -1.629  0.00  0.00     0.028 H 
ATOM     50  H32 1OY d   1      -5.943  18.306  -0.352  0.00  0.00     0.028 H 
ENDBRANCH  38  47
ENDBRANCH  35  38
ENDBRANCH   7  35
BRANCH   1  51
ATOM     51  C10 1OY d   1     -12.288  22.065   0.418  0.00  0.00     0.249 C 
ATOM     52  N11 1OY d   1     -11.620  22.945  -0.375  0.00  0.00    -0.359 N 
ATOM     53  H2  1OY d   1     -10.731  22.680  -0.748  0.00  0.00     0.162 HD
ATOM     54  O10 1OY d   1     -13.443  22.303   0.791  0.00  0.00    -0.271 OA
BRANCH  52  55
ATOM     55  C12 1OY d   1     -12.156  24.263  -0.700  0.00  0.00    -0.003 C 
ATOM     56  H3  1OY d   1     -12.927  24.543   0.033  0.00  0.00     0.064 H 
ATOM     57  H4  1OY d   1     -12.596  24.248  -1.708  0.00  0.00     0.064 H 
BRANCH  55  58
ATOM     58  C13 1OY d   1     -11.005  25.269  -0.651  0.00  0.00    -0.024 C 
ATOM     59  H5  1OY d   1     -10.151  24.869  -1.218  0.00  0.00     0.039 H 
ATOM     60  H6  1OY d   1     -10.708  25.427   0.396  0.00  0.00     0.039 H 
BRANCH  58  61
ATOM     61  C14 1OY d   1     -11.425  26.598  -1.256  0.00  0.00     0.057 C 
ATOM     62  H7  1OY d   1     -12.033  26.394  -2.150  0.00  0.00     0.086 H 
BRANCH  61  63
ATOM     63  O14 1OY d   1     -10.270  27.348  -1.663  0.00  0.00    -0.393 OA
ATOM     64  H8  1OY d   1      -9.718  27.511  -0.908  0.00  0.00     0.210 HD
ENDBRANCH  61  63
BRANCH  61  65
ATOM     65  C15 1OY d   1     -12.287  27.392  -0.264  0.00  0.00     0.041 C 
ATOM     66  H9  1OY d   1     -13.158  26.785   0.024  0.00  0.00     0.077 H 
ATOM     67  H10 1OY d   1     -12.629  28.320  -0.745  0.00  0.00     0.077 H 
BRANCH  65  68
ATOM     68  O15 1OY d   1     -11.535  27.719   0.906  0.00  0.00    -0.398 OA
ATOM     69  H11 1OY d   1     -10.783  28.245   0.661  0.00  0.00     0.209 HD
ENDBRANCH  65  68
ENDBRANCH  61  65
ENDBRANCH  58  61
ENDBRANCH  55  58
ENDBRANCH  52  55
ENDBRANCH   1  51
TORSDOF 14
