REMARK  9 active torsions:
REMARK  status: ('A' for Active; 'I' for Inactive)
REMARK    1  A    between atoms: CAA_1  and  CAJ_2 
REMARK    2  A    between atoms: CAJ_2  and  NAS_3 
REMARK       I    between atoms: NAS_3  and  CAX_4 
REMARK    3  A    between atoms: CAX_4  and  CAZ_6 
REMARK    4  A    between atoms: CBA_10  and  CAY_11 
REMARK       I    between atoms: CAY_11  and  NAT_13 
REMARK    5  A    between atoms: NAT_13  and  CAK_14 
REMARK    6  A    between atoms: CAK_14  and  CAL_15 
REMARK    7  A    between atoms: CAL_15  and  CBF_16 
REMARK    8  A    between atoms: NBG_21  and  C6_22 
REMARK    9  A    between atoms: CBB_30  and  CAW_31 
REMARK       I    between atoms: CAW_31  and  NAB_33 
ROOT
ATOM      1  CBF 1NQ d   1      23.796  44.475  -2.104  0.00  0.00    -0.050 C 
ATOM      2  CAN 1NQ d   1      22.821  43.469  -1.489  0.00  0.00    -0.047 C 
ATOM      3  CAP 1NQ d   1      22.478  43.849  -0.047  0.00  0.00    -0.003 C 
ATOM      4  CAM 1NQ d   1      25.084  44.509  -1.279  0.00  0.00    -0.047 C 
ATOM      5  CAO 1NQ d   1      24.799  44.915   0.169  0.00  0.00    -0.003 C 
ATOM      6  NBG 1NQ d   1      23.726  44.056   0.720  0.00  0.00    -0.365 N 
ATOM      7  H14 1NQ d   1      23.337  45.475  -2.107  0.00  0.00     0.040 H 
ATOM      8  H15 1NQ d   1      23.282  42.470  -1.498  0.00  0.00     0.035 H 
ATOM      9  H16 1NQ d   1      21.897  43.452  -2.086  0.00  0.00     0.035 H 
ATOM     10  H17 1NQ d   1      21.893  43.040   0.416  0.00  0.00     0.064 H 
ATOM     11  H18 1NQ d   1      21.887  44.777  -0.043  0.00  0.00     0.064 H 
ATOM     12  H19 1NQ d   1      25.778  45.236  -1.726  0.00  0.00     0.035 H 
ATOM     13  H20 1NQ d   1      25.543  43.510  -1.288  0.00  0.00     0.035 H 
ATOM     14  H21 1NQ d   1      24.478  45.967   0.199  0.00  0.00     0.064 H 
ATOM     15  H22 1NQ d   1      25.712  44.793   0.771  0.00  0.00     0.064 H 
ENDROOT
BRANCH   1  16
ATOM     16  CAL 1NQ d   1      24.120  44.060  -3.540  0.00  0.00    -0.047 C 
ATOM     17  H12 1NQ d   1      24.448  43.010  -3.546  0.00  0.00     0.035 H 
ATOM     18  H13 1NQ d   1      23.215  44.165  -4.157  0.00  0.00     0.035 H 
BRANCH  16  19
ATOM     19  CAK 1NQ d   1      25.230  44.934  -4.127  0.00  0.00    -0.004 C 
ATOM     20  H10 1NQ d   1      25.915  45.244  -3.324  0.00  0.00     0.064 H 
ATOM     21  H11 1NQ d   1      25.787  44.361  -4.883  0.00  0.00     0.064 H 
BRANCH  19  22
ATOM     22  NAT 1NQ d   1      24.638  46.125  -4.753  0.00  0.00    -0.356 N 
ATOM     23  CAY 1NQ d   1      24.443  47.253  -4.077  0.00  0.00     0.258 C 
ATOM     24  OAE 1NQ d   1      24.733  47.404  -2.891  0.00  0.00    -0.267 OA
ATOM     25  H9  1NQ d   1      24.374  46.086  -5.717  0.00  0.00     0.162 HD
BRANCH  23  26
ATOM     26  CBA 1NQ d   1      23.816  48.391  -4.885  0.00  0.00     0.073 A 
ATOM     27  SAU 1NQ d   1      23.290  49.857  -4.258  0.00  0.00    -0.079 SA
ATOM     28  CAZ 1NQ d   1      22.789  50.437  -5.751  0.00  0.00     0.073 A 
ATOM     29  CAG 1NQ d   1      23.032  49.508  -6.685  0.00  0.00    -0.059 A 
ATOM     30  CAH 1NQ d   1      23.599  48.378  -6.206  0.00  0.00    -0.059 A 
ATOM     31  H7  1NQ d   1      22.794  49.651  -7.738  0.00  0.00     0.085 H 
ATOM     32  H8  1NQ d   1      23.857  47.531  -6.840  0.00  0.00     0.085 H 
BRANCH  28  33
ATOM     33  CAX 1NQ d   1      22.156  51.807  -6.005  0.00  0.00     0.258 C 
ATOM     34  NAS 1NQ d   1      21.950  52.101  -7.286  0.00  0.00    -0.357 N 
ATOM     35  H6  1NQ d   1      22.211  51.435  -7.985  0.00  0.00     0.162 HD
ATOM     36  OAD 1NQ d   1      21.872  52.556  -5.072  0.00  0.00    -0.267 OA
BRANCH  34  37
ATOM     37  CAJ 1NQ d   1      21.350  53.376  -7.705  0.00  0.00    -0.008 C 
ATOM     38  H4  1NQ d   1      22.012  53.872  -8.430  0.00  0.00     0.063 H 
ATOM     39  H5  1NQ d   1      20.373  53.185  -8.173  0.00  0.00     0.063 H 
BRANCH  37  40
ATOM     40  CAA 1NQ d   1      21.163  54.279  -6.483  0.00  0.00    -0.061 C 
ATOM     41  H1  1NQ d   1      20.714  55.233  -6.797  0.00  0.00     0.029 H 
ATOM     42  H2  1NQ d   1      22.140  54.470  -6.015  0.00  0.00     0.029 H 
ATOM     43  H3  1NQ d   1      20.500  53.783  -5.758  0.00  0.00     0.029 H 
ENDBRANCH  37  40
ENDBRANCH  34  37
ENDBRANCH  28  33
ENDBRANCH  23  26
ENDBRANCH  19  22
ENDBRANCH  16  19
ENDBRANCH   1  16
BRANCH   6  44
ATOM     44  C6  1NQ d   1      23.894  43.440   1.965  0.00  0.00     0.146 A 
ATOM     45  N1  1NQ d   1      24.708  43.975   2.884  0.00  0.00    -0.223 NA
ATOM     46  C2  1NQ d   1      24.864  43.391   4.059  0.00  0.00     0.089 A 
ATOM     47  N3  1NQ d   1      24.234  42.271   4.374  0.00  0.00    -0.241 NA
ATOM     48  H23 1NQ d   1      25.528  43.843   4.787  0.00  0.00     0.146 H 
ATOM     49  C4  1NQ d   1      23.399  41.666   3.515  0.00  0.00     0.080 A 
ATOM     50  CAI 1NQ d   1      22.684  40.530   3.677  0.00  0.00    -0.032 A 
ATOM     51  C5  1NQ d   1      23.219  42.267   2.265  0.00  0.00     0.080 A 
ATOM     52  CBB 1NQ d   1      21.936  40.180   2.625  0.00  0.00     0.075 A 
ATOM     53  H24 1NQ d   1      22.715  39.944   4.595  0.00  0.00     0.089 H 
ATOM     54  SAV 1NQ d   1      22.138  41.309   1.405  0.00  0.00    -0.079 SA
BRANCH  52  55
ATOM     55  CAW 1NQ d   1      21.038  38.944   2.549  0.00  0.00     0.256 C 
ATOM     56  OAC 1NQ d   1      20.515  38.605   1.489  0.00  0.00    -0.267 OA
ATOM     57  NAB 1NQ d   1      20.880  38.292   3.698  0.00  0.00    -0.366 N 
ATOM     58  H25 1NQ d   1      20.308  37.473   3.733  0.00  0.00     0.159 HD
ATOM     59  H26 1NQ d   1      21.334  38.621   4.526  0.00  0.00     0.159 HD
ENDBRANCH  52  55
ENDBRANCH   6  44
TORSDOF 9
