REMARK  9 active torsions:
REMARK  status: ('A' for Active; 'I' for Inactive)
REMARK    1  A    between atoms: CAY_1  and  CAX_2 
REMARK    2  A    between atoms: CAX_2  and  CAZ_3 
REMARK    3  A    between atoms: CAX_2  and  CBA_4 
REMARK    4  A    between atoms: CAX_2  and  CAA_5 
REMARK       I    between atoms: CAA_5  and  NAB_7 
REMARK    5  A    between atoms: NAB_7  and  CAD_8 
REMARK    6  A    between atoms: CAD_8  and  CAE_9 
REMARK    7  A    between atoms: CAE_9  and  CAF_10 
REMARK    8  A    between atoms: NAI_15  and  C6_16 
REMARK    9  A    between atoms: CAS_24  and  CAU_25 
REMARK       I    between atoms: CAU_25  and  NAW_27 
ROOT
ATOM      1  CAF 1NR d   1      23.729  43.231 -12.455  0.00  0.00    -0.050 C 
ATOM      2  CAK 1NR d   1      22.636  42.299 -11.901  0.00  0.00    -0.047 C 
ATOM      3  CAJ 1NR d   1      22.208  42.715 -10.479  0.00  0.00    -0.003 C 
ATOM      4  CAG 1NR d   1      24.932  43.358 -11.474  0.00  0.00    -0.047 C 
ATOM      5  CAH 1NR d   1      24.453  43.781 -10.064  0.00  0.00    -0.003 C 
ATOM      6  NAI 1NR d   1      23.400  42.828  -9.589  0.00  0.00    -0.365 N 
ATOM      7  H15 1NR d   1      23.294  44.234 -12.579  0.00  0.00     0.040 H 
ATOM      8  H16 1NR d   1      23.024  41.270 -11.871  0.00  0.00     0.035 H 
ATOM      9  H17 1NR d   1      21.760  42.341 -12.565  0.00  0.00     0.035 H 
ATOM     10  H18 1NR d   1      21.522  41.958 -10.071  0.00  0.00     0.064 H 
ATOM     11  H19 1NR d   1      21.696  43.688 -10.524  0.00  0.00     0.064 H 
ATOM     12  H20 1NR d   1      25.632  44.114 -11.858  0.00  0.00     0.035 H 
ATOM     13  H21 1NR d   1      25.444  42.387 -11.404  0.00  0.00     0.035 H 
ATOM     14  H22 1NR d   1      24.035  44.797 -10.108  0.00  0.00     0.064 H 
ATOM     15  H23 1NR d   1      25.304  43.764  -9.367  0.00  0.00     0.064 H 
ENDROOT
BRANCH   1  16
ATOM     16  CAE 1NR d   1      24.174  42.719 -13.855  0.00  0.00    -0.047 C 
ATOM     17  H13 1NR d   1      24.750  41.791 -13.724  0.00  0.00     0.035 H 
ATOM     18  H14 1NR d   1      23.276  42.512 -14.456  0.00  0.00     0.035 H 
BRANCH  16  19
ATOM     19  CAD 1NR d   1      25.053  43.744 -14.615  0.00  0.00    -0.004 C 
ATOM     20  H11 1NR d   1      25.867  44.073 -13.952  0.00  0.00     0.064 H 
ATOM     21  H12 1NR d   1      25.479  43.256 -15.504  0.00  0.00     0.064 H 
BRANCH  19  22
ATOM     22  NAB 1NR d   1      24.282  44.927 -15.045  0.00  0.00    -0.360 N 
ATOM     23  CAA 1NR d   1      24.316  46.084 -14.364  0.00  0.00     0.225 C 
ATOM     24  OAC 1NR d   1      24.977  46.238 -13.340  0.00  0.00    -0.273 OA
ATOM     25  H10 1NR d   1      23.717  44.865 -15.868  0.00  0.00     0.162 HD
BRANCH  23  26
ATOM     26  CAX 1NR d   1      23.482  47.248 -14.929  0.00  0.00     0.030 C 
BRANCH  26  27
ATOM     27  CAY 1NR d   1      24.362  48.133 -15.775  0.00  0.00    -0.061 C 
ATOM     28  H1  1NR d   1      23.766  48.965 -16.179  0.00  0.00     0.029 H 
ATOM     29  H2  1NR d   1      24.782  47.546 -16.605  0.00  0.00     0.029 H 
ATOM     30  H3  1NR d   1      25.180  48.534 -15.158  0.00  0.00     0.029 H 
ENDBRANCH  26  27
BRANCH  26  31
ATOM     31  CAZ 1NR d   1      22.914  48.081 -13.781  0.00  0.00    -0.061 C 
ATOM     32  H4  1NR d   1      22.269  47.449 -13.153  0.00  0.00     0.029 H 
ATOM     33  H5  1NR d   1      22.324  48.915 -14.190  0.00  0.00     0.029 H 
ATOM     34  H6  1NR d   1      23.740  48.479 -13.173  0.00  0.00     0.029 H 
ENDBRANCH  26  31
BRANCH  26  35
ATOM     35  CBA 1NR d   1      22.337  46.753 -15.798  0.00  0.00    -0.061 C 
ATOM     36  H7  1NR d   1      22.739  46.152 -16.627  0.00  0.00     0.029 H 
ATOM     37  H8  1NR d   1      21.785  47.614 -16.203  0.00  0.00     0.029 H 
ATOM     38  H9  1NR d   1      21.658  46.135 -15.193  0.00  0.00     0.029 H 
ENDBRANCH  26  35
ENDBRANCH  23  26
ENDBRANCH  19  22
ENDBRANCH  16  19
ENDBRANCH   1  16
BRANCH   6  39
ATOM     39  C6  1NR d   1      23.559  42.140  -8.418  0.00  0.00     0.146 A 
ATOM     40  N1  1NR d   1      24.427  42.677  -7.533  0.00  0.00    -0.223 NA
ATOM     41  C2  1NR d   1      24.681  42.073  -6.311  0.00  0.00     0.089 A 
ATOM     42  N3  1NR d   1      24.003  40.888  -6.039  0.00  0.00    -0.241 NA
ATOM     43  H24 1NR d   1      25.376  42.504  -5.600  0.00  0.00     0.146 H 
ATOM     44  C4  1NR d   1      23.132  40.356  -6.922  0.00  0.00     0.080 A 
ATOM     45  CAR 1NR d   1      22.415  39.215  -6.763  0.00  0.00    -0.032 A 
ATOM     46  C5  1NR d   1      22.917  40.987  -8.106  0.00  0.00     0.080 A 
ATOM     47  CAS 1NR d   1      21.617  38.898  -7.788  0.00  0.00     0.075 A 
ATOM     48  H25 1NR d   1      22.485  38.602  -5.866  0.00  0.00     0.089 H 
ATOM     49  SAT 1NR d   1      21.790  40.024  -8.922  0.00  0.00    -0.079 SA
BRANCH  47  50
ATOM     50  CAU 1NR d   1      20.789  37.847  -7.885  0.00  0.00     0.256 C 
ATOM     51  OAV 1NR d   1      20.242  37.598  -8.955  0.00  0.00    -0.267 OA
ATOM     52  NAW 1NR d   1      20.520  37.167  -6.765  0.00  0.00    -0.366 N 
ATOM     53  H26 1NR d   1      19.907  36.377  -6.795  0.00  0.00     0.159 HD
ATOM     54  H27 1NR d   1      20.931  37.449  -5.898  0.00  0.00     0.159 HD
ENDBRANCH  47  50
ENDBRANCH   6  39
TORSDOF 9
