REMARK  7 active torsions:
REMARK  status: ('A' for Active; 'I' for Inactive)
REMARK    1  A    between atoms: C01_1  and  S02_2 
REMARK    2  A    between atoms: S02_2  and  N03_3 
REMARK    3  A    between atoms: N03_3  and  C04_4 
REMARK    4  A    between atoms: C04_4  and  C05_5 
REMARK    5  A    between atoms: C05_5  and  C06_6 
REMARK    6  A    between atoms: N09_9  and  C10_10 
REMARK    7  A    between atoms: C14_14  and  C15_15 
REMARK       I    between atoms: C15_15  and  N16_16 
ROOT
ATOM      1  C06 1NS d   1      24.493  44.919 -12.090  0.00  0.00    -0.050 C 
ATOM      2  C07 1NS d   1      23.358  44.137 -11.584  0.00  0.00    -0.047 C 
ATOM      3  C08 1NS d   1      22.910  44.752 -10.301  0.00  0.00    -0.003 C 
ATOM      4  N09 1NS d   1      24.042  44.862  -9.381  0.00  0.00    -0.365 N 
ATOM      5  C22 1NS d   1      25.187  45.625  -9.825  0.00  0.00    -0.003 C 
ATOM      6  C23 1NS d   1      25.641  45.086 -11.154  0.00  0.00    -0.047 C 
ATOM      7  H9  1NS d   1      24.117  45.933 -12.289  0.00  0.00     0.040 H 
ATOM      8  H10 1NS d   1      23.669  43.096 -11.410  0.00  0.00     0.035 H 
ATOM      9  H11 1NS d   1      22.536  44.157 -12.315  0.00  0.00     0.035 H 
ATOM     10  H12 1NS d   1      22.131  44.122  -9.847  0.00  0.00     0.064 H 
ATOM     11  H13 1NS d   1      22.502  45.754 -10.499  0.00  0.00     0.064 H 
ATOM     12  H18 1NS d   1      26.001  45.532  -9.091  0.00  0.00     0.064 H 
ATOM     13  H19 1NS d   1      24.908  46.684  -9.931  0.00  0.00     0.064 H 
ATOM     14  H20 1NS d   1      26.365  45.786 -11.596  0.00  0.00     0.035 H 
ATOM     15  H21 1NS d   1      26.122  44.109 -10.999  0.00  0.00     0.035 H 
ENDROOT
BRANCH   1  16
ATOM     16  C05 1NS d   1      24.910  44.319 -13.417  0.00  0.00    -0.046 C 
ATOM     17  H7  1NS d   1      25.998  44.155 -13.418  0.00  0.00     0.035 H 
ATOM     18  H8  1NS d   1      24.394  43.359 -13.562  0.00  0.00     0.035 H 
BRANCH  16  19
ATOM     19  C04 1NS d   1      24.538  45.274 -14.554  0.00  0.00     0.003 C 
ATOM     20  H5  1NS d   1      24.361  44.685 -15.466  0.00  0.00     0.065 H 
ATOM     21  H6  1NS d   1      23.617  45.809 -14.278  0.00  0.00     0.065 H 
BRANCH  19  22
ATOM     22  N03 1NS d   1      25.535  46.206 -14.812  0.00  0.00    -0.320 N 
ATOM     23  H4  1NS d   1      26.452  45.933 -15.102  0.00  0.00     0.172 HD
BRANCH  22  24
ATOM     24  S02 1NS d   1      25.112  47.813 -14.610  0.00  0.00     0.222 S 
ATOM     25  O24 1NS d   1      23.892  48.164 -15.143  0.00  0.00    -0.206 OA
ATOM     26  O25 1NS d   1      26.024  48.572 -15.577  0.00  0.00    -0.206 OA
BRANCH  24  27
ATOM     27  C01 1NS d   1      25.371  48.388 -12.983  0.00  0.00     0.032 C 
ATOM     28  H1  1NS d   1      25.075  49.445 -12.916  0.00  0.00     0.051 H 
ATOM     29  H2  1NS d   1      26.435  48.288 -12.724  0.00  0.00     0.051 H 
ATOM     30  H3  1NS d   1      24.766  47.793 -12.283  0.00  0.00     0.051 H 
ENDBRANCH  24  27
ENDBRANCH  22  24
ENDBRANCH  19  22
ENDBRANCH  16  19
ENDBRANCH   1  16
BRANCH   4  31
ATOM     31  C10 1NS d   1      24.344  44.204  -8.113  0.00  0.00     0.146 A 
ATOM     32  C11 1NS d   1      23.699  43.005  -7.760  0.00  0.00     0.080 A 
ATOM     33  C12 1NS d   1      24.009  42.413  -6.508  0.00  0.00     0.080 A 
ATOM     34  S18 1NS d   1      22.608  42.026  -8.559  0.00  0.00    -0.079 SA
ATOM     35  C13 1NS d   1      23.253  41.123  -6.243  0.00  0.00    -0.032 A 
ATOM     36  N19 1NS d   1      24.903  43.055  -5.687  0.00  0.00    -0.241 NA
ATOM     37  C14 1NS d   1      22.423  40.832  -7.371  0.00  0.00     0.075 A 
ATOM     38  H14 1NS d   1      23.330  40.518  -5.341  0.00  0.00     0.089 H 
ATOM     39  C20 1NS d   1      25.496  44.202  -6.029  0.00  0.00     0.089 A 
ATOM     40  N21 1NS d   1      25.209  44.790  -7.230  0.00  0.00    -0.223 NA
ATOM     41  H17 1NS d   1      26.205  44.667  -5.354  0.00  0.00     0.146 H 
BRANCH  37  42
ATOM     42  C15 1NS d   1      21.556  39.711  -7.509  0.00  0.00     0.256 C 
ATOM     43  N16 1NS d   1      21.203  38.947  -6.338  0.00  0.00    -0.366 N 
ATOM     44  H15 1NS d   1      20.595  38.157  -6.421  0.00  0.00     0.159 HD
ATOM     45  H16 1NS d   1      21.566  39.207  -5.443  0.00  0.00     0.159 HD
ATOM     46  O17 1NS d   1      21.090  39.432  -8.617  0.00  0.00    -0.267 OA
ENDBRANCH  37  42
ENDBRANCH   4  31
TORSDOF 7
