REMARK  8 active torsions:
REMARK  status: ('A' for Active; 'I' for Inactive)
REMARK    1  A    between atoms: C3_3  and  C28_28 
REMARK    2  A    between atoms: C6_6  and  S7_7 
REMARK    3  A    between atoms: S7_7  and  N10_10 
REMARK    4  A    between atoms: N10_10  and  C11_11 
REMARK    5  A    between atoms: C12_12  and  C17_17 
REMARK    6  A    between atoms: C14_14  and  O20_20 
REMARK    7  A    between atoms: O20_20  and  C21_21 
REMARK    8  A    between atoms: C24_24  and  C27_27 
ROOT
ATOM      1  C11 1O1 d   1     -23.740  48.842  56.808  0.00  0.00     0.059 A 
ATOM      2  C12 1O1 d   1     -22.850  47.990  56.040  0.00  0.00     0.070 A 
ATOM      3  C13 1O1 d   1     -21.910  48.593  55.142  0.00  0.00    -0.032 A 
ATOM      4  C14 1O1 d   1     -21.866  50.007  54.954  0.00  0.00     0.077 A 
ATOM      5  C15 1O1 d   1     -22.754  50.832  55.715  0.00  0.00    -0.048 A 
ATOM      6  C16 1O1 d   1     -23.684  50.253  56.613  0.00  0.00    -0.053 A 
ATOM      7  H6  1O1 d   1     -21.219  47.963  54.595  0.00  0.00     0.089 H 
ATOM      8  H7  1O1 d   1     -22.715  51.910  55.603  0.00  0.00     0.087 H 
ATOM      9  H8  1O1 d   1     -24.365  50.894  57.161  0.00  0.00     0.087 H 
ENDROOT
BRANCH   1  10
ATOM     10  N10 1O1 d   1     -24.717  48.286  57.740  0.00  0.00    -0.280 N 
ATOM     11  H5  1O1 d   1     -24.439  47.550  58.357  0.00  0.00     0.179 HD
BRANCH  10  12
ATOM     12  S7  1O1 d   1     -26.363  48.877  57.802  0.00  0.00     0.263 S 
ATOM     13  O8  1O1 d   1     -26.405  50.260  58.285  0.00  0.00    -0.200 OA
ATOM     14  O9  1O1 d   1     -27.173  47.884  58.495  0.00  0.00    -0.200 OA
BRANCH  12  15
ATOM     15  C6  1O1 d   1     -26.962  48.859  56.116  0.00  0.00     0.079 A 
ATOM     16  C1  1O1 d   1     -27.437  47.642  55.552  0.00  0.00    -0.060 A 
ATOM     17  C2  1O1 d   1     -27.910  47.640  54.214  0.00  0.00    -0.076 A 
ATOM     18  H1  1O1 d   1     -27.438  46.729  56.136  0.00  0.00     0.085 H 
ATOM     19  C3  1O1 d   1     -27.915  48.842  53.439  0.00  0.00    -0.062 A 
ATOM     20  H2  1O1 d   1     -28.271  46.717  53.775  0.00  0.00     0.084 H 
ATOM     21  C4  1O1 d   1     -27.439  50.053  54.013  0.00  0.00    -0.076 A 
ATOM     22  C5  1O1 d   1     -26.966  50.071  55.348  0.00  0.00    -0.060 A 
ATOM     23  H3  1O1 d   1     -27.438  50.965  53.427  0.00  0.00     0.084 H 
ATOM     24  H4  1O1 d   1     -26.609  50.995  55.787  0.00  0.00     0.085 H 
BRANCH  19  25
ATOM     25  C28 1O1 d   1     -28.417  48.825  52.031  0.00  0.00    -0.051 C 
ATOM     26  H13 1O1 d   1     -28.739  47.806  51.769  0.00  0.00     0.033 H 
ATOM     27  H14 1O1 d   1     -27.612  49.141  51.351  0.00  0.00     0.033 H 
ATOM     28  H15 1O1 d   1     -29.269  49.515  51.937  0.00  0.00     0.033 H 
ENDBRANCH  19  25
ENDBRANCH  12  15
ENDBRANCH  10  12
ENDBRANCH   1  10
BRANCH   2  29
ATOM     29  C17 1O1 d   1     -22.880  46.512  56.212  0.00  0.00     0.211 C 
ATOM     30  O18 1O1 d   1     -21.778  45.877  55.767  0.00  0.00    -0.644 OA
ATOM     31  O19 1O1 d   1     -23.809  45.888  56.705  0.00  0.00    -0.644 OA
ENDBRANCH   2  29
BRANCH   4  32
ATOM     32  O20 1O1 d   1     -20.906  50.394  54.029  0.00  0.00    -0.311 OA
BRANCH  32  33
ATOM     33  C21 1O1 d   1     -20.526  51.804  54.106  0.00  0.00     0.076 A 
ATOM     34  C22 1O1 d   1     -21.031  52.739  53.128  0.00  0.00    -0.049 A 
ATOM     35  C23 1O1 d   1     -20.652  54.131  53.200  0.00  0.00    -0.064 A 
ATOM     36  H9  1O1 d   1     -21.693  52.397  52.341  0.00  0.00     0.087 H 
ATOM     37  C24 1O1 d   1     -19.766  54.593  54.254  0.00  0.00     0.041 A 
ATOM     38  H10 1O1 d   1     -21.030  54.833  52.465  0.00  0.00     0.085 H 
ATOM     39  C25 1O1 d   1     -19.262  53.649  55.231  0.00  0.00    -0.064 A 
ATOM     40  C26 1O1 d   1     -19.635  52.266  55.160  0.00  0.00    -0.049 A 
ATOM     41  H11 1O1 d   1     -18.600  53.990  56.019  0.00  0.00     0.085 H 
ATOM     42  H12 1O1 d   1     -19.253  51.564  55.892  0.00  0.00     0.087 H 
BRANCH  37  43
ATOM     43  C27 1O1 d   1     -19.388  55.914  54.331  0.00  0.00     0.209 C 
ATOM     44  O29 1O1 d   1     -18.245  56.328  54.589  0.00  0.00    -0.644 OA
ATOM     45  O30 1O1 d   1     -20.410  56.749  54.083  0.00  0.00    -0.644 OA
ENDBRANCH  37  43
ENDBRANCH  32  33
ENDBRANCH   4  32
TORSDOF 8
