REMARK  6 active torsions:
REMARK  status: ('A' for Active; 'I' for Inactive)
REMARK    1  A    between atoms: C6_6  and  S7_7 
REMARK    2  A    between atoms: S7_7  and  N10_10 
REMARK    3  A    between atoms: N10_10  and  C11_11 
REMARK    4  A    between atoms: C12_12  and  C17_17 
REMARK    5  A    between atoms: C14_14  and  O20_20 
REMARK    6  A    between atoms: O20_20  and  C21_21 
ROOT
ATOM      1  C11 1O3 d   1     -23.687  50.006  57.624  0.00  0.00     0.059 A 
ATOM      2  C12 1O3 d   1     -22.956  49.171  56.686  0.00  0.00     0.070 A 
ATOM      3  C13 1O3 d   1     -21.853  49.721  55.958  0.00  0.00    -0.032 A 
ATOM      4  C14 1O3 d   1     -21.469  51.061  56.137  0.00  0.00     0.077 A 
ATOM      5  C15 1O3 d   1     -22.179  51.893  57.070  0.00  0.00    -0.048 A 
ATOM      6  C16 1O3 d   1     -23.280  51.365  57.800  0.00  0.00    -0.053 A 
ATOM      7  H5  1O3 d   1     -21.307  49.096  55.260  0.00  0.00     0.089 H 
ATOM      8  H6  1O3 d   1     -21.875  52.923  57.217  0.00  0.00     0.087 H 
ATOM      9  H7  1O3 d   1     -23.816  52.000  58.497  0.00  0.00     0.087 H 
ENDROOT
BRANCH   1  10
ATOM     10  N10 1O3 d   1     -24.822  49.522  58.394  0.00  0.00    -0.279 N 
ATOM     11  H4  1O3 d   1     -24.688  48.729  58.989  0.00  0.00     0.179 HD
BRANCH  10  12
ATOM     12  S7  1O3 d   1     -26.384  50.244  58.334  0.00  0.00     0.266 S 
ATOM     13  O8  1O3 d   1     -27.331  49.404  59.049  0.00  0.00    -0.200 OA
ATOM     14  O9  1O3 d   1     -26.304  51.644  58.764  0.00  0.00    -0.200 OA
BRANCH  12  15
ATOM     15  C6  1O3 d   1     -26.905  50.299  56.654  0.00  0.00     0.118 A 
ATOM     16  C1  1O3 d   1     -27.354  49.111  56.019  0.00  0.00     0.141 A 
ATOM     17  C2  1O3 d   1     -27.788  49.133  54.689  0.00  0.00    -0.027 A 
ATOM     18  F27 1O3 d   1     -27.386  47.929  56.647  0.00  0.00    -0.204 F 
ATOM     19  C3  1O3 d   1     -27.773  50.349  53.983  0.00  0.00     0.013 A 
ATOM     20  H1  1O3 d   1     -28.131  48.224  54.209  0.00  0.00     0.090 H 
ATOM     21  C4  1O3 d   1     -27.322  51.560  54.589  0.00  0.00    -0.065 A 
ATOM     22 BR1  1O3 d   1     -28.365  50.375  52.211  0.00  0.00    -0.051 Br
ATOM     23  C5  1O3 d   1     -26.889  51.536  55.931  0.00  0.00    -0.056 A 
ATOM     24  H2  1O3 d   1     -27.312  52.486  54.025  0.00  0.00     0.085 H 
ATOM     25  H3  1O3 d   1     -26.547  52.446  56.411  0.00  0.00     0.086 H 
ENDBRANCH  12  15
ENDBRANCH  10  12
ENDBRANCH   1  10
BRANCH   2  26
ATOM     26  C17 1O3 d   1     -23.308  47.765  56.457  0.00  0.00     0.211 C 
ATOM     27  O18 1O3 d   1     -24.390  47.255  56.723  0.00  0.00    -0.644 OA
ATOM     28  O19 1O3 d   1     -22.281  47.066  55.909  0.00  0.00    -0.644 OA
ENDBRANCH   2  26
BRANCH   4  29
ATOM     29  O20 1O3 d   1     -20.380  51.484  55.365  0.00  0.00    -0.311 OA
BRANCH  29  30
ATOM     30  C21 1O3 d   1     -20.495  52.587  54.520  0.00  0.00     0.076 A 
ATOM     31  C22 1O3 d   1     -21.641  52.853  53.704  0.00  0.00    -0.050 A 
ATOM     32  C23 1O3 d   1     -21.659  54.006  52.877  0.00  0.00    -0.080 A 
ATOM     33  H8  1O3 d   1     -22.489  52.178  53.718  0.00  0.00     0.087 H 
ATOM     34  C24 1O3 d   1     -20.544  54.892  52.859  0.00  0.00    -0.083 A 
ATOM     35  H9  1O3 d   1     -22.524  54.213  52.257  0.00  0.00     0.083 H 
ATOM     36  C25 1O3 d   1     -19.402  54.629  53.669  0.00  0.00    -0.080 A 
ATOM     37  H10 1O3 d   1     -20.564  55.771  52.225  0.00  0.00     0.083 H 
ATOM     38  C26 1O3 d   1     -19.380  53.476  54.499  0.00  0.00    -0.050 A 
ATOM     39  H11 1O3 d   1     -18.555  55.305  53.652  0.00  0.00     0.083 H 
ATOM     40  H12 1O3 d   1     -18.514  53.272  55.118  0.00  0.00     0.087 H 
ENDBRANCH  29  30
ENDBRANCH   4  29
TORSDOF 6
