REMARK  9 active torsions:
REMARK  status: ('A' for Active; 'I' for Inactive)
REMARK    1  A    between atoms: C3_3  and  C28_27 
REMARK    2  A    between atoms: C6_6  and  C7_7 
REMARK       I    between atoms: C7_7  and  N10_10 
REMARK    3  A    between atoms: N10_10  and  C9_9 
REMARK    4  A    between atoms: C9_9  and  C29_28 
REMARK    5  A    between atoms: C9_9  and  C30_29 
REMARK    6  A    between atoms: N10_10  and  C11_11 
REMARK    7  A    between atoms: C12_12  and  C17_17 
REMARK    8  A    between atoms: C14_14  and  O20_20 
REMARK    9  A    between atoms: O20_20  and  C21_21 
ROOT
ATOM      1  C7  1O6 d   1     -25.945  49.603  57.581  0.00  0.00     0.229 C 
ATOM      2  O8  1O6 d   1     -26.899  49.270  58.318  0.00  0.00    -0.273 OA
ATOM      3  N10 1O6 d   1     -24.597  49.689  58.085  0.00  0.00    -0.313 N 
ENDROOT
BRANCH   3   4
ATOM      4  C9  1O6 d   1     -24.389  49.349  59.560  0.00  0.00     0.013 C 
ATOM      5  H11 1O6 d   1     -25.380  49.049  59.932  0.00  0.00     0.072 H 
BRANCH   4   6
ATOM      6  C29 1O6 d   1     -23.441  48.185  59.885  0.00  0.00    -0.057 C 
ATOM      7  H23 1O6 d   1     -23.385  48.051  60.975  0.00  0.00     0.030 H 
ATOM      8  H24 1O6 d   1     -22.439  48.407  59.491  0.00  0.00     0.030 H 
ATOM      9  H25 1O6 d   1     -23.821  47.262  59.422  0.00  0.00     0.030 H 
ENDBRANCH   4   6
BRANCH   4  10
ATOM     10  C30 1O6 d   1     -23.942  50.585  60.393  0.00  0.00    -0.057 C 
ATOM     11  H26 1O6 d   1     -23.806  50.289  61.444  0.00  0.00     0.030 H 
ATOM     12  H27 1O6 d   1     -24.712  51.368  60.329  0.00  0.00     0.030 H 
ATOM     13  H28 1O6 d   1     -22.992  50.971  59.995  0.00  0.00     0.030 H 
ENDBRANCH   4  10
ENDBRANCH   3   4
BRANCH   3  14
ATOM     14  C11 1O6 d   1     -23.447  50.074  57.270  0.00  0.00     0.054 A 
ATOM     15  C12 1O6 d   1     -22.706  49.150  56.434  0.00  0.00     0.070 A 
ATOM     16  C13 1O6 d   1     -21.596  49.621  55.680  0.00  0.00    -0.032 A 
ATOM     17  C14 1O6 d   1     -21.204  50.975  55.732  0.00  0.00     0.077 A 
ATOM     18  H12 1O6 d   1     -21.043  48.929  55.056  0.00  0.00     0.089 H 
ATOM     19  C15 1O6 d   1     -21.926  51.897  56.549  0.00  0.00    -0.048 A 
ATOM     20  C16 1O6 d   1     -23.039  51.444  57.308  0.00  0.00    -0.053 A 
ATOM     21  H13 1O6 d   1     -21.627  52.938  56.590  0.00  0.00     0.087 H 
ATOM     22  H14 1O6 d   1     -23.587  52.147  57.925  0.00  0.00     0.087 H 
BRANCH  15  23
ATOM     23  C17 1O6 d   1     -23.060  47.738  56.326  0.00  0.00     0.211 C 
ATOM     24  O18 1O6 d   1     -21.983  46.928  56.307  0.00  0.00    -0.644 OA
ATOM     25  O19 1O6 d   1     -24.186  47.285  56.241  0.00  0.00    -0.644 OA
ENDBRANCH  15  23
BRANCH  17  26
ATOM     26  O20 1O6 d   1     -20.101  51.293  54.953  0.00  0.00    -0.311 OA
BRANCH  26  27
ATOM     27  C21 1O6 d   1     -19.960  52.532  54.357  0.00  0.00     0.076 A 
ATOM     28  C22 1O6 d   1     -18.901  53.399  54.755  0.00  0.00    -0.050 A 
ATOM     29  C23 1O6 d   1     -18.754  54.663  54.136  0.00  0.00    -0.080 A 
ATOM     30  H15 1O6 d   1     -18.209  53.091  55.531  0.00  0.00     0.087 H 
ATOM     31  C24 1O6 d   1     -19.662  55.068  53.121  0.00  0.00    -0.083 A 
ATOM     32  H16 1O6 d   1     -17.948  55.323  54.436  0.00  0.00     0.083 H 
ATOM     33  C25 1O6 d   1     -20.723  54.205  52.719  0.00  0.00    -0.080 A 
ATOM     34  H17 1O6 d   1     -19.547  56.038  52.650  0.00  0.00     0.083 H 
ATOM     35  C26 1O6 d   1     -20.883  52.926  53.332  0.00  0.00    -0.050 A 
ATOM     36  H18 1O6 d   1     -21.412  54.522  51.944  0.00  0.00     0.083 H 
ATOM     37  H19 1O6 d   1     -21.687  52.265  53.029  0.00  0.00     0.087 H 
ENDBRANCH  26  27
ENDBRANCH  17  26
ENDBRANCH   3  14
BRANCH   1  38
ATOM     38  C6  1O6 d   1     -26.226  49.922  56.085  0.00  0.00     0.024 C 
ATOM     39  C1  1O6 d   1     -27.234  48.888  55.504  0.00  0.00    -0.053 C 
ATOM     40  C2  1O6 d   1     -27.588  49.204  54.054  0.00  0.00    -0.061 C 
ATOM     41  H1  1O6 d   1     -26.784  47.885  55.551  0.00  0.00     0.034 H 
ATOM     42  H2  1O6 d   1     -28.153  48.907  56.108  0.00  0.00     0.034 H 
ATOM     43  C3  1O6 d   1     -28.134  50.636  53.895  0.00  0.00    -0.058 C 
ATOM     44  H3  1O6 d   1     -28.353  48.492  53.711  0.00  0.00     0.033 H 
ATOM     45  H4  1O6 d   1     -26.684  49.097  53.436  0.00  0.00     0.033 H 
ATOM     46  C4  1O6 d   1     -27.142  51.686  54.469  0.00  0.00    -0.061 C 
ATOM     47  H5  1O6 d   1     -29.081  50.712  54.450  0.00  0.00     0.039 H 
ATOM     48  C5  1O6 d   1     -26.738  51.369  55.929  0.00  0.00    -0.053 C 
ATOM     49  H6  1O6 d   1     -27.619  52.677  54.440  0.00  0.00     0.033 H 
ATOM     50  H7  1O6 d   1     -26.236  51.697  53.845  0.00  0.00     0.033 H 
ATOM     51  H8  1O6 d   1     -27.615  51.507  56.578  0.00  0.00     0.034 H 
ATOM     52  H9  1O6 d   1     -25.941  52.063  56.236  0.00  0.00     0.034 H 
ATOM     53  H10 1O6 d   1     -25.282  49.832  55.527  0.00  0.00     0.054 H 
BRANCH  43  54
ATOM     54  C28 1O6 d   1     -28.406  50.921  52.420  0.00  0.00    -0.073 C 
ATOM     55  H20 1O6 d   1     -29.108  50.172  52.025  0.00  0.00     0.028 H 
ATOM     56  H21 1O6 d   1     -27.462  50.871  51.857  0.00  0.00     0.028 H 
ATOM     57  H22 1O6 d   1     -28.843  51.925  52.315  0.00  0.00     0.028 H 
ENDBRANCH  43  54
ENDBRANCH   1  38
TORSDOF 9
