REMARK  3 active torsions:
REMARK  status: ('A' for Active; 'I' for Inactive)
REMARK    1  A    between atoms: CAQ_6  and  CAP_7 
REMARK    2  A    between atoms: CAP_7  and  NAE_8 
REMARK    3  A    between atoms: CAA_16  and  CAJ_17 
ROOT
ATOM      1  NAE 18F d   1      19.211 -18.102  12.690  0.00  0.00    -0.325 N 
ATOM      2  CAD 18F d   1      20.296 -18.622  12.067  0.00  0.00     0.065 A 
ATOM      3  CAI 18F d   1      21.446 -19.274  12.548  0.00  0.00    -0.055 A 
ATOM      4  CAH 18F d   1      22.444 -19.682  11.626  0.00  0.00    -0.081 A 
ATOM      5  CAG 18F d   1      22.236 -19.421  10.249  0.00  0.00    -0.081 A 
ATOM      6  CAF 18F d   1      21.084 -18.753   9.787  0.00  0.00    -0.053 A 
ATOM      7  CAC 18F d   1      20.104 -18.370  10.710  0.00  0.00     0.086 A 
ATOM      8  NAB 18F d   1      18.904 -17.677  10.553  0.00  0.00    -0.228 NA
ATOM      9  CAA 18F d   1      18.374 -17.519  11.770  0.00  0.00     0.141 A 
ATOM     10  H8  18F d   1      21.568 -19.462  13.609  0.00  0.00     0.087 H 
ATOM     11  H9  18F d   1      23.344 -20.181  11.967  0.00  0.00     0.083 H 
ATOM     12  H10 18F d   1      22.982 -19.744   9.532  0.00  0.00     0.083 H 
ATOM     13  H11 18F d   1      20.959 -18.539   8.732  0.00  0.00     0.087 H 
ENDROOT
BRANCH   1  14
ATOM     14  CAP 18F d   1      19.033 -18.133  14.175  0.00  0.00     0.025 C 
ATOM     15  H6  18F d   1      17.957 -18.173  14.401  0.00  0.00     0.072 H 
ATOM     16  H7  18F d   1      19.525 -19.034  14.571  0.00  0.00     0.072 H 
BRANCH  14  17
ATOM     17  CAQ 18F d   1      19.646 -16.878  14.875  0.00  0.00    -0.040 A 
ATOM     18  CAR 18F d   1      19.493 -16.744  16.251  0.00  0.00    -0.075 A 
ATOM     19  CAS 18F d   1      20.037 -15.606  16.868  0.00  0.00    -0.082 A 
ATOM     20  H1  18F d   1      18.969 -17.496  16.830  0.00  0.00     0.084 H 
ATOM     21  CAT 18F d   1      20.725 -14.617  16.179  0.00  0.00    -0.083 A 
ATOM     22  H2  18F d   1      19.913 -15.494  17.939  0.00  0.00     0.083 H 
ATOM     23  CAU 18F d   1      20.919 -14.767  14.799  0.00  0.00    -0.082 A 
ATOM     24  H3  18F d   1      21.105 -13.745  16.698  0.00  0.00     0.083 H 
ATOM     25  CAV 18F d   1      20.367 -15.899  14.173  0.00  0.00    -0.075 A 
ATOM     26  H4  18F d   1      21.478 -14.032  14.231  0.00  0.00     0.083 H 
ATOM     27  H5  18F d   1      20.504 -16.021  13.105  0.00  0.00     0.084 H 
ENDBRANCH  14  17
ENDBRANCH   1  14
BRANCH   9  28
ATOM     28  CAJ 18F d   1      17.102 -16.992  12.036  0.00  0.00     0.010 A 
ATOM     29  CAK 18F d   1      16.034 -17.597  11.361  0.00  0.00    -0.069 A 
ATOM     30  CAL 18F d   1      14.704 -17.178  11.588  0.00  0.00    -0.082 A 
ATOM     31  H12 18F d   1      16.230 -18.396  10.656  0.00  0.00     0.085 H 
ATOM     32  CAM 18F d   1      14.516 -16.194  12.563  0.00  0.00    -0.083 A 
ATOM     33  H13 18F d   1      13.872 -17.598  11.034  0.00  0.00     0.083 H 
ATOM     34  CAN 18F d   1      15.567 -15.597  13.233  0.00  0.00    -0.082 A 
ATOM     35  H14 18F d   1      13.505 -15.887  12.803  0.00  0.00     0.083 H 
ATOM     36  CAO 18F d   1      16.882 -16.000  12.986  0.00  0.00    -0.069 A 
ATOM     37  H15 18F d   1      15.370 -14.812  13.954  0.00  0.00     0.083 H 
ATOM     38  H16 18F d   1      17.710 -15.551  13.522  0.00  0.00     0.085 H 
ENDBRANCH   9  28
TORSDOF 3
