REMARK  5 active torsions:
REMARK  status: ('A' for Active; 'I' for Inactive)
REMARK    1  A    between atoms: C6_7  and  C7_8 
REMARK    2  A    between atoms: N1_9  and  C8_10 
REMARK    3  A    between atoms: C10_13  and  C11_14 
REMARK    4  A    between atoms: C11_14  and  C12_15 
REMARK    5  A    between atoms: C18_22  and  C19_23 
ROOT
ATOM      1  C7  1MN d   1       3.989 -33.078  -1.355  0.00  0.00     0.069 C 
ATOM      2  N1  1MN d   1       3.677 -31.827  -1.915  0.00  0.00    -0.343 N 
ATOM      3  C9  1MN d   1       4.278 -31.468  -3.073  0.00  0.00     0.249 C 
ATOM      4  O1  1MN d   1       4.083 -30.354  -3.544  0.00  0.00    -0.270 OA
ATOM      5  C10 1MN d   1       5.274 -32.455  -3.840  0.00  0.00     0.120 C 
ATOM      6  O2  1MN d   1       5.507 -33.621  -3.061  0.00  0.00    -0.364 OA
ATOM      7  C18 1MN d   1       4.368 -34.126  -2.383  0.00  0.00     0.088 C 
ATOM      8  H5  1MN d   1       3.046 -33.453  -0.930  0.00  0.00     0.085 H 
ATOM      9  H9  1MN d   1       6.241 -31.945  -3.957  0.00  0.00     0.099 H 
ATOM     10  H17 1MN d   1       3.530 -34.313  -3.070  0.00  0.00     0.094 H 
ENDROOT
BRANCH   5  11
ATOM     11  C11 1MN d   1       4.717 -32.733  -5.273  0.00  0.00    -0.009 C 
ATOM     12  H10 1MN d   1       4.402 -31.773  -5.708  0.00  0.00     0.044 H 
ATOM     13  H11 1MN d   1       3.844 -33.395  -5.176  0.00  0.00     0.044 H 
BRANCH  11  14
ATOM     14  C12 1MN d   1       5.698 -33.386  -6.235  0.00  0.00    -0.055 A 
ATOM     15  C13 1MN d   1       5.893 -34.789  -6.384  0.00  0.00    -0.077 A 
ATOM     16  C14 1MN d   1       6.831 -35.274  -7.328  0.00  0.00    -0.082 A 
ATOM     17  H12 1MN d   1       5.325 -35.484  -5.776  0.00  0.00     0.084 H 
ATOM     18  C15 1MN d   1       7.568 -34.380  -8.116  0.00  0.00    -0.083 A 
ATOM     19  H13 1MN d   1       6.979 -36.342  -7.441  0.00  0.00     0.083 H 
ATOM     20  C16 1MN d   1       7.375 -33.006  -7.967  0.00  0.00    -0.082 A 
ATOM     21  H14 1MN d   1       8.285 -34.754  -8.838  0.00  0.00     0.083 H 
ATOM     22  C17 1MN d   1       6.458 -32.518  -7.044  0.00  0.00    -0.077 A 
ATOM     23  H15 1MN d   1       7.945 -32.314  -8.576  0.00  0.00     0.083 H 
ATOM     24  H16 1MN d   1       6.324 -31.447  -6.944  0.00  0.00     0.084 H 
ENDBRANCH  11  14
ENDBRANCH   5  11
BRANCH   2  25
ATOM     25  C8  1MN d   1       2.746 -30.959  -1.185  0.00  0.00    -0.015 C 
ATOM     26  H6  1MN d   1       2.602 -30.023  -1.744  0.00  0.00     0.056 H 
ATOM     27  H7  1MN d   1       3.159 -30.732  -0.191  0.00  0.00     0.056 H 
ATOM     28  H8  1MN d   1       1.779 -31.471  -1.072  0.00  0.00     0.056 H 
ENDBRANCH   2  25
BRANCH   7  29
ATOM     29  C19 1MN d   1       4.831 -35.415  -1.741  0.00  0.00    -0.027 A 
ATOM     30  C20 1MN d   1       3.894 -36.332  -1.231  0.00  0.00    -0.073 A 
ATOM     31  C21 1MN d   1       4.363 -37.529  -0.636  0.00  0.00    -0.066 A 
ATOM     32  H18 1MN d   1       2.832 -36.126  -1.292  0.00  0.00     0.084 H 
ATOM     33  C22 1MN d   1       5.730 -37.760  -0.563  0.00  0.00     0.011 A 
ATOM     34  H19 1MN d   1       3.662 -38.256  -0.242  0.00  0.00     0.085 H 
ATOM     35 BR2  1MN d   1       6.283 -39.241   0.389  0.00  0.00    -0.051 Br
ATOM     36  C23 1MN d   1       6.685 -36.878  -1.070  0.00  0.00    -0.066 A 
ATOM     37  C24 1MN d   1       6.215 -35.708  -1.654  0.00  0.00    -0.073 A 
ATOM     38  H20 1MN d   1       7.745 -37.096  -1.011  0.00  0.00     0.085 H 
ATOM     39  H21 1MN d   1       6.929 -34.998  -2.055  0.00  0.00     0.084 H 
ENDBRANCH   7  29
BRANCH   1  40
ATOM     40  C6  1MN d   1       4.912 -32.890  -0.143  0.00  0.00    -0.032 A 
ATOM     41  C3  1MN d   1       4.685 -33.547   1.086  0.00  0.00    -0.073 A 
ATOM     42  C2  1MN d   1       5.501 -33.447   2.179  0.00  0.00    -0.066 A 
ATOM     43  H1  1MN d   1       3.804 -34.173   1.169  0.00  0.00     0.084 H 
ATOM     44  C1  1MN d   1       6.619 -32.640   2.039  0.00  0.00     0.011 A 
ATOM     45  H2  1MN d   1       5.285 -33.970   3.104  0.00  0.00     0.085 H 
ATOM     46 BR1  1MN d   1       7.908 -32.581   3.397  0.00  0.00    -0.051 Br
ATOM     47  C4  1MN d   1       6.890 -31.942   0.861  0.00  0.00    -0.066 A 
ATOM     48  C5  1MN d   1       6.040 -32.056  -0.258  0.00  0.00    -0.073 A 
ATOM     49  H3  1MN d   1       7.765 -31.304   0.806  0.00  0.00     0.085 H 
ATOM     50  H4  1MN d   1       6.248 -31.519  -1.176  0.00  0.00     0.084 H 
ENDBRANCH   1  40
TORSDOF 5
