REMARK  1 active torsions:
REMARK  status: ('A' for Active; 'I' for Inactive)
REMARK    1  A    between atoms: CAR_6  and  CAQ_7 
ROOT
ATOM      1  CAQ 1M1 d   1      25.379  -7.838 -14.619  0.00  0.00     0.126 C 
ATOM      2  NAE 1M1 d   1      24.703  -7.472 -13.348  0.00  0.00    -0.301 N 
ATOM      3  CAD 1M1 d   1      23.497  -6.804 -13.173  0.00  0.00     0.067 A 
ATOM      4  CAI 1M1 d   1      22.665  -6.129 -14.128  0.00  0.00    -0.055 A 
ATOM      5  CAH 1M1 d   1      21.500  -5.556 -13.638  0.00  0.00    -0.081 A 
ATOM      6  CAG 1M1 d   1      21.196  -5.607 -12.262  0.00  0.00    -0.081 A 
ATOM      7  CAF 1M1 d   1      22.039  -6.289 -11.341  0.00  0.00    -0.053 A 
ATOM      8  CAC 1M1 d   1      23.178  -6.915 -11.873  0.00  0.00     0.086 A 
ATOM      9  NAB 1M1 d   1      24.178  -7.584 -11.196  0.00  0.00    -0.228 NA
ATOM     10  CAA 1M1 d   1      25.042  -8.012 -12.124  0.00  0.00     0.145 C 
ATOM     11  CAJ 1M1 d   1      26.274  -8.697 -11.967  0.00  0.00     0.036 A 
ATOM     12  CAK 1M1 d   1      26.666  -9.179 -10.684  0.00  0.00    -0.067 A 
ATOM     13  CAL 1M1 d   1      27.950  -9.747 -10.614  0.00  0.00    -0.082 A 
ATOM     14  CAM 1M1 d   1      28.833  -9.835 -11.723  0.00  0.00    -0.081 A 
ATOM     15  CAN 1M1 d   1      28.419  -9.306 -12.921  0.00  0.00    -0.057 A 
ATOM     16  CAO 1M1 d   1      27.157  -8.691 -13.030  0.00  0.00     0.044 A 
ATOM     17  NAP 1M1 d   1      26.792  -8.153 -14.318  0.00  0.00    -0.362 N 
ATOM     18  H5  1M1 d   1      25.362  -6.970 -15.295  0.00  0.00     0.118 H 
ATOM     19  H6  1M1 d   1      22.933  -6.070 -15.177  0.00  0.00     0.087 H 
ATOM     20  H7  1M1 d   1      20.816  -5.064 -14.320  0.00  0.00     0.083 H 
ATOM     21  H8  1M1 d   1      20.301  -5.116 -11.898  0.00  0.00     0.083 H 
ATOM     22  H9  1M1 d   1      21.813  -6.324 -10.281  0.00  0.00     0.087 H 
ATOM     23  H10 1M1 d   1      26.016  -9.112  -9.819  0.00  0.00     0.085 H 
ATOM     24  H11 1M1 d   1      28.285 -10.140  -9.661  0.00  0.00     0.083 H 
ATOM     25  H12 1M1 d   1      29.805 -10.306 -11.627  0.00  0.00     0.083 H 
ATOM     26  H13 1M1 d   1      29.068  -9.362 -13.788  0.00  0.00     0.086 H 
ATOM     27  H14 1M1 d   1      27.518  -7.988 -15.030  0.00  0.00     0.162 HD
ENDROOT
BRANCH   1  28
ATOM     28  CAR 1M1 d   1      24.617  -8.964 -15.295  0.00  0.00     0.076 A 
ATOM     29  CAS 1M1 d   1      23.499  -8.545 -15.936  0.00  0.00    -0.055 A 
ATOM     30  CAT 1M1 d   1      22.765  -9.529 -16.475  0.00  0.00    -0.080 A 
ATOM     31  H1  1M1 d   1      23.221  -7.500 -16.007  0.00  0.00     0.086 H 
ATOM     32  CAU 1M1 d   1      23.089 -10.866 -16.489  0.00  0.00    -0.066 A 
ATOM     33  H2  1M1 d   1      21.829  -9.245 -16.943  0.00  0.00     0.083 H 
ATOM     34  CAV 1M1 d   1      24.205 -11.250 -15.869  0.00  0.00     0.003 A 
ATOM     35  H3  1M1 d   1      22.454 -11.588 -16.991  0.00  0.00     0.085 H 
ATOM     36  NAW 1M1 d   1      24.967 -10.279 -15.232  0.00  0.00    -0.262 NA
ATOM     37  H4  1M1 d   1      24.509 -12.290 -15.862  0.00  0.00     0.114 H 
ENDBRANCH   1  28
TORSDOF 1
