REMARK  5 active torsions:
REMARK  status: ('A' for Active; 'I' for Inactive)
REMARK    1  A    between atoms: C6_7  and  C7_8 
REMARK    2  A    between atoms: N1_9  and  C8_10 
REMARK    3  A    between atoms: C10_13  and  C11_14 
REMARK    4  A    between atoms: C11_14  and  C12_15 
REMARK    5  A    between atoms: C18_22  and  C19_23 
ROOT
ATOM      1  C7  1MO d   1       3.960 -33.091  -1.308  0.00  0.00     0.069 C 
ATOM      2  N1  1MO d   1       3.667 -31.830  -1.911  0.00  0.00    -0.343 N 
ATOM      3  C9  1MO d   1       4.281 -31.455  -3.099  0.00  0.00     0.249 C 
ATOM      4  O1  1MO d   1       4.074 -30.344  -3.584  0.00  0.00    -0.270 OA
ATOM      5  C10 1MO d   1       5.255 -32.453  -3.842  0.00  0.00     0.120 C 
ATOM      6  O2  1MO d   1       5.488 -33.608  -3.070  0.00  0.00    -0.364 OA
ATOM      7  C18 1MO d   1       4.401 -34.143  -2.385  0.00  0.00     0.088 C 
ATOM      8  H5  1MO d   1       3.022 -33.474  -0.880  0.00  0.00     0.085 H 
ATOM      9  H9  1MO d   1       6.223 -31.946  -3.966  0.00  0.00     0.099 H 
ATOM     10  H17 1MO d   1       3.566 -34.326  -3.077  0.00  0.00     0.094 H 
ENDROOT
BRANCH   5  11
ATOM     11  C11 1MO d   1       4.718 -32.766  -5.250  0.00  0.00    -0.009 C 
ATOM     12  H10 1MO d   1       4.362 -31.823  -5.690  0.00  0.00     0.044 H 
ATOM     13  H11 1MO d   1       3.873 -33.461  -5.139  0.00  0.00     0.044 H 
BRANCH  11  14
ATOM     14  C12 1MO d   1       5.705 -33.390  -6.229  0.00  0.00    -0.055 A 
ATOM     15  C13 1MO d   1       5.893 -34.780  -6.369  0.00  0.00    -0.077 A 
ATOM     16  C14 1MO d   1       6.823 -35.275  -7.311  0.00  0.00    -0.082 A 
ATOM     17  H12 1MO d   1       5.325 -35.469  -5.755  0.00  0.00     0.084 H 
ATOM     18  C15 1MO d   1       7.553 -34.382  -8.100  0.00  0.00    -0.083 A 
ATOM     19  H13 1MO d   1       6.970 -36.343  -7.421  0.00  0.00     0.083 H 
ATOM     20  C16 1MO d   1       7.363 -33.011  -7.961  0.00  0.00    -0.082 A 
ATOM     21  H14 1MO d   1       8.269 -34.758  -8.822  0.00  0.00     0.083 H 
ATOM     22  C17 1MO d   1       6.455 -32.526  -7.040  0.00  0.00    -0.077 A 
ATOM     23  H15 1MO d   1       7.929 -32.322  -8.577  0.00  0.00     0.083 H 
ATOM     24  H16 1MO d   1       6.319 -31.455  -6.942  0.00  0.00     0.084 H 
ENDBRANCH  11  14
ENDBRANCH   5  11
BRANCH   2  25
ATOM     25  C8  1MO d   1       2.727 -30.956  -1.205  0.00  0.00    -0.015 C 
ATOM     26  H6  1MO d   1       2.593 -30.025  -1.775  0.00  0.00     0.056 H 
ATOM     27  H7  1MO d   1       3.124 -30.720  -0.207  0.00  0.00     0.056 H 
ATOM     28  H8  1MO d   1       1.758 -31.466  -1.103  0.00  0.00     0.056 H 
ENDBRANCH   2  25
BRANCH   7  29
ATOM     29  C19 1MO d   1       4.833 -35.432  -1.788  0.00  0.00    -0.027 A 
ATOM     30  C20 1MO d   1       3.893 -36.351  -1.261  0.00  0.00    -0.073 A 
ATOM     31  C21 1MO d   1       4.352 -37.524  -0.629  0.00  0.00    -0.061 A 
ATOM     32  H18 1MO d   1       2.830 -36.154  -1.343  0.00  0.00     0.084 H 
ATOM     33  C22 1MO d   1       5.743 -37.803  -0.514  0.00  0.00     0.034 A 
ATOM     34  H19 1MO d   1       3.633 -38.226  -0.223  0.00  0.00     0.086 H 
ATOM     35 CL2  1MO d   1       6.304 -39.185   0.300  0.00  0.00    -0.084 Cl
ATOM     36  C23 1MO d   1       6.659 -36.881  -1.055  0.00  0.00    -0.061 A 
ATOM     37  C24 1MO d   1       6.220 -35.710  -1.689  0.00  0.00    -0.073 A 
ATOM     38  H20 1MO d   1       7.722 -37.080  -0.980  0.00  0.00     0.086 H 
ATOM     39  H21 1MO d   1       6.942 -35.016  -2.104  0.00  0.00     0.084 H 
ENDBRANCH   7  29
BRANCH   1  40
ATOM     40  C6  1MO d   1       4.905 -32.880  -0.136  0.00  0.00    -0.032 A 
ATOM     41  C3  1MO d   1       4.644 -33.568   1.079  0.00  0.00    -0.073 A 
ATOM     42  C2  1MO d   1       5.531 -33.455   2.175  0.00  0.00    -0.061 A 
ATOM     43  H1  1MO d   1       3.757 -34.185   1.167  0.00  0.00     0.084 H 
ATOM     44  C1  1MO d   1       6.668 -32.660   2.064  0.00  0.00     0.034 A 
ATOM     45  H2  1MO d   1       5.326 -33.986   3.098  0.00  0.00     0.086 H 
ATOM     46 CL1  1MO d   1       7.814 -32.599   3.367  0.00  0.00    -0.084 Cl
ATOM     47  C4  1MO d   1       6.898 -31.967   0.844  0.00  0.00    -0.061 A 
ATOM     48  C5  1MO d   1       6.036 -32.070  -0.236  0.00  0.00    -0.073 A 
ATOM     49  H3  1MO d   1       7.776 -31.338   0.756  0.00  0.00     0.086 H 
ATOM     50  H4  1MO d   1       6.239 -31.526  -1.151  0.00  0.00     0.084 H 
ENDBRANCH   1  40
TORSDOF 5
