REMARK  11 active torsions:
REMARK  status: ('A' for Active; 'I' for Inactive)
REMARK    1  A    between atoms: CBI_6  and  CBH_7 
REMARK    2  A    between atoms: CBH_7  and  NBC_8 
REMARK    3  A    between atoms: CAY_16  and  CAV_17 
REMARK    4  A    between atoms: CAS_22  and  OAR_23 
REMARK    5  A    between atoms: OAR_23  and  CAQ_24 
REMARK    6  A    between atoms: CAQ_24  and  CAJ_25 
REMARK    7  A    between atoms: CAJ_25  and  CBJ_26 
REMARK    8  A    between atoms: CAJ_25  and  NAI_29 
REMARK    9  A    between atoms: CBJ_26  and  CBP_27 
REMARK   10  A    between atoms: CBP_27  and  CBQ_28 
REMARK   11  A    between atoms: CAH_37  and  CAK_38 
ROOT
ATOM      1  CAQ 1M0 d   1      19.233  -3.668 -13.304  0.00  0.00     0.045 C 
ATOM      2  H16 1M0 d   1      19.080  -2.621 -13.002  0.00  0.00     0.078 H 
ATOM      3  H17 1M0 d   1      18.726  -4.333 -12.590  0.00  0.00     0.078 H 
ENDROOT
BRANCH   1   4
ATOM      4  OAR 1M0 d   1      20.591  -3.929 -13.221  0.00  0.00    -0.349 OA
BRANCH   4   5
ATOM      5  CAS 1M0 d   1      21.391  -5.024 -12.870  0.00  0.00     0.068 A 
ATOM      6  CAT 1M0 d   1      21.174  -6.422 -12.833  0.00  0.00    -0.050 A 
ATOM      7  CAU 1M0 d   1      22.226  -7.353 -12.484  0.00  0.00    -0.067 A 
ATOM      8  H13 1M0 d   1      20.190  -6.807 -13.073  0.00  0.00     0.087 H 
ATOM      9  CAV 1M0 d   1      23.497  -6.838 -12.198  0.00  0.00     0.010 A 
ATOM     10  H12 1M0 d   1      22.035  -8.419 -12.445  0.00  0.00     0.085 H 
ATOM     11  CAW 1M0 d   1      23.635  -5.466 -12.262  0.00  0.00    -0.067 A 
ATOM     12  CAX 1M0 d   1      22.638  -4.561 -12.558  0.00  0.00    -0.050 A 
ATOM     13  H14 1M0 d   1      24.620  -5.062 -12.060  0.00  0.00     0.085 H 
ATOM     14  H15 1M0 d   1      22.841  -3.496 -12.543  0.00  0.00     0.087 H 
BRANCH   9  15
ATOM     15  CAY 1M0 d   1      24.640  -7.530 -11.921  0.00  0.00     0.141 A 
ATOM     16  NBC 1M0 d   1      25.582  -7.832 -12.890  0.00  0.00    -0.325 N 
ATOM     17  CBB 1M0 d   1      26.606  -8.547 -12.302  0.00  0.00     0.065 A 
ATOM     18  CBG 1M0 d   1      27.765  -9.069 -12.788  0.00  0.00    -0.055 A 
ATOM     19  CBA 1M0 d   1      26.276  -8.635 -10.959  0.00  0.00     0.086 A 
ATOM     20  CBF 1M0 d   1      28.687  -9.738 -11.930  0.00  0.00    -0.081 A 
ATOM     21  H8  1M0 d   1      27.991  -8.975 -13.844  0.00  0.00     0.087 H 
ATOM     22  CBE 1M0 d   1      28.305  -9.834 -10.568  0.00  0.00    -0.081 A 
ATOM     23  H9  1M0 d   1      29.622 -10.148 -12.296  0.00  0.00     0.083 H 
ATOM     24  CBD 1M0 d   1      27.101  -9.258 -10.087  0.00  0.00    -0.053 A 
ATOM     25  H10 1M0 d   1      28.951 -10.362  -9.875  0.00  0.00     0.083 H 
ATOM     26  H11 1M0 d   1      26.846  -9.316  -9.035  0.00  0.00     0.087 H 
ATOM     27  NAZ 1M0 d   1      25.078  -7.992 -10.742  0.00  0.00    -0.228 NA
BRANCH  16  28
ATOM     28  CBH 1M0 d   1      25.508  -7.551 -14.368  0.00  0.00     0.025 C 
ATOM     29  H6  1M0 d   1      24.985  -6.599 -14.544  0.00  0.00     0.072 H 
ATOM     30  H7  1M0 d   1      26.522  -7.496 -14.791  0.00  0.00     0.072 H 
BRANCH  28  31
ATOM     31  CBI 1M0 d   1      24.763  -8.655 -14.991  0.00  0.00    -0.040 A 
ATOM     32  CBK 1M0 d   1      24.604  -8.672 -16.376  0.00  0.00    -0.075 A 
ATOM     33  CBL 1M0 d   1      23.903  -9.719 -16.984  0.00  0.00    -0.082 A 
ATOM     34  H1  1M0 d   1      25.023  -7.876 -16.980  0.00  0.00     0.084 H 
ATOM     35  CBM 1M0 d   1      23.359 -10.825 -16.310  0.00  0.00    -0.083 A 
ATOM     36  H2  1M0 d   1      23.769  -9.673 -18.059  0.00  0.00     0.083 H 
ATOM     37  CBN 1M0 d   1      23.591 -10.823 -14.910  0.00  0.00    -0.082 A 
ATOM     38  H3  1M0 d   1      22.810 -11.611 -16.815  0.00  0.00     0.083 H 
ATOM     39  CBO 1M0 d   1      24.246  -9.720 -14.319  0.00  0.00    -0.075 A 
ATOM     40  H4  1M0 d   1      23.269 -11.659 -14.300  0.00  0.00     0.083 H 
ATOM     41  H5  1M0 d   1      24.345  -9.722 -13.240  0.00  0.00     0.084 H 
ENDBRANCH  28  31
ENDBRANCH  16  28
ENDBRANCH   9  15
ENDBRANCH   4   5
ENDBRANCH   1   4
BRANCH   1  42
ATOM     42  CAJ 1M0 d   1      18.553  -3.857 -14.674  0.00  0.00     0.040 C 
ATOM     43  H18 1M0 d   1      18.634  -4.936 -14.875  0.00  0.00     0.076 H 
BRANCH  42  44
ATOM     44  CBJ 1M0 d   1      17.057  -3.526 -14.444  0.00  0.00    -0.044 C 
ATOM     45  H19 1M0 d   1      16.539  -4.444 -14.128  0.00  0.00     0.036 H 
ATOM     46  H20 1M0 d   1      16.627  -3.170 -15.392  0.00  0.00     0.036 H 
BRANCH  44  47
ATOM     47  CBP 1M0 d   1      16.840  -2.441 -13.366  0.00  0.00    -0.067 C 
ATOM     48  H21 1M0 d   1      16.366  -1.560 -13.824  0.00  0.00     0.032 H 
ATOM     49  H22 1M0 d   1      17.811  -2.153 -12.936  0.00  0.00     0.032 H 
BRANCH  47  50
ATOM     50  CBQ 1M0 d   1      15.927  -2.994 -12.248  0.00  0.00    -0.076 C 
ATOM     51  H23 1M0 d   1      15.775  -2.219 -11.482  0.00  0.00     0.027 H 
ATOM     52  H24 1M0 d   1      16.401  -3.874 -11.789  0.00  0.00     0.027 H 
ATOM     53  H25 1M0 d   1      14.956  -3.282 -12.677  0.00  0.00     0.027 H 
ENDBRANCH  47  50
ENDBRANCH  44  47
ENDBRANCH  42  44
BRANCH  42  54
ATOM     54  NAI 1M0 d   1      19.016  -3.184 -16.024  0.00  0.00    -0.322 N 
ATOM     55  CAE 1M0 d   1      19.053  -1.921 -16.550  0.00  0.00     0.065 A 
ATOM     56  CAF 1M0 d   1      18.804  -0.697 -16.053  0.00  0.00    -0.055 A 
ATOM     57  CAD 1M0 d   1      19.507  -1.998 -17.839  0.00  0.00     0.086 A 
ATOM     58  CAA 1M0 d   1      18.933   0.473 -16.815  0.00  0.00    -0.081 A 
ATOM     59  H26 1M0 d   1      18.490  -0.611 -15.019  0.00  0.00     0.087 H 
ATOM     60  CAB 1M0 d   1      19.387   0.421 -18.149  0.00  0.00    -0.081 A 
ATOM     61  H27 1M0 d   1      18.680   1.430 -16.373  0.00  0.00     0.083 H 
ATOM     62  CAC 1M0 d   1      19.679  -0.884 -18.601  0.00  0.00    -0.053 A 
ATOM     63  H28 1M0 d   1      19.501   1.302 -18.770  0.00  0.00     0.083 H 
ATOM     64  H29 1M0 d   1      20.060  -1.005 -19.608  0.00  0.00     0.087 H 
ATOM     65  NAG 1M0 d   1      19.733  -3.300 -18.102  0.00  0.00    -0.228 NA
ATOM     66  CAH 1M0 d   1      19.385  -3.997 -17.030  0.00  0.00     0.141 A 
BRANCH  66  67
ATOM     67  CAK 1M0 d   1      19.542  -5.316 -16.907  0.00  0.00     0.010 A 
ATOM     68  CAL 1M0 d   1      20.748  -5.728 -16.358  0.00  0.00    -0.069 A 
ATOM     69  CAM 1M0 d   1      21.059  -7.068 -16.156  0.00  0.00    -0.082 A 
ATOM     70  H30 1M0 d   1      21.476  -4.976 -16.076  0.00  0.00     0.085 H 
ATOM     71  CAN 1M0 d   1      20.124  -8.008 -16.514  0.00  0.00    -0.083 A 
ATOM     72  H31 1M0 d   1      22.011  -7.362 -15.729  0.00  0.00     0.083 H 
ATOM     73  CAO 1M0 d   1      18.915  -7.602 -17.060  0.00  0.00    -0.082 A 
ATOM     74  H32 1M0 d   1      20.330  -9.063 -16.371  0.00  0.00     0.083 H 
ATOM     75  CAP 1M0 d   1      18.613  -6.258 -17.258  0.00  0.00    -0.069 A 
ATOM     76  H33 1M0 d   1      18.185  -8.353 -17.340  0.00  0.00     0.083 H 
ATOM     77  H34 1M0 d   1      17.660  -5.963 -17.682  0.00  0.00     0.085 H 
ENDBRANCH  66  67
ENDBRANCH  42  54
ENDBRANCH   1  42
TORSDOF 11
