REMARK  9 active torsions:
REMARK  status: ('A' for Active; 'I' for Inactive)
REMARK    1  A    between atoms: C6_7  and  C7_8 
REMARK    2  A    between atoms: N1_9  and  C8_10 
REMARK    3  A    between atoms: C8_10  and  C25_30 
REMARK    4  A    between atoms: C8_10  and  C26_31 
REMARK    5  A    between atoms: C10_13  and  C11_14 
REMARK    6  A    between atoms: C11_14  and  C12_15 
REMARK    7  A    between atoms: C18_22  and  C19_23 
REMARK    8  A    between atoms: C25_30  and  C27_34 
REMARK    9  A    between atoms: C27_34  and  C28_35 
ROOT
ATOM      1  C7  1MQ d   1       3.290 -12.575  55.725  0.00  0.00     0.070 C 
ATOM      2  N1  1MQ d   1       3.098 -11.421  54.872  0.00  0.00    -0.324 N 
ATOM      3  C9  1MQ d   1       2.632 -11.602  53.589  0.00  0.00     0.250 C 
ATOM      4  O1  1MQ d   1       2.312 -10.630  52.905  0.00  0.00    -0.270 OA
ATOM      5  C10 1MQ d   1       2.492 -13.014  52.969  0.00  0.00     0.120 C 
ATOM      6  O2  1MQ d   1       2.812 -14.054  53.846  0.00  0.00    -0.364 OA
ATOM      7  C18 1MQ d   1       2.441 -13.772  55.184  0.00  0.00     0.088 C 
ATOM      8  H5  1MQ d   1       2.927 -12.327  56.733  0.00  0.00     0.085 H 
ATOM      9  H7  1MQ d   1       3.225 -13.082  52.152  0.00  0.00     0.099 H 
ATOM     10  H14 1MQ d   1       1.390 -13.448  55.167  0.00  0.00     0.094 H 
ENDROOT
BRANCH   2  11
ATOM     11  C8  1MQ d   1       3.385 -10.037  55.325  0.00  0.00     0.099 C 
ATOM     12  H6  1MQ d   1       3.599  -9.432  54.432  0.00  0.00     0.089 H 
BRANCH  11  13
ATOM     13  C25 1MQ d   1       4.554  -9.777  56.338  0.00  0.00    -0.037 C 
ATOM     14  H19 1MQ d   1       4.979 -10.758  56.596  0.00  0.00     0.036 H 
ATOM     15  H20 1MQ d   1       4.106  -9.325  57.235  0.00  0.00     0.036 H 
BRANCH  13  16
ATOM     16  C27 1MQ d   1       5.739  -8.867  55.916  0.00  0.00    -0.066 C 
ATOM     17  H21 1MQ d   1       5.337  -7.870  55.684  0.00  0.00     0.032 H 
ATOM     18  H22 1MQ d   1       6.194  -9.298  55.012  0.00  0.00     0.032 H 
BRANCH  16  19
ATOM     19  C28 1MQ d   1       6.854  -8.699  56.980  0.00  0.00    -0.076 C 
ATOM     20  H23 1MQ d   1       7.641  -8.040  56.585  0.00  0.00     0.027 H 
ATOM     21  H24 1MQ d   1       7.284  -9.683  57.219  0.00  0.00     0.027 H 
ATOM     22  H25 1MQ d   1       6.427  -8.255  57.891  0.00  0.00     0.027 H 
ENDBRANCH  16  19
ENDBRANCH  13  16
ENDBRANCH  11  13
BRANCH  11  23
ATOM     23  C26 1MQ d   1       2.088  -9.584  55.956  0.00  0.00     0.197 C 
ATOM     24  O3  1MQ d   1       1.273  -8.843  55.460  0.00  0.00    -0.646 OA
ATOM     25  O4  1MQ d   1       1.927 -10.105  57.188  0.00  0.00    -0.646 OA
ENDBRANCH  11  23
ENDBRANCH   2  11
BRANCH   1  26
ATOM     26  C6  1MQ d   1       4.754 -12.911  55.830  0.00  0.00    -0.032 A 
ATOM     27  C3  1MQ d   1       5.262 -12.985  57.129  0.00  0.00    -0.073 A 
ATOM     28  C2  1MQ d   1       6.598 -13.265  57.321  0.00  0.00    -0.061 A 
ATOM     29  H1  1MQ d   1       4.610 -12.823  57.980  0.00  0.00     0.084 H 
ATOM     30  C1  1MQ d   1       7.419 -13.469  56.210  0.00  0.00     0.034 A 
ATOM     31  H2  1MQ d   1       7.007 -13.326  58.323  0.00  0.00     0.086 H 
ATOM     32 CL1  1MQ d   1       9.085 -13.755  56.545  0.00  0.00    -0.084 Cl
ATOM     33  C4  1MQ d   1       6.952 -13.412  54.892  0.00  0.00    -0.061 A 
ATOM     34  C5  1MQ d   1       5.604 -13.127  54.722  0.00  0.00    -0.073 A 
ATOM     35  H3  1MQ d   1       7.609 -13.582  54.047  0.00  0.00     0.086 H 
ATOM     36  H4  1MQ d   1       5.195 -13.069  53.720  0.00  0.00     0.084 H 
ENDBRANCH   1  26
BRANCH   7  37
ATOM     37  C19 1MQ d   1       2.506 -14.969  56.085  0.00  0.00    -0.027 A 
ATOM     38  C20 1MQ d   1       1.893 -14.903  57.346  0.00  0.00    -0.073 A 
ATOM     39  C21 1MQ d   1       1.987 -15.983  58.248  0.00  0.00    -0.061 A 
ATOM     40  H15 1MQ d   1       1.342 -14.013  57.629  0.00  0.00     0.084 H 
ATOM     41  C22 1MQ d   1       2.716 -17.125  57.835  0.00  0.00     0.034 A 
ATOM     42  H16 1MQ d   1       1.517 -15.941  59.224  0.00  0.00     0.086 H 
ATOM     43 CL2  1MQ d   1       2.955 -18.593  58.808  0.00  0.00    -0.084 Cl
ATOM     44  C23 1MQ d   1       3.326 -17.208  56.586  0.00  0.00    -0.061 A 
ATOM     45  C24 1MQ d   1       3.215 -16.125  55.713  0.00  0.00    -0.073 A 
ATOM     46  H17 1MQ d   1       3.876 -18.096  56.297  0.00  0.00     0.086 H 
ATOM     47  H18 1MQ d   1       3.681 -16.175  54.736  0.00  0.00     0.084 H 
ENDBRANCH   7  37
BRANCH   5  48
ATOM     48  C11 1MQ d   1       1.071 -13.104  52.311  0.00  0.00    -0.009 C 
ATOM     49  H8  1MQ d   1       1.094 -12.550  51.361  0.00  0.00     0.044 H 
ATOM     50  H9  1MQ d   1       0.345 -12.635  52.992  0.00  0.00     0.044 H 
BRANCH  48  51
ATOM     51  C12 1MQ d   1       0.614 -14.507  52.027  0.00  0.00    -0.055 A 
ATOM     52  C13 1MQ d   1      -0.170 -15.215  52.945  0.00  0.00    -0.074 A 
ATOM     53  C14 1MQ d   1      -0.579 -16.528  52.660  0.00  0.00    -0.045 A 
ATOM     54  H10 1MQ d   1      -0.462 -14.749  53.879  0.00  0.00     0.084 H 
ATOM     55  C15 1MQ d   1      -0.190 -17.118  51.442  0.00  0.00     0.116 A 
ATOM     56  H11 1MQ d   1      -1.186 -17.080  53.368  0.00  0.00     0.088 H 
ATOM     57  C16 1MQ d   1       0.596 -16.404  50.528  0.00  0.00    -0.045 A 
ATOM     58  F1  1MQ d   1      -0.550 -18.377  51.108  0.00  0.00    -0.206 F 
ATOM     59  C17 1MQ d   1       0.994 -15.103  50.820  0.00  0.00    -0.074 A 
ATOM     60  H12 1MQ d   1       0.894 -16.865  49.593  0.00  0.00     0.088 H 
ATOM     61  H13 1MQ d   1       1.600 -14.550  50.111  0.00  0.00     0.084 H 
ENDBRANCH  48  51
ENDBRANCH   5  48
TORSDOF 9
