REMARK  6 active torsions:
REMARK  status: ('A' for Active; 'I' for Inactive)
REMARK    1  A    between atoms: PAS_2  and  CAR_5 
REMARK    2  A    between atoms: CAR_5  and  PAT_6 
REMARK    3  A    between atoms: CAR_5  and  NAJ_10 
REMARK    4  A    between atoms: NAJ_10  and  C4_11 
REMARK    5  A    between atoms: CAD_19  and  CAK_20 
REMARK    6  A    between atoms: CAN_23  and  CAQ_24 
ROOT
ATOM      1  C4  1MV d   1      13.871  31.948  -8.299  0.00  0.00     0.139 A 
ATOM      2  N3  1MV d   1      12.762  32.260  -8.989  0.00  0.00    -0.224 NA
ATOM      3  C2  1MV d   1      12.043  31.258  -9.621  0.00  0.00     0.090 A 
ATOM      4  N1  1MV d   1      12.526  29.951  -9.520  0.00  0.00    -0.234 NA
ATOM      5  C6  1MV d   1      13.653  29.706  -8.817  0.00  0.00     0.113 A 
ATOM      6  SAE 1MV d   1      14.435  28.302  -8.533  0.00  0.00    -0.069 SA
ATOM      7  C5  1MV d   1      14.350  30.682  -8.196  0.00  0.00     0.047 A 
ATOM      8  CAC 1MV d   1      15.448  30.177  -7.550  0.00  0.00    -0.049 A 
ATOM      9  CAD 1MV d   1      15.611  28.836  -7.676  0.00  0.00     0.018 A 
ATOM     10  H   1MV d   1      11.138  31.480 -10.174  0.00  0.00     0.146 H 
ATOM     11  H   1MV d   1      16.135  30.802  -6.981  0.00  0.00     0.087 H 
ENDROOT
BRANCH   9  12
ATOM     12  CAK 1MV d   1      16.553  28.007  -7.156  0.00  0.00    -0.019 A 
ATOM     13  CAL 1MV d   1      16.810  26.757  -7.742  0.00  0.00    -0.071 A 
ATOM     14  CAM 1MV d   1      17.755  25.867  -7.205  0.00  0.00    -0.076 A 
ATOM     15  H   1MV d   1      16.264  26.471  -8.634  0.00  0.00     0.084 H 
ATOM     16  CAN 1MV d   1      18.475  26.188  -6.058  0.00  0.00    -0.062 A 
ATOM     17  H   1MV d   1      17.926  24.914  -7.692  0.00  0.00     0.084 H 
ATOM     18  CAO 1MV d   1      18.228  27.428  -5.452  0.00  0.00    -0.076 A 
ATOM     19  CAP 1MV d   1      17.278  28.316  -5.994  0.00  0.00    -0.071 A 
ATOM     20  H   1MV d   1      18.773  27.706  -4.558  0.00  0.00     0.084 H 
ATOM     21  H   1MV d   1      17.102  29.265  -5.500  0.00  0.00     0.084 H 
BRANCH  16  22
ATOM     22  CAQ 1MV d   1      19.409  25.272  -5.555  0.00  0.00    -0.051 C 
ATOM     23  H   1MV d   1      19.881  25.688  -4.652  0.00  0.00     0.033 H 
ATOM     24  H   1MV d   1      20.180  25.079  -6.316  0.00  0.00     0.033 H 
ATOM     25  H   1MV d   1      18.900  24.330  -5.302  0.00  0.00     0.033 H 
ENDBRANCH  16  22
ENDBRANCH   9  12
BRANCH   1  26
ATOM     26  NAJ 1MV d   1      14.541  32.953  -7.737  0.00  0.00    -0.346 N 
ATOM     27  H   1MV d   1      14.826  32.908  -6.748  0.00  0.00     0.162 HD
BRANCH  26  28
ATOM     28  CAR 1MV d   1      14.869  34.142  -8.570  0.00  0.00     0.228 C 
ATOM     29  H   1MV d   1      13.986  34.380  -9.182  0.00  0.00     0.117 H 
BRANCH  28  30
ATOM     30  PAS 1MV d   1      16.311  33.774  -9.735  0.00  0.00     0.297 P 
ATOM     31  OAU 1MV d   1      15.961  32.315 -10.244  0.00  0.00    -0.638 OA
ATOM     32  OAV 1MV d   1      17.557  33.637  -8.947  0.00  0.00    -0.638 OA
ATOM     33  OAW 1MV d   1      16.257  34.728 -10.870  0.00  0.00    -0.638 OA
ENDBRANCH  28  30
BRANCH  28  34
ATOM     34  PAT 1MV d   1      15.255  35.615  -7.526  0.00  0.00     0.297 P 
ATOM     35  OAX 1MV d   1      14.922  35.081  -6.050  0.00  0.00    -0.638 OA
ATOM     36  OAZ 1MV d   1      16.705  35.871  -7.626  0.00  0.00    -0.638 OA
ATOM     37  OAY 1MV d   1      14.309  36.722  -7.855  0.00  0.00    -0.638 OA
ENDBRANCH  28  34
ENDBRANCH  26  28
ENDBRANCH   1  26
TORSDOF 6
