REMARK  13 active torsions:
REMARK  status: ('A' for Active; 'I' for Inactive)
REMARK    1  A    between atoms: C01_1  and  C14_14 
REMARK    2  A    between atoms: C03_3  and  O07_7 
REMARK    3  A    between atoms: C06_6  and  N17_17 
REMARK    4  A    between atoms: O07_7  and  C08_8 
REMARK    5  A    between atoms: C11_11  and  N30_30 
REMARK    6  A    between atoms: N17_17  and  C18_18 
REMARK       I    between atoms: N17_17  and  C21_21 
REMARK    7  A    between atoms: C18_18  and  C19_19 
REMARK    8  A    between atoms: C18_18  and  C20_20 
REMARK    9  A    between atoms: C21_21  and  C23_22 
REMARK   10  A    between atoms: C26_26  and  C29_29 
REMARK       I    between atoms: N30_30  and  C31_31 
REMARK   11  A    between atoms: C31_31  and  C33_33 
REMARK   12  A    between atoms: C36_36  and  O39_39 
REMARK   13  A    between atoms: O39_39  and  C40_40 
ROOT
ATOM      1  C01 1ML d   1     -22.891  49.013  56.412  0.00  0.00     0.070 A 
ATOM      2  C02 1ML d   1     -21.798  49.555  55.676  0.00  0.00    -0.032 A 
ATOM      3  C03 1ML d   1     -21.426  50.907  55.765  0.00  0.00     0.077 A 
ATOM      4  C04 1ML d   1     -22.156  51.787  56.625  0.00  0.00    -0.048 A 
ATOM      5  C05 1ML d   1     -23.251  51.291  57.371  0.00  0.00    -0.053 A 
ATOM      6  C06 1ML d   1     -23.641  49.905  57.287  0.00  0.00     0.054 A 
ATOM      7  H   1ML d   1     -21.233  48.900  55.023  0.00  0.00     0.089 H 
ATOM      8  H   1ML d   1     -21.871  52.830  56.705  0.00  0.00     0.087 H 
ATOM      9  H   1ML d   1     -23.805  51.963  58.016  0.00  0.00     0.087 H 
ENDROOT
BRANCH   6  10
ATOM     10  N17 1ML d   1     -24.793  49.504  58.098  0.00  0.00    -0.313 N 
ATOM     11  C21 1ML d   1     -26.130  49.463  57.563  0.00  0.00     0.229 C 
ATOM     12  O22 1ML d   1     -27.110  49.127  58.263  0.00  0.00    -0.273 OA
BRANCH  10  13
ATOM     13  C18 1ML d   1     -24.614  49.128  59.559  0.00  0.00     0.013 C 
ATOM     14  H   1ML d   1     -25.568  48.682  59.876  0.00  0.00     0.072 H 
BRANCH  13  15
ATOM     15  C19 1ML d   1     -23.513  48.083  59.804  0.00  0.00    -0.057 C 
ATOM     16  H   1ML d   1     -23.447  47.866  60.880  0.00  0.00     0.030 H 
ATOM     17  H   1ML d   1     -22.549  48.476  59.449  0.00  0.00     0.030 H 
ATOM     18  H   1ML d   1     -23.756  47.160  59.258  0.00  0.00     0.030 H 
ENDBRANCH  13  15
BRANCH  13  19
ATOM     19  C20 1ML d   1     -24.326  50.322  60.506  0.00  0.00    -0.057 C 
ATOM     20  H   1ML d   1     -24.212  49.954  61.536  0.00  0.00     0.030 H 
ATOM     21  H   1ML d   1     -25.162  51.035  60.462  0.00  0.00     0.030 H 
ATOM     22  H   1ML d   1     -23.399  50.824  60.192  0.00  0.00     0.030 H 
ENDBRANCH  13  19
ENDBRANCH  10  13
BRANCH  11  23
ATOM     23  C23 1ML d   1     -26.358  49.853  56.065  0.00  0.00     0.024 C 
ATOM     24  C24 1ML d   1     -27.300  48.835  55.348  0.00  0.00    -0.053 C 
ATOM     25  C25 1ML d   1     -27.586  49.258  53.894  0.00  0.00    -0.061 C 
ATOM     26  H   1ML d   1     -28.251  48.780  55.898  0.00  0.00     0.034 H 
ATOM     27  H   1ML d   1     -26.820  47.845  55.344  0.00  0.00     0.034 H 
ATOM     28  C26 1ML d   1     -28.137  50.705  53.823  0.00  0.00    -0.058 C 
ATOM     29  H   1ML d   1     -28.328  48.571  53.461  0.00  0.00     0.033 H 
ATOM     30  H   1ML d   1     -26.652  49.202  53.315  0.00  0.00     0.033 H 
ATOM     31  C27 1ML d   1     -27.185  51.714  54.526  0.00  0.00    -0.061 C 
ATOM     32  H   1ML d   1     -29.104  50.728  54.347  0.00  0.00     0.039 H 
ATOM     33  C28 1ML d   1     -26.901  51.304  55.983  0.00  0.00    -0.053 C 
ATOM     34  H   1ML d   1     -27.652  52.710  54.520  0.00  0.00     0.033 H 
ATOM     35  H   1ML d   1     -26.234  51.752  53.974  0.00  0.00     0.033 H 
ATOM     36  H   1ML d   1     -26.155  51.990  56.409  0.00  0.00     0.034 H 
ATOM     37  H   1ML d   1     -27.834  51.371  56.562  0.00  0.00     0.034 H 
ATOM     38  H   1ML d   1     -25.385  49.825  55.552  0.00  0.00     0.054 H 
BRANCH  28  39
ATOM     39  C29 1ML d   1     -28.370  51.111  52.368  0.00  0.00    -0.073 C 
ATOM     40  H   1ML d   1     -29.045  50.386  51.889  0.00  0.00     0.028 H 
ATOM     41  H   1ML d   1     -27.409  51.127  51.833  0.00  0.00     0.028 H 
ATOM     42  H   1ML d   1     -28.824  52.112  52.335  0.00  0.00     0.028 H 
ENDBRANCH  28  39
ENDBRANCH  11  23
ENDBRANCH   6  10
BRANCH   1  43
ATOM     43  C14 1ML d   1     -23.164  47.540  56.208  0.00  0.00     0.211 C 
ATOM     44  O15 1ML d   1     -22.172  46.832  55.822  0.00  0.00    -0.644 OA
ATOM     45  O16 1ML d   1     -24.332  47.118  56.423  0.00  0.00    -0.644 OA
ENDBRANCH   1  43
BRANCH   3  46
ATOM     46  O07 1ML d   1     -20.337  51.255  54.977  0.00  0.00    -0.311 OA
BRANCH  46  47
ATOM     47  C08 1ML d   1     -19.891  52.559  54.822  0.00  0.00     0.076 A 
ATOM     48  C09 1ML d   1     -18.717  53.038  55.461  0.00  0.00    -0.048 A 
ATOM     49  C10 1ML d   1     -18.283  54.376  55.254  0.00  0.00    -0.054 A 
ATOM     50  H   1ML d   1     -18.149  52.381  56.109  0.00  0.00     0.087 H 
ATOM     51  C11 1ML d   1     -19.015  55.253  54.410  0.00  0.00     0.035 A 
ATOM     52  H   1ML d   1     -17.384  54.730  55.745  0.00  0.00     0.087 H 
ATOM     53  C12 1ML d   1     -20.199  54.756  53.778  0.00  0.00    -0.054 A 
ATOM     54  C13 1ML d   1     -20.641  53.426  53.976  0.00  0.00    -0.048 A 
ATOM     55  H   1ML d   1     -20.770  55.413  53.133  0.00  0.00     0.087 H 
ATOM     56  H   1ML d   1     -21.542  53.070  53.489  0.00  0.00     0.087 H 
BRANCH  51  57
ATOM     57  N30 1ML d   1     -18.625  56.583  54.131  0.00  0.00    -0.323 N 
ATOM     58  C31 1ML d   1     -19.375  57.657  53.687  0.00  0.00     0.256 C 
ATOM     59  O32 1ML d   1     -20.580  57.688  53.440  0.00  0.00    -0.267 OA
ATOM     60  H   1ML d   1     -17.655  56.778  54.278  0.00  0.00     0.169 HD
BRANCH  58  61
ATOM     61  C33 1ML d   1     -18.562  58.893  53.472  0.00  0.00     0.032 A 
ATOM     62  C34 1ML d   1     -17.534  59.290  54.373  0.00  0.00    -0.065 A 
ATOM     63  C35 1ML d   1     -16.777  60.464  54.112  0.00  0.00    -0.050 A 
ATOM     64  H   1ML d   1     -17.329  58.697  55.257  0.00  0.00     0.085 H 
ATOM     65  C36 1ML d   1     -17.035  61.261  52.951  0.00  0.00     0.068 A 
ATOM     66  H   1ML d   1     -15.994  60.760  54.801  0.00  0.00     0.087 H 
ATOM     67  C37 1ML d   1     -18.068  60.858  52.055  0.00  0.00    -0.050 A 
ATOM     68  C38 1ML d   1     -18.822  59.682  52.322  0.00  0.00    -0.065 A 
ATOM     69  H   1ML d   1     -18.279  61.448  51.170  0.00  0.00     0.087 H 
ATOM     70  H   1ML d   1     -19.607  59.384  51.636  0.00  0.00     0.085 H 
BRANCH  65  71
ATOM     71  O39 1ML d   1     -16.219  62.362  52.812  0.00  0.00    -0.356 OA
BRANCH  71  72
ATOM     72  C40 1ML d   1     -16.737  63.642  53.149  0.00  0.00     0.010 C 
ATOM     73  H   1ML d   1     -15.963  64.406  52.982  0.00  0.00     0.066 H 
ATOM     74  H   1ML d   1     -17.037  63.649  54.207  0.00  0.00     0.066 H 
ATOM     75  H   1ML d   1     -17.611  63.861  52.518  0.00  0.00     0.066 H 
ENDBRANCH  71  72
ENDBRANCH  65  71
ENDBRANCH  58  61
ENDBRANCH  51  57
ENDBRANCH  46  47
ENDBRANCH   3  46
TORSDOF 13
