REMARK  9 active torsions:
REMARK  status: ('A' for Active; 'I' for Inactive)
REMARK    1  A    between atoms: C10_7  and  C6_8 
REMARK    2  A    between atoms: C7_10  and  C21_11 
REMARK    3  A    between atoms: C21_11  and  C22_12 
REMARK    4  A    between atoms: N1_17  and  C1_18 
REMARK    5  A    between atoms: C1_18  and  C3_19 
REMARK    6  A    between atoms: C1_18  and  C2_21 
REMARK    7  A    between atoms: C3_19  and  C4_20 
REMARK    8  A    between atoms: C2_21  and  O3_22 
REMARK    9  A    between atoms: C5_23  and  C9_24 
ROOT
ATOM      1  C6  1MY d   1       7.119 -10.498  -1.070  0.00  0.00     0.088 C 
ATOM      2  O1  1MY d   1       7.810 -11.085  -2.193  0.00  0.00    -0.364 OA
ATOM      3  C7  1MY d   1       9.248 -10.920  -2.116  0.00  0.00     0.125 C 
ATOM      4  C8  1MY d   1       9.758 -11.332  -0.728  0.00  0.00     0.250 C 
ATOM      5  O2  1MY d   1      10.969 -11.502  -0.603  0.00  0.00    -0.270 OA
ATOM      6  N1  1MY d   1       8.859 -11.550   0.357  0.00  0.00    -0.331 N 
ATOM      7  C5  1MY d   1       7.404 -11.315   0.205  0.00  0.00     0.070 C 
ATOM      8  H5  1MY d   1       7.519  -9.486  -0.911  0.00  0.00     0.094 H 
ATOM      9  H6  1MY d   1       9.701 -11.599  -2.853  0.00  0.00     0.099 H 
ATOM     10  H18 1MY d   1       7.074 -10.713   1.064  0.00  0.00     0.085 H 
ENDROOT
BRANCH   6  11
ATOM     11  C1  1MY d   1       9.318 -11.938   1.715  0.00  0.00     0.035 C 
ATOM     12  H9  1MY d   1       8.439 -12.301   2.268  0.00  0.00     0.076 H 
BRANCH  11  13
ATOM     13  C3  1MY d   1      10.367 -13.081   1.721  0.00  0.00    -0.047 C 
ATOM     14  H10 1MY d   1      10.710 -13.229   2.756  0.00  0.00     0.035 H 
ATOM     15  H11 1MY d   1      11.216 -12.773   1.093  0.00  0.00     0.035 H 
BRANCH  13  16
ATOM     16  C4  1MY d   1       9.838 -14.426   1.191  0.00  0.00    -0.075 C 
ATOM     17  H12 1MY d   1      10.641 -15.177   1.230  0.00  0.00     0.027 H 
ATOM     18  H13 1MY d   1       9.501 -14.303   0.151  0.00  0.00     0.027 H 
ATOM     19  H14 1MY d   1       8.994 -14.759   1.813  0.00  0.00     0.027 H 
ENDBRANCH  13  16
ENDBRANCH  11  13
BRANCH  11  20
ATOM     20  C2  1MY d   1       9.863 -10.699   2.446  0.00  0.00     0.036 C 
ATOM     21  H15 1MY d   1      10.807 -10.384   1.978  0.00  0.00     0.077 H 
ATOM     22  H16 1MY d   1      10.042 -10.947   3.503  0.00  0.00     0.077 H 
BRANCH  20  23
ATOM     23  O3  1MY d   1       8.909  -9.630   2.362  0.00  0.00    -0.399 OA
ATOM     24  H17 1MY d   1       9.249  -8.867   2.814  0.00  0.00     0.209 HD
ENDBRANCH  20  23
ENDBRANCH  11  20
ENDBRANCH   6  11
BRANCH   7  25
ATOM     25  C9  1MY d   1       6.609 -12.632   0.238  0.00  0.00    -0.032 A 
ATOM     26  C11 1MY d   1       5.623 -12.766   1.216  0.00  0.00    -0.073 A 
ATOM     27  C12 1MY d   1       4.887 -13.946   1.284  0.00  0.00    -0.061 A 
ATOM     28  H19 1MY d   1       5.432 -11.960   1.915  0.00  0.00     0.084 H 
ATOM     29  C13 1MY d   1       5.121 -14.976   0.371  0.00  0.00     0.034 A 
ATOM     30  H20 1MY d   1       4.129 -14.066   2.049  0.00  0.00     0.086 H 
ATOM     31 CL1  1MY d   1       4.179 -16.422   0.475  0.00  0.00    -0.084 Cl
ATOM     32  C14 1MY d   1       6.104 -14.845  -0.615  0.00  0.00    -0.061 A 
ATOM     33  C15 1MY d   1       6.851 -13.667  -0.675  0.00  0.00    -0.073 A 
ATOM     34  H21 1MY d   1       6.283 -15.646  -1.323  0.00  0.00     0.086 H 
ATOM     35  H22 1MY d   1       7.620 -13.553  -1.430  0.00  0.00     0.084 H 
ENDBRANCH   7  25
BRANCH   3  36
ATOM     36  C21 1MY d   1       9.687  -9.473  -2.485  0.00  0.00     0.048 C 
ATOM     37  H7  1MY d   1      10.784  -9.406  -2.445  0.00  0.00     0.053 H 
ATOM     38  H8  1MY d   1       9.250  -8.767  -1.764  0.00  0.00     0.053 H 
BRANCH  36  39
ATOM     39  C22 1MY d   1       9.210  -9.111  -3.899  0.00  0.00     0.175 C 
ATOM     40  O5  1MY d   1       8.475  -8.105  -3.998  0.00  0.00    -0.648 OA
ATOM     41  O4  1MY d   1       9.577  -9.848  -4.846  0.00  0.00    -0.648 OA
ENDBRANCH  36  39
ENDBRANCH   3  36
BRANCH   1  42
ATOM     42  C10 1MY d   1       5.628 -10.358  -1.387  0.00  0.00    -0.025 A 
ATOM     43  C20 1MY d   1       4.971 -11.298  -2.187  0.00  0.00    -0.053 A 
ATOM     44  C19 1MY d   1       3.613 -11.141  -2.469  0.00  0.00     0.034 A 
ATOM     45  H1  1MY d   1       5.515 -12.146  -2.587  0.00  0.00     0.087 H 
ATOM     46 CL2  1MY d   1       2.799 -12.305  -3.452  0.00  0.00    -0.084 Cl
ATOM     47  C18 1MY d   1       2.915 -10.049  -1.961  0.00  0.00    -0.062 A 
ATOM     48  C17 1MY d   1       3.574  -9.116  -1.165  0.00  0.00    -0.081 A 
ATOM     49  H2  1MY d   1       1.861  -9.925  -2.184  0.00  0.00     0.086 H 
ATOM     50  C16 1MY d   1       4.929  -9.267  -0.880  0.00  0.00    -0.074 A 
ATOM     51  H3  1MY d   1       3.030  -8.268  -0.765  0.00  0.00     0.083 H 
ATOM     52  H4  1MY d   1       5.439  -8.535  -0.264  0.00  0.00     0.084 H 
ENDBRANCH   1  42
TORSDOF 9
