REMARK  5 active torsions:
REMARK  status: ('A' for Active; 'I' for Inactive)
REMARK    1  A    between atoms: CBD_2  and  CAV_5 
REMARK    2  A    between atoms: CAU_10  and  NAR_11 
REMARK    3  A    between atoms: C2_22  and  NAS_23 
REMARK    4  A    between atoms: NAS_23  and  CBC_24 
REMARK    5  A    between atoms: CBB_27  and  NAA_28 
ROOT
ATOM      1  NAR 1N6 d   1      21.710 -39.990  -0.184  0.00  0.00    -0.340 N 
ATOM      2  C6  1N6 d   1      20.855 -38.949  -0.016  0.00  0.00     0.165 A 
ATOM      3  N1  1N6 d   1      20.318 -38.192  -1.021  0.00  0.00    -0.044 NA
ATOM      4  C5  1N6 d   1      20.517 -38.670   1.326  0.00  0.00     0.106 A 
ATOM      5  CAY 1N6 d   1      21.013 -39.405   2.431  0.00  0.00     0.282 A 
ATOM      6  OAB 1N6 d   1      21.800 -40.359   2.286  0.00  0.00    -0.265 OA
ATOM      7  NAT 1N6 d   1      20.594 -39.047   3.747  0.00  0.00    -0.226 NA
ATOM      8  CAG 1N6 d   1      19.754 -38.038   3.954  0.00  0.00    -0.009 A 
ATOM      9  CAJ 1N6 d   1      19.256 -37.300   2.891  0.00  0.00     0.008 A 
ATOM     10  C4  1N6 d   1      19.632 -37.616   1.585  0.00  0.00     0.078 A 
ATOM     11  N3  1N6 d   1      19.137 -36.900   0.562  0.00  0.00    -0.066 NA
ATOM     12  C2  1N6 d   1      19.454 -37.183  -0.725  0.00  0.00     0.725 A 
ATOM     13  H5  1N6 d   1      21.916 -40.564   0.646  0.00  0.00     0.167 HD
ATOM     14  H6  1N6 d   1      19.453 -37.788   4.970  0.00  0.00     0.108 H 
ATOM     15  H7  1N6 d   1      19.553 -36.255   3.063  0.00  0.00     0.050 H 
ATOM     16  H8  1N6 d   1      18.160 -37.381   2.934  0.00  0.00     0.050 H 
ENDROOT
BRANCH  12  17
ATOM     17  NAS 1N6 d   1      18.894 -36.349  -1.610  0.00  0.00    -0.218 N 
ATOM     18  H9  1N6 d   1      18.791 -35.387  -1.255  0.00  0.00     0.178 HD
BRANCH  17  19
ATOM     19  CBC 1N6 d   1      18.395 -36.519  -2.982  0.00  0.00     0.026 C 
ATOM     20  CAN 1N6 d   1      19.189 -35.533  -3.851  0.00  0.00    -0.044 C 
ATOM     21  CAL 1N6 d   1      18.577 -35.466  -5.247  0.00  0.00    -0.037 C 
ATOM     22  H11 1N6 d   1      20.233 -35.871  -3.926  0.00  0.00     0.036 H 
ATOM     23  H12 1N6 d   1      19.159 -34.534  -3.391  0.00  0.00     0.036 H 
ATOM     24  CBB 1N6 d   1      18.631 -36.856  -5.891  0.00  0.00     0.100 C 
ATOM     25  H13 1N6 d   1      19.145 -34.753  -5.863  0.00  0.00     0.036 H 
ATOM     26  H14 1N6 d   1      17.530 -35.135  -5.174  0.00  0.00     0.036 H 
ATOM     27  CAM 1N6 d   1      17.944 -37.953  -5.013  0.00  0.00    -0.037 C 
ATOM     28  H15 1N6 d   1      19.690 -37.138  -5.987  0.00  0.00     0.083 H 
ATOM     29  CAO 1N6 d   1      18.461 -37.940  -3.559  0.00  0.00    -0.044 C 
ATOM     30  H19 1N6 d   1      18.149 -38.940  -5.454  0.00  0.00     0.036 H 
ATOM     31  H20 1N6 d   1      16.859 -37.773  -5.005  0.00  0.00     0.036 H 
ATOM     32  H21 1N6 d   1      17.839 -38.609  -2.947  0.00  0.00     0.036 H 
ATOM     33  H22 1N6 d   1      19.503 -38.291  -3.542  0.00  0.00     0.036 H 
ATOM     34  H10 1N6 d   1      17.336 -36.223  -2.990  0.00  0.00     0.073 H 
BRANCH  24  35
ATOM     35  NAA 1N6 d   1      18.068 -36.785  -7.234  0.00  0.00    -0.075 N 
ATOM     36  H16 1N6 d   1      18.102 -37.697  -7.661  0.00  0.00     0.274 HD
ATOM     37  H17 1N6 d   1      18.602 -36.135  -7.788  0.00  0.00     0.274 HD
ATOM     38  H18 1N6 d   1      17.111 -36.474  -7.181  0.00  0.00     0.274 HD
ENDBRANCH  24  35
ENDBRANCH  17  19
ENDBRANCH  12  17
BRANCH   1  39
ATOM     39  CAU 1N6 d   1      22.314 -40.341  -1.338  0.00  0.00     0.034 A 
ATOM     40  CAK 1N6 d   1      21.637 -40.409  -2.559  0.00  0.00    -0.043 A 
ATOM     41  CAV 1N6 d   1      22.303 -40.813  -3.730  0.00  0.00     0.050 A 
ATOM     42  H1  1N6 d   1      20.586 -40.147  -2.604  0.00  0.00     0.088 H 
ATOM     43  CAI 1N6 d   1      23.664 -41.163  -3.683  0.00  0.00    -0.068 A 
ATOM     44  CAF 1N6 d   1      24.350 -41.113  -2.467  0.00  0.00    -0.080 A 
ATOM     45  H2  1N6 d   1      24.179 -41.470  -4.586  0.00  0.00     0.084 H 
ATOM     46  CAH 1N6 d   1      23.667 -40.711  -1.304  0.00  0.00    -0.057 A 
ATOM     47  H3  1N6 d   1      25.399 -41.382  -2.420  0.00  0.00     0.083 H 
ATOM     48  H4  1N6 d   1      24.199 -40.687  -0.360  0.00  0.00     0.086 H 
BRANCH  41  49
ATOM     49  CBD 1N6 d   1      21.590 -40.857  -4.947  0.00  0.00     0.417 C 
ATOM     50  FAC 1N6 d   1      22.286 -41.621  -5.878  0.00  0.00    -0.166 F 
ATOM     51  FAD 1N6 d   1      20.403 -41.423  -4.758  0.00  0.00    -0.166 F 
ATOM     52  FAE 1N6 d   1      21.396 -39.557  -5.406  0.00  0.00    -0.166 F 
ENDBRANCH  41  49
ENDBRANCH   1  39
TORSDOF 5
