REMARK  7 active torsions:
REMARK  status: ('A' for Active; 'I' for Inactive)
REMARK    1  A    between atoms: CAT_3  and  CAQ_4 
REMARK    2  A    between atoms: CAS_9  and  CAN_10 
REMARK    3  A    between atoms: CAN_10  and  CAM_11 
REMARK    4  A    between atoms: CAM_11  and  NAO_12 
REMARK    5  A    between atoms: NAO_12  and  SAW_13 
REMARK    6  A    between atoms: SAW_13  and  CAU_16 
REMARK    7  A    between atoms: CAV_20  and  CAR_21 
ROOT
ATOM      1  CAM 1MU d   1      24.189   4.359  13.245  0.00  0.00     0.006 C 
ATOM      2  H   1MU d   1      25.007   4.438  12.514  0.00  0.00     0.065 H 
ATOM      3  H   1MU d   1      23.813   3.325  13.264  0.00  0.00     0.065 H 
ENDROOT
BRANCH   1   4
ATOM      4  CAN 1MU d   1      23.055   5.310  12.851  0.00  0.00    -0.026 C 
ATOM      5  H   1MU d   1      22.114   5.015  13.338  0.00  0.00     0.042 H 
ATOM      6  H   1MU d   1      23.302   6.345  13.128  0.00  0.00     0.042 H 
BRANCH   4   7
ATOM      7  CAS 1MU d   1      22.946   5.171  11.351  0.00  0.00    -0.057 A 
ATOM      8  CAI 1MU d   1      23.407   6.161  10.488  0.00  0.00    -0.076 A 
ATOM      9  CAK 1MU d   1      23.275   5.992   9.120  0.00  0.00    -0.066 A 
ATOM     10  H   1MU d   1      23.867   7.059  10.884  0.00  0.00     0.084 H 
ATOM     11  CAT 1MU d   1      22.713   4.814   8.625  0.00  0.00     0.040 A 
ATOM     12  H   1MU d   1      23.605   6.768   8.439  0.00  0.00     0.085 H 
ATOM     13  CAL 1MU d   1      22.277   3.833   9.510  0.00  0.00    -0.066 A 
ATOM     14  CAJ 1MU d   1      22.394   4.012  10.870  0.00  0.00    -0.076 A 
ATOM     15  H   1MU d   1      21.841   2.918   9.125  0.00  0.00     0.085 H 
ATOM     16  H   1MU d   1      22.053   3.244  11.554  0.00  0.00     0.084 H 
BRANCH  11  17
ATOM     17  CAQ 1MU d   1      22.573   4.524   7.118  0.00  0.00     0.209 C 
ATOM     18  OAE 1MU d   1      21.444   4.173   6.722  0.00  0.00    -0.644 OA
ATOM     19  OAA 1MU d   1      23.566   4.594   6.377  0.00  0.00    -0.644 OA
ENDBRANCH  11  17
ENDBRANCH   4   7
ENDBRANCH   1   4
BRANCH   1  20
ATOM     20  NAO 1MU d   1      24.676   4.724  14.561  0.00  0.00    -0.315 N 
ATOM     21  H   1MU d   1      24.290   4.408  15.428  0.00  0.00     0.172 HD
BRANCH  20  22
ATOM     22  SAW 1MU d   1      25.925   5.710  14.413  0.00  0.00     0.260 S 
ATOM     23  OAC 1MU d   1      25.797   6.529  13.161  0.00  0.00    -0.200 OA
ATOM     24  OAD 1MU d   1      27.186   4.908  14.391  0.00  0.00    -0.200 OA
BRANCH  22  25
ATOM     25  CAU 1MU d   1      25.829   6.734  15.804  0.00  0.00     0.103 A 
ATOM     26  CAH 1MU d   1      25.804   8.071  15.661  0.00  0.00    -0.052 A 
ATOM     27  CAG 1MU d   1      25.721   8.760  16.807  0.00  0.00    -0.043 A 
ATOM     28  H   1MU d   1      25.848   8.557  14.687  0.00  0.00     0.086 H 
ATOM     29  SAP 1MU d   1      25.647   7.644  18.089  0.00  0.00    -0.094 SA
ATOM     30  H   1MU d   1      25.704   9.845  16.901  0.00  0.00     0.095 H 
ATOM     31  CAV 1MU d   1      25.740   6.303  17.133  0.00  0.00     0.104 A 
BRANCH  31  32
ATOM     32  CAR 1MU d   1      25.693   4.915  17.726  0.00  0.00     0.218 C 
ATOM     33  OAF 1MU d   1      25.552   4.853  18.973  0.00  0.00    -0.643 OA
ATOM     34  OAB 1MU d   1      25.743   3.953  16.952  0.00  0.00    -0.643 OA
ENDBRANCH  31  32
ENDBRANCH  22  25
ENDBRANCH  20  22
ENDBRANCH   1  20
TORSDOF 7
