REMARK  8 active torsions:
REMARK  status: ('A' for Active; 'I' for Inactive)
REMARK    1  A    between atoms: CAU_3  and  CAR_4 
REMARK    2  A    between atoms: CAT_9  and  CAO_10 
REMARK    3  A    between atoms: CAO_10  and  CAM_11 
REMARK    4  A    between atoms: CAM_11  and  CAN_12 
REMARK    5  A    between atoms: CAN_12  and  NAP_13 
REMARK    6  A    between atoms: NAP_13  and  SAX_14 
REMARK    7  A    between atoms: SAX_14  and  CAV_17 
REMARK    8  A    between atoms: CAW_21  and  CAS_22 
ROOT
ATOM      1  CAM 1MW d   1      23.197   4.109  12.262  0.00  0.00    -0.046 C 
ATOM      2  H   1MW d   1      24.224   3.774  12.053  0.00  0.00     0.035 H 
ATOM      3  H   1MW d   1      22.565   3.237  12.486  0.00  0.00     0.035 H 
ENDROOT
BRANCH   1   4
ATOM      4  CAO 1MW d   1      22.641   4.784  10.967  0.00  0.00    -0.040 C 
ATOM      5  H   1MW d   1      22.372   5.828  11.187  0.00  0.00     0.040 H 
ATOM      6  H   1MW d   1      23.413   4.762  10.184  0.00  0.00     0.040 H 
BRANCH   4   7
ATOM      7  CAT 1MW d   1      21.391   4.026  10.474  0.00  0.00    -0.058 A 
ATOM      8  CAI 1MW d   1      20.999   3.820   9.125  0.00  0.00    -0.076 A 
ATOM      9  CAK 1MW d   1      19.825   3.087   8.782  0.00  0.00    -0.066 A 
ATOM     10  H   1MW d   1      21.611   4.233   8.331  0.00  0.00     0.084 H 
ATOM     11  CAU 1MW d   1      19.050   2.575   9.849  0.00  0.00     0.040 A 
ATOM     12  H   1MW d   1      19.539   2.929   7.748  0.00  0.00     0.085 H 
ATOM     13  CAL 1MW d   1      19.435   2.790  11.147  0.00  0.00    -0.066 A 
ATOM     14  CAJ 1MW d   1      20.563   3.515  11.447  0.00  0.00    -0.076 A 
ATOM     15  H   1MW d   1      18.837   2.380  11.953  0.00  0.00     0.085 H 
ATOM     16  H   1MW d   1      20.809   3.691  12.488  0.00  0.00     0.084 H 
BRANCH  11  17
ATOM     17  CAR 1MW d   1      17.711   1.783   9.701  0.00  0.00     0.209 C 
ATOM     18  OAE 1MW d   1      17.326   1.145  10.724  0.00  0.00    -0.644 OA
ATOM     19  OAA 1MW d   1      17.078   1.874   8.591  0.00  0.00    -0.644 OA
ENDBRANCH  11  17
ENDBRANCH   4   7
ENDBRANCH   1   4
BRANCH   1  20
ATOM     20  CAN 1MW d   1      23.238   5.024  13.557  0.00  0.00     0.003 C 
ATOM     21  H   1MW d   1      22.263   4.965  14.062  0.00  0.00     0.065 H 
ATOM     22  H   1MW d   1      23.430   6.063  13.250  0.00  0.00     0.065 H 
BRANCH  20  23
ATOM     23  NAP 1MW d   1      24.301   4.602  14.515  0.00  0.00    -0.315 N 
ATOM     24  H   1MW d   1      24.183   3.813  15.118  0.00  0.00     0.172 HD
BRANCH  23  25
ATOM     25  SAX 1MW d   1      25.768   5.561  14.529  0.00  0.00     0.260 S 
ATOM     26  OAC 1MW d   1      25.766   6.305  13.210  0.00  0.00    -0.200 OA
ATOM     27  OAD 1MW d   1      27.007   4.736  14.730  0.00  0.00    -0.200 OA
BRANCH  25  28
ATOM     28  CAV 1MW d   1      25.621   6.628  15.896  0.00  0.00     0.103 A 
ATOM     29  CAH 1MW d   1      25.662   7.974  15.732  0.00  0.00    -0.052 A 
ATOM     30  CAG 1MW d   1      25.488   8.716  16.855  0.00  0.00    -0.043 A 
ATOM     31  H   1MW d   1      25.825   8.432  14.757  0.00  0.00     0.086 H 
ATOM     32  SAQ 1MW d   1      25.273   7.645  18.197  0.00  0.00    -0.094 SA
ATOM     33  H   1MW d   1      25.484   9.804  16.903  0.00  0.00     0.095 H 
ATOM     34  CAW 1MW d   1      25.415   6.219  17.235  0.00  0.00     0.104 A 
BRANCH  34  35
ATOM     35  CAS 1MW d   1      25.292   4.839  17.880  0.00  0.00     0.218 C 
ATOM     36  OAF 1MW d   1      25.106   4.886  19.134  0.00  0.00    -0.643 OA
ATOM     37  OAB 1MW d   1      25.386   3.794  17.191  0.00  0.00    -0.643 OA
ENDBRANCH  34  35
ENDBRANCH  25  28
ENDBRANCH  23  25
ENDBRANCH  20  23
ENDBRANCH   1  20
TORSDOF 8
