REMARK  14 active torsions:
REMARK  status: ('A' for Active; 'I' for Inactive)
REMARK    1  A    between atoms: N20_27  and  C16_4 
REMARK    2  A    between atoms: C22_7  and  C21_6 
REMARK    3  A    between atoms: C21_6  and  C23_8 
REMARK    4  A    between atoms: C21_6  and  N20_27 
REMARK       I    between atoms: C23_8  and  N1_15 
REMARK    5  A    between atoms: C33_14  and  C34_12 
REMARK    6  A    between atoms: O29_31  and  C33_14 
REMARK    7  A    between atoms: C33_14  and  C35_35 
REMARK    8  A    between atoms: N1_15  and  S2_16 
REMARK    9  A    between atoms: S2_16  and  C3_17 
REMARK   10  A    between atoms: C14_25  and  N19_26 
REMARK   11  A    between atoms: C25_28  and  O30_32 
REMARK   12  A    between atoms: C26_29  and  O29_31 
REMARK   13  A    between atoms: O30_32  and  C31_33 
REMARK   14  A    between atoms: C31_33  and  C32_34 
ROOT
ATOM      1  C21 1OK d   1       7.335  37.389  25.706  0.00  0.00     0.114 C 
ATOM      2  H4  1OK d   1       7.732  37.948  26.567  0.00  0.00     0.095 H 
ENDROOT
BRANCH   1   3
ATOM      3  C22 1OK d   1       5.860  37.072  25.915  0.00  0.00    -0.024 A 
ATOM      4  C24 1OK d   1       5.175  36.312  24.966  0.00  0.00    -0.039 A 
ATOM      5  C25 1OK d   1       3.822  36.053  25.118  0.00  0.00     0.102 A 
ATOM      6  H5  1OK d   1       5.705  35.922  24.104  0.00  0.00     0.088 H 
ATOM      7  C26 1OK d   1       3.126  36.583  26.234  0.00  0.00     0.102 A 
ATOM      8  C27 1OK d   1       3.814  37.349  27.174  0.00  0.00    -0.047 A 
ATOM      9  C28 1OK d   1       5.170  37.576  27.011  0.00  0.00    -0.072 A 
ATOM     10  H10 1OK d   1       3.290  37.764  28.027  0.00  0.00     0.087 H 
ATOM     11  H22 1OK d   1       5.704  38.158  27.753  0.00  0.00     0.084 H 
BRANCH   5  12
ATOM     12  O30 1OK d   1       3.095  35.212  24.306  0.00  0.00    -0.349 OA
BRANCH  12  13
ATOM     13  C31 1OK d   1       3.741  34.590  23.177  0.00  0.00     0.023 C 
ATOM     14  H23 1OK d   1       4.595  33.988  23.520  0.00  0.00     0.074 H 
ATOM     15  H24 1OK d   1       4.094  35.361  22.477  0.00  0.00     0.074 H 
BRANCH  13  16
ATOM     16  C32 1OK d   1       2.763  33.731  22.517  0.00  0.00    -0.056 C 
ATOM     17  H25 1OK d   1       3.231  33.242  21.649  0.00  0.00     0.030 H 
ATOM     18  H26 1OK d   1       1.910  34.338  22.180  0.00  0.00     0.030 H 
ATOM     19  H27 1OK d   1       2.412  32.965  23.224  0.00  0.00     0.030 H 
ENDBRANCH  13  16
ENDBRANCH  12  13
ENDBRANCH   5  12
BRANCH   7  20
ATOM     20  O29 1OK d   1       1.784  36.266  26.306  0.00  0.00    -0.344 OA
BRANCH  20  21
ATOM     21  C33 1OK d   1       0.974  36.558  27.494  0.00  0.00     0.038 C 
ATOM     22  H11 1OK d   1       1.165  37.587  27.831  0.00  0.00     0.082 H 
BRANCH  21  23
ATOM     23  C34 1OK d   1      -0.439  36.435  27.037  0.00  0.00    -0.052 C 
ATOM     24  H7  1OK d   1      -1.116  36.641  27.879  0.00  0.00     0.030 H 
ATOM     25  H8  1OK d   1      -0.617  35.415  26.665  0.00  0.00     0.030 H 
ATOM     26  H9  1OK d   1      -0.627  37.158  26.230  0.00  0.00     0.030 H 
ENDBRANCH  21  23
BRANCH  21  27
ATOM     27  C35 1OK d   1       1.294  35.627  28.621  0.00  0.00    -0.052 C 
ATOM     28  H28 1OK d   1       2.345  35.759  28.918  0.00  0.00     0.030 H 
ATOM     29  H29 1OK d   1       1.132  34.589  28.296  0.00  0.00     0.030 H 
ATOM     30  H30 1OK d   1       0.640  35.849  29.477  0.00  0.00     0.030 H 
ENDBRANCH  21  27
ENDBRANCH  20  21
ENDBRANCH   7  20
ENDBRANCH   1   3
BRANCH   1  31
ATOM     31  C23 1OK d   1       7.355  38.221  24.469  0.00  0.00     0.258 C 
ATOM     32  N1  1OK d   1       6.992  39.519  24.659  0.00  0.00    -0.248 N 
ATOM     33  H12 1OK d   1       6.844  39.841  25.594  0.00  0.00     0.182 HD
ATOM     34  O36 1OK d   1       7.695  37.783  23.373  0.00  0.00    -0.270 OA
BRANCH  32  35
ATOM     35  S2  1OK d   1       6.788  40.571  23.432  0.00  0.00     0.265 S 
ATOM     36  O37 1OK d   1       6.312  41.782  24.035  0.00  0.00    -0.200 OA
ATOM     37  O38 1OK d   1       7.967  40.599  22.619  0.00  0.00    -0.200 OA
BRANCH  35  38
ATOM     38  C3  1OK d   1       5.464  39.868  22.497  0.00  0.00     0.079 A 
ATOM     39  C4  1OK d   1       4.430  39.216  23.161  0.00  0.00    -0.060 A 
ATOM     40  C5  1OK d   1       3.411  38.634  22.421  0.00  0.00    -0.082 A 
ATOM     41  H13 1OK d   1       4.421  39.163  24.244  0.00  0.00     0.085 H 
ATOM     42  C6  1OK d   1       3.413  38.716  21.040  0.00  0.00    -0.083 A 
ATOM     43  H14 1OK d   1       2.608  38.112  22.928  0.00  0.00     0.083 H 
ATOM     44  C7  1OK d   1       4.433  39.383  20.391  0.00  0.00    -0.082 A 
ATOM     45  H15 1OK d   1       2.615  38.257  20.468  0.00  0.00     0.083 H 
ATOM     46  C8  1OK d   1       5.471  39.961  21.112  0.00  0.00    -0.060 A 
ATOM     47  H16 1OK d   1       4.424  39.456  19.309  0.00  0.00     0.083 H 
ATOM     48  H17 1OK d   1       6.275  40.477  20.600  0.00  0.00     0.085 H 
ENDBRANCH  35  38
ENDBRANCH  32  35
ENDBRANCH   1  31
BRANCH   1  49
ATOM     49  N20 1OK d   1       8.142  36.199  25.489  0.00  0.00    -0.373 N 
ATOM     50  H21 1OK d   1       8.393  35.927  24.528  0.00  0.00     0.161 HD
BRANCH  49  51
ATOM     51  C16 1OK d   1       8.583  35.419  26.557  0.00  0.00     0.029 A 
ATOM     52  C17 1OK d   1       9.202  34.195  26.303  0.00  0.00    -0.057 A 
ATOM     53  C18 1OK d   1       9.597  33.386  27.327  0.00  0.00    -0.066 A 
ATOM     54  H2  1OK d   1       9.371  33.883  25.279  0.00  0.00     0.086 H 
ATOM     55  C13 1OK d   1       9.414  33.769  28.687  0.00  0.00     0.020 A 
ATOM     56  H1  1OK d   1      10.060  32.432  27.102  0.00  0.00     0.085 H 
ATOM     57  C12 1OK d   1       8.799  35.032  28.948  0.00  0.00    -0.019 A 
ATOM     58  C14 1OK d   1       9.843  33.002  29.840  0.00  0.00     0.132 A 
ATOM     59  C15 1OK d   1       8.387  35.837  27.858  0.00  0.00    -0.047 A 
ATOM     60  C11 1OK d   1       8.655  35.457  30.289  0.00  0.00    -0.055 A 
ATOM     61  H3  1OK d   1       7.912  36.793  28.048  0.00  0.00     0.088 H 
ATOM     62  C10 1OK d   1       9.120  34.658  31.289  0.00  0.00     0.005 A 
ATOM     63  H6  1OK d   1       8.181  36.405  30.518  0.00  0.00     0.087 H 
ATOM     64  N9  1OK d   1       9.695  33.462  31.086  0.00  0.00    -0.243 NA
ATOM     65  H18 1OK d   1       9.020  35.009  32.310  0.00  0.00     0.114 H 
BRANCH  58  66
ATOM     66  N19 1OK d   1      10.432  31.797  29.682  0.00  0.00    -0.383 N 
ATOM     67  H19 1OK d   1      10.734  31.259  30.507  0.00  0.00     0.157 HD
ATOM     68  H20 1OK d   1      10.580  31.416  28.736  0.00  0.00     0.157 HD
ENDBRANCH  58  66
ENDBRANCH  49  51
ENDBRANCH   1  49
TORSDOF 14
