REMARK  15 active torsions:
REMARK  status: ('A' for Active; 'I' for Inactive)
REMARK    1  A    between atoms: C13_1  and  C12_9 
REMARK       I    between atoms: N15_25  and  C13_1 
REMARK    2  A    between atoms: C18_2  and  O23_27 
REMARK    3  A    between atoms: C12_9  and  C16_4 
REMARK    4  A    between atoms: C19_5  and  O22_26 
REMARK    5  A    between atoms: O23_27  and  C24_8 
REMARK    6  A    between atoms: C24_8  and  C25_28 
REMARK    7  A    between atoms: C12_9  and  N11_23 
REMARK    8  A    between atoms: C26_29  and  C27_11 
REMARK    9  A    between atoms: N11_23  and  C9_21 
REMARK   10  A    between atoms: S29_31  and  N15_25 
REMARK   11  A    between atoms: O22_26  and  C26_29 
REMARK   12  A    between atoms: C26_29  and  C28_30 
REMARK   13  A    between atoms: S29_31  and  C32_34 
REMARK   14  A    between atoms: C36_36  and  S38_38 
REMARK   15  A    between atoms: S38_38  and  N41_41 
ROOT
ATOM      1  C12 1OJ d   1       7.386  37.460  25.534  0.00  0.00     0.114 C 
ATOM      2  H6  1OJ d   1       7.841  38.070  26.328  0.00  0.00     0.095 H 
ENDROOT
BRANCH   1   3
ATOM      3  C13 1OJ d   1       7.183  38.275  24.317  0.00  0.00     0.258 C 
ATOM      4  O14 1OJ d   1       7.166  37.789  23.193  0.00  0.00    -0.270 OA
ATOM      5  N15 1OJ d   1       6.950  39.595  24.593  0.00  0.00    -0.248 N 
ATOM      6  H19 1OJ d   1       6.990  39.897  25.545  0.00  0.00     0.182 HD
BRANCH   5   7
ATOM      7  S29 1OJ d   1       6.609  40.699  23.440  0.00  0.00     0.265 S 
ATOM      8  O30 1OJ d   1       6.186  41.916  24.063  0.00  0.00    -0.200 OA
ATOM      9  O31 1OJ d   1       7.749  40.703  22.576  0.00  0.00    -0.200 OA
BRANCH   7  10
ATOM     10  C32 1OJ d   1       5.230  39.995  22.589  0.00  0.00     0.081 A 
ATOM     11  C33 1OJ d   1       5.359  39.585  21.270  0.00  0.00    -0.060 A 
ATOM     12  C34 1OJ d   1       4.297  38.929  20.659  0.00  0.00    -0.080 A 
ATOM     13  H11 1OJ d   1       6.276  39.774  20.723  0.00  0.00     0.085 H 
ATOM     14  C35 1OJ d   1       3.113  38.689  21.344  0.00  0.00    -0.060 A 
ATOM     15  H7  1OJ d   1       4.394  38.599  19.631  0.00  0.00     0.083 H 
ATOM     16  C36 1OJ d   1       2.991  39.124  22.657  0.00  0.00     0.080 A 
ATOM     17  H27 1OJ d   1       2.295  38.169  20.860  0.00  0.00     0.085 H 
ATOM     18  C37 1OJ d   1       4.048  39.771  23.284  0.00  0.00    -0.038 A 
ATOM     19  H28 1OJ d   1       3.951  40.100  24.312  0.00  0.00     0.088 H 
BRANCH  16  20
ATOM     20  S38 1OJ d   1       1.450  38.912  23.506  0.00  0.00     0.256 S 
ATOM     21  O39 1OJ d   1       1.591  39.476  24.817  0.00  0.00    -0.201 OA
ATOM     22  O40 1OJ d   1       1.070  37.534  23.388  0.00  0.00    -0.201 OA
BRANCH  20  23
ATOM     23  N41 1OJ d   1       0.334  39.772  22.742  0.00  0.00    -0.324 N 
ATOM     24  H29 1OJ d   1      -0.608  39.778  23.076  0.00  0.00     0.169 HD
ATOM     25  H30 1OJ d   1       0.580  40.303  21.931  0.00  0.00     0.169 HD
ENDBRANCH  20  23
ENDBRANCH  16  20
ENDBRANCH   7  10
ENDBRANCH   5   7
ENDBRANCH   1   3
BRANCH   1  26
ATOM     26  C16 1OJ d   1       5.921  37.175  25.834  0.00  0.00    -0.024 A 
ATOM     27  C17 1OJ d   1       5.174  36.431  24.926  0.00  0.00    -0.039 A 
ATOM     28  C18 1OJ d   1       3.812  36.265  25.101  0.00  0.00     0.102 A 
ATOM     29  H1  1OJ d   1       5.665  35.977  24.073  0.00  0.00     0.088 H 
ATOM     30  C19 1OJ d   1       3.166  36.880  26.205  0.00  0.00     0.102 A 
ATOM     31  C20 1OJ d   1       3.926  37.588  27.135  0.00  0.00    -0.047 A 
ATOM     32  C21 1OJ d   1       5.290  37.730  26.940  0.00  0.00    -0.072 A 
ATOM     33  H2  1OJ d   1       3.452  38.025  28.006  0.00  0.00     0.087 H 
ATOM     34  H3  1OJ d   1       5.876  38.285  27.664  0.00  0.00     0.084 H 
BRANCH  28  35
ATOM     35  O23 1OJ d   1       3.086  35.427  24.288  0.00  0.00    -0.349 OA
BRANCH  35  36
ATOM     36  C24 1OJ d   1       3.675  35.085  23.023  0.00  0.00     0.023 C 
ATOM     37  H4  1OJ d   1       4.657  34.617  23.183  0.00  0.00     0.074 H 
ATOM     38  H5  1OJ d   1       3.796  35.991  22.410  0.00  0.00     0.074 H 
BRANCH  36  39
ATOM     39  C25 1OJ d   1       2.846  34.213  22.397  0.00  0.00    -0.056 C 
ATOM     40  H20 1OJ d   1       3.275  33.934  21.423  0.00  0.00     0.030 H 
ATOM     41  H21 1OJ d   1       1.865  34.686  22.244  0.00  0.00     0.030 H 
ATOM     42  H22 1OJ d   1       2.726  33.312  23.016  0.00  0.00     0.030 H 
ENDBRANCH  36  39
ENDBRANCH  35  36
ENDBRANCH  28  35
BRANCH  30  43
ATOM     43  O22 1OJ d   1       1.785  36.887  26.205  0.00  0.00    -0.344 OA
BRANCH  43  44
ATOM     44  C26 1OJ d   1       0.983  36.140  27.183  0.00  0.00     0.038 C 
ATOM     45  H23 1OJ d   1       1.050  35.077  26.908  0.00  0.00     0.082 H 
BRANCH  44  46
ATOM     46  C27 1OJ d   1       1.376  36.205  28.636  0.00  0.00    -0.052 C 
ATOM     47  H8  1OJ d   1       0.680  35.596  29.232  0.00  0.00     0.030 H 
ATOM     48  H9  1OJ d   1       1.337  37.249  28.980  0.00  0.00     0.030 H 
ATOM     49  H10 1OJ d   1       2.398  35.817  28.757  0.00  0.00     0.030 H 
ENDBRANCH  44  46
BRANCH  44  50
ATOM     50  C28 1OJ d   1      -0.423  36.595  26.946  0.00  0.00    -0.052 C 
ATOM     51  H24 1OJ d   1      -0.654  36.527  25.873  0.00  0.00     0.030 H 
ATOM     52  H25 1OJ d   1      -0.532  37.638  27.279  0.00  0.00     0.030 H 
ATOM     53  H26 1OJ d   1      -1.116  35.955  27.512  0.00  0.00     0.030 H 
ENDBRANCH  44  50
ENDBRANCH  43  44
ENDBRANCH  30  43
ENDBRANCH   1  26
BRANCH   1  54
ATOM     54  N11 1OJ d   1       8.190  36.254  25.401  0.00  0.00    -0.373 N 
ATOM     55  H18 1OJ d   1       8.450  35.832  24.498  0.00  0.00     0.161 HD
BRANCH  54  56
ATOM     56  C9  1OJ d   1       8.565  35.739  26.636  0.00  0.00     0.029 A 
ATOM     57  C8  1OJ d   1       8.161  36.438  27.774  0.00  0.00    -0.057 A 
ATOM     58  C7  1OJ d   1       8.430  35.967  29.017  0.00  0.00    -0.069 A 
ATOM     59  H16 1OJ d   1       7.623  37.373  27.663  0.00  0.00     0.086 H 
ATOM     60  C4  1OJ d   1       9.123  34.760  29.195  0.00  0.00    -0.008 A 
ATOM     61  H15 1OJ d   1       8.105  36.530  29.884  0.00  0.00     0.085 H 
ATOM     62  C3  1OJ d   1       9.395  34.193  30.458  0.00  0.00     0.013 A 
ATOM     63  C5  1OJ d   1       9.542  34.035  28.055  0.00  0.00    -0.021 A 
ATOM     64  N2  1OJ d   1       9.982  33.020  30.628  0.00  0.00    -0.272 NA
ATOM     65  H13 1OJ d   1       9.106  34.752  31.341  0.00  0.00     0.116 H 
ATOM     66  C1  1OJ d   1      10.345  32.346  29.531  0.00  0.00     0.003 A 
ATOM     67  C6  1OJ d   1      10.170  32.799  28.259  0.00  0.00    -0.055 A 
ATOM     68  H12 1OJ d   1      10.809  31.375  29.663  0.00  0.00     0.114 H 
ATOM     69  H14 1OJ d   1      10.512  32.211  27.415  0.00  0.00     0.087 H 
ATOM     70  C10 1OJ d   1       9.263  34.558  26.769  0.00  0.00    -0.047 A 
ATOM     71  H17 1OJ d   1       9.600  34.028  25.886  0.00  0.00     0.088 H 
ENDBRANCH  54  56
ENDBRANCH   1  54
TORSDOF 15
