REMARK  16 active torsions:
REMARK  status: ('A' for Active; 'I' for Inactive)
REMARK       I    between atoms: C2_2  and  N3_3 
REMARK    1  A    between atoms: C2_2  and  C21_13 
REMARK    2  A    between atoms: N3_3  and  C5_4 
REMARK    3  A    between atoms: C10_7  and  C11_8 
REMARK    4  A    between atoms: C11_8  and  N12_9 
REMARK    5  A    between atoms: C23_15  and  O24_16 
REMARK    6  A    between atoms: O24_16  and  C25_17 
REMARK    7  A    between atoms: C33_20  and  C34_21 
REMARK    8  A    between atoms: C39_24  and  C40_25 
REMARK    9  A    between atoms: C46_29  and  C47_30 
REMARK       I    between atoms: C47_30  and  N49_32 
REMARK   10  A    between atoms: N49_32  and  C51_33 
REMARK   11  A    between atoms: C51_33  and  C53_34 
REMARK   12  A    between atoms: C51_33  and  C58_36 
REMARK   13  A    between atoms: C53_34  and  O56_35 
REMARK   14  A    between atoms: C58_36  and  C59_37 
REMARK   15  A    between atoms: C58_36  and  C63_38 
REMARK   16  A    between atoms: C58_36  and  C67_39 
ROOT
ATOM      1  C34 1NJ d   1      87.639  39.690  52.476  0.00  0.00    -0.006 A 
ATOM      2  C35 1NJ d   1      88.979  40.012  52.737  0.00  0.00    -0.070 A 
ATOM      3  C37 1NJ d   1      89.954  39.024  52.794  0.00  0.00    -0.067 A 
ATOM      4  C39 1NJ d   1      87.306  38.330  52.292  0.00  0.00     0.052 A 
ATOM      5  C44 1NJ d   1      88.288  37.340  52.389  0.00  0.00    -0.050 A 
ATOM      6  C46 1NJ d   1      89.618  37.682  52.623  0.00  0.00     0.033 A 
ATOM      7  H15 1NJ d   1      89.258  41.047  52.897  0.00  0.00     0.084 H 
ATOM      8  H16 1NJ d   1      90.987  39.300  52.973  0.00  0.00     0.085 H 
ATOM      9  H17 1NJ d   1      88.012  36.297  52.281  0.00  0.00     0.086 H 
ENDROOT
BRANCH   1  10
ATOM     10  C33 1NJ d   1      86.652  40.817  52.379  0.00  0.00     0.010 A 
ATOM     11  C21 1NJ d   1      85.476  40.973  53.185  0.00  0.00     0.138 A 
ATOM     12  N22 1NJ d   1      84.569  41.950  53.012  0.00  0.00    -0.218 NA
ATOM     13  C23 1NJ d   1      84.806  42.848  52.054  0.00  0.00     0.164 A 
ATOM     14  C29 1NJ d   1      85.951  42.846  51.255  0.00  0.00    -0.031 A 
ATOM     15  C31 1NJ d   1      86.858  41.809  51.414  0.00  0.00    -0.066 A 
ATOM     16  H13 1NJ d   1      86.126  43.633  50.531  0.00  0.00     0.090 H 
ATOM     17  H14 1NJ d   1      87.738  41.766  50.782  0.00  0.00     0.085 H 
BRANCH  11  18
ATOM     18  C2  1NJ d   1      85.233  40.040  54.339  0.00  0.00     0.275 C 
ATOM     19  O1  1NJ d   1      86.177  39.617  55.000  0.00  0.00    -0.266 OA
ATOM     20  N3  1NJ d   1      83.965  39.589  54.509  0.00  0.00    -0.322 N 
ATOM     21  H1  1NJ d   1      83.376  39.629  53.702  0.00  0.00     0.169 HD
BRANCH  20  22
ATOM     22  C5  1NJ d   1      83.366  39.067  55.687  0.00  0.00     0.035 A 
ATOM     23  C6  1NJ d   1      83.911  39.229  56.958  0.00  0.00    -0.056 A 
ATOM     24  C8  1NJ d   1      83.238  38.758  58.075  0.00  0.00    -0.067 A 
ATOM     25  H2  1NJ d   1      84.867  39.726  57.075  0.00  0.00     0.086 H 
ATOM     26  C10 1NJ d   1      82.021  38.087  57.944  0.00  0.00     0.007 A 
ATOM     27  H3  1NJ d   1      83.662  38.913  59.061  0.00  0.00     0.085 H 
ATOM     28  C17 1NJ d   1      81.517  37.865  56.663  0.00  0.00    -0.067 A 
ATOM     29  C19 1NJ d   1      82.182  38.349  55.546  0.00  0.00    -0.056 A 
ATOM     30  H8  1NJ d   1      80.595  37.308  56.539  0.00  0.00     0.085 H 
ATOM     31  H9  1NJ d   1      81.777  38.167  54.557  0.00  0.00     0.086 H 
BRANCH  26  32
ATOM     32  C11 1NJ d   1      81.239  37.632  59.151  0.00  0.00     0.102 C 
ATOM     33  N15 1NJ d   1      80.006  37.243  58.987  0.00  0.00    -0.385 N 
ATOM     34  H6  1NJ d   1      79.596  37.216  58.043  0.00  0.00     0.157 HD
ATOM     35  H7  1NJ d   1      79.442  36.963  59.802  0.00  0.00     0.157 HD
BRANCH  32  36
ATOM     36  N12 1NJ d   1      81.914  37.716  60.363  0.00  0.00    -0.385 N 
ATOM     37  H4  1NJ d   1      81.448  37.424  61.234  0.00  0.00     0.157 HD
ATOM     38  H5  1NJ d   1      82.881  38.070  60.391  0.00  0.00     0.157 HD
ENDBRANCH  32  36
ENDBRANCH  26  32
ENDBRANCH  20  22
ENDBRANCH  11  18
BRANCH  13  39
ATOM     39  O24 1NJ d   1      83.868  43.768  51.750  0.00  0.00    -0.339 OA
BRANCH  39  40
ATOM     40  C25 1NJ d   1      82.683  43.810  52.546  0.00  0.00     0.012 C 
ATOM     41  H10 1NJ d   1      82.021  44.607  52.176  0.00  0.00     0.067 H 
ATOM     42  H11 1NJ d   1      82.952  44.013  53.593  0.00  0.00     0.067 H 
ATOM     43  H12 1NJ d   1      82.164  42.843  52.482  0.00  0.00     0.067 H 
ENDBRANCH  39  40
ENDBRANCH  13  39
ENDBRANCH   1  10
BRANCH   4  44
ATOM     44  C40 1NJ d   1      85.936  37.854  51.902  0.00  0.00     0.210 C 
ATOM     45  O41 1NJ d   1      85.431  38.401  50.818  0.00  0.00    -0.644 OA
ATOM     46  O43 1NJ d   1      85.359  36.983  52.548  0.00  0.00    -0.644 OA
ENDBRANCH   4  44
BRANCH   6  47
ATOM     47  C47 1NJ d   1      90.641  36.592  52.657  0.00  0.00     0.252 C 
ATOM     48  O48 1NJ d   1      91.488  36.542  53.547  0.00  0.00    -0.268 OA
ATOM     49  N49 1NJ d   1      90.561  35.659  51.690  0.00  0.00    -0.349 N 
ATOM     50  H18 1NJ d   1      89.891  35.813  50.964  0.00  0.00     0.163 HD
BRANCH  49  51
ATOM     51  C51 1NJ d   1      91.363  34.443  51.604  0.00  0.00     0.039 C 
ATOM     52  H19 1NJ d   1      92.126  34.532  52.391  0.00  0.00     0.076 H 
BRANCH  51  53
ATOM     53  C53 1NJ d   1      92.157  34.433  50.232  0.00  0.00     0.036 C 
ATOM     54  H20 1NJ d   1      91.462  34.183  49.417  0.00  0.00     0.077 H 
ATOM     55  H21 1NJ d   1      92.951  33.674  50.283  0.00  0.00     0.077 H 
BRANCH  53  56
ATOM     56  O56 1NJ d   1      92.741  35.695  49.969  0.00  0.00    -0.399 OA
ATOM     57  H22 1NJ d   1      93.209  35.660  49.143  0.00  0.00     0.209 HD
ENDBRANCH  53  56
ENDBRANCH  51  53
BRANCH  51  58
ATOM     58  C58 1NJ d   1      90.605  33.125  51.937  0.00  0.00    -0.029 C 
BRANCH  58  59
ATOM     59  C59 1NJ d   1      89.924  33.225  53.313  0.00  0.00    -0.068 C 
ATOM     60  H23 1NJ d   1      89.395  32.285  53.529  0.00  0.00     0.028 H 
ATOM     61  H24 1NJ d   1      89.205  34.058  53.307  0.00  0.00     0.028 H 
ATOM     62  H25 1NJ d   1      90.685  33.404  54.087  0.00  0.00     0.028 H 
ENDBRANCH  58  59
BRANCH  58  63
ATOM     63  C63 1NJ d   1      89.534  32.839  50.874  0.00  0.00    -0.068 C 
ATOM     64  H26 1NJ d   1      90.010  32.765  49.885  0.00  0.00     0.028 H 
ATOM     65  H27 1NJ d   1      88.797  33.656  50.867  0.00  0.00     0.028 H 
ATOM     66  H28 1NJ d   1      89.028  31.891  51.109  0.00  0.00     0.028 H 
ENDBRANCH  58  63
BRANCH  58  67
ATOM     67  C67 1NJ d   1      91.596  31.951  51.962  0.00  0.00    -0.068 C 
ATOM     68  H29 1NJ d   1      92.371  32.141  52.720  0.00  0.00     0.028 H 
ATOM     69  H30 1NJ d   1      92.067  31.848  50.974  0.00  0.00     0.028 H 
ATOM     70  H31 1NJ d   1      91.059  31.023  52.211  0.00  0.00     0.028 H 
ENDBRANCH  58  67
ENDBRANCH  51  58
ENDBRANCH  49  51
ENDBRANCH   6  47
TORSDOF 16
