REMARK  15 active torsions:
REMARK  status: ('A' for Active; 'I' for Inactive)
REMARK    1  A    between atoms: C1_1  and  C2_2 
REMARK    2  A    between atoms: C2_2  and  C3_3 
REMARK    3  A    between atoms: C2_2  and  C4_4 
REMARK    4  A    between atoms: C2_2  and  C5_5 
REMARK    5  A    between atoms: C5_5  and  C6_6 
REMARK    6  A    between atoms: C5_5  and  N8_8 
REMARK    7  A    between atoms: C6_6  and  O7_7 
REMARK       I    between atoms: N8_8  and  C9_9 
REMARK    8  A    between atoms: C9_9  and  C11_11 
REMARK    9  A    between atoms: C14_14  and  C20_20 
REMARK   10  A    between atoms: C15_15  and  C17_17 
REMARK   11  A    between atoms: C23_23  and  O40_40 
REMARK   12  A    between atoms: C25_25  and  C26_26 
REMARK       I    between atoms: C26_26  and  N28_28 
REMARK   13  A    between atoms: N28_28  and  C29_29 
REMARK   14  A    between atoms: C38_38  and  N39_39 
REMARK   15  A    between atoms: O40_40  and  C41_41 
ROOT
ATOM      1  C11 1NK d   1      10.134  41.546  23.658  0.00  0.00     0.033 A 
ATOM      2  C12 1NK d   1       8.803  41.896  23.964  0.00  0.00    -0.067 A 
ATOM      3  C13 1NK d   1       7.777  40.931  23.946  0.00  0.00    -0.070 A 
ATOM      4  C14 1NK d   1       8.066  39.592  23.639  0.00  0.00    -0.006 A 
ATOM      5  C15 1NK d   1       9.411  39.250  23.372  0.00  0.00     0.052 A 
ATOM      6  C16 1NK d   1      10.430  40.208  23.348  0.00  0.00    -0.050 A 
ATOM      7  H15 1NK d   1       8.566  42.923  24.217  0.00  0.00     0.085 H 
ATOM      8  H16 1NK d   1       6.758  41.224  24.171  0.00  0.00     0.084 H 
ATOM      9  H17 1NK d   1      11.443  39.919  23.091  0.00  0.00     0.086 H 
ENDROOT
BRANCH   4  10
ATOM     10  C20 1NK d   1       6.969  38.559  23.642  0.00  0.00     0.010 A 
ATOM     11  C21 1NK d   1       5.947  38.760  22.692  0.00  0.00    -0.066 A 
ATOM     12  C22 1NK d   1       4.879  37.871  22.527  0.00  0.00    -0.031 A 
ATOM     13  H18 1NK d   1       5.990  39.641  22.062  0.00  0.00     0.085 H 
ATOM     14  C23 1NK d   1       4.894  36.697  23.303  0.00  0.00     0.164 A 
ATOM     15  H19 1NK d   1       4.074  38.078  21.831  0.00  0.00     0.090 H 
ATOM     16  N24 1NK d   1       5.889  36.472  24.222  0.00  0.00    -0.218 NA
ATOM     17  C25 1NK d   1       6.908  37.371  24.394  0.00  0.00     0.138 A 
BRANCH  14  18
ATOM     18  O40 1NK d   1       3.859  35.880  23.052  0.00  0.00    -0.339 OA
BRANCH  18  19
ATOM     19  C41 1NK d   1       3.852  34.564  23.698  0.00  0.00     0.012 C 
ATOM     20  H28 1NK d   1       2.948  34.013  23.398  0.00  0.00     0.067 H 
ATOM     21  H29 1NK d   1       3.858  34.692  24.791  0.00  0.00     0.067 H 
ATOM     22  H30 1NK d   1       4.744  33.999  23.390  0.00  0.00     0.067 H 
ENDBRANCH  18  19
ENDBRANCH  14  18
BRANCH  17  23
ATOM     23  C26 1NK d   1       7.907  37.048  25.459  0.00  0.00     0.275 C 
ATOM     24  O27 1NK d   1       8.410  37.910  26.154  0.00  0.00    -0.266 OA
ATOM     25  N28 1NK d   1       8.266  35.740  25.551  0.00  0.00    -0.322 N 
ATOM     26  H20 1NK d   1       8.110  35.184  24.735  0.00  0.00     0.169 HD
BRANCH  25  27
ATOM     27  C29 1NK d   1       8.813  35.092  26.620  0.00  0.00     0.035 A 
ATOM     28  C30 1NK d   1       9.420  33.833  26.446  0.00  0.00    -0.056 A 
ATOM     29  C31 1NK d   1       9.869  33.056  27.522  0.00  0.00    -0.066 A 
ATOM     30  H21 1NK d   1       9.545  33.450  25.440  0.00  0.00     0.086 H 
ATOM     31  C32 1NK d   1       9.758  33.549  28.832  0.00  0.00     0.020 A 
ATOM     32  H22 1NK d   1      10.300  32.078  27.344  0.00  0.00     0.085 H 
ATOM     33  C33 1NK d   1       9.222  34.840  29.052  0.00  0.00    -0.019 A 
ATOM     34  C38 1NK d   1      10.222  32.857  29.971  0.00  0.00     0.132 A 
ATOM     35  C34 1NK d   1       8.737  35.571  27.948  0.00  0.00    -0.046 A 
ATOM     36  C35 1NK d   1       9.129  35.390  30.337  0.00  0.00    -0.055 A 
ATOM     37  H23 1NK d   1       8.287  36.541  28.125  0.00  0.00     0.088 H 
ATOM     38  C36 1NK d   1       9.603  34.627  31.415  0.00  0.00     0.005 A 
ATOM     39  H24 1NK d   1       8.704  36.375  30.494  0.00  0.00     0.087 H 
ATOM     40  N37 1NK d   1      10.156  33.396  31.219  0.00  0.00    -0.243 NA
ATOM     41  H25 1NK d   1       9.528  35.023  32.421  0.00  0.00     0.114 H 
BRANCH  34  42
ATOM     42  N39 1NK d   1      10.749  31.622  29.897  0.00  0.00    -0.383 N 
ATOM     43  H26 1NK d   1      11.077  31.150  30.752  0.00  0.00     0.157 HD
ATOM     44  H27 1NK d   1      10.825  31.148  28.986  0.00  0.00     0.157 HD
ENDBRANCH  34  42
ENDBRANCH  25  27
ENDBRANCH  17  23
ENDBRANCH   4  10
BRANCH   5  45
ATOM     45  C17 1NK d   1       9.847  37.872  22.977  0.00  0.00     0.210 C 
ATOM     46  O18 1NK d   1      10.728  37.287  23.600  0.00  0.00    -0.644 OA
ATOM     47  O19 1NK d   1       9.238  37.296  21.954  0.00  0.00    -0.644 OA
ENDBRANCH   5  45
BRANCH   1  48
ATOM     48  C9  1NK d   1      11.284  42.511  23.618  0.00  0.00     0.252 C 
ATOM     49  N8  1NK d   1      12.146  42.373  22.579  0.00  0.00    -0.349 N 
ATOM     50  H14 1NK d   1      11.921  41.731  21.846  0.00  0.00     0.163 HD
ATOM     51  O10 1NK d   1      11.367  43.378  24.475  0.00  0.00    -0.268 OA
BRANCH  49  52
ATOM     52  C5  1NK d   1      13.407  43.141  22.497  0.00  0.00     0.039 C 
ATOM     53  H10 1NK d   1      13.460  43.790  23.384  0.00  0.00     0.076 H 
BRANCH  52  54
ATOM     54  C2  1NK d   1      14.689  42.261  22.502  0.00  0.00    -0.029 C 
BRANCH  54  55
ATOM     55  C1  1NK d   1      15.981  43.075  22.298  0.00  0.00    -0.068 C 
ATOM     56  H1  1NK d   1      16.847  42.397  22.312  0.00  0.00     0.028 H 
ATOM     57  H2  1NK d   1      16.081  43.814  23.107  0.00  0.00     0.028 H 
ATOM     58  H3  1NK d   1      15.938  43.595  21.330  0.00  0.00     0.028 H 
ENDBRANCH  54  55
BRANCH  54  59
ATOM     59  C3  1NK d   1      14.745  41.120  21.468  0.00  0.00    -0.068 C 
ATOM     60  H4  1NK d   1      13.844  40.496  21.561  0.00  0.00     0.028 H 
ATOM     61  H5  1NK d   1      15.638  40.504  21.650  0.00  0.00     0.028 H 
ATOM     62  H6  1NK d   1      14.793  41.545  20.455  0.00  0.00     0.028 H 
ENDBRANCH  54  59
BRANCH  54  63
ATOM     63  C4  1NK d   1      14.697  41.611  23.894  0.00  0.00    -0.068 C 
ATOM     64  H7  1NK d   1      14.658  42.395  24.665  0.00  0.00     0.028 H 
ATOM     65  H8  1NK d   1      15.617  41.021  24.018  0.00  0.00     0.028 H 
ATOM     66  H9  1NK d   1      13.822  40.952  23.996  0.00  0.00     0.028 H 
ENDBRANCH  54  63
ENDBRANCH  52  54
BRANCH  52  67
ATOM     67  C6  1NK d   1      13.338  44.043  21.246  0.00  0.00     0.036 C 
ATOM     68  H11 1NK d   1      13.467  43.412  20.355  0.00  0.00     0.077 H 
ATOM     69  H12 1NK d   1      14.158  44.775  21.299  0.00  0.00     0.077 H 
BRANCH  67  70
ATOM     70  O7  1NK d   1      12.100  44.757  21.120  0.00  0.00    -0.399 OA
ATOM     71  H13 1NK d   1      11.383  44.137  21.063  0.00  0.00     0.209 HD
ENDBRANCH  67  70
ENDBRANCH  52  67
ENDBRANCH  49  52
ENDBRANCH   1  48
TORSDOF 15
