REMARK  15 active torsions:
REMARK  status: ('A' for Active; 'I' for Inactive)
REMARK    1  A    between atoms: C1_1  and  C2_2 
REMARK    2  A    between atoms: C2_2  and  C3_3 
REMARK    3  A    between atoms: C2_2  and  C4_4 
REMARK    4  A    between atoms: C2_2  and  C5_5 
REMARK    5  A    between atoms: C5_5  and  C6_6 
REMARK    6  A    between atoms: C5_5  and  N8_8 
REMARK    7  A    between atoms: C6_6  and  O7_7 
REMARK       I    between atoms: N8_8  and  C9_9 
REMARK    8  A    between atoms: C9_9  and  C11_11 
REMARK    9  A    between atoms: C14_14  and  C20_20 
REMARK   10  A    between atoms: C15_15  and  C17_17 
REMARK   11  A    between atoms: C23_23  and  O38_38 
REMARK   12  A    between atoms: C25_25  and  C26_26 
REMARK       I    between atoms: C26_26  and  N28_28 
REMARK   13  A    between atoms: N28_28  and  C29_29 
REMARK   14  A    between atoms: C33_33  and  C35_35 
REMARK       I    between atoms: C35_35  and  N37_37 
REMARK   15  A    between atoms: O38_38  and  C39_39 
ROOT
ATOM      1  C11 1NL d   1      10.197  41.678  23.642  0.00  0.00     0.033 A 
ATOM      2  C12 1NL d   1       8.880  42.059  23.940  0.00  0.00    -0.067 A 
ATOM      3  C13 1NL d   1       7.828  41.133  23.933  0.00  0.00    -0.070 A 
ATOM      4  C14 1NL d   1       8.066  39.792  23.587  0.00  0.00    -0.006 A 
ATOM      5  C15 1NL d   1       9.379  39.416  23.270  0.00  0.00     0.052 A 
ATOM      6  C16 1NL d   1      10.441  40.335  23.284  0.00  0.00    -0.050 A 
ATOM      7  H15 1NL d   1       8.671  43.095  24.182  0.00  0.00     0.085 H 
ATOM      8  H16 1NL d   1       6.826  41.453  24.196  0.00  0.00     0.084 H 
ATOM      9  H17 1NL d   1      11.443  40.014  23.021  0.00  0.00     0.086 H 
ENDROOT
BRANCH   4  10
ATOM     10  C20 1NL d   1       6.931  38.809  23.546  0.00  0.00     0.010 A 
ATOM     11  C21 1NL d   1       5.944  39.019  22.562  0.00  0.00    -0.066 A 
ATOM     12  C22 1NL d   1       4.871  38.137  22.384  0.00  0.00    -0.031 A 
ATOM     13  H18 1NL d   1       6.018  39.891  21.922  0.00  0.00     0.085 H 
ATOM     14  C23 1NL d   1       4.863  36.964  23.159  0.00  0.00     0.164 A 
ATOM     15  H19 1NL d   1       4.078  38.350  21.677  0.00  0.00     0.090 H 
ATOM     16  N24 1NL d   1       5.843  36.741  24.075  0.00  0.00    -0.218 NA
ATOM     17  C25 1NL d   1       6.847  37.623  24.274  0.00  0.00     0.138 A 
BRANCH  14  18
ATOM     18  O38 1NL d   1       3.874  36.098  22.933  0.00  0.00    -0.339 OA
BRANCH  18  19
ATOM     19  C39 1NL d   1       3.810  34.805  23.614  0.00  0.00     0.012 C 
ATOM     20  H27 1NL d   1       2.917  34.258  23.278  0.00  0.00     0.067 H 
ATOM     21  H28 1NL d   1       3.755  34.965  24.701  0.00  0.00     0.067 H 
ATOM     22  H29 1NL d   1       4.710  34.220  23.375  0.00  0.00     0.067 H 
ENDBRANCH  18  19
ENDBRANCH  14  18
BRANCH  17  23
ATOM     23  C26 1NL d   1       7.777  37.155  25.327  0.00  0.00     0.275 C 
ATOM     24  O27 1NL d   1       8.244  38.062  26.014  0.00  0.00    -0.266 OA
ATOM     25  N28 1NL d   1       8.162  35.902  25.620  0.00  0.00    -0.322 N 
ATOM     26  H20 1NL d   1       7.777  35.239  24.978  0.00  0.00     0.169 HD
BRANCH  25  27
ATOM     27  C29 1NL d   1       8.928  35.305  26.548  0.00  0.00     0.036 A 
ATOM     28  C30 1NL d   1       9.984  34.428  26.270  0.00  0.00    -0.057 A 
ATOM     29  C31 1NL d   1      10.775  33.885  27.287  0.00  0.00    -0.080 A 
ATOM     30  H21 1NL d   1      10.193  34.163  25.240  0.00  0.00     0.086 H 
ATOM     31  C32 1NL d   1      10.548  34.235  28.619  0.00  0.00    -0.068 A 
ATOM     32  H22 1NL d   1      11.568  33.189  27.040  0.00  0.00     0.083 H 
ATOM     33  C33 1NL d   1       9.516  35.129  28.931  0.00  0.00     0.034 A 
ATOM     34  H23 1NL d   1      11.166  33.818  29.406  0.00  0.00     0.085 H 
ATOM     35  C34 1NL d   1       8.728  35.677  27.905  0.00  0.00    -0.042 A 
ATOM     36  H24 1NL d   1       7.955  36.395  28.152  0.00  0.00     0.088 H 
BRANCH  33  37
ATOM     37  C35 1NL d   1       9.236  35.498  30.363  0.00  0.00     0.249 C 
ATOM     38  O36 1NL d   1       8.789  36.604  30.644  0.00  0.00    -0.268 OA
ATOM     39  N37 1NL d   1       9.487  34.597  31.323  0.00  0.00    -0.366 N 
ATOM     40  H25 1NL d   1       9.308  34.823  32.280  0.00  0.00     0.159 HD
ATOM     41  H26 1NL d   1       9.854  33.698  31.082  0.00  0.00     0.159 HD
ENDBRANCH  33  37
ENDBRANCH  25  27
ENDBRANCH  17  23
ENDBRANCH   4  10
BRANCH   5  42
ATOM     42  C17 1NL d   1       9.830  38.047  22.872  0.00  0.00     0.210 C 
ATOM     43  O18 1NL d   1       9.216  37.502  21.958  0.00  0.00    -0.644 OA
ATOM     44  O19 1NL d   1      10.789  37.371  23.462  0.00  0.00    -0.644 OA
ENDBRANCH   5  42
BRANCH   1  45
ATOM     45  C9  1NL d   1      11.351  42.627  23.570  0.00  0.00     0.252 C 
ATOM     46  N8  1NL d   1      12.170  42.516  22.510  0.00  0.00    -0.349 N 
ATOM     47  H14 1NL d   1      11.892  41.827  21.841  0.00  0.00     0.163 HD
ATOM     48  O10 1NL d   1      11.464  43.487  24.428  0.00  0.00    -0.268 OA
BRANCH  46  49
ATOM     49  C5  1NL d   1      13.402  43.235  22.169  0.00  0.00     0.039 C 
ATOM     50  H10 1NL d   1      13.483  43.974  22.980  0.00  0.00     0.076 H 
BRANCH  49  51
ATOM     51  C2  1NL d   1      14.723  42.446  22.318  0.00  0.00    -0.029 C 
BRANCH  51  52
ATOM     52  C1  1NL d   1      14.774  41.908  23.759  0.00  0.00    -0.068 C 
ATOM     53  H1  1NL d   1      15.704  41.338  23.905  0.00  0.00     0.028 H 
ATOM     54  H2  1NL d   1      13.910  41.251  23.936  0.00  0.00     0.028 H 
ATOM     55  H3  1NL d   1      14.745  42.750  24.466  0.00  0.00     0.028 H 
ENDBRANCH  51  52
BRANCH  51  56
ATOM     56  C3  1NL d   1      16.005  43.276  22.132  0.00  0.00    -0.068 C 
ATOM     57  H4  1NL d   1      16.028  43.691  21.114  0.00  0.00     0.028 H 
ATOM     58  H5  1NL d   1      16.884  42.633  22.286  0.00  0.00     0.028 H 
ATOM     59  H6  1NL d   1      16.019  44.097  22.863  0.00  0.00     0.028 H 
ENDBRANCH  51  56
BRANCH  51  60
ATOM     60  C4  1NL d   1      14.853  41.258  21.341  0.00  0.00    -0.068 C 
ATOM     61  H7  1NL d   1      13.962  40.617  21.422  0.00  0.00     0.028 H 
ATOM     62  H8  1NL d   1      15.750  40.673  21.593  0.00  0.00     0.028 H 
ATOM     63  H9  1NL d   1      14.939  41.637  20.312  0.00  0.00     0.028 H 
ENDBRANCH  51  60
ENDBRANCH  49  51
BRANCH  49  64
ATOM     64  C6  1NL d   1      13.263  44.123  20.917  0.00  0.00     0.036 C 
ATOM     65  H11 1NL d   1      13.271  43.490  20.017  0.00  0.00     0.077 H 
ATOM     66  H12 1NL d   1      14.105  44.830  20.875  0.00  0.00     0.077 H 
BRANCH  64  67
ATOM     67  O7  1NL d   1      12.030  44.854  20.974  0.00  0.00    -0.399 OA
ATOM     68  H13 1NL d   1      11.950  45.399  20.200  0.00  0.00     0.209 HD
ENDBRANCH  64  67
ENDBRANCH  49  64
ENDBRANCH  46  49
ENDBRANCH   1  45
TORSDOF 15
