REMARK  5 active torsions:
REMARK  status: ('A' for Active; 'I' for Inactive)
REMARK    1  A    between atoms: N1_1  and  C1_16 
REMARK    2  A    between atoms: N3_2  and  C5_4 
REMARK    3  A    between atoms: C5_4  and  C4_3 
REMARK    4  A    between atoms: C18_28  and  C15_10 
REMARK    5  A    between atoms: C12_25  and  N4_24 
ROOT
ATOM      1  N3  4JR d   1      42.383  21.992  -4.508  0.00  0.00    -0.064 N 
ATOM      2  C6  4JR d   1      43.530  22.777  -3.937  0.00  0.00     0.085 C 
ATOM      3  C7  4JR d   1      44.915  22.516  -4.506  0.00  0.00    -0.027 C 
ATOM      4  C8  4JR d   1      44.953  22.597  -6.032  0.00  0.00     0.046 C 
ATOM      5  C10 4JR d   1      46.382  22.760  -7.915  0.00  0.00     0.004 C 
ATOM      6  C24 4JR d   1      43.770  21.773  -6.571  0.00  0.00    -0.027 C 
ATOM      7  C25 4JR d   1      42.435  22.141  -5.922  0.00  0.00     0.085 C 
ATOM      8  C11 4JR d   1      44.994  24.023  -6.544  0.00  0.00     0.233 C 
ATOM      9  O   4JR d   1      44.411  24.984  -6.052  0.00  0.00    -0.272 OA
ATOM     10  C9  4JR d   1      46.261  22.021  -6.584  0.00  0.00    -0.034 C 
ATOM     11  N4  4JR d   1      45.805  24.081  -7.611  0.00  0.00    -0.317 N 
ATOM     12  H1  4JR d   1      41.511  22.373  -4.177  0.00  0.00     0.280 HD
ATOM     13  H4  4JR d   1      43.572  22.562  -2.859  0.00  0.00     0.076 H 
ATOM     14  H5  4JR d   1      43.307  23.843  -4.090  0.00  0.00     0.076 H 
ATOM     15  H6  4JR d   1      45.237  21.510  -4.199  0.00  0.00     0.037 H 
ATOM     16  H7  4JR d   1      45.610  23.264  -4.097  0.00  0.00     0.037 H 
ATOM     17  H8  4JR d   1      45.810  22.250  -8.704  0.00  0.00     0.065 H 
ATOM     18  H9  4JR d   1      47.434  22.849  -8.224  0.00  0.00     0.065 H 
ATOM     19  H15 4JR d   1      43.970  20.708  -6.380  0.00  0.00     0.037 H 
ATOM     20  H16 4JR d   1      43.691  21.943  -7.655  0.00  0.00     0.037 H 
ATOM     21  H22 4JR d   1      42.220  23.193  -6.161  0.00  0.00     0.076 H 
ATOM     22  H23 4JR d   1      41.656  21.499  -6.360  0.00  0.00     0.076 H 
ATOM     23  H24 4JR d   1      46.190  20.933  -6.733  0.00  0.00     0.037 H 
ATOM     24  H25 4JR d   1      47.110  22.245  -5.921  0.00  0.00     0.037 H 
ENDROOT
BRANCH  11  25
ATOM     25  C12 4JR d   1      46.170  25.248  -8.361  0.00  0.00     0.037 A 
ATOM     26  C13 4JR d   1      45.424  25.703  -9.441  0.00  0.00    -0.056 A 
ATOM     27  C14 4JR d   1      45.808  26.835 -10.164  0.00  0.00    -0.070 A 
ATOM     28  H10 4JR d   1      44.526  25.169  -9.729  0.00  0.00     0.087 H 
ATOM     29  C15 4JR d   1      46.968  27.554  -9.825  0.00  0.00    -0.026 A 
ATOM     30  H26 4JR d   1      45.202  27.165 -11.000  0.00  0.00     0.084 H 
ATOM     31  C16 4JR d   1      47.718  27.070  -8.740  0.00  0.00    -0.070 A 
ATOM     32  C17 4JR d   1      47.326  25.937  -8.025  0.00  0.00    -0.056 A 
ATOM     33  H27 4JR d   1      48.624  27.590  -8.451  0.00  0.00     0.084 H 
ATOM     34  H11 4JR d   1      47.933  25.591  -7.196  0.00  0.00     0.087 H 
BRANCH  29  35
ATOM     35  C18 4JR d   1      47.395  28.693 -10.556  0.00  0.00    -0.026 A 
ATOM     36  C23 4JR d   1      48.602  29.345 -10.258  0.00  0.00    -0.072 A 
ATOM     37  C22 4JR d   1      49.064  30.450 -10.962  0.00  0.00    -0.082 A 
ATOM     38  H28 4JR d   1      49.203  28.968  -9.438  0.00  0.00     0.084 H 
ATOM     39  C21 4JR d   1      48.318  30.942 -12.021  0.00  0.00    -0.083 A 
ATOM     40  H14 4JR d   1      49.999  30.923 -10.685  0.00  0.00     0.083 H 
ATOM     41  C20 4JR d   1      47.122  30.316 -12.354  0.00  0.00    -0.082 A 
ATOM     42  H13 4JR d   1      48.662  31.803 -12.582  0.00  0.00     0.083 H 
ATOM     43  C19 4JR d   1      46.667  29.208 -11.637  0.00  0.00    -0.072 A 
ATOM     44  H12 4JR d   1      46.534  30.694 -13.183  0.00  0.00     0.083 H 
ATOM     45  H29 4JR d   1      45.733  28.737 -11.922  0.00  0.00     0.084 H 
ENDBRANCH  29  35
ENDBRANCH  11  25
BRANCH   1  46
ATOM     46  C5  4JR d   1      42.485  20.638  -4.051  0.00  0.00     0.137 C 
ATOM     47  H2  4JR d   1      42.917  20.618  -3.040  0.00  0.00     0.088 H 
ATOM     48  H3  4JR d   1      43.125  20.061  -4.735  0.00  0.00     0.088 H 
BRANCH  46  49
ATOM     49  C4  4JR d   1      41.116  20.052  -4.026  0.00  0.00     0.131 A 
ATOM     50  N1  4JR d   1      40.709  18.884  -4.567  0.00  0.00    -0.347 N 
ATOM     51  C2  4JR d   1      39.406  18.796  -4.311  0.00  0.00    -0.003 A 
ATOM     52  C3  4JR d   1      38.997  19.857  -3.632  0.00  0.00     0.019 A 
ATOM     53  H20 4JR d   1      38.767  17.969  -4.617  0.00  0.00     0.113 H 
ATOM     54  N2  4JR d   1      40.083  20.666  -3.458  0.00  0.00    -0.244 NA
ATOM     55  H21 4JR d   1      37.985  20.048  -3.279  0.00  0.00     0.117 H 
BRANCH  50  56
ATOM     56  C1  4JR d   1      41.445  17.852  -5.313  0.00  0.00    -0.013 C 
ATOM     57  H17 4JR d   1      40.757  17.040  -5.590  0.00  0.00     0.057 H 
ATOM     58  H18 4JR d   1      42.252  17.450  -4.683  0.00  0.00     0.057 H 
ATOM     59  H19 4JR d   1      41.876  18.295  -6.223  0.00  0.00     0.057 H 
ENDBRANCH  50  56
ENDBRANCH  46  49
ENDBRANCH   1  46
TORSDOF 5
