REMARK WARNING: 32 MAX_TORS EXCEEDED!!!
REMARK  71 active torsions:
REMARK  status: ('A' for Active; 'I' for Inactive)
REMARK    1  A    between atoms: N_1  and  CA_2 
REMARK    2  A    between atoms: CA_2  and  C_3 
REMARK    3  A    between atoms: CA_2  and  CB_5 
REMARK       I    between atoms: C_3  and  N_12 
REMARK    4  A    between atoms: CB_5  and  CG_6 
REMARK    5  A    between atoms: CG_6  and  CD_7 
REMARK    6  A    between atoms: CD_7  and  NE_8 
REMARK       I    between atoms: NE_8  and  CZ_9 
REMARK       I    between atoms: CZ_9  and  NH1_10 
REMARK       I    between atoms: CZ_9  and  NH2_11 
REMARK    7  A    between atoms: N_12  and  CA_13 
REMARK    8  A    between atoms: CA_13  and  C_14 
REMARK    9  A    between atoms: CA_13  and  CB_16 
REMARK       I    between atoms: C_14  and  N_19 
REMARK   10  A    between atoms: CB_16  and  OG1_17 
REMARK   11  A    between atoms: CB_16  and  CG2_18 
REMARK   12  A    between atoms: N_19  and  CA_20 
REMARK   13  A    between atoms: CA_20  and  C_21 
REMARK   14  A    between atoms: CA_20  and  CB_23 
REMARK       I    between atoms: C_21  and  N_30 
REMARK   15  A    between atoms: CB_23  and  CG_24 
REMARK   16  A    between atoms: N_30  and  CA_31 
REMARK   17  A    between atoms: CA_31  and  C_32 
REMARK   18  A    between atoms: CA_31  and  CB_34 
REMARK       I    between atoms: C_32  and  N_41 
REMARK   19  A    between atoms: CB_34  and  CG_35 
REMARK   20  A    between atoms: CG_35  and  CD_36 
REMARK   21  A    between atoms: CD_36  and  NE_37 
REMARK       I    between atoms: NE_37  and  CZ_38 
REMARK       I    between atoms: CZ_38  and  NH1_39 
REMARK   22  A    between atoms: N_41  and  CA_42 
REMARK   23  A    between atoms: CA_42  and  C_43 
REMARK   24  A    between atoms: CA_42  and  CB_45 
REMARK       I    between atoms: C_43  and  N_50 
REMARK   25  A    between atoms: CB_45  and  CG_46 
REMARK   26  A    between atoms: CG_46  and  CD_47 
REMARK       I    between atoms: CD_47  and  NE2_49 
REMARK   27  A    between atoms: N_50  and  CA_51 
REMARK   28  A    between atoms: CA_51  and  C_52 
REMARK   29  A    between atoms: CA_51  and  CB_54 
REMARK       I    between atoms: C_52  and  N_57 
REMARK   30  A    between atoms: CB_54  and  CG1_55 
REMARK   31  A    between atoms: CB_54  and  CG2_56 
REMARK   32  A    between atoms: N_57  and  CA_58 
REMARK   33  A    between atoms: CA_58  and  C_59 
REMARK   34  A    between atoms: CA_58  and  CB_61 
REMARK       I    between atoms: C_59  and  N_66 
REMARK   35  A    between atoms: CB_61  and  CG_62 
REMARK   36  A    between atoms: CG_62  and  CD_63 
REMARK       I    between atoms: CD_63  and  NE2_65 
REMARK   37  A    between atoms: N_66  and  CA_67 
REMARK   38  A    between atoms: CA_67  and  C_68 
REMARK   39  A    between atoms: CA_67  and  CB_70 
REMARK       I    between atoms: C_68  and  N_72 
REMARK   40  A    between atoms: CB_70  and  OG_71 
REMARK   41  A    between atoms: N_72  and  CA_73 
REMARK   42  A    between atoms: CA_73  and  C_74 
REMARK   43  A    between atoms: CA_73  and  CB_76 
REMARK       I    between atoms: C_74  and  N_78 
REMARK   44  A    between atoms: CB_76  and  OG_77 
REMARK   45  A    between atoms: N_78  and  CA_79 
REMARK   46  A    between atoms: CA_79  and  C_80 
REMARK   47  A    between atoms: CA_79  and  CB_82 
REMARK       I    between atoms: C_80  and  N_86 
REMARK   48  A    between atoms: CB_82  and  CG1_83 
REMARK   49  A    between atoms: CB_82  and  CG2_84 
REMARK   50  A    between atoms: CG1_83  and  CD1_85 
REMARK   51  A    between atoms: N_86  and  CA_87 
REMARK   52  A    between atoms: CA_87  and  C_88 
REMARK   53  A    between atoms: CA_87  and  CB_90 
REMARK       I    between atoms: C_88  and  N_92 
REMARK   54  A    between atoms: CB_90  and  OG_91 
REMARK   55  A    between atoms: N_92  and  CA_93 
REMARK   56  A    between atoms: CA_93  and  C_94 
REMARK   57  A    between atoms: CA_93  and  CB_96 
REMARK       I    between atoms: C_94  and  N_100 
REMARK   58  A    between atoms: CB_96  and  CG_97 
REMARK   59  A    between atoms: N_100  and  CA_101 
REMARK   60  A    between atoms: CA_101  and  C_102 
REMARK   61  A    between atoms: CA_101  and  CB_104 
REMARK       I    between atoms: C_102  and  N_111 
REMARK   62  A    between atoms: CB_104  and  CG_105 
REMARK   63  A    between atoms: N_111  and  CA_112 
REMARK   64  A    between atoms: CA_112  and  C_113 
REMARK   65  A    between atoms: CA_112  and  CB_115 
REMARK       I    between atoms: C_113  and  N_123 
REMARK   66  A    between atoms: CB_115  and  CG_116 
REMARK   67  A    between atoms: CZ_121  and  OH_122 
REMARK   68  A    between atoms: N_123  and  CA_124 
REMARK   69  A    between atoms: CA_124  and  C_125 
REMARK   70  A    between atoms: CA_124  and  CB_127 
REMARK   71  A    between atoms: CB_127  and  CG_128 
ROOT
ATOM      1  CA  GLN d   1      -3.764 -16.670  10.487  0.00  0.00     0.090 C 
ATOM      2  H63 GLN d   1      -2.751 -16.266  10.342  0.00  0.00     0.087 H 
ENDROOT
BRANCH   1   3
ATOM      3  N   GLN d   1      -4.515 -16.506   9.199  0.00  0.00    -0.346 N 
ATOM      4  C   VAL d   1      -4.047 -16.989   8.037  0.00  0.00     0.241 C 
ATOM      5  O   VAL d   1      -2.981 -17.581   7.941  0.00  0.00    -0.271 OA
ATOM      6  H62 GLN d   1      -5.390 -16.023   9.206  0.00  0.00     0.163 HD
BRANCH   4   7
ATOM      7  CA  VAL d   1      -4.903 -16.781   6.785  0.00  0.00     0.092 C 
ATOM      8  H54 VAL d   1      -4.527 -17.461   6.006  0.00  0.00     0.088 H 
BRANCH   7   9
ATOM      9  N   VAL d   1      -6.301 -17.097   7.015  0.00  0.00    -0.346 N 
ATOM     10  C   GLN d   1      -6.707 -18.341   7.241  0.00  0.00     0.241 C 
ATOM     11  O   GLN d   1      -5.942 -19.306   7.303  0.00  0.00    -0.271 OA
ATOM     12  H53 VAL d   1      -6.976 -16.359   7.003  0.00  0.00     0.163 HD
BRANCH  10  13
ATOM     13  CA  GLN d   1      -8.194 -18.510   7.396  0.00  0.00     0.090 C 
ATOM     14  H46 GLN d   1      -8.397 -19.531   7.751  0.00  0.00     0.087 H 
BRANCH  13  15
ATOM     15  N   GLN d   1      -8.784 -17.574   8.358  0.00  0.00    -0.346 N 
ATOM     16  C   ARG d   1      -8.297 -17.397   9.597  0.00  0.00     0.241 C 
ATOM     17  O   ARG d   1      -7.379 -18.062  10.084  0.00  0.00    -0.271 OA
ATOM     18  H45 GLN d   1      -9.585 -17.044   8.079  0.00  0.00     0.163 HD
BRANCH  16  19
ATOM     19  CA  ARG d   1      -8.927 -16.275  10.400  0.00  0.00     0.089 C 
ATOM     20  H33 ARG d   1      -8.303 -16.084  11.285  0.00  0.00     0.087 H 
BRANCH  19  21
ATOM     21  N   ARG d   1      -8.973 -15.080   9.589  0.00  0.00    -0.346 N 
ATOM     22  C   PHE d   1      -7.861 -14.535   9.115  0.00  0.00     0.241 C 
ATOM     23  O   PHE d   1      -6.740 -15.015   9.299  0.00  0.00    -0.271 OA
ATOM     24  H32 ARG d   1      -9.856 -14.658   9.382  0.00  0.00     0.163 HD
BRANCH  22  25
ATOM     25  CA  PHE d   1      -8.049 -13.267   8.301  0.00  0.00     0.093 C 
ATOM     26  H24 PHE d   1      -7.110 -13.067   7.765  0.00  0.00     0.088 H 
BRANCH  25  27
ATOM     27  N   PHE d   1      -9.120 -13.444   7.281  0.00  0.00    -0.346 N 
ATOM     28  C   THR d   1      -9.005 -14.369   6.322  0.00  0.00     0.243 C 
ATOM     29  O   THR d   1      -8.049 -15.176   6.270  0.00  0.00    -0.271 OA
ATOM     30  H23 PHE d   1      -9.934 -12.864   7.314  0.00  0.00     0.163 HD
BRANCH  28  31
ATOM     31  CA  THR d   1     -10.110 -14.376   5.252  0.00  0.00     0.113 C 
ATOM     32  H17 THR d   1     -10.075 -15.326   4.698  0.00  0.00     0.091 H 
BRANCH  31  33
ATOM     33  N   THR d   1     -11.455 -14.262   5.872  0.00  0.00    -0.344 N 
ATOM     34  C   ARG d   1     -11.933 -15.135   6.784  0.00  0.00     0.249 C 
ATOM     35  O   ARG d   1     -11.351 -16.188   7.095  0.00  0.00    -0.271 OA
ATOM     36  H16 THR d   1     -12.038 -13.497   5.599  0.00  0.00     0.163 HD
BRANCH  34  37
ATOM     37  CA  ARG d   1     -13.262 -14.751   7.494  0.00  0.00     0.176 C 
ATOM     38  H4  ARG d   1     -13.094 -13.773   7.968  0.00  0.00     0.099 H 
BRANCH  37  39
ATOM     39  N   ARG d   1     -14.458 -14.598   6.608  0.00  0.00    -0.067 N 
ATOM     40  H1  ARG d   1     -15.260 -14.350   7.166  0.00  0.00     0.275 HD
ATOM     41  H2  ARG d   1     -14.636 -15.468   6.131  0.00  0.00     0.275 HD
ATOM     42  H3  ARG d   1     -14.283 -13.873   5.930  0.00  0.00     0.275 HD
ENDBRANCH  37  39
BRANCH  37  43
ATOM     43  CB  ARG d   1     -13.571 -15.763   8.601  0.00  0.00    -0.029 C 
ATOM     44  H5  ARG d   1     -12.677 -15.870   9.232  0.00  0.00     0.036 H 
ATOM     45  H6  ARG d   1     -13.806 -16.730   8.131  0.00  0.00     0.036 H 
BRANCH  43  46
ATOM     46  CG  ARG d   1     -14.739 -15.366   9.489  0.00  0.00    -0.047 C 
ATOM     47  H7  ARG d   1     -15.658 -15.834   9.107  0.00  0.00     0.035 H 
ATOM     48  H8  ARG d   1     -14.850 -14.272   9.471  0.00  0.00     0.035 H 
BRANCH  46  49
ATOM     49  CD  ARG d   1     -14.506 -15.821  10.925  0.00  0.00     0.009 C 
ATOM     50  H9  ARG d   1     -13.796 -15.131  11.405  0.00  0.00     0.064 H 
ATOM     51  H10 ARG d   1     -14.080 -16.835  10.912  0.00  0.00     0.064 H 
BRANCH  49  52
ATOM     52  NE  ARG d   1     -15.740 -15.840  11.698  0.00  0.00    -0.227 N 
ATOM     53  CZ  ARG d   1     -16.688 -16.771  11.588  0.00  0.00     0.665 C 
ATOM     54  NH1 ARG d   1     -16.571 -17.790  10.733  0.00  0.00    -0.235 N 
ATOM     55  NH2 ARG d   1     -17.773 -16.681  12.339  0.00  0.00    -0.235 N 
ATOM     56  H12 ARG d   1     -17.318 -18.496  10.668  0.00  0.00     0.174 HD
ATOM     57  H13 ARG d   1     -15.733 -17.870  10.139  0.00  0.00     0.174 HD
ATOM     58  H14 ARG d   1     -17.877 -15.900  13.003  0.00  0.00     0.174 HD
ATOM     59  H15 ARG d   1     -18.514 -17.392  12.260  0.00  0.00     0.174 HD
ATOM     60  H11 ARG d   1     -15.891 -15.081  12.377  0.00  0.00     0.177 HD
ENDBRANCH  49  52
ENDBRANCH  46  49
ENDBRANCH  43  46
ENDBRANCH  37  43
ENDBRANCH  34  37
ENDBRANCH  31  33
BRANCH  31  61
ATOM     61  CB  THR d   1      -9.759 -13.204   4.267  0.00  0.00     0.060 C 
ATOM     62  H18 THR d   1      -9.237 -12.427   4.845  0.00  0.00     0.086 H 
BRANCH  61  63
ATOM     63  OG1 THR d   1     -10.936 -12.606   3.692  0.00  0.00    -0.393 OA
ATOM     64  H19 THR d   1     -10.679 -11.905   3.105  0.00  0.00     0.210 HD
ENDBRANCH  61  63
BRANCH  61  65
ATOM     65  CG2 THR d   1      -8.803 -13.694   3.153  0.00  0.00    -0.050 C 
ATOM     66  H20 THR d   1      -8.571 -12.859   2.476  0.00  0.00     0.031 H 
ATOM     67  H21 THR d   1      -9.286 -14.503   2.585  0.00  0.00     0.031 H 
ATOM     68  H22 THR d   1      -7.873 -14.068   3.606  0.00  0.00     0.031 H 
ENDBRANCH  61  65
ENDBRANCH  31  61
ENDBRANCH  28  31
ENDBRANCH  25  27
BRANCH  25  69
ATOM     69  CB  PHE d   1      -8.320 -12.075   9.224  0.00  0.00    -0.014 C 
ATOM     70  H25 PHE d   1      -9.372 -12.114   9.543  0.00  0.00     0.043 H 
ATOM     71  H26 PHE d   1      -8.143 -11.149   8.658  0.00  0.00     0.043 H 
BRANCH  69  72
ATOM     72  CG  PHE d   1      -7.447 -12.057  10.455  0.00  0.00    -0.056 A 
ATOM     73  CD1 PHE d   1      -6.077 -11.783  10.351  0.00  0.00    -0.077 A 
ATOM     74  CE1 PHE d   1      -5.271 -11.761  11.478  0.00  0.00    -0.082 A 
ATOM     75  H27 PHE d   1      -5.643 -11.586   9.378  0.00  0.00     0.084 H 
ATOM     76  CZ  PHE d   1      -5.829 -12.004  12.730  0.00  0.00    -0.083 A 
ATOM     77  H29 PHE d   1      -4.211 -11.556  11.385  0.00  0.00     0.083 H 
ATOM     78  CE2 PHE d   1      -7.183 -12.287  12.853  0.00  0.00    -0.082 A 
ATOM     79  H31 PHE d   1      -5.203 -11.972  13.614  0.00  0.00     0.083 H 
ATOM     80  CD2 PHE d   1      -7.992 -12.319  11.725  0.00  0.00    -0.077 A 
ATOM     81  H30 PHE d   1      -7.609 -12.483  13.831  0.00  0.00     0.083 H 
ATOM     82  H28 PHE d   1      -9.047 -12.547  11.823  0.00  0.00     0.084 H 
ENDBRANCH  69  72
ENDBRANCH  25  69
ENDBRANCH  22  25
ENDBRANCH  19  21
BRANCH  19  83
ATOM     83  CB  ARG d   1     -10.344 -16.635  10.872  0.00  0.00    -0.036 C 
ATOM     84  H34 ARG d   1     -10.859 -17.153  10.049  0.00  0.00     0.036 H 
ATOM     85  H35 ARG d   1     -10.875 -15.701  11.107  0.00  0.00     0.036 H 
BRANCH  83  86
ATOM     86  CG  ARG d   1     -10.392 -17.530  12.100  0.00  0.00    -0.048 C 
ATOM     87  H36 ARG d   1      -9.569 -17.252  12.776  0.00  0.00     0.035 H 
ATOM     88  H37 ARG d   1     -10.269 -18.576  11.783  0.00  0.00     0.035 H 
BRANCH  86  89
ATOM     89  CD  ARG d   1     -11.715 -17.392  12.849  0.00  0.00     0.009 C 
ATOM     90  H38 ARG d   1     -12.528 -17.270  12.118  0.00  0.00     0.064 H 
ATOM     91  H39 ARG d   1     -11.668 -16.504  13.497  0.00  0.00     0.064 H 
BRANCH  89  92
ATOM     92  NE  ARG d   1     -11.991 -18.570  13.676  0.00  0.00    -0.227 N 
ATOM     93  CZ  ARG d   1     -13.171 -18.847  14.248  0.00  0.00     0.665 C 
ATOM     94  NH1 ARG d   1     -14.227 -18.024  14.107  0.00  0.00    -0.235 N 
ATOM     95  NH2 ARG d   1     -13.296 -19.971  14.966  0.00  0.00    -0.235 N 
ATOM     96  H41 ARG d   1     -15.125 -18.256  14.555  0.00  0.00     0.174 HD
ATOM     97  H42 ARG d   1     -14.137 -17.162  13.551  0.00  0.00     0.174 HD
ATOM     98  H43 ARG d   1     -12.491 -20.604  15.077  0.00  0.00     0.174 HD
ATOM     99  H44 ARG d   1     -14.197 -20.203  15.408  0.00  0.00     0.174 HD
ATOM    100  H40 ARG d   1     -11.220 -19.235  13.829  0.00  0.00     0.177 HD
ENDBRANCH  89  92
ENDBRANCH  86  89
ENDBRANCH  83  86
ENDBRANCH  19  83
ENDBRANCH  16  19
ENDBRANCH  13  15
BRANCH  13 101
ATOM    101  CB  GLN d   1      -8.816 -18.329   5.997  0.00  0.00    -0.030 C 
ATOM    102  H47 GLN d   1      -8.086 -18.672   5.249  0.00  0.00     0.037 H 
ATOM    103  H48 GLN d   1      -9.020 -17.259   5.847  0.00  0.00     0.037 H 
BRANCH 101 104
ATOM    104  CG  GLN d   1     -10.114 -19.095   5.781  0.00  0.00     0.011 C 
ATOM    105  H49 GLN d   1     -10.344 -19.099   4.705  0.00  0.00     0.047 H 
ATOM    106  H50 GLN d   1     -10.919 -18.581   6.326  0.00  0.00     0.047 H 
BRANCH 104 107
ATOM    107  CD  GLN d   1     -10.043 -20.558   6.274  0.00  0.00     0.215 C 
ATOM    108  OE1 GLN d   1      -8.961 -21.199   6.271  0.00  0.00    -0.274 OA
ATOM    109  NE2 GLN d   1     -11.201 -21.093   6.706  0.00  0.00    -0.370 N 
ATOM    110  H51 GLN d   1     -11.223 -22.036   7.038  0.00  0.00     0.159 HD
ATOM    111  H52 GLN d   1     -12.039 -20.547   6.695  0.00  0.00     0.159 HD
ENDBRANCH 104 107
ENDBRANCH 101 104
ENDBRANCH  13 101
ENDBRANCH  10  13
ENDBRANCH   7   9
BRANCH   7 112
ATOM    112  CB  VAL d   1      -4.770 -15.343   6.270  0.00  0.00    -0.033 C 
ATOM    113  H55 VAL d   1      -5.391 -14.681   6.891  0.00  0.00     0.042 H 
BRANCH 112 114
ATOM    114  CG1 VAL d   1      -3.328 -14.873   6.367  0.00  0.00    -0.071 C 
ATOM    115  H56 VAL d   1      -3.253 -13.841   5.994  0.00  0.00     0.028 H 
ATOM    116  H57 VAL d   1      -2.687 -15.530   5.761  0.00  0.00     0.028 H 
ATOM    117  H58 VAL d   1      -3.001 -14.908   7.417  0.00  0.00     0.028 H 
ENDBRANCH 112 114
BRANCH 112 118
ATOM    118  CG2 VAL d   1      -5.289 -15.299   4.840  0.00  0.00    -0.071 C 
ATOM    119  H59 VAL d   1      -6.332 -15.646   4.818  0.00  0.00     0.028 H 
ATOM    120  H60 VAL d   1      -4.672 -15.952   4.206  0.00  0.00     0.028 H 
ATOM    121  H61 VAL d   1      -5.238 -14.267   4.463  0.00  0.00     0.028 H 
ENDBRANCH 112 118
ENDBRANCH   7 112
ENDBRANCH   4   7
ENDBRANCH   1   3
BRANCH   1 122
ATOM    122  C   GLN d   1      -3.628 -18.159  10.825  0.00  0.00     0.241 C 
ATOM    123  O   GLN d   1      -2.555 -18.658  11.165  0.00  0.00    -0.271 OA
ATOM    124  N   SER d   1      -4.706 -18.888  10.618  0.00  0.00    -0.344 N 
ATOM    125  H70 SER d   1      -5.564 -18.434  10.377  0.00  0.00     0.163 HD
BRANCH 124 126
ATOM    126  CA  SER d   1      -4.677 -20.350  10.733  0.00  0.00     0.109 C 
ATOM    127  H71 SER d   1      -4.455 -20.612  11.778  0.00  0.00     0.090 H 
BRANCH 126 128
ATOM    128  C   SER d   1      -3.590 -20.969   9.847  0.00  0.00     0.243 C 
ATOM    129  O   SER d   1      -2.729 -21.737  10.328  0.00  0.00    -0.271 OA
ATOM    130  N   SER d   1      -3.594 -20.609   8.561  0.00  0.00    -0.344 N 
ATOM    131  H75 SER d   1      -4.257 -19.934   8.238  0.00  0.00     0.163 HD
BRANCH 130 132
ATOM    132  CA  SER d   1      -2.635 -21.195   7.619  0.00  0.00     0.109 C 
ATOM    133  H76 SER d   1      -2.781 -22.285   7.624  0.00  0.00     0.090 H 
BRANCH 132 134
ATOM    134  C   SER d   1      -1.219 -20.903   8.051  0.00  0.00     0.243 C 
ATOM    135  O   SER d   1      -0.402 -21.817   8.038  0.00  0.00    -0.271 OA
ATOM    136  N   ILE d   1      -0.934 -19.646   8.425  0.00  0.00    -0.346 N 
ATOM    137  H80 ILE d   1      -1.645 -18.946   8.354  0.00  0.00     0.163 HD
BRANCH 136 138
ATOM    138  CA  ILE d   1       0.395 -19.265   8.938  0.00  0.00     0.092 C 
ATOM    139  H81 ILE d   1       1.125 -19.371   8.122  0.00  0.00     0.088 H 
BRANCH 138 140
ATOM    140  C   ILE d   1       0.773 -20.194  10.116  0.00  0.00     0.241 C 
ATOM    141  O   ILE d   1       1.901 -20.682  10.188  0.00  0.00    -0.271 OA
ATOM    142  N   SER d   1      -0.169 -20.391  11.049  0.00  0.00    -0.344 N 
ATOM    143  H91 SER d   1      -1.038 -19.903  10.961  0.00  0.00     0.163 HD
BRANCH 142 144
ATOM    144  CA  SER d   1       0.019 -21.300  12.206  0.00  0.00     0.109 C 
ATOM    145  H92 SER d   1       0.828 -20.894  12.831  0.00  0.00     0.090 H 
BRANCH 144 146
ATOM    146  C   SER d   1       0.403 -22.689  11.748  0.00  0.00     0.243 C 
ATOM    147  O   SER d   1       1.386 -23.242  12.233  0.00  0.00    -0.271 OA
ATOM    148  N   ASP d   1      -0.359 -23.241  10.800  0.00  0.00    -0.345 N 
ATOM    149  H96 ASP d   1      -1.166 -22.752  10.469  0.00  0.00     0.163 HD
BRANCH 148 150
ATOM    150  CA  ASP d   1      -0.029 -24.548  10.242  0.00  0.00     0.098 C 
ATOM    151  H97 ASP d   1      -0.170 -25.307  11.025  0.00  0.00     0.088 H 
BRANCH 150 152
ATOM    152  C   ASP d   1       1.412 -24.561   9.817  0.00  0.00     0.241 C 
ATOM    153  O   ASP d   1       2.187 -25.416  10.247  0.00  0.00    -0.271 OA
ATOM    154  N   PHE d   1       1.779 -23.576   9.004  0.00  0.00    -0.346 N 
ATOM    155 0H10 PHE d   1       1.132 -22.845   8.789  0.00  0.00     0.163 HD
BRANCH 154 156
ATOM    156  CA  PHE d   1       3.103 -23.552   8.429  0.00  0.00     0.093 C 
ATOM    157 1H10 PHE d   1       3.202 -24.424   7.766  0.00  0.00     0.088 H 
BRANCH 156 158
ATOM    158  C   PHE d   1       4.166 -23.661   9.516  0.00  0.00     0.241 C 
ATOM    159  O   PHE d   1       5.124 -24.398   9.372  0.00  0.00    -0.271 OA
ATOM    160  N   TYR d   1       4.008 -22.927  10.605  0.00  0.00    -0.346 N 
ATOM    161 9H10 TYR d   1       3.166 -22.404  10.738  0.00  0.00     0.163 HD
BRANCH 160 162
ATOM    162  CA  TYR d   1       5.065 -22.881  11.615  0.00  0.00     0.093 C 
ATOM    163 0H11 TYR d   1       6.005 -23.131  11.102  0.00  0.00     0.088 H 
BRANCH 162 164
ATOM    164  C   TYR d   1       4.884 -23.962  12.704  0.00  0.00     0.241 C 
ATOM    165  O   TYR d   1       4.630 -23.683  13.877  0.00  0.00    -0.271 OA
ATOM    166  N   ASP d   1       5.021 -25.213  12.259  0.00  0.00    -0.344 N 
ATOM    167 8H11 ASP d   1       5.124 -25.353  11.274  0.00  0.00     0.163 HD
BRANCH 166 168
ATOM    168  CA  ASP d   1       5.029 -26.391  13.124  0.00  0.00     0.105 C 
ATOM    169 9H11 ASP d   1       5.031 -26.072  14.177  0.00  0.00     0.090 H 
BRANCH 168 170
ATOM    170  C   ASP d   1       6.283 -27.194  12.826  0.00  0.00     0.197 C 
ATOM    171  O   ASP d   1       7.085 -27.453  13.719  0.00  0.00    -0.646 OA
ATOM    172  OXT ASP d   1       6.512 -27.595  11.688  0.00  0.00    -0.646 OA
ENDBRANCH 168 170
BRANCH 168 173
ATOM    173  CB  ASP d   1       3.803 -27.269  12.864  0.00  0.00     0.044 C 
ATOM    174 0H12 ASP d   1       3.947 -28.234  13.371  0.00  0.00     0.053 H 
ATOM    175 1H12 ASP d   1       3.712 -27.434  11.780  0.00  0.00     0.053 H 
BRANCH 173 176
ATOM    176  CG  ASP d   1       2.512 -26.641  13.371  0.00  0.00     0.175 C 
ATOM    177  OD1 ASP d   1       2.574 -25.839  14.329  0.00  0.00    -0.648 OA
ATOM    178  OD2 ASP d   1       1.432 -26.951  12.816  0.00  0.00    -0.648 OA
ENDBRANCH 173 176
ENDBRANCH 168 173
ENDBRANCH 166 168
ENDBRANCH 162 164
BRANCH 162 179
ATOM    179  CB  TYR d   1       5.230 -21.438  12.136  0.00  0.00    -0.014 C 
ATOM    180 1H11 TYR d   1       5.853 -21.457  13.042  0.00  0.00     0.043 H 
ATOM    181 2H11 TYR d   1       4.237 -21.034  12.382  0.00  0.00     0.043 H 
BRANCH 179 182
ATOM    182  CG  TYR d   1       5.895 -20.522  11.095  0.00  0.00    -0.056 A 
ATOM    183  CD1 TYR d   1       7.134 -20.875  10.551  0.00  0.00    -0.074 A 
ATOM    184  CE1 TYR d   1       7.746 -20.100   9.588  0.00  0.00    -0.051 A 
ATOM    185 3H11 TYR d   1       7.625 -21.779  10.894  0.00  0.00     0.084 H 
ATOM    186  CZ  TYR d   1       7.139 -18.937   9.158  0.00  0.00     0.065 A 
ATOM    187 5H11 TYR d   1       8.700 -20.403   9.171  0.00  0.00     0.087 H 
ATOM    188  CE2 TYR d   1       5.906 -18.535   9.681  0.00  0.00    -0.051 A 
ATOM    189  CD2 TYR d   1       5.281 -19.330  10.633  0.00  0.00    -0.074 A 
ATOM    190 6H11 TYR d   1       5.443 -17.613   9.347  0.00  0.00     0.087 H 
ATOM    191 4H11 TYR d   1       4.315 -19.037  11.027  0.00  0.00     0.084 H 
BRANCH 186 192
ATOM    192  OH  TYR d   1       7.820 -18.214   8.201  0.00  0.00    -0.361 OA
ATOM    193 7H11 TYR d   1       8.631 -18.660   7.986  0.00  0.00     0.217 HD
ENDBRANCH 186 192
ENDBRANCH 179 182
ENDBRANCH 162 179
ENDBRANCH 160 162
ENDBRANCH 156 158
BRANCH 156 194
ATOM    194  CB  PHE d   1       3.317 -22.289   7.586  0.00  0.00    -0.014 C 
ATOM    195 2H10 PHE d   1       3.367 -21.422   8.261  0.00  0.00     0.043 H 
ATOM    196 3H10 PHE d   1       2.462 -22.174   6.904  0.00  0.00     0.043 H 
BRANCH 194 197
ATOM    197  CG  PHE d   1       4.572 -22.331   6.772  0.00  0.00    -0.056 A 
ATOM    198  CD1 PHE d   1       4.587 -22.949   5.532  0.00  0.00    -0.077 A 
ATOM    199  CE1 PHE d   1       5.747 -23.000   4.776  0.00  0.00    -0.082 A 
ATOM    200 4H10 PHE d   1       3.679 -23.399   5.148  0.00  0.00     0.084 H 
ATOM    201  CZ  PHE d   1       6.918 -22.440   5.269  0.00  0.00    -0.083 A 
ATOM    202 6H10 PHE d   1       5.740 -23.476   3.802  0.00  0.00     0.083 H 
ATOM    203  CE2 PHE d   1       6.936 -21.827   6.516  0.00  0.00    -0.082 A 
ATOM    204 8H10 PHE d   1       7.825 -22.481   4.677  0.00  0.00     0.083 H 
ATOM    205  CD2 PHE d   1       5.763 -21.775   7.260  0.00  0.00    -0.077 A 
ATOM    206 7H10 PHE d   1       7.852 -21.395   6.903  0.00  0.00     0.083 H 
ATOM    207 5H10 PHE d   1       5.769 -21.297   8.233  0.00  0.00     0.084 H 
ENDBRANCH 194 197
ENDBRANCH 156 194
ENDBRANCH 154 156
ENDBRANCH 150 152
BRANCH 150 208
ATOM    208  CB  ASP d   1      -0.941 -24.896   9.071  0.00  0.00     0.043 C 
ATOM    209  H98 ASP d   1      -0.548 -25.792   8.568  0.00  0.00     0.052 H 
ATOM    210  H99 ASP d   1      -0.951 -24.053   8.364  0.00  0.00     0.052 H 
BRANCH 208 211
ATOM    211  CG  ASP d   1      -2.347 -25.169   9.522  0.00  0.00     0.175 C 
ATOM    212  OD1 ASP d   1      -2.566 -25.200  10.755  0.00  0.00    -0.648 OA
ATOM    213  OD2 ASP d   1      -3.233 -25.330   8.667  0.00  0.00    -0.648 OA
ENDBRANCH 208 211
ENDBRANCH 150 208
ENDBRANCH 148 150
ENDBRANCH 144 146
BRANCH 144 214
ATOM    214  CB  SER d   1      -1.252 -21.423  13.062  0.00  0.00     0.044 C 
ATOM    215  H93 SER d   1      -1.008 -21.963  13.989  0.00  0.00     0.077 H 
ATOM    216  H94 SER d   1      -2.009 -21.987  12.498  0.00  0.00     0.077 H 
BRANCH 214 217
ATOM    217  OG  SER d   1      -1.779 -20.155  13.395  0.00  0.00    -0.398 OA
ATOM    218  H95 SER d   1      -1.997 -19.685  12.599  0.00  0.00     0.209 HD
ENDBRANCH 214 217
ENDBRANCH 144 214
ENDBRANCH 142 144
ENDBRANCH 138 140
BRANCH 138 219
ATOM    219  CB  ILE d   1       0.472 -17.811   9.509  0.00  0.00    -0.030 C 
ATOM    220  H82 ILE d   1      -0.069 -17.813  10.467  0.00  0.00     0.043 H 
BRANCH 219 221
ATOM    221  CG1 ILE d   1      -0.176 -16.738   8.625  0.00  0.00    -0.063 C 
ATOM    222  H83 ILE d   1      -0.037 -15.762   9.113  0.00  0.00     0.033 H 
ATOM    223  H84 ILE d   1      -1.251 -16.960   8.549  0.00  0.00     0.033 H 
BRANCH 221 224
ATOM    224  CD1 ILE d   1       0.379 -16.650   7.243  0.00  0.00    -0.076 C 
ATOM    225  H88 ILE d   1      -0.144 -15.858   6.688  0.00  0.00     0.027 H 
ATOM    226  H89 ILE d   1       0.238 -17.612   6.729  0.00  0.00     0.027 H 
ATOM    227  H90 ILE d   1       1.452 -16.415   7.293  0.00  0.00     0.027 H 
ENDBRANCH 221 224
ENDBRANCH 219 221
BRANCH 219 228
ATOM    228  CG2 ILE d   1       1.916 -17.426   9.783  0.00  0.00    -0.071 C 
ATOM    229  H85 ILE d   1       2.386 -18.192  10.417  0.00  0.00     0.028 H 
ATOM    230  H86 ILE d   1       1.945 -16.455  10.299  0.00  0.00     0.028 H 
ATOM    231  H87 ILE d   1       2.463 -17.352   8.831  0.00  0.00     0.028 H 
ENDBRANCH 219 228
ENDBRANCH 138 219
ENDBRANCH 136 138
ENDBRANCH 132 134
BRANCH 132 232
ATOM    232  CB  SER d   1      -2.850 -20.696   6.195  0.00  0.00     0.044 C 
ATOM    233  H77 SER d   1      -2.187 -21.251   5.515  0.00  0.00     0.077 H 
ATOM    234  H78 SER d   1      -2.609 -19.624   6.149  0.00  0.00     0.077 H 
BRANCH 232 235
ATOM    235  OG  SER d   1      -4.191 -20.886   5.790  0.00  0.00    -0.398 OA
ATOM    236  H79 SER d   1      -4.768 -20.406   6.372  0.00  0.00     0.209 HD
ENDBRANCH 232 235
ENDBRANCH 132 232
ENDBRANCH 130 132
ENDBRANCH 126 128
BRANCH 126 237
ATOM    237  CB  SER d   1      -6.056 -20.906  10.373  0.00  0.00     0.044 C 
ATOM    238  H72 SER d   1      -6.222 -20.790   9.292  0.00  0.00     0.077 H 
ATOM    239  H73 SER d   1      -6.826 -20.347  10.924  0.00  0.00     0.077 H 
BRANCH 237 240
ATOM    240  OG  SER d   1      -6.143 -22.261  10.708  0.00  0.00    -0.398 OA
ATOM    241  H74 SER d   1      -7.005 -22.588  10.478  0.00  0.00     0.209 HD
ENDBRANCH 237 240
ENDBRANCH 126 237
ENDBRANCH 124 126
ENDBRANCH   1 122
BRANCH   1 242
ATOM    242  CB  GLN d   1      -4.424 -15.864  11.630  0.00  0.00    -0.030 C 
ATOM    243  H64 GLN d   1      -5.210 -16.494  12.073  0.00  0.00     0.037 H 
ATOM    244  H65 GLN d   1      -4.880 -14.966  11.187  0.00  0.00     0.037 H 
BRANCH 242 245
ATOM    245  CG  GLN d   1      -3.491 -15.403  12.771  0.00  0.00     0.011 C 
ATOM    246  H66 GLN d   1      -3.560 -16.147  13.578  0.00  0.00     0.047 H 
ATOM    247  H67 GLN d   1      -3.863 -14.433  13.133  0.00  0.00     0.047 H 
BRANCH 245 248
ATOM    248  CD  GLN d   1      -1.966 -15.226  12.416  0.00  0.00     0.215 C 
ATOM    249  OE1 GLN d   1      -1.200 -16.212  12.301  0.00  0.00    -0.274 OA
ATOM    250  NE2 GLN d   1      -1.519 -13.973  12.316  0.00  0.00    -0.370 N 
ATOM    251  H68 GLN d   1      -0.560 -13.801  12.093  0.00  0.00     0.159 HD
ATOM    252  H69 GLN d   1      -2.143 -13.206  12.464  0.00  0.00     0.159 HD
ENDBRANCH 245 248
ENDBRANCH 242 245
ENDBRANCH   1 242
TORSDOF 71
