REMARK  5 active torsions:
REMARK  status: ('A' for Active; 'I' for Inactive)
REMARK    1  A    between atoms: C1_1  and  O2_3 
REMARK    2  A    between atoms: C2_4  and  C1_1 
REMARK    3  A    between atoms: C1_1  and  P1_7 
REMARK    4  A    between atoms: C1_1  and  P2_8 
REMARK    5  A    between atoms: N_13  and  C2_4 
ROOT
ATOM      1  C2  NI9 d   1      38.584  68.934  84.682  0.00  0.00     0.053 C 
ATOM      2  H   NI9 d   1      38.526  68.885  83.585  0.00  0.00     0.071 H 
ATOM      3  H   NI9 d   1      38.949  69.926  84.986  0.00  0.00     0.071 H 
ENDROOT
BRANCH   1   4
ATOM      4  C1  NI9 d   1      39.593  67.886  85.156  0.00  0.00     0.301 C 
BRANCH   4   5
ATOM      5  O2  NI9 d   1      38.959  66.968  86.045  0.00  0.00    -0.364 OA
ATOM      6  H   NI9 d   1      39.598  66.338  86.357  0.00  0.00     0.212 HD
ENDBRANCH   4   5
BRANCH   4   7
ATOM      7  P1  NI9 d   1      40.897  68.688  86.145  0.00  0.00     0.311 P 
ATOM      8  O4  NI9 d   1      40.474  70.126  86.362  0.00  0.00    -0.637 OA
ATOM      9  O6  NI9 d   1      42.194  68.573  85.370  0.00  0.00    -0.637 OA
ATOM     10  O7  NI9 d   1      40.924  67.868  87.415  0.00  0.00    -0.637 OA
ENDBRANCH   4   7
BRANCH   4  11
ATOM     11  P2  NI9 d   1      40.224  66.936  83.725  0.00  0.00     0.311 P 
ATOM     12  O1  NI9 d   1      41.230  65.958  84.289  0.00  0.00    -0.637 OA
ATOM     13  O3  NI9 d   1      39.000  66.254  83.165  0.00  0.00    -0.637 OA
ATOM     14  O5  NI9 d   1      40.826  67.931  82.760  0.00  0.00    -0.637 OA
ENDBRANCH   4  11
ENDBRANCH   1   4
BRANCH   1  15
ATOM     15  N   NI9 d   1      37.226  68.755  85.225  0.00  0.00    -0.359 N 
ATOM     16  C3  NI9 d   1      36.679  69.728  85.977  0.00  0.00     0.016 A 
ATOM     17  C7  NI9 d   1      35.387  69.591  86.501  0.00  0.00     0.131 A 
ATOM     18  H   NI9 d   1      37.246  70.630  86.180  0.00  0.00     0.116 H 
ATOM     19  F   NI9 d   1      34.850  70.562  87.257  0.00  0.00    -0.205 F 
ATOM     20  C4  NI9 d   1      34.648  68.444  86.237  0.00  0.00    -0.043 A 
ATOM     21  C6  NI9 d   1      35.226  67.451  85.452  0.00  0.00    -0.065 A 
ATOM     22  H   NI9 d   1      33.646  68.326  86.633  0.00  0.00     0.088 H 
ATOM     23  C5  NI9 d   1      36.519  67.638  84.954  0.00  0.00    -0.021 A 
ATOM     24  H   NI9 d   1      34.679  66.542  85.229  0.00  0.00     0.085 H 
ATOM     25  H   NI9 d   1      36.964  66.867  84.335  0.00  0.00     0.111 H 
ENDBRANCH   1  15
TORSDOF 5
