REMARK  19 active torsions:
REMARK  status: ('A' for Active; 'I' for Inactive)
REMARK    1  A    between atoms: C33_2  and  C35_3 
REMARK       I    between atoms: C33_2  and  N32_11 
REMARK    2  A    between atoms: C37_7  and  O41_8 
REMARK    3  A    between atoms: C36_9  and  O42_10 
REMARK    4  A    between atoms: N32_11  and  C31_12 
REMARK    5  A    between atoms: C31_12  and  C30_13 
REMARK    6  A    between atoms: C30_13  and  C29_14 
REMARK    7  A    between atoms: C29_14  and  N14_15 
REMARK       I    between atoms: N14_15  and  C12_16 
REMARK    8  A    between atoms: N14_15  and  C15_32 
REMARK    9  A    between atoms: C12_16  and  C10_18 
REMARK   10  A    between atoms: C9_19  and  C43_20 
REMARK   11  A    between atoms: C7_23  and  C1_24 
REMARK   12  A    between atoms: C6_25  and  O44_26 
REMARK   13  A    between atoms: C5_27  and  O45_28 
REMARK   14  A    between atoms: C15_32  and  C16_33 
REMARK   15  A    between atoms: C16_33  and  C17_34 
REMARK   16  A    between atoms: C17_34  and  N18_35 
REMARK       I    between atoms: N18_35  and  C19_36 
REMARK   17  A    between atoms: C19_36  and  C21_38 
REMARK   18  A    between atoms: C26_39  and  O27_40 
REMARK   19  A    between atoms: C25_41  and  O28_42 
ROOT
ATOM      1  N14 1OD d   1      30.177  78.063  70.184  0.00  0.00    -0.350 N 
ATOM      2  C12 1OD d   1      30.321  76.922  70.881  0.00  0.00     0.247 C 
ATOM      3  O13 1OD d   1      30.136  76.915  72.087  0.00  0.00    -0.271 OA
ENDROOT
BRANCH   1   4
ATOM      4  C29 1OD d   1      30.356  78.180  68.725  0.00  0.00    -0.001 C 
ATOM      5  H11 1OD d   1      31.234  77.585  68.432  0.00  0.00     0.064 H 
ATOM      6  H12 1OD d   1      29.459  77.778  68.230  0.00  0.00     0.064 H 
BRANCH   4   7
ATOM      7  C30 1OD d   1      30.567  79.626  68.252  0.00  0.00    -0.035 C 
ATOM      8  H9  1OD d   1      29.589  80.129  68.213  0.00  0.00     0.037 H 
ATOM      9  H10 1OD d   1      31.215  80.141  68.976  0.00  0.00     0.037 H 
BRANCH   7  10
ATOM     10  C31 1OD d   1      31.217  79.710  66.866  0.00  0.00    -0.003 C 
ATOM     11  H7  1OD d   1      31.793  80.643  66.780  0.00  0.00     0.064 H 
ATOM     12  H8  1OD d   1      31.887  78.851  66.716  0.00  0.00     0.064 H 
BRANCH  10  13
ATOM     13  N32 1OD d   1      30.154  79.690  65.864  0.00  0.00    -0.357 N 
ATOM     14  C33 1OD d   1      30.119  80.283  64.662  0.00  0.00     0.254 C 
ATOM     15  O34 1OD d   1      31.050  80.977  64.274  0.00  0.00    -0.268 OA
ATOM     16  H6  1OD d   1      29.341  79.162  66.108  0.00  0.00     0.162 HD
BRANCH  14  17
ATOM     17  C35 1OD d   1      28.905  80.128  63.774  0.00  0.00     0.067 A 
ATOM     18  C40 1OD d   1      28.559  81.159  62.905  0.00  0.00    -0.065 A 
ATOM     19  C39 1OD d   1      27.437  81.041  62.085  0.00  0.00    -0.079 A 
ATOM     20  H1  1OD d   1      29.164  82.057  62.865  0.00  0.00     0.085 H 
ATOM     21  C38 1OD d   1      26.651  79.898  62.122  0.00  0.00    -0.048 A 
ATOM     22  H2  1OD d   1      27.176  81.850  61.412  0.00  0.00     0.083 H 
ATOM     23  C37 1OD d   1      27.001  78.873  62.985  0.00  0.00     0.099 A 
ATOM     24  H3  1OD d   1      25.778  79.809  61.486  0.00  0.00     0.087 H 
ATOM     25  C36 1OD d   1      28.114  78.987  63.802  0.00  0.00     0.114 A 
BRANCH  23  26
ATOM     26  O41 1OD d   1      26.246  77.743  63.028  0.00  0.00    -0.358 OA
ATOM     27  H4  1OD d   1      26.614  77.141  63.664  0.00  0.00     0.217 HD
ENDBRANCH  23  26
BRANCH  25  28
ATOM     28  O42 1OD d   1      28.415  77.954  64.636  0.00  0.00    -0.357 OA
ATOM     29  H5  1OD d   1      28.569  77.169  64.123  0.00  0.00     0.217 HD
ENDBRANCH  25  28
ENDBRANCH  14  17
ENDBRANCH  10  13
ENDBRANCH   7  10
ENDBRANCH   4   7
ENDBRANCH   1   4
BRANCH   1  30
ATOM     30  C15 1OD d   1      29.809  79.274  70.927  0.00  0.00    -0.001 C 
ATOM     31  H23 1OD d   1      29.924  80.158  70.282  0.00  0.00     0.064 H 
ATOM     32  H24 1OD d   1      30.453  79.379  71.813  0.00  0.00     0.064 H 
BRANCH  30  33
ATOM     33  C16 1OD d   1      28.347  79.133  71.360  0.00  0.00    -0.035 C 
ATOM     34  H25 1OD d   1      28.210  79.656  72.318  0.00  0.00     0.037 H 
ATOM     35  H26 1OD d   1      28.118  78.065  71.489  0.00  0.00     0.037 H 
BRANCH  33  36
ATOM     36  C17 1OD d   1      27.379  79.723  70.335  0.00  0.00    -0.003 C 
ATOM     37  H27 1OD d   1      27.915  80.407  69.660  0.00  0.00     0.064 H 
ATOM     38  H28 1OD d   1      26.573  80.269  70.847  0.00  0.00     0.064 H 
BRANCH  36  39
ATOM     39  N18 1OD d   1      26.824  78.607  69.578  0.00  0.00    -0.357 N 
ATOM     40  C19 1OD d   1      25.567  78.165  69.618  0.00  0.00     0.254 C 
ATOM     41  O20 1OD d   1      24.760  78.670  70.385  0.00  0.00    -0.268 OA
ATOM     42  H29 1OD d   1      27.450  78.124  68.966  0.00  0.00     0.162 HD
BRANCH  40  43
ATOM     43  C21 1OD d   1      25.147  76.992  68.769  0.00  0.00     0.067 A 
ATOM     44  C26 1OD d   1      25.875  76.579  67.660  0.00  0.00     0.114 A 
ATOM     45  C25 1OD d   1      25.476  75.469  66.932  0.00  0.00     0.099 A 
ATOM     46  C24 1OD d   1      24.328  74.772  67.289  0.00  0.00    -0.048 A 
ATOM     47  C23 1OD d   1      23.584  75.187  68.385  0.00  0.00    -0.079 A 
ATOM     48  H32 1OD d   1      24.015  73.908  66.714  0.00  0.00     0.087 H 
ATOM     49  C22 1OD d   1      23.995  76.292  69.120  0.00  0.00    -0.065 A 
ATOM     50  H33 1OD d   1      22.685  74.650  68.666  0.00  0.00     0.083 H 
ATOM     51  H34 1OD d   1      23.413  76.613  69.976  0.00  0.00     0.085 H 
BRANCH  44  52
ATOM     52  O27 1OD d   1      27.001  77.239  67.282  0.00  0.00    -0.357 OA
ATOM     53  H30 1OD d   1      27.367  76.823  66.510  0.00  0.00     0.217 HD
ENDBRANCH  44  52
BRANCH  45  54
ATOM     54  O28 1OD d   1      26.201  75.066  65.848  0.00  0.00    -0.358 OA
ATOM     55  H31 1OD d   1      27.086  74.856  66.121  0.00  0.00     0.217 HD
ENDBRANCH  45  54
ENDBRANCH  40  43
ENDBRANCH  36  39
ENDBRANCH  33  36
ENDBRANCH  30  33
ENDBRANCH   1  30
BRANCH   2  56
ATOM     56  C10 1OD d   1      30.671  75.588  70.268  0.00  0.00     0.137 C 
ATOM     57  C9  1OD d   1      32.181  75.320  70.257  0.00  0.00     0.073 C 
ATOM     58  O8  1OD d   1      32.489  74.750  68.986  0.00  0.00    -0.326 OA
ATOM     59  H14 1OD d   1      32.721  76.270  70.385  0.00  0.00     0.087 H 
ATOM     60  C7  1OD d   1      31.296  74.950  68.195  0.00  0.00     0.174 C 
ATOM     61  N11 1OD d   1      30.328  75.388  68.866  0.00  0.00    -0.249 NA
ATOM     62  H13 1OD d   1      30.162  74.821  70.870  0.00  0.00     0.095 H 
BRANCH  57  63
ATOM     63  C43 1OD d   1      32.612  74.355  71.355  0.00  0.00    -0.049 C 
ATOM     64  H15 1OD d   1      33.700  74.200  71.300  0.00  0.00     0.031 H 
ATOM     65  H16 1OD d   1      32.097  73.392  71.220  0.00  0.00     0.031 H 
ATOM     66  H17 1OD d   1      32.351  74.776  72.337  0.00  0.00     0.031 H 
ENDBRANCH  57  63
BRANCH  60  67
ATOM     67  C1  1OD d   1      31.251  74.662  66.726  0.00  0.00     0.052 A 
ATOM     68  C6  1OD d   1      30.231  75.155  65.927  0.00  0.00     0.113 A 
ATOM     69  C5  1OD d   1      30.201  74.862  64.587  0.00  0.00     0.099 A 
ATOM     70  C4  1OD d   1      31.191  74.069  64.019  0.00  0.00    -0.048 A 
ATOM     71  C3  1OD d   1      32.221  73.571  64.812  0.00  0.00    -0.079 A 
ATOM     72  H20 1OD d   1      31.161  73.839  62.960  0.00  0.00     0.087 H 
ATOM     73  C2  1OD d   1      32.248  73.870  66.170  0.00  0.00    -0.066 A 
ATOM     74  H21 1OD d   1      32.997  72.954  64.374  0.00  0.00     0.083 H 
ATOM     75  H22 1OD d   1      33.046  73.485  66.794  0.00  0.00     0.085 H 
BRANCH  68  76
ATOM     76  O44 1OD d   1      29.234  75.939  66.414  0.00  0.00    -0.357 OA
ATOM     77  H18 1OD d   1      28.640  76.169  65.709  0.00  0.00     0.217 HD
ENDBRANCH  68  76
BRANCH  69  78
ATOM     78  O45 1OD d   1      29.190  75.385  63.842  0.00  0.00    -0.358 OA
ATOM     79  H19 1OD d   1      29.222  76.333  63.888  0.00  0.00     0.217 HD
ENDBRANCH  69  78
ENDBRANCH  60  67
ENDBRANCH   2  56
TORSDOF 19
