REMARK  6 active torsions:
REMARK  status: ('A' for Active; 'I' for Inactive)
REMARK    1  A    between atoms: C5_5  and  C7_7 
REMARK    2  A    between atoms: C10_10  and  N17_16 
REMARK       I    between atoms: N17_16  and  C18_17 
REMARK    3  A    between atoms: C18_17  and  C20_19 
REMARK    4  A    between atoms: C26_25  and  N29_28 
REMARK    5  A    between atoms: N29_28  and  C30_29 
REMARK    6  A    between atoms: C30_29  and  C31_30 
ROOT
ATOM      1  C20 1OC d   1     -38.743  -2.795  -4.111  0.00  0.00     0.099 A 
ATOM      2  C21 1OC d   1     -37.683  -3.314  -4.873  0.00  0.00     0.041 A 
ATOM      3  N22 1OC d   1     -36.616  -3.362  -4.126  0.00  0.00    -0.178 NA
ATOM      4  N23 1OC d   1     -36.914  -2.876  -2.850  0.00  0.00    -0.226 N 
ATOM      5  C24 1OC d   1     -38.237  -2.517  -2.828  0.00  0.00     0.169 A 
ATOM      6  N25 1OC d   1     -38.798  -2.017  -1.723  0.00  0.00    -0.211 NA
ATOM      7  C26 1OC d   1     -38.071  -1.850  -0.629  0.00  0.00     0.127 A 
ATOM      8  C27 1OC d   1     -36.708  -2.210  -0.616  0.00  0.00    -0.022 A 
ATOM      9  C28 1OC d   1     -36.140  -2.720  -1.732  0.00  0.00     0.010 A 
ATOM     10  H10 1OC d   1     -37.743  -3.625  -5.915  0.00  0.00     0.119 H 
ATOM     11  H11 1OC d   1     -36.116  -2.078   0.288  0.00  0.00     0.091 H 
ATOM     12  H12 1OC d   1     -35.088  -3.001  -1.741  0.00  0.00     0.115 H 
ENDROOT
BRANCH   1  13
ATOM     13  C18 1OC d   1     -40.109  -2.585  -4.584  0.00  0.00     0.261 C 
ATOM     14  N17 1OC d   1     -41.052  -2.115  -3.729  0.00  0.00    -0.321 N 
ATOM     15  H9  1OC d   1     -40.778  -1.924  -2.787  0.00  0.00     0.169 HD
ATOM     16  O19 1OC d   1     -40.353  -2.855  -5.750  0.00  0.00    -0.267 OA
BRANCH  14  17
ATOM     17  C10 1OC d   1     -42.393  -1.880  -4.088  0.00  0.00     0.064 A 
ATOM     18  C9  1OC d   1     -43.510  -1.640  -3.159  0.00  0.00     0.039 A 
ATOM     19  C8  1OC d   1     -43.636  -1.573  -1.764  0.00  0.00    -0.055 A 
ATOM     20  C14 1OC d   1     -44.655  -1.457  -3.970  0.00  0.00     0.139 A 
ATOM     21  C7  1OC d   1     -44.909  -1.320  -1.234  0.00  0.00    -0.004 A 
ATOM     22  H5  1OC d   1     -42.778  -1.712  -1.117  0.00  0.00     0.086 H 
ATOM     23  C16 1OC d   1     -45.983  -1.159  -2.113  0.00  0.00     0.015 A 
ATOM     24  N15 1OC d   1     -45.837  -1.222  -3.417  0.00  0.00    -0.242 NA
ATOM     25  H8  1OC d   1     -46.971  -0.976  -1.705  0.00  0.00     0.116 H 
ATOM     26  N12 1OC d   1     -44.261  -1.575  -5.278  0.00  0.00    -0.348 N 
ATOM     27  C11 1OC d   1     -42.908  -1.826  -5.336  0.00  0.00     0.005 A 
ATOM     28  H7  1OC d   1     -44.883  -1.489  -6.094  0.00  0.00     0.167 HD
ATOM     29  H6  1OC d   1     -42.337  -1.961  -6.253  0.00  0.00     0.115 H 
BRANCH  21  30
ATOM     30  C5  1OC d   1     -45.136  -1.232   0.235  0.00  0.00     0.014 A 
ATOM     31  C4  1OC d   1     -46.083  -0.356   0.798  0.00  0.00     0.127 A 
ATOM     32  C3  1OC d   1     -46.250  -0.313   2.173  0.00  0.00    -0.045 A 
ATOM     33  F38 1OC d   1     -46.855   0.463   0.044  0.00  0.00    -0.205 F 
ATOM     34  C2  1OC d   1     -45.494  -1.121   2.998  0.00  0.00    -0.080 A 
ATOM     35  H3  1OC d   1     -46.981   0.361   2.604  0.00  0.00     0.088 H 
ATOM     36  C1  1OC d   1     -44.561  -1.982   2.450  0.00  0.00    -0.082 A 
ATOM     37  H2  1OC d   1     -45.631  -1.081   4.072  0.00  0.00     0.083 H 
ATOM     38  C6  1OC d   1     -44.380  -2.042   1.081  0.00  0.00    -0.069 A 
ATOM     39  H1  1OC d   1     -43.967  -2.615   3.099  0.00  0.00     0.083 H 
ATOM     40  H4  1OC d   1     -43.647  -2.722   0.663  0.00  0.00     0.085 H 
ENDBRANCH  21  30
ENDBRANCH  14  17
ENDBRANCH   1  13
BRANCH   7  41
ATOM     41  N29 1OC d   1     -38.640  -1.328   0.516  0.00  0.00    -0.374 N 
ATOM     42  H13 1OC d   1     -38.059  -0.779   1.166  0.00  0.00     0.161 HD
BRANCH  41  43
ATOM     43  C30 1OC d   1     -40.055  -1.542   0.821  0.00  0.00    -0.000 C 
ATOM     44  H14 1OC d   1     -40.572  -1.978  -0.046  0.00  0.00     0.064 H 
ATOM     45  H15 1OC d   1     -40.536  -0.591   1.095  0.00  0.00     0.064 H 
BRANCH  43  46
ATOM     46  C31 1OC d   1     -40.083  -2.511   2.000  0.00  0.00    -0.006 C 
ATOM     47  C32 1OC d   1     -40.837  -1.907   3.194  0.00  0.00    -0.035 C 
ATOM     48  C33 1OC d   1     -40.768  -2.910   4.340  0.00  0.00     0.082 C 
ATOM     49  H17 1OC d   1     -41.886  -1.722   2.920  0.00  0.00     0.036 H 
ATOM     50  H18 1OC d   1     -40.365  -0.960   3.495  0.00  0.00     0.036 H 
ATOM     51  N34 1OC d   1     -41.452  -4.130   3.910  0.00  0.00    -0.072 N 
ATOM     52  H19 1OC d   1     -41.265  -2.496   5.230  0.00  0.00     0.075 H 
ATOM     53  H20 1OC d   1     -39.718  -3.134   4.578  0.00  0.00     0.075 H 
ATOM     54  C35 1OC d   1     -40.777  -4.767   2.764  0.00  0.00     0.110 C 
ATOM     55  H21 1OC d   1     -42.396  -3.897   3.643  0.00  0.00     0.277 HD
ATOM     56  H22 1OC d   1     -41.471  -4.781   4.679  0.00  0.00     0.277 HD
ATOM     57  C36 1OC d   1     -40.739  -3.821   1.562  0.00  0.00     0.107 C 
ATOM     58  H23 1OC d   1     -41.322  -5.681   2.486  0.00  0.00     0.080 H 
ATOM     59  H24 1OC d   1     -39.748  -5.027   3.051  0.00  0.00     0.080 H 
ATOM     60  F37 1OC d   1     -39.973  -4.388   0.576  0.00  0.00    -0.247 F 
ATOM     61  H25 1OC d   1     -41.758  -3.633   1.192  0.00  0.00     0.094 H 
ATOM     62  H16 1OC d   1     -39.048  -2.719   2.310  0.00  0.00     0.046 H 
ENDBRANCH  43  46
ENDBRANCH  41  43
ENDBRANCH   7  41
TORSDOF 6
