REMARK  23 active torsions:
REMARK  status: ('A' for Active; 'I' for Inactive)
REMARK    1  A    between atoms: CA_6  and  CB_9 
REMARK    2  A    between atoms: CB_9  and  CG_10 
REMARK    3  A    between atoms: CA_23  and  CB_26 
REMARK    4  A    between atoms: CB_26  and  CG_27 
REMARK    5  A    between atoms: CG_27  and  CD_28 
REMARK       I    between atoms: CD_28  and  NE2_30 
REMARK    6  A    between atoms: CA_32  and  CB_35 
REMARK    7  A    between atoms: CB_35  and  CG_36 
REMARK    8  A    between atoms: CG_36  and  CD_37 
REMARK    9  A    between atoms: CD_37  and  NE_38 
REMARK       I    between atoms: NE_38  and  CZ_39 
REMARK       I    between atoms: CZ_39  and  NH1_40 
REMARK       I    between atoms: CZ_39  and  NH2_41 
REMARK   10  A    between atoms: CA_43  and  CB_46 
REMARK   11  A    between atoms: CB_46  and  OG_47 
REMARK   12  A    between atoms: CA_49  and  CB_52 
REMARK   13  A    between atoms: CB_52  and  CG1_53 
REMARK   14  A    between atoms: CB_52  and  CG2_54 
REMARK   15  A    between atoms: CG1_53  and  CD1_55 
REMARK   16  A    between atoms: CA_71  and  CB_74 
REMARK   17  A    between atoms: CB_74  and  CG1_75 
REMARK   18  A    between atoms: CB_74  and  CG2_76 
REMARK   19  A    between atoms: CG1_75  and  CD1_77 
REMARK   20  A    between atoms: CA_85  and  CB_88 
REMARK   21  A    between atoms: CB_88  and  CG_89 
REMARK   22  A    between atoms: CA_103  and  CB_106 
REMARK   23  A    between atoms: CB_106  and  CG_107 
ROOT
ATOM      1  N   GLY d   1      13.329   3.238  -4.365  0.00  0.00    -0.351 N 
ATOM      2  CA  GLY d   1      13.739   1.850  -4.273  0.00  0.00     0.069 C 
ATOM      3  C   GLY d   1      12.574   0.878  -4.302  0.00  0.00     0.236 C 
ATOM      4  O   GLY d   1      12.770  -0.331  -4.169  0.00  0.00    -0.272 OA
ATOM      5  H1  GLY d   1      13.279   3.722  -5.239  0.00  0.00     0.163 HD
ATOM      6  H2  GLY d   1      14.288   1.710  -3.330  0.00  0.00     0.078 H 
ATOM      7  H3  GLY d   1      14.403   1.625  -5.121  0.00  0.00     0.078 H 
ATOM      8  N   PHE d   1      11.359   1.396  -4.471  0.00  0.00    -0.346 N 
ATOM      9  CA  PHE d   1      10.182   0.541  -4.582  0.00  0.00     0.093 C 
ATOM     10  C   PHE d   1       9.919   0.260  -6.056  0.00  0.00     0.241 C 
ATOM     11  O   PHE d   1      10.009   1.169  -6.889  0.00  0.00    -0.271 OA
ATOM     12  N   PHE d   1      10.655   3.389  -8.686  0.00  0.00    -0.346 N 
ATOM     13  CA  PHE d   1      10.557   4.755  -8.197  0.00  0.00     0.093 C 
ATOM     14  C   PHE d   1      11.801   5.107  -7.379  0.00  0.00     0.243 C 
ATOM     15  O   PHE d   1      12.473   4.209  -6.865  0.00  0.00    -0.271 OA
ATOM     16  H4  PHE d   1      11.251   2.389  -4.523  0.00  0.00     0.163 HD
ATOM     17  H5  PHE d   1      10.373  -0.405  -4.055  0.00  0.00     0.088 H 
ATOM     18  H83 PHE d   1      10.858   2.655  -8.038  0.00  0.00     0.163 HD
ATOM     19  H84 PHE d   1      10.501   5.440  -9.056  0.00  0.00     0.088 H 
ATOM     20  N   CYS d   1       9.604  -0.992  -6.386  0.00  0.00    -0.345 N 
ATOM     21  CA  CYS d   1       9.283  -1.359  -7.762  0.00  0.00     0.098 C 
ATOM     22  C   CYS d   1       8.011  -2.169  -7.816  0.00  0.00     0.241 C 
ATOM     23  O   CYS d   1       7.883  -3.165  -7.101  0.00  0.00    -0.271 OA
ATOM     24  CB  CYS d   1      10.386  -2.217  -8.382  0.00  0.00     0.013 C 
ATOM     25  SG  CYS d   1      11.939  -1.404  -8.673  0.00  0.00    -0.095 SA
ATOM     26  N   CYS d   1       9.717   1.289 -11.483  0.00  0.00    -0.345 N 
ATOM     27  CA  CYS d   1      10.491   1.603 -10.289  0.00  0.00     0.098 C 
ATOM     28  C   CYS d   1      10.483   3.088  -9.966  0.00  0.00     0.242 C 
ATOM     29  O   CYS d   1      10.334   3.939 -10.847  0.00  0.00    -0.271 OA
ATOM     30  CB  CYS d   1      11.926   1.081 -10.421  0.00  0.00     0.013 C 
ATOM     31  SG  CYS d   1      12.048  -0.724 -10.594  0.00  0.00    -0.095 SA
ATOM     32  H13 CYS d   1       9.587  -1.696  -5.676  0.00  0.00     0.163 HD
ATOM     33  H14 CYS d   1       9.159  -0.439  -8.353  0.00  0.00     0.088 H 
ATOM     34  H15 CYS d   1      10.017  -2.592  -9.348  0.00  0.00     0.053 H 
ATOM     35  H16 CYS d   1      10.572  -3.065  -7.706  0.00  0.00     0.053 H 
ATOM     36  H79 CYS d   1      10.053   1.586 -12.377  0.00  0.00     0.163 HD
ATOM     37  H80 CYS d   1      10.020   1.080  -9.444  0.00  0.00     0.088 H 
ATOM     38  H81 CYS d   1      12.486   1.380  -9.523  0.00  0.00     0.053 H 
ATOM     39  H82 CYS d   1      12.382   1.544 -11.309  0.00  0.00     0.053 H 
ATOM     40  N   GLN d   1       7.095  -1.750  -8.685  0.00  0.00    -0.346 N 
ATOM     41  CA  GLN d   1       5.946  -2.560  -9.077  0.00  0.00     0.090 C 
ATOM     42  C   GLN d   1       6.439  -3.712  -9.954  0.00  0.00     0.241 C 
ATOM     43  O   GLN d   1       7.187  -3.501 -10.910  0.00  0.00    -0.271 OA
ATOM     44  H17 GLN d   1       7.198  -0.840  -9.087  0.00  0.00     0.163 HD
ATOM     45  H18 GLN d   1       5.473  -2.976  -8.175  0.00  0.00     0.087 H 
ATOM     46  N   ARG d   1       6.024  -4.929  -9.623  0.00  0.00    -0.346 N 
ATOM     47  CA  ARG d   1       6.707  -6.128 -10.111  0.00  0.00     0.089 C 
ATOM     48  C   ARG d   1       6.196  -6.708 -11.446  0.00  0.00     0.241 C 
ATOM     49  O   ARG d   1       6.092  -7.924 -11.626  0.00  0.00    -0.271 OA
ATOM     50  H25 ARG d   1       5.227  -5.029  -9.027  0.00  0.00     0.163 HD
ATOM     51  H26 ARG d   1       7.744  -5.820 -10.312  0.00  0.00     0.087 H 
ATOM     52  N   SER d   1       5.854  -5.822 -12.375  0.00  0.00    -0.344 N 
ATOM     53  CA  SER d   1       5.626  -6.214 -13.757  0.00  0.00     0.109 C 
ATOM     54  C   SER d   1       6.971  -6.501 -14.414  0.00  0.00     0.243 C 
ATOM     55  O   SER d   1       8.021  -6.311 -13.803  0.00  0.00    -0.271 OA
ATOM     56  H38 SER d   1       5.751  -4.861 -12.118  0.00  0.00     0.163 HD
ATOM     57  H39 SER d   1       5.013  -7.127 -13.778  0.00  0.00     0.090 H 
ATOM     58  N   ILE d   1       6.954  -6.974 -15.653  0.00  0.00    -0.346 N 
ATOM     59  CA  ILE d   1       8.195  -7.081 -16.407  0.00  0.00     0.092 C 
ATOM     60  C   ILE d   1       8.010  -6.439 -17.786  0.00  0.00     0.243 C 
ATOM     61  O   ILE d   1       7.161  -6.865 -18.567  0.00  0.00    -0.271 OA
ATOM     62  N   ILE d   1       8.100  -1.243 -12.826  0.00  0.00    -0.346 N 
ATOM     63  CA  ILE d   1       7.948   0.199 -12.731  0.00  0.00     0.092 C 
ATOM     64  C   ILE d   1       8.573   0.616 -11.408  0.00  0.00     0.241 C 
ATOM     65  O   ILE d   1       8.039   0.312 -10.339  0.00  0.00    -0.271 OA
ATOM     66  H43 ILE d   1       6.090  -7.257 -16.069  0.00  0.00     0.163 HD
ATOM     67  H44 ILE d   1       8.945  -6.474 -15.879  0.00  0.00     0.088 H 
ATOM     68  H68 ILE d   1       7.583  -1.829 -12.202  0.00  0.00     0.163 HD
ATOM     69  H69 ILE d   1       8.480   0.682 -13.564  0.00  0.00     0.088 H 
ATOM     70  N   PRO d   1       8.752  -5.349 -18.057  0.00  0.00    -0.337 N 
ATOM     71  CA  PRO d   1       9.687  -4.670 -17.150  0.00  0.00     0.092 C 
ATOM     72  C   PRO d   1       8.969  -4.010 -15.972  0.00  0.00     0.243 C 
ATOM     73  O   PRO d   1       7.785  -3.676 -16.065  0.00  0.00    -0.271 OA
ATOM     74  CB  PRO d   1      10.339  -3.613 -18.047  0.00  0.00    -0.036 C 
ATOM     75  CG  PRO d   1       9.321  -3.339 -19.096  0.00  0.00    -0.048 C 
ATOM     76  CD  PRO d   1       8.617  -4.641 -19.341  0.00  0.00    -0.001 C 
ATOM     77  N   PRO d   1       9.671  -3.866 -14.843  0.00  0.00    -0.337 N 
ATOM     78  CA  PRO d   1       9.051  -3.313 -13.638  0.00  0.00     0.091 C 
ATOM     79  C   PRO d   1       8.908  -1.802 -13.720  0.00  0.00     0.241 C 
ATOM     80  O   PRO d   1       9.519  -1.162 -14.578  0.00  0.00    -0.271 OA
ATOM     81  CB  PRO d   1      10.048  -3.688 -12.539  0.00  0.00    -0.036 C 
ATOM     82  CG  PRO d   1      11.366  -3.709 -13.242  0.00  0.00    -0.048 C 
ATOM     83  CD  PRO d   1      11.075  -4.251 -14.618  0.00  0.00    -0.001 C 
ATOM     84  N   PRO d   1      12.118   6.412  -7.264  0.00  0.00    -0.337 N 
ATOM     85  CA  PRO d   1      13.329   6.902  -6.589  0.00  0.00     0.091 C 
ATOM     86  C   PRO d   1      13.562   6.318  -5.194  0.00  0.00     0.241 C 
ATOM     87  O   PRO d   1      14.707   6.283  -4.737  0.00  0.00    -0.271 OA
ATOM     88  CB  PRO d   1      13.075   8.408  -6.479  0.00  0.00    -0.036 C 
ATOM     89  CG  PRO d   1      12.217   8.720  -7.642  0.00  0.00    -0.048 C 
ATOM     90  CD  PRO d   1      11.331   7.520  -7.837  0.00  0.00    -0.001 C 
ATOM     91  H54 PRO d   1      10.437  -5.377 -16.766  0.00  0.00     0.087 H 
ATOM     92  H55 PRO d   1      11.265  -4.001 -18.496  0.00  0.00     0.036 H 
ATOM     93  H56 PRO d   1      10.563  -2.701 -17.474  0.00  0.00     0.036 H 
ATOM     94  H57 PRO d   1       9.807  -2.989 -20.018  0.00  0.00     0.035 H 
ATOM     95  H58 PRO d   1       8.607  -2.579 -18.746  0.00  0.00     0.035 H 
ATOM     96  H59 PRO d   1       7.558  -4.475 -19.590  0.00  0.00     0.064 H 
ATOM     97  H60 PRO d   1       9.101  -5.203 -20.153  0.00  0.00     0.064 H 
ATOM     98  H61 PRO d   1       8.066  -3.768 -13.457  0.00  0.00     0.087 H 
ATOM     99  H62 PRO d   1       9.813  -4.677 -12.118  0.00  0.00     0.036 H 
ATOM    100  H63 PRO d   1      10.045  -2.937 -11.735  0.00  0.00     0.036 H 
ATOM    101  H64 PRO d   1      12.075  -4.363 -12.713  0.00  0.00     0.035 H 
ATOM    102  H65 PRO d   1      11.783  -2.693 -13.308  0.00  0.00     0.035 H 
ATOM    103  H66 PRO d   1      11.735  -3.793 -15.370  0.00  0.00     0.064 H 
ATOM    104  H67 PRO d   1      11.193  -5.344 -14.644  0.00  0.00     0.064 H 
ATOM    105  H92 PRO d   1      14.214   6.696  -7.209  0.00  0.00     0.087 H 
ATOM    106  H93 PRO d   1      14.021   8.967  -6.531  0.00  0.00     0.036 H 
ATOM    107  H94 PRO d   1      12.558   8.648  -5.538  0.00  0.00     0.036 H 
ATOM    108  H95 PRO d   1      12.833   8.890  -8.537  0.00  0.00     0.035 H 
ATOM    109  H96 PRO d   1      11.610   9.615  -7.440  0.00  0.00     0.035 H 
ATOM    110  H97 PRO d   1      10.379   7.644  -7.301  0.00  0.00     0.064 H 
ATOM    111  H98 PRO d   1      11.131   7.349  -8.905  0.00  0.00     0.064 H 
ATOM    112  N   ASP d   1      12.500   5.872  -4.529  0.00  0.00    -0.346 N 
ATOM    113  CA  ASP d   1      12.624   5.316  -3.181  0.00  0.00     0.098 C 
ATOM    114  C   ASP d   1      13.016   3.840  -3.183  0.00  0.00     0.241 C 
ATOM    115  O   ASP d   1      13.218   3.241  -2.126  0.00  0.00    -0.271 OA
ATOM    116  H99 ASP d   1      11.598   5.918  -4.959  0.00  0.00     0.163 HD
ATOM    117 0H10 ASP d   1      13.426   5.870  -2.671  0.00  0.00     0.088 H 
ENDROOT
BRANCH  47 118
ATOM    118  CB  ARG d   1       6.776  -7.165  -8.985  0.00  0.00    -0.036 C 
ATOM    119  H27 ARG d   1       7.061  -8.138  -9.411  0.00  0.00     0.036 H 
ATOM    120  H28 ARG d   1       5.786  -7.247  -8.512  0.00  0.00     0.036 H 
BRANCH 118 121
ATOM    121  CG  ARG d   1       7.797  -6.766  -7.932  0.00  0.00    -0.048 C 
ATOM    122  H29 ARG d   1       7.614  -5.717  -7.655  0.00  0.00     0.035 H 
ATOM    123  H30 ARG d   1       8.801  -6.860  -8.373  0.00  0.00     0.035 H 
BRANCH 121 124
ATOM    124  CD  ARG d   1       7.753  -7.599  -6.678  0.00  0.00     0.009 C 
ATOM    125  H31 ARG d   1       7.789  -8.667  -6.940  0.00  0.00     0.064 H 
ATOM    126  H32 ARG d   1       6.826  -7.388  -6.125  0.00  0.00     0.064 H 
BRANCH 124 127
ATOM    127  NE  ARG d   1       8.906  -7.255  -5.855  0.00  0.00    -0.227 N 
ATOM    128  CZ  ARG d   1       9.197  -7.798  -4.680  0.00  0.00     0.665 C 
ATOM    129  NH1 ARG d   1       8.412  -8.729  -4.162  0.00  0.00    -0.235 N 
ATOM    130  NH2 ARG d   1      10.279  -7.402  -4.025  0.00  0.00    -0.235 N 
ATOM    131  H34 ARG d   1       8.642  -9.148  -3.249  0.00  0.00     0.174 HD
ATOM    132  H35 ARG d   1       7.571  -9.035  -4.671  0.00  0.00     0.174 HD
ATOM    133  H36 ARG d   1      10.889  -6.677  -4.429  0.00  0.00     0.174 HD
ATOM    134  H37 ARG d   1      10.510  -7.819  -3.112  0.00  0.00     0.174 HD
ATOM    135  H33 ARG d   1       9.546  -6.532  -6.215  0.00  0.00     0.177 HD
ENDBRANCH 124 127
ENDBRANCH 121 124
ENDBRANCH 118 121
ENDBRANCH  47 118
BRANCH  41 136
ATOM    136  CB  GLN d   1       4.919  -1.700  -9.813  0.00  0.00    -0.030 C 
ATOM    137  H19 GLN d   1       4.143  -2.359 -10.229  0.00  0.00     0.037 H 
ATOM    138  H20 GLN d   1       5.428  -1.170 -10.632  0.00  0.00     0.037 H 
BRANCH 136 139
ATOM    139  CG  GLN d   1       4.248  -0.670  -8.909  0.00  0.00     0.011 C 
ATOM    140  H21 GLN d   1       5.030  -0.098  -8.387  0.00  0.00     0.047 H 
ATOM    141  H22 GLN d   1       3.628  -1.201  -8.171  0.00  0.00     0.047 H 
BRANCH 139 142
ATOM    142  CD  GLN d   1       3.369   0.298  -9.672  0.00  0.00     0.215 C 
ATOM    143  OE1 GLN d   1       3.757   0.802 -10.730  0.00  0.00    -0.274 OA
ATOM    144  NE2 GLN d   1       2.167   0.550  -9.151  0.00  0.00    -0.370 N 
ATOM    145  H23 GLN d   1       1.544   1.182  -9.613  0.00  0.00     0.159 HD
ATOM    146  H24 GLN d   1       1.889   0.107  -8.299  0.00  0.00     0.159 HD
ENDBRANCH 139 142
ENDBRANCH 136 139
ENDBRANCH  41 136
BRANCH  53 147
ATOM    147  CB  SER d   1       4.881  -5.102 -14.504  0.00  0.00     0.044 C 
ATOM    148  H40 SER d   1       3.866  -5.008 -14.089  0.00  0.00     0.077 H 
ATOM    149  H41 SER d   1       4.818  -5.365 -15.570  0.00  0.00     0.077 H 
BRANCH 147 150
ATOM    150  OG  SER d   1       5.551  -3.859 -14.373  0.00  0.00    -0.398 OA
ATOM    151  H42 SER d   1       6.427  -3.933 -14.733  0.00  0.00     0.209 HD
ENDBRANCH 147 150
ENDBRANCH  53 147
BRANCH  59 152
ATOM    152  CB  ILE d   1       8.761  -8.541 -16.426  0.00  0.00    -0.030 C 
ATOM    153  H45 ILE d   1       8.683  -8.927 -15.399  0.00  0.00     0.043 H 
BRANCH 152 154
ATOM    154  CG1 ILE d   1      10.252  -8.535 -16.774  0.00  0.00    -0.063 C 
ATOM    155  H46 ILE d   1      10.603  -7.492 -16.782  0.00  0.00     0.033 H 
ATOM    156  H47 ILE d   1      10.377  -8.972 -17.776  0.00  0.00     0.033 H 
BRANCH 154 157
ATOM    157  CD1 ILE d   1      11.109  -9.321 -15.798  0.00  0.00    -0.076 C 
ATOM    158  H51 ILE d   1      12.162  -9.271 -16.112  0.00  0.00     0.027 H 
ATOM    159  H52 ILE d   1      10.780 -10.371 -15.784  0.00  0.00     0.027 H 
ATOM    160  H53 ILE d   1      11.006  -8.891 -14.791  0.00  0.00     0.027 H 
ENDBRANCH 154 157
ENDBRANCH 152 154
BRANCH 152 161
ATOM    161  CG2 ILE d   1       7.912  -9.478 -17.299  0.00  0.00    -0.071 C 
ATOM    162  H48 ILE d   1       6.860  -9.421 -16.983  0.00  0.00     0.028 H 
ATOM    163  H49 ILE d   1       8.273 -10.511 -17.186  0.00  0.00     0.028 H 
ATOM    164  H50 ILE d   1       7.995  -9.173 -18.353  0.00  0.00     0.028 H 
ENDBRANCH 152 161
ENDBRANCH  59 152
BRANCH   9 165
ATOM    165  CB  PHE d   1       8.947   1.214  -3.972  0.00  0.00    -0.014 C 
ATOM    166  H6  PHE d   1       8.075   0.573  -4.165  0.00  0.00     0.043 H 
ATOM    167  H7  PHE d   1       8.805   2.186  -4.467  0.00  0.00     0.043 H 
BRANCH 165 168
ATOM    168  CG  PHE d   1       9.038   1.451  -2.486  0.00  0.00    -0.056 A 
ATOM    169  CD1 PHE d   1      10.064   0.897  -1.731  0.00  0.00    -0.077 A 
ATOM    170  CE1 PHE d   1      10.142   1.120  -0.367  0.00  0.00    -0.082 A 
ATOM    171  H8  PHE d   1      10.813   0.282  -2.216  0.00  0.00     0.084 H 
ATOM    172  CZ  PHE d   1       9.183   1.894   0.261  0.00  0.00    -0.083 A 
ATOM    173  H10 PHE d   1      10.953   0.689   0.208  0.00  0.00     0.083 H 
ATOM    174  CE2 PHE d   1       8.152   2.440  -0.475  0.00  0.00    -0.082 A 
ATOM    175  H12 PHE d   1       9.242   2.071   1.329  0.00  0.00     0.083 H 
ATOM    176  CD2 PHE d   1       8.081   2.216  -1.841  0.00  0.00    -0.077 A 
ATOM    177  H11 PHE d   1       7.397   3.044   0.015  0.00  0.00     0.083 H 
ATOM    178  H9  PHE d   1       7.266   2.645  -2.412  0.00  0.00     0.084 H 
ENDBRANCH 165 168
ENDBRANCH   9 165
BRANCH  63 179
ATOM    179  CB  ILE d   1       6.467   0.612 -12.780  0.00  0.00    -0.030 C 
ATOM    180  H70 ILE d   1       5.976   0.247 -11.866  0.00  0.00     0.043 H 
BRANCH 179 181
ATOM    181  CG1 ILE d   1       5.773  -0.035 -13.984  0.00  0.00    -0.063 C 
ATOM    182  H71 ILE d   1       6.075  -1.092 -14.031  0.00  0.00     0.033 H 
ATOM    183  H72 ILE d   1       6.106   0.483 -14.896  0.00  0.00     0.033 H 
BRANCH 181 184
ATOM    184  CD1 ILE d   1       4.259   0.027 -13.926  0.00  0.00    -0.076 C 
ATOM    185  H76 ILE d   1       3.838  -0.456 -14.820  0.00  0.00     0.027 H 
ATOM    186  H77 ILE d   1       3.936   1.078 -13.890  0.00  0.00     0.027 H 
ATOM    187  H78 ILE d   1       3.905  -0.496 -13.026  0.00  0.00     0.027 H 
ENDBRANCH 181 184
ENDBRANCH 179 181
BRANCH 179 188
ATOM    188  CG2 ILE d   1       6.337   2.127 -12.812  0.00  0.00    -0.071 C 
ATOM    189  H73 ILE d   1       6.845   2.557 -11.936  0.00  0.00     0.028 H 
ATOM    190  H74 ILE d   1       5.273   2.404 -12.791  0.00  0.00     0.028 H 
ATOM    191  H75 ILE d   1       6.800   2.515 -13.731  0.00  0.00     0.028 H 
ENDBRANCH 179 188
ENDBRANCH  63 179
BRANCH  13 192
ATOM    192  CB  PHE d   1       9.273   4.898  -7.375  0.00  0.00    -0.014 C 
ATOM    193  H85 PHE d   1       9.200   5.937  -7.021  0.00  0.00     0.043 H 
ATOM    194  H86 PHE d   1       9.335   4.219  -6.512  0.00  0.00     0.043 H 
BRANCH 192 195
ATOM    195  CG  PHE d   1       8.026   4.571  -8.149  0.00  0.00    -0.056 A 
ATOM    196  CD1 PHE d   1       7.557   3.270  -8.214  0.00  0.00    -0.077 A 
ATOM    197  CE1 PHE d   1       6.414   2.963  -8.933  0.00  0.00    -0.082 A 
ATOM    198  H87 PHE d   1       8.091   2.482  -7.696  0.00  0.00     0.084 H 
ATOM    199  CZ  PHE d   1       5.725   3.964  -9.595  0.00  0.00    -0.083 A 
ATOM    200  H89 PHE d   1       6.059   1.940  -8.977  0.00  0.00     0.083 H 
ATOM    201  CE2 PHE d   1       6.186   5.267  -9.542  0.00  0.00    -0.082 A 
ATOM    202  H91 PHE d   1       4.827   3.728 -10.153  0.00  0.00     0.083 H 
ATOM    203  CD2 PHE d   1       7.331   5.566  -8.822  0.00  0.00    -0.077 A 
ATOM    204  H90 PHE d   1       5.652   6.053 -10.063  0.00  0.00     0.083 H 
ATOM    205  H88 PHE d   1       7.688   6.589  -8.784  0.00  0.00     0.084 H 
ENDBRANCH 192 195
ENDBRANCH  13 192
BRANCH 113 206
ATOM    206  CB  ASP d   1      11.331   5.519  -2.381  0.00  0.00     0.043 C 
ATOM    207 1H10 ASP d   1      11.195   6.596  -2.200  0.00  0.00     0.052 H 
ATOM    208 2H10 ASP d   1      11.428   4.995  -1.419  0.00  0.00     0.052 H 
BRANCH 206 209
ATOM    209  CG  ASP d   1      10.101   4.989  -3.101  0.00  0.00     0.175 C 
ATOM    210  OD1 ASP d   1      10.250   4.190  -4.051  0.00  0.00    -0.648 OA
ATOM    211  OD2 ASP d   1       8.978   5.371  -2.709  0.00  0.00    -0.648 OA
ENDBRANCH 206 209
ENDBRANCH 113 206
TORSDOF 23
