REMARK  2 active torsions:
REMARK  status: ('A' for Active; 'I' for Inactive)
REMARK    1  A    between atoms: C4_5  and  C7_8 
REMARK    2  A    between atoms: C7_8  and  C8_9 
ROOT
ATOM      1  C7  A08 d   1      37.238  49.212  55.442  0.00  0.00     0.097 C 
ATOM      2  C16 A08 d   1      38.569  49.765  55.834  0.00  0.00     0.075 C 
ATOM      3  N17 A08 d   1      39.617  50.172  56.142  0.00  0.00    -0.196 NA
ATOM      4  H   A08 d   1      37.345  48.768  54.441  0.00  0.00     0.080 H 
ENDROOT
BRANCH   1   5
ATOM      5  C4  A08 d   1      36.730  48.160  56.367  0.00  0.00    -0.035 A 
ATOM      6  C3  A08 d   1      35.725  48.399  57.316  0.00  0.00    -0.074 A 
ATOM      7  C2  A08 d   1      35.279  47.346  58.201  0.00  0.00    -0.061 A 
ATOM      8  H   A08 d   1      35.278  49.384  57.387  0.00  0.00     0.084 H 
ATOM      9  C1  A08 d   1      35.874  46.109  57.977  0.00  0.00     0.034 A 
ATOM     10  H   A08 d   1      34.540  47.508  58.977  0.00  0.00     0.086 H 
ATOM     11 CL1  A08 d   1      35.493  44.644  58.917  0.00  0.00    -0.084 Cl
ATOM     12  C6  A08 d   1      36.904  45.898  57.037  0.00  0.00    -0.061 A 
ATOM     13  C5  A08 d   1      37.321  46.912  56.205  0.00  0.00    -0.074 A 
ATOM     14  H   A08 d   1      37.374  44.923  56.969  0.00  0.00     0.086 H 
ATOM     15  H   A08 d   1      38.082  46.744  55.452  0.00  0.00     0.084 H 
ENDBRANCH   1   5
BRANCH   1  16
ATOM     16  C8  A08 d   1      36.212  50.281  55.383  0.00  0.00     0.058 A 
ATOM     17  C9  A08 d   1      35.251  50.114  54.408  0.00  0.00    -0.057 A 
ATOM     18  C10 A08 d   1      34.250  50.989  54.162  0.00  0.00    -0.078 A 
ATOM     19  H   A08 d   1      35.302  49.220  53.797  0.00  0.00     0.086 H 
ATOM     20  C11 A08 d   1      34.247  52.047  54.987  0.00  0.00    -0.044 A 
ATOM     21  H   A08 d   1      33.520  50.849  53.373  0.00  0.00     0.083 H 
ATOM     22  C12 A08 d   1      35.235  52.115  55.933  0.00  0.00     0.126 A 
ATOM     23  H   A08 d   1      33.491  52.819  54.908  0.00  0.00     0.088 H 
ATOM     24  N14 A08 d   1      36.249  51.316  56.211  0.00  0.00    -0.240 NA
ATOM     25 CL2  A08 d   1      35.007  53.486  56.846  0.00  0.00    -0.062 Cl
ENDBRANCH   1  16
TORSDOF 2
