REMARK  3 active torsions:
REMARK  status: ('A' for Active; 'I' for Inactive)
REMARK    1  A    between atoms: C14_2  and  C10_5 
REMARK    2  A    between atoms: C9_10  and  C7_11 
REMARK    3  A    between atoms: C7_11  and  C4_14 
ROOT
ATOM      1  C7  1OQ d   1      36.928  48.475  55.270  0.00  0.00     0.097 C 
ATOM      2  C8  1OQ d   1      38.180  49.155  55.631  0.00  0.00     0.075 C 
ATOM      3  N1  1OQ d   1      39.157  49.707  55.878  0.00  0.00    -0.196 NA
ATOM      4  H   1OQ d   1      37.120  47.901  54.352  0.00  0.00     0.080 H 
ENDROOT
BRANCH   1   5
ATOM      5  C9  1OQ d   1      35.866  49.477  54.931  0.00  0.00     0.057 A 
ATOM      6  N2  1OQ d   1      35.776  50.611  55.613  0.00  0.00    -0.247 NA
ATOM      7  C10 1OQ d   1      34.856  51.569  55.322  0.00  0.00     0.140 A 
ATOM      8  C11 1OQ d   1      33.939  51.454  54.292  0.00  0.00    -0.050 A 
ATOM      9  C12 1OQ d   1      34.011  50.247  53.570  0.00  0.00    -0.079 A 
ATOM     10  H   1OQ d   1      33.221  52.232  54.059  0.00  0.00     0.087 H 
ATOM     11  C13 1OQ d   1      34.975  49.286  53.872  0.00  0.00    -0.057 A 
ATOM     12  H   1OQ d   1      33.306  50.062  52.767  0.00  0.00     0.083 H 
ATOM     13  H   1OQ d   1      35.034  48.381  53.279  0.00  0.00     0.086 H 
BRANCH   7  14
ATOM     14  C14 1OQ d   1      34.889  52.793  56.166  0.00  0.00     0.434 C 
ATOM     15  F4  1OQ d   1      34.688  53.874  55.466  0.00  0.00    -0.165 F 
ATOM     16  F2  1OQ d   1      36.087  52.872  56.695  0.00  0.00    -0.165 F 
ATOM     17  F3  1OQ d   1      34.019  52.719  57.131  0.00  0.00    -0.165 F 
ENDBRANCH   7  14
ENDBRANCH   1   5
BRANCH   1  18
ATOM     18  C4  1OQ d   1      36.546  47.483  56.317  0.00  0.00    -0.035 A 
ATOM     19  C3  1OQ d   1      35.699  47.824  57.372  0.00  0.00    -0.072 A 
ATOM     20  C2  1OQ d   1      35.354  46.844  58.310  0.00  0.00    -0.045 A 
ATOM     21  H   1OQ d   1      35.314  48.833  57.464  0.00  0.00     0.084 H 
ATOM     22  C1  1OQ d   1      35.877  45.550  58.191  0.00  0.00     0.116 A 
ATOM     23  H   1OQ d   1      34.684  47.086  59.127  0.00  0.00     0.088 H 
ATOM     24  C6  1OQ d   1      36.775  45.223  57.147  0.00  0.00    -0.045 A 
ATOM     25  F1  1OQ d   1      35.570  44.602  59.104  0.00  0.00    -0.206 F 
ATOM     26  C5  1OQ d   1      37.104  46.197  56.220  0.00  0.00    -0.072 A 
ATOM     27  H   1OQ d   1      37.198  44.227  57.075  0.00  0.00     0.088 H 
ATOM     28  H   1OQ d   1      37.794  45.967  55.417  0.00  0.00     0.084 H 
ENDBRANCH   1  18
TORSDOF 3
