REMARK  0 active torsions:
REMARK  status: ('A' for Active; 'I' for Inactive)
ROOT
ATOM      1  C10 ES2 d   1      62.091  60.940  -1.704  0.00  0.00     0.043 A 
ATOM      2 CL01 ES2 d   1      64.061  63.051  -4.463  0.00  0.00    -0.084 Cl
ATOM      3  C02 ES2 d   1      63.456  61.742  -3.497  0.00  0.00     0.036 A 
ATOM      4  C03 ES2 d   1      63.881  60.455  -3.774  0.00  0.00    -0.061 A 
ATOM      5  C04 ES2 d   1      63.410  59.405  -3.019  0.00  0.00    -0.073 A 
ATOM      6  C05 ES2 d   1      62.524  59.648  -2.000  0.00  0.00    -0.022 A 
ATOM      7  C06 ES2 d   1      61.842  58.734  -1.012  0.00  0.00     0.035 A 
ATOM      8  C07 ES2 d   1      61.003  59.666  -0.169  0.00  0.00     0.226 A 
ATOM      9  O08 ES2 d   1      60.297  59.335   0.753  0.00  0.00    -0.273 OA
ATOM     10  N09 ES2 d   1      61.199  60.919  -0.627  0.00  0.00    -0.326 N 
ATOM     11  C11 ES2 d   1      62.569  62.001  -2.469  0.00  0.00    -0.036 A 
ATOM     12  H1  ES2 d   1      64.581  60.274  -4.582  0.00  0.00     0.086 H 
ATOM     13  H2  ES2 d   1      63.737  58.393  -3.228  0.00  0.00     0.084 H 
ATOM     14  H3  ES2 d   1      62.582  58.206  -0.393  0.00  0.00     0.054 H 
ATOM     15  H4  ES2 d   1      61.209  58.000  -1.532  0.00  0.00     0.054 H 
ATOM     16  H5  ES2 d   1      60.761  61.732  -0.244  0.00  0.00     0.169 HD
ATOM     17  H6  ES2 d   1      62.250  63.016  -2.261  0.00  0.00     0.089 H 
ENDROOT
TORSDOF 0
