REMARK  9 active torsions:
REMARK  status: ('A' for Active; 'I' for Inactive)
REMARK    1  A    between atoms: CAR_1  and  CAQ_2 
REMARK    2  A    between atoms: CAQ_2  and  CAS_3 
REMARK    3  A    between atoms: CAQ_2  and  CAP_4 
REMARK    4  A    between atoms: CAP_4  and  CAO_5 
REMARK    5  A    between atoms: CAO_5  and  CAM_6 
REMARK       I    between atoms: CAM_6  and  N_8 
REMARK    6  A    between atoms: N_8  and  CA_9 
REMARK    7  A    between atoms: CA_9  and  C_10 
REMARK    8  A    between atoms: CA_9  and  CB_13 
REMARK    9  A    between atoms: CB_13  and  CG_14 
ROOT
ATOM      1  CAM SFK d   1     -24.929   1.057 -24.994  0.00  0.00     0.218 C 
ATOM      2  OAN SFK d   1     -24.999   0.409 -26.034  0.00  0.00    -0.274 OA
ATOM      3  N   SFK d   1     -25.843   0.998 -24.012  0.00  0.00    -0.346 N 
ATOM      4  H12 SFK d   1     -25.695   1.533 -23.180  0.00  0.00     0.163 HD
ENDROOT
BRANCH   3   5
ATOM      5  CA  SFK d   1     -27.060   0.169 -24.120  0.00  0.00     0.100 C 
ATOM      6  H13 SFK d   1     -27.338   0.100 -25.182  0.00  0.00     0.090 H 
BRANCH   5   7
ATOM      7  C   SFK d   1     -28.188   0.864 -23.358  0.00  0.00     0.197 C 
ATOM      8  O   SFK d   1     -29.301   0.299 -23.357  0.00  0.00    -0.646 OA
ATOM      9  OXT SFK d   1     -27.900   1.923 -22.759  0.00  0.00    -0.646 OA
ENDBRANCH   5   7
BRANCH   5  10
ATOM     10  CB  SFK d   1     -26.864  -1.254 -23.590  0.00  0.00    -0.013 C 
ATOM     11  H14 SFK d   1     -26.249  -1.827 -24.300  0.00  0.00     0.043 H 
ATOM     12  H15 SFK d   1     -27.844  -1.741 -23.478  0.00  0.00     0.043 H 
BRANCH  10  13
ATOM     13  CG  SFK d   1     -26.211  -1.211 -22.326  0.00  0.00    -0.056 A 
ATOM     14  CD1 SFK d   1     -26.946  -1.073 -21.142  0.00  0.00    -0.077 A 
ATOM     15  CE1 SFK d   1     -26.312  -1.055 -19.902  0.00  0.00    -0.082 A 
ATOM     16  H16 SFK d   1     -28.025  -0.979 -21.191  0.00  0.00     0.084 H 
ATOM     17  CZ  SFK d   1     -24.928  -1.169 -19.832  0.00  0.00    -0.083 A 
ATOM     18  H17 SFK d   1     -26.896  -0.952 -18.994  0.00  0.00     0.083 H 
ATOM     19  CE2 SFK d   1     -24.183  -1.312 -21.001  0.00  0.00    -0.082 A 
ATOM     20  H18 SFK d   1     -24.429  -1.147 -18.870  0.00  0.00     0.083 H 
ATOM     21  CD2 SFK d   1     -24.822  -1.342 -22.241  0.00  0.00    -0.077 A 
ATOM     22  H19 SFK d   1     -23.104  -1.400 -20.947  0.00  0.00     0.083 H 
ATOM     23  H20 SFK d   1     -24.237  -1.468 -23.145  0.00  0.00     0.084 H 
ENDBRANCH  10  13
ENDBRANCH   5  10
ENDBRANCH   3   5
BRANCH   1  24
ATOM     24  CAO SFK d   1     -23.716   1.963 -24.724  0.00  0.00     0.009 C 
ATOM     25  H10 SFK d   1     -23.445   2.535 -25.624  0.00  0.00     0.047 H 
ATOM     26  H11 SFK d   1     -23.921   2.658 -23.896  0.00  0.00     0.047 H 
BRANCH  24  27
ATOM     27  CAP SFK d   1     -22.619   0.986 -24.352  0.00  0.00    -0.054 C 
ATOM     28  H8  SFK d   1     -22.899   0.417 -23.453  0.00  0.00     0.034 H 
ATOM     29  H9  SFK d   1     -22.426   0.290 -25.182  0.00  0.00     0.034 H 
BRANCH  27  30
ATOM     30  CAQ SFK d   1     -21.403   1.834 -24.081  0.00  0.00    -0.061 C 
ATOM     31  H4  SFK d   1     -21.677   2.687 -23.442  0.00  0.00     0.038 H 
BRANCH  30  32
ATOM     32  CAR SFK d   1     -20.373   0.955 -23.362  0.00  0.00    -0.073 C 
ATOM     33  H1  SFK d   1     -19.471   1.547 -23.149  0.00  0.00     0.028 H 
ATOM     34  H2  SFK d   1     -20.109   0.101 -24.003  0.00  0.00     0.028 H 
ATOM     35  H3  SFK d   1     -20.801   0.587 -22.418  0.00  0.00     0.028 H 
ENDBRANCH  30  32
BRANCH  30  36
ATOM     36  CAS SFK d   1     -20.818   2.356 -25.410  0.00  0.00    -0.073 C 
ATOM     37  H5  SFK d   1     -21.564   2.985 -25.917  0.00  0.00     0.028 H 
ATOM     38  H6  SFK d   1     -20.557   1.504 -26.055  0.00  0.00     0.028 H 
ATOM     39  H7  SFK d   1     -19.916   2.951 -25.205  0.00  0.00     0.028 H 
ENDBRANCH  30  36
ENDBRANCH  27  30
ENDBRANCH  24  27
ENDBRANCH   1  24
TORSDOF 9
