REMARK  14 active torsions:
REMARK  status: ('A' for Active; 'I' for Inactive)
REMARK    1  A    between atoms: N_1  and  CA_2 
REMARK    2  A    between atoms: CA_2  and  C_3 
REMARK    3  A    between atoms: CA_2  and  CB_5 
REMARK       I    between atoms: C_3  and  N_9 
REMARK    4  A    between atoms: CB_5  and  CG_6 
REMARK    5  A    between atoms: N_9  and  CA_10 
REMARK    6  A    between atoms: CA_10  and  C_11 
REMARK    7  A    between atoms: CA_10  and  CB_13 
REMARK       I    between atoms: C_11  and  N_17 
REMARK    8  A    between atoms: CB_13  and  CG_14 
REMARK    9  A    between atoms: CG_14  and  CD1_15 
REMARK   10  A    between atoms: CG_14  and  CD2_16 
REMARK   11  A    between atoms: N_17  and  CA_18 
REMARK   12  A    between atoms: CA_18  and  C_19 
REMARK   13  A    between atoms: CA_18  and  CB_21 
REMARK   14  A    between atoms: CB_21  and  CG_22 
ROOT
ATOM      1  CA  LEU d   1       7.736  -4.364 -12.516  0.00  0.00     0.089 C 
ATOM      2  H8  LEU d   1       7.133  -3.903 -13.312  0.00  0.00     0.087 H 
ENDROOT
BRANCH   1   3
ATOM      3  N   LEU d   1       6.983  -5.516 -11.990  0.00  0.00    -0.346 N 
ATOM      4  C   ASP d   1       6.402  -6.419 -12.785  0.00  0.00     0.249 C 
ATOM      5  O   ASP d   1       6.423  -6.344 -14.021  0.00  0.00    -0.271 OA
ATOM      6  H7  LEU d   1       6.904  -5.626 -10.999  0.00  0.00     0.163 HD
BRANCH   4   7
ATOM      7  CA  ASP d   1       5.681  -7.581 -12.095  0.00  0.00     0.185 C 
ATOM      8  H4  ASP d   1       5.338  -7.257 -11.101  0.00  0.00     0.100 H 
BRANCH   7   9
ATOM      9  N   ASP d   1       4.505  -7.969 -12.922  0.00  0.00    -0.066 N 
ATOM     10  H1  ASP d   1       4.020  -8.734 -12.479  0.00  0.00     0.275 HD
ATOM     11  H2  ASP d   1       4.817  -8.254 -13.837  0.00  0.00     0.275 HD
ATOM     12  H3  ASP d   1       3.881  -7.182 -13.010  0.00  0.00     0.275 HD
ENDBRANCH   7   9
BRANCH   7  13
ATOM     13  CB  ASP d   1       6.625  -8.778 -11.931  0.00  0.00     0.050 C 
ATOM     14  H5  ASP d   1       7.573  -8.549 -12.440  0.00  0.00     0.052 H 
ATOM     15  H6  ASP d   1       6.160  -9.658 -12.400  0.00  0.00     0.052 H 
BRANCH  13  16
ATOM     16  CG  ASP d   1       6.925  -9.107 -10.464  0.00  0.00     0.175 C 
ATOM     17  OD1 ASP d   1       5.967  -9.290  -9.677  0.00  0.00    -0.648 OA
ATOM     18  OD2 ASP d   1       8.120  -9.210 -10.102  0.00  0.00    -0.648 OA
ENDBRANCH  13  16
ENDBRANCH   7  13
ENDBRANCH   4   7
ENDBRANCH   1   3
BRANCH   1  19
ATOM     19  C   LEU d   1       9.083  -4.774 -13.117  0.00  0.00     0.241 C 
ATOM     20  O   LEU d   1       9.685  -4.020 -13.883  0.00  0.00    -0.271 OA
ATOM     21  N   PHE d   1       9.543  -5.970 -12.751  0.00  0.00    -0.344 N 
ATOM     22  H18 PHE d   1       8.961  -6.549 -12.180  0.00  0.00     0.163 HD
BRANCH  21  23
ATOM     23  CA  PHE d   1      10.858  -6.477 -13.145  0.00  0.00     0.100 C 
ATOM     24  H19 PHE d   1      11.015  -6.252 -14.210  0.00  0.00     0.090 H 
BRANCH  23  25
ATOM     25  C   PHE d   1      10.918  -7.992 -12.948  0.00  0.00     0.197 C 
ATOM     26  O   PHE d   1      10.006  -8.601 -12.390  0.00  0.00    -0.646 OA
ATOM     27  OXT PHE d   1      11.891  -8.643 -13.321  0.00  0.00    -0.646 OA
ENDBRANCH  23  25
BRANCH  23  28
ATOM     28  CB  PHE d   1      11.975  -5.802 -12.329  0.00  0.00    -0.013 C 
ATOM     29  H20 PHE d   1      12.006  -4.736 -12.599  0.00  0.00     0.043 H 
ATOM     30  H21 PHE d   1      12.932  -6.275 -12.593  0.00  0.00     0.043 H 
BRANCH  28  31
ATOM     31  CG  PHE d   1      11.788  -5.909 -10.838  0.00  0.00    -0.056 A 
ATOM     32  CD1 PHE d   1      12.167  -7.064 -10.150  0.00  0.00    -0.077 A 
ATOM     33  CE1 PHE d   1      11.988  -7.164  -8.777  0.00  0.00    -0.082 A 
ATOM     34  H22 PHE d   1      12.606  -7.892 -10.695  0.00  0.00     0.084 H 
ATOM     35  CZ  PHE d   1      11.425  -6.104  -8.080  0.00  0.00    -0.083 A 
ATOM     36  H24 PHE d   1      12.286  -8.065  -8.252  0.00  0.00     0.083 H 
ATOM     37  CE2 PHE d   1      11.038  -4.953  -8.754  0.00  0.00    -0.082 A 
ATOM     38  H26 PHE d   1      11.287  -6.175  -7.007  0.00  0.00     0.083 H 
ATOM     39  CD2 PHE d   1      11.222  -4.859 -10.123  0.00  0.00    -0.077 A 
ATOM     40  H25 PHE d   1      10.592  -4.129  -8.209  0.00  0.00     0.083 H 
ATOM     41  H23 PHE d   1      10.921  -3.957 -10.643  0.00  0.00     0.084 H 
ENDBRANCH  28  31
ENDBRANCH  23  28
ENDBRANCH  21  23
ENDBRANCH   1  19
BRANCH   1  42
ATOM     42  CB  LEU d   1       7.971  -3.316 -11.416  0.00  0.00    -0.035 C 
ATOM     43  H9  LEU d   1       8.803  -2.682 -11.754  0.00  0.00     0.037 H 
ATOM     44  H10 LEU d   1       8.273  -3.866 -10.512  0.00  0.00     0.037 H 
BRANCH  42  45
ATOM     45  CG  LEU d   1       6.837  -2.374 -11.002  0.00  0.00    -0.059 C 
ATOM     46  H11 LEU d   1       5.947  -2.983 -10.784  0.00  0.00     0.038 H 
BRANCH  45  47
ATOM     47  CD1 LEU d   1       7.214  -1.607  -9.743  0.00  0.00    -0.073 C 
ATOM     48  H12 LEU d   1       6.389  -0.936  -9.461  0.00  0.00     0.028 H 
ATOM     49  H13 LEU d   1       8.120  -1.013  -9.933  0.00  0.00     0.028 H 
ATOM     50  H14 LEU d   1       7.405  -2.317  -8.925  0.00  0.00     0.028 H 
ENDBRANCH  45  47
BRANCH  45  51
ATOM     51  CD2 LEU d   1       6.487  -1.402 -12.119  0.00  0.00    -0.073 C 
ATOM     52  H15 LEU d   1       6.216  -1.966 -13.024  0.00  0.00     0.028 H 
ATOM     53  H16 LEU d   1       7.355  -0.761 -12.332  0.00  0.00     0.028 H 
ATOM     54  H17 LEU d   1       5.637  -0.777 -11.808  0.00  0.00     0.028 H 
ENDBRANCH  45  51
ENDBRANCH  42  45
ENDBRANCH   1  42
TORSDOF 14
