REMARK  25 active torsions:
REMARK  status: ('A' for Active; 'I' for Inactive)
REMARK    1  A    between atoms: C_1  and  O_2 
REMARK    2  A    between atoms: C_1  and  CH3_3 
REMARK    3  A    between atoms: C_1  and  N_4 
REMARK    4  A    between atoms: N_4  and  CA_5 
REMARK    5  A    between atoms: CA_5  and  C_6 
REMARK    6  A    between atoms: CA_5  and  CB_8 
REMARK       I    between atoms: C_6  and  N_13 
REMARK    7  A    between atoms: CB_8  and  CG_9 
REMARK    8  A    between atoms: CG_9  and  CD_10 
REMARK       I    between atoms: CD_10  and  NE2_12 
REMARK    9  A    between atoms: N_13  and  CA_14 
REMARK   10  A    between atoms: CA_14  and  C_15 
REMARK   11  A    between atoms: CA_14  and  CB_17 
REMARK       I    between atoms: C_15  and  N_18 
REMARK   12  A    between atoms: N_18  and  CA_19 
REMARK   13  A    between atoms: CA_19  and  C_20 
REMARK   14  A    between atoms: CA_19  and  CB_22 
REMARK       I    between atoms: C_20  and  N_26 
REMARK   15  A    between atoms: CB_22  and  CG_23 
REMARK   16  A    between atoms: N_26  and  CA_27 
REMARK   17  A    between atoms: CA_27  and  C_28 
REMARK   18  A    between atoms: CA_27  and  CB_30 
REMARK       I    between atoms: C_28  and  N_34 
REMARK   19  A    between atoms: CB_30  and  CG_31 
REMARK   20  A    between atoms: CG_31  and  CD1_32 
REMARK   21  A    between atoms: CG_31  and  CD2_33 
REMARK   22  A    between atoms: N_34  and  CA_35 
REMARK   23  A    between atoms: CA_35  and  C_36 
REMARK   24  A    between atoms: CA_35  and  CB_38 
REMARK   25  A    between atoms: CB_38  and  CG_39 
ROOT
ATOM      1  CA  ASP d   1       5.156  -7.047 -12.343  0.00  0.00     0.098 C 
ATOM      2  H21 ASP d   1       4.860  -6.633 -11.368  0.00  0.00     0.088 H 
ENDROOT
BRANCH   1   3
ATOM      3  N   ASP d   1       3.920  -7.310 -13.092  0.00  0.00    -0.346 N 
ATOM      4  C   ALA d   1       2.727  -6.935 -12.627  0.00  0.00     0.240 C 
ATOM      5  O   ALA d   1       2.590  -6.254 -11.611  0.00  0.00    -0.271 OA
ATOM      6  H20 ASP d   1       3.974  -7.782 -13.972  0.00  0.00     0.163 HD
BRANCH   4   7
ATOM      7  CA  ALA d   1       1.505  -7.377 -13.427  0.00  0.00     0.086 C 
ATOM      8  H16 ALA d   1       1.616  -8.442 -13.680  0.00  0.00     0.086 H 
BRANCH   7   9
ATOM      9  N   ALA d   1       0.290  -7.210 -12.625  0.00  0.00    -0.346 N 
ATOM     10  C   GLN d   1      -0.287  -8.214 -11.960  0.00  0.00     0.249 C 
ATOM     11  O   GLN d   1       0.124  -9.377 -11.984  0.00  0.00    -0.271 OA
ATOM     12  H15 ALA d   1      -0.126  -6.302 -12.573  0.00  0.00     0.163 HD
BRANCH  10  13
ATOM     13  CA  GLN d   1      -1.501  -7.846 -11.108  0.00  0.00     0.181 C 
ATOM     14  H8  GLN d   1      -1.742  -6.787 -11.285  0.00  0.00     0.099 H 
BRANCH  13  15
ATOM     15  N   GLN d   1      -2.720  -8.668 -11.459  0.00  0.00    -0.037 N 
ATOM     16  H6  GLN d   1      -2.377  -9.598 -11.644  0.00  0.00     0.281 HD
ATOM     17  H7  GLN d   1      -3.289  -8.679 -10.627  0.00  0.00     0.281 HD
BRANCH  15  18
ATOM     18  C   ACE d   1      -3.571  -8.380 -12.482  0.00  0.00     0.187 C 
ATOM     19  H1  ACE d   1      -4.128  -7.494 -12.144  0.00  0.00     0.128 H 
BRANCH  18  20
ATOM     20  O   ACE d   1      -3.033  -8.019 -13.526  0.00  0.00    -0.370 OA
ATOM     21  H2  ACE d   1      -3.699  -7.841 -14.179  0.00  0.00     0.212 HD
ENDBRANCH  18  20
BRANCH  18  22
ATOM     22  CH3 ACE d   1      -4.626  -9.464 -12.654  0.00  0.00    -0.029 C 
ATOM     23  H3  ACE d   1      -5.050  -9.722 -11.672  0.00  0.00     0.033 H 
ATOM     24  H4  ACE d   1      -4.165 -10.357 -13.100  0.00  0.00     0.033 H 
ATOM     25  H5  ACE d   1      -5.426  -9.096 -13.314  0.00  0.00     0.033 H 
ENDBRANCH  18  22
ENDBRANCH  15  18
ENDBRANCH  13  15
BRANCH  13  26
ATOM     26  CB  GLN d   1      -1.133  -8.028  -9.630  0.00  0.00    -0.022 C 
ATOM     27  H9  GLN d   1      -0.901  -9.090  -9.461  0.00  0.00     0.037 H 
ATOM     28  H10 GLN d   1      -2.003  -7.742  -9.021  0.00  0.00     0.037 H 
BRANCH  26  29
ATOM     29  CG  GLN d   1       0.063  -7.199  -9.175  0.00  0.00     0.011 C 
ATOM     30  H11 GLN d   1       0.936  -7.474  -9.785  0.00  0.00     0.047 H 
ATOM     31  H12 GLN d   1       0.268  -7.425  -8.118  0.00  0.00     0.047 H 
BRANCH  29  32
ATOM     32  CD  GLN d   1      -0.181  -5.710  -9.317  0.00  0.00     0.215 C 
ATOM     33  OE1 GLN d   1      -1.200  -5.200  -8.859  0.00  0.00    -0.274 OA
ATOM     34  NE2 GLN d   1       0.743  -5.006  -9.964  0.00  0.00    -0.370 N 
ATOM     35  H13 GLN d   1       0.627  -4.020 -10.084  0.00  0.00     0.159 HD
ATOM     36  H14 GLN d   1       1.554  -5.463 -10.331  0.00  0.00     0.159 HD
ENDBRANCH  29  32
ENDBRANCH  26  29
ENDBRANCH  13  26
ENDBRANCH  10  13
ENDBRANCH   7   9
BRANCH   7  37
ATOM     37  CB  ALA d   1       1.399  -6.577 -14.721  0.00  0.00    -0.049 C 
ATOM     38  H17 ALA d   1       2.317  -6.712 -15.312  0.00  0.00     0.030 H 
ATOM     39  H18 ALA d   1       1.269  -5.511 -14.483  0.00  0.00     0.030 H 
ATOM     40  H19 ALA d   1       0.534  -6.931 -15.301  0.00  0.00     0.030 H 
ENDBRANCH   7  37
ENDBRANCH   4   7
ENDBRANCH   1   3
BRANCH   1  41
ATOM     41  C   ASP d   1       6.077  -6.033 -13.000  0.00  0.00     0.241 C 
ATOM     42  O   ASP d   1       6.093  -5.892 -14.225  0.00  0.00    -0.271 OA
ATOM     43  N   LEU d   1       6.848  -5.339 -12.159  0.00  0.00    -0.346 N 
ATOM     44  H24 LEU d   1       6.789  -5.546 -11.182  0.00  0.00     0.163 HD
BRANCH  43  45
ATOM     45  CA  LEU d   1       7.778  -4.289 -12.592  0.00  0.00     0.089 C 
ATOM     46  H25 LEU d   1       7.260  -3.676 -13.344  0.00  0.00     0.087 H 
BRANCH  45  47
ATOM     47  C   LEU d   1       9.045  -4.834 -13.228  0.00  0.00     0.241 C 
ATOM     48  O   LEU d   1       9.671  -4.147 -14.036  0.00  0.00    -0.271 OA
ATOM     49  N   PHE d   1       9.420  -6.052 -12.846  0.00  0.00    -0.344 N 
ATOM     50  H35 PHE d   1       8.808  -6.577 -12.254  0.00  0.00     0.163 HD
BRANCH  49  51
ATOM     51  CA  PHE d   1      10.683  -6.654 -13.252  0.00  0.00     0.100 C 
ATOM     52  H36 PHE d   1      10.803  -6.538 -14.339  0.00  0.00     0.090 H 
BRANCH  51  53
ATOM     53  C   PHE d   1      10.700  -8.138 -12.894  0.00  0.00     0.197 C 
ATOM     54  O   PHE d   1       9.767  -8.677 -12.294  0.00  0.00    -0.646 OA
ATOM     55  OXT PHE d   1      11.691  -8.811 -13.161  0.00  0.00    -0.646 OA
ENDBRANCH  51  53
BRANCH  51  56
ATOM     56  CB  PHE d   1      11.853  -5.969 -12.534  0.00  0.00    -0.013 C 
ATOM     57  H37 PHE d   1      11.891  -4.918 -12.856  0.00  0.00     0.043 H 
ATOM     58  H38 PHE d   1      12.784  -6.476 -12.826  0.00  0.00     0.043 H 
BRANCH  56  59
ATOM     59  CG  PHE d   1      11.745  -6.002 -11.024  0.00  0.00    -0.056 A 
ATOM     60  CD1 PHE d   1      12.152  -7.115 -10.305  0.00  0.00    -0.077 A 
ATOM     61  CE1 PHE d   1      12.048  -7.149  -8.924  0.00  0.00    -0.082 A 
ATOM     62  H39 PHE d   1      12.558  -7.971 -10.831  0.00  0.00     0.084 H 
ATOM     63  CZ  PHE d   1      11.519  -6.062  -8.247  0.00  0.00    -0.083 A 
ATOM     64  H41 PHE d   1      12.379  -8.023  -8.375  0.00  0.00     0.083 H 
ATOM     65  CE2 PHE d   1      11.102  -4.949  -8.952  0.00  0.00    -0.082 A 
ATOM     66  H43 PHE d   1      11.432  -6.085  -7.167  0.00  0.00     0.083 H 
ATOM     67  CD2 PHE d   1      11.215  -4.923 -10.331  0.00  0.00    -0.077 A 
ATOM     68  H42 PHE d   1      10.687  -4.097  -8.425  0.00  0.00     0.083 H 
ATOM     69  H40 PHE d   1      10.885  -4.047 -10.878  0.00  0.00     0.084 H 
ENDBRANCH  56  59
ENDBRANCH  51  56
ENDBRANCH  49  51
ENDBRANCH  45  47
BRANCH  45  70
ATOM     70  CB  LEU d   1       8.163  -3.382 -11.405  0.00  0.00    -0.035 C 
ATOM     71  H26 LEU d   1       9.027  -2.778 -11.720  0.00  0.00     0.037 H 
ATOM     72  H27 LEU d   1       8.459  -4.038 -10.573  0.00  0.00     0.037 H 
BRANCH  70  73
ATOM     73  CG  LEU d   1       7.102  -2.417 -10.870  0.00  0.00    -0.059 C 
ATOM     74  H28 LEU d   1       6.157  -2.970 -10.769  0.00  0.00     0.038 H 
BRANCH  73  75
ATOM     75  CD1 LEU d   1       7.505  -1.899  -9.495  0.00  0.00    -0.073 C 
ATOM     76  H29 LEU d   1       6.734  -1.208  -9.123  0.00  0.00     0.028 H 
ATOM     77  H30 LEU d   1       8.467  -1.370  -9.570  0.00  0.00     0.028 H 
ATOM     78  H31 LEU d   1       7.605  -2.745  -8.799  0.00  0.00     0.028 H 
ENDBRANCH  73  75
BRANCH  73  79
ATOM     79  CD2 LEU d   1       6.870  -1.250 -11.824  0.00  0.00    -0.073 C 
ATOM     80  H32 LEU d   1       6.580  -1.636 -12.812  0.00  0.00     0.028 H 
ATOM     81  H33 LEU d   1       7.795  -0.663 -11.917  0.00  0.00     0.028 H 
ATOM     82  H34 LEU d   1       6.067  -0.609 -11.431  0.00  0.00     0.028 H 
ENDBRANCH  73  79
ENDBRANCH  70  73
ENDBRANCH  45  70
ENDBRANCH  43  45
ENDBRANCH   1  41
BRANCH   1  83
ATOM     83  CB  ASP d   1       5.914  -8.349 -12.090  0.00  0.00     0.043 C 
ATOM     84  H22 ASP d   1       6.985  -8.122 -11.986  0.00  0.00     0.052 H 
ATOM     85  H23 ASP d   1       5.763  -9.020 -12.948  0.00  0.00     0.052 H 
BRANCH  83  86
ATOM     86  CG  ASP d   1       5.439  -9.047 -10.835  0.00  0.00     0.175 C 
ATOM     87  OD1 ASP d   1       4.221  -9.307 -10.732  0.00  0.00    -0.648 OA
ATOM     88  OD2 ASP d   1       6.276  -9.310  -9.943  0.00  0.00    -0.648 OA
ENDBRANCH  83  86
ENDBRANCH   1  83
TORSDOF 25
