REMARK  25 active torsions:
REMARK  status: ('A' for Active; 'I' for Inactive)
REMARK    1  A    between atoms: C_1  and  CH3_3 
REMARK       I    between atoms: C_1  and  N_4 
REMARK    2  A    between atoms: N_4  and  CA_5 
REMARK    3  A    between atoms: CA_5  and  C_6 
REMARK    4  A    between atoms: CA_5  and  CB_8 
REMARK       I    between atoms: C_6  and  N_13 
REMARK    5  A    between atoms: CB_8  and  CG_9 
REMARK    6  A    between atoms: CG_9  and  CD_10 
REMARK       I    between atoms: CD_10  and  NE2_12 
REMARK    7  A    between atoms: N_13  and  CA_14 
REMARK    8  A    between atoms: CA_14  and  C_15 
REMARK    9  A    between atoms: CA_14  and  CB_17 
REMARK       I    between atoms: C_15  and  N_21 
REMARK   10  A    between atoms: CB_17  and  CG_18 
REMARK   11  A    between atoms: CG_18  and  CD1_19 
REMARK   12  A    between atoms: CG_18  and  CD2_20 
REMARK   13  A    between atoms: N_21  and  CA_22 
REMARK   14  A    between atoms: CA_22  and  C_23 
REMARK   15  A    between atoms: CA_22  and  CB_25 
REMARK       I    between atoms: C_23  and  N_26 
REMARK   16  A    between atoms: N_26  and  CA_27 
REMARK   17  A    between atoms: CA_27  and  C_28 
REMARK   18  A    between atoms: CA_27  and  CB_30 
REMARK       I    between atoms: C_28  and  N_34 
REMARK   19  A    between atoms: CB_30  and  CG_31 
REMARK   20  A    between atoms: CG_31  and  CD1_32 
REMARK   21  A    between atoms: CG_31  and  CD2_33 
REMARK   22  A    between atoms: N_34  and  CA_35 
REMARK   23  A    between atoms: CA_35  and  C_36 
REMARK   24  A    between atoms: CA_35  and  CB_38 
REMARK   25  A    between atoms: CB_38  and  CG_39 
ROOT
ATOM      1  CA  ALA d   1       4.930  -7.308 -12.754  0.00  0.00     0.086 C 
ATOM      2  H24 ALA d   1       4.759  -7.235 -11.670  0.00  0.00     0.086 H 
ENDROOT
BRANCH   1   3
ATOM      3  N   ALA d   1       3.634  -7.427 -13.426  0.00  0.00    -0.346 N 
ATOM      4  C   LEU d   1       2.540  -6.809 -12.985  0.00  0.00     0.241 C 
ATOM      5  O   LEU d   1       2.523  -6.115 -11.973  0.00  0.00    -0.271 OA
ATOM      6  H23 ALA d   1       3.568  -7.994 -14.247  0.00  0.00     0.163 HD
BRANCH   4   7
ATOM      7  CA  LEU d   1       1.269  -7.019 -13.804  0.00  0.00     0.089 C 
ATOM      8  H13 LEU d   1       1.274  -8.054 -14.177  0.00  0.00     0.087 H 
BRANCH   7   9
ATOM      9  N   LEU d   1       0.071  -6.845 -12.979  0.00  0.00    -0.346 N 
ATOM     10  C   GLN d   1      -0.424  -7.854 -12.265  0.00  0.00     0.241 C 
ATOM     11  O   GLN d   1       0.032  -8.999 -12.311  0.00  0.00    -0.271 OA
ATOM     12  H12 LEU d   1      -0.382  -5.954 -12.952  0.00  0.00     0.163 HD
BRANCH  10  13
ATOM     13  CA  GLN d   1      -1.602  -7.534 -11.367  0.00  0.00     0.089 C 
ATOM     14  H5  GLN d   1      -1.897  -6.488 -11.534  0.00  0.00     0.087 H 
BRANCH  13  15
ATOM     15  N   GLN d   1      -2.765  -8.415 -11.699  0.00  0.00    -0.348 N 
ATOM     16  C   ACE d   1      -3.422  -8.373 -12.863  0.00  0.00     0.214 C 
ATOM     17  O   ACE d   1      -2.970  -7.908 -13.900  0.00  0.00    -0.274 OA
ATOM     18  H4  GLN d   1      -3.069  -9.073 -11.010  0.00  0.00     0.163 HD
BRANCH  16  19
ATOM     19  CH3 ACE d   1      -4.791  -9.007 -12.862  0.00  0.00    -0.003 C 
ATOM     20  H1  ACE d   1      -5.028  -9.366 -11.850  0.00  0.00     0.040 H 
ATOM     21  H2  ACE d   1      -4.803  -9.854 -13.564  0.00  0.00     0.040 H 
ATOM     22  H3  ACE d   1      -5.540  -8.263 -13.172  0.00  0.00     0.040 H 
ENDBRANCH  16  19
ENDBRANCH  13  15
BRANCH  13  23
ATOM     23  CB  GLN d   1      -1.199  -7.701  -9.892  0.00  0.00    -0.030 C 
ATOM     24  H6  GLN d   1      -1.095  -8.777  -9.687  0.00  0.00     0.037 H 
ATOM     25  H7  GLN d   1      -2.005  -7.285  -9.270  0.00  0.00     0.037 H 
BRANCH  23  26
ATOM     26  CG  GLN d   1       0.108  -7.015  -9.493  0.00  0.00     0.011 C 
ATOM     27  H8  GLN d   1       0.886  -7.296 -10.218  0.00  0.00     0.047 H 
ATOM     28  H9  GLN d   1       0.396  -7.367  -8.491  0.00  0.00     0.047 H 
BRANCH  26  29
ATOM     29  CD  GLN d   1       0.002  -5.496  -9.461  0.00  0.00     0.215 C 
ATOM     30  OE1 GLN d   1      -0.787  -4.924  -8.697  0.00  0.00    -0.274 OA
ATOM     31  NE2 GLN d   1       0.797  -4.834 -10.290  0.00  0.00    -0.370 N 
ATOM     32  H10 GLN d   1       0.773  -3.835 -10.315  0.00  0.00     0.159 HD
ATOM     33  H11 GLN d   1       1.421  -5.334 -10.891  0.00  0.00     0.159 HD
ENDBRANCH  26  29
ENDBRANCH  23  26
ENDBRANCH  13  23
ENDBRANCH  10  13
ENDBRANCH   7   9
BRANCH   7  34
ATOM     34  CB  LEU d   1       1.244  -6.082 -15.013  0.00  0.00    -0.035 C 
ATOM     35  H14 LEU d   1       2.186  -6.215 -15.565  0.00  0.00     0.037 H 
ATOM     36  H15 LEU d   1       1.181  -5.049 -14.640  0.00  0.00     0.037 H 
BRANCH  34  37
ATOM     37  CG  LEU d   1       0.086  -6.301 -15.996  0.00  0.00    -0.059 C 
ATOM     38  H16 LEU d   1      -0.846  -6.352 -15.413  0.00  0.00     0.038 H 
BRANCH  37  39
ATOM     39  CD1 LEU d   1      -0.030  -5.121 -16.954  0.00  0.00    -0.073 C 
ATOM     40  H17 LEU d   1      -0.864  -5.295 -17.650  0.00  0.00     0.028 H 
ATOM     41  H18 LEU d   1       0.906  -5.016 -17.522  0.00  0.00     0.028 H 
ATOM     42  H19 LEU d   1      -0.216  -4.201 -16.381  0.00  0.00     0.028 H 
ENDBRANCH  37  39
BRANCH  37  43
ATOM     43  CD2 LEU d   1       0.236  -7.627 -16.745  0.00  0.00    -0.073 C 
ATOM     44  H20 LEU d   1       0.316  -8.450 -16.020  0.00  0.00     0.028 H 
ATOM     45  H21 LEU d   1       1.143  -7.596 -17.367  0.00  0.00     0.028 H 
ATOM     46  H22 LEU d   1      -0.643  -7.787 -17.386  0.00  0.00     0.028 H 
ENDBRANCH  37  43
ENDBRANCH  34  37
ENDBRANCH   7  34
ENDBRANCH   4   7
ENDBRANCH   1   3
BRANCH   1  47
ATOM     47  C   ALA d   1       5.643  -6.042 -13.222  0.00  0.00     0.240 C 
ATOM     48  O   ALA d   1       5.612  -5.720 -14.411  0.00  0.00    -0.271 OA
ATOM     49  N   LEU d   1       6.268  -5.322 -12.285  0.00  0.00    -0.346 N 
ATOM     50  H28 LEU d   1       6.149  -5.572 -11.324  0.00  0.00     0.163 HD
BRANCH  49  51
ATOM     51  CA  LEU d   1       7.128  -4.170 -12.623  0.00  0.00     0.089 C 
ATOM     52  H29 LEU d   1       6.547  -3.496 -13.270  0.00  0.00     0.087 H 
BRANCH  51  53
ATOM     53  C   LEU d   1       8.389  -4.591 -13.375  0.00  0.00     0.241 C 
ATOM     54  O   LEU d   1       8.922  -3.829 -14.183  0.00  0.00    -0.271 OA
ATOM     55  N   PHE d   1       8.864  -5.798 -13.065  0.00  0.00    -0.344 N 
ATOM     56  H39 PHE d   1       8.347  -6.350 -12.411  0.00  0.00     0.163 HD
BRANCH  55  57
ATOM     57  CA  PHE d   1      10.087  -6.364 -13.618  0.00  0.00     0.100 C 
ATOM     58  H40 PHE d   1      10.044  -6.301 -14.715  0.00  0.00     0.090 H 
BRANCH  57  59
ATOM     59  C   PHE d   1      10.199  -7.841 -13.207  0.00  0.00     0.197 C 
ATOM     60  O   PHE d   1       9.464  -8.368 -12.361  0.00  0.00    -0.646 OA
ATOM     61  OXT PHE d   1      11.055  -8.562 -13.705  0.00  0.00    -0.646 OA
ENDBRANCH  57  59
BRANCH  57  62
ATOM     62  CB  PHE d   1      11.316  -5.584 -13.127  0.00  0.00    -0.013 C 
ATOM     63  H41 PHE d   1      11.249  -4.554 -13.508  0.00  0.00     0.043 H 
ATOM     64  H42 PHE d   1      12.218  -6.066 -13.532  0.00  0.00     0.043 H 
BRANCH  62  65
ATOM     65  CG  PHE d   1      11.439  -5.529 -11.629  0.00  0.00    -0.056 A 
ATOM     66  CD1 PHE d   1      12.023  -6.588 -10.923  0.00  0.00    -0.077 A 
ATOM     67  CE1 PHE d   1      12.127  -6.551  -9.543  0.00  0.00    -0.082 A 
ATOM     68  H43 PHE d   1      12.399  -7.449 -11.464  0.00  0.00     0.084 H 
ATOM     69  CZ  PHE d   1      11.640  -5.449  -8.850  0.00  0.00    -0.083 A 
ATOM     70  H45 PHE d   1      12.585  -7.375  -9.007  0.00  0.00     0.083 H 
ATOM     71  CE2 PHE d   1      11.060  -4.385  -9.539  0.00  0.00    -0.082 A 
ATOM     72  H47 PHE d   1      11.711  -5.417  -7.769  0.00  0.00     0.083 H 
ATOM     73  CD2 PHE d   1      10.963  -4.431 -10.921  0.00  0.00    -0.077 A 
ATOM     74  H46 PHE d   1      10.686  -3.525  -8.996  0.00  0.00     0.083 H 
ATOM     75  H44 PHE d   1      10.512  -3.603 -11.455  0.00  0.00     0.084 H 
ENDBRANCH  62  65
ENDBRANCH  57  62
ENDBRANCH  55  57
ENDBRANCH  51  53
BRANCH  51  76
ATOM     76  CB  LEU d   1       7.549  -3.396 -11.367  0.00  0.00    -0.035 C 
ATOM     77  H30 LEU d   1       8.645  -3.311 -11.410  0.00  0.00     0.037 H 
ATOM     78  H31 LEU d   1       7.263  -4.022 -10.509  0.00  0.00     0.037 H 
BRANCH  76  79
ATOM     79  CG  LEU d   1       7.022  -1.991 -11.067  0.00  0.00    -0.059 C 
ATOM     80  H32 LEU d   1       5.939  -2.062 -10.887  0.00  0.00     0.038 H 
BRANCH  79  81
ATOM     81  CD1 LEU d   1       7.692  -1.457  -9.804  0.00  0.00    -0.073 C 
ATOM     82  H33 LEU d   1       7.314  -0.447  -9.587  0.00  0.00     0.028 H 
ATOM     83  H34 LEU d   1       8.781  -1.416  -9.956  0.00  0.00     0.028 H 
ATOM     84  H35 LEU d   1       7.464  -2.123  -8.959  0.00  0.00     0.028 H 
ENDBRANCH  79  81
BRANCH  79  85
ATOM     85  CD2 LEU d   1       7.244  -1.032 -12.223  0.00  0.00    -0.073 C 
ATOM     86  H36 LEU d   1       6.757  -1.428 -13.126  0.00  0.00     0.028 H 
ATOM     87  H37 LEU d   1       8.323  -0.922 -12.406  0.00  0.00     0.028 H 
ATOM     88  H38 LEU d   1       6.813  -0.051 -11.974  0.00  0.00     0.028 H 
ENDBRANCH  79  85
ENDBRANCH  76  79
ENDBRANCH  51  76
ENDBRANCH  49  51
ENDBRANCH   1  47
BRANCH   1  89
ATOM     89  CB  ALA d   1       5.785  -8.539 -13.027  0.00  0.00    -0.049 C 
ATOM     90  H25 ALA d   1       6.753  -8.434 -12.516  0.00  0.00     0.030 H 
ATOM     91  H26 ALA d   1       5.951  -8.637 -14.110  0.00  0.00     0.030 H 
ATOM     92  H27 ALA d   1       5.268  -9.435 -12.652  0.00  0.00     0.030 H 
ENDBRANCH   1  89
TORSDOF 25
