REMARK  23 active torsions:
REMARK  status: ('A' for Active; 'I' for Inactive)
REMARK    1  A    between atoms: C_1  and  CH3_3 
REMARK       I    between atoms: C_1  and  N_4 
REMARK    2  A    between atoms: N_4  and  CA_5 
REMARK    3  A    between atoms: CA_5  and  C_6 
REMARK    4  A    between atoms: CA_5  and  CB_8 
REMARK       I    between atoms: C_6  and  N_13 
REMARK    5  A    between atoms: CB_8  and  CG_9 
REMARK    6  A    between atoms: CG_9  and  CD_10 
REMARK       I    between atoms: CD_10  and  NE2_12 
REMARK    7  A    between atoms: N_13  and  CA_14 
REMARK    8  A    between atoms: CA_14  and  C_15 
REMARK    9  A    between atoms: CA_14  and  CB_17 
REMARK       I    between atoms: C_15  and  N_21 
REMARK   10  A    between atoms: CB_17  and  CG_18 
REMARK   11  A    between atoms: CG_18  and  CD1_19 
REMARK   12  A    between atoms: CG_18  and  CD2_20 
REMARK   13  A    between atoms: N_21  and  CA_22 
REMARK   14  A    between atoms: CA_22  and  C_23 
REMARK   15  A    between atoms: CA_22  and  CB_25 
REMARK       I    between atoms: C_23  and  N_29 
REMARK   16  A    between atoms: CB_25  and  CG_26 
REMARK   17  A    between atoms: N_29  and  CA_30 
REMARK   18  A    between atoms: CA_30  and  C_31 
REMARK   19  A    between atoms: CA_30  and  CB_33 
REMARK       I    between atoms: C_31  and  N_34 
REMARK   20  A    between atoms: N_34  and  CA_35 
REMARK   21  A    between atoms: CA_35  and  C_36 
REMARK   22  A    between atoms: CA_35  and  CB_38 
REMARK   23  A    between atoms: CB_38  and  CG_39 
ROOT
ATOM      1  C   LEU d   1       2.741  -6.635 -12.660  0.00  0.00     0.241 C 
ATOM      2  O   LEU d   1       2.674  -6.067 -11.566  0.00  0.00    -0.271 OA
ATOM      3  N   ASP d   1       3.876  -7.132 -13.154  0.00  0.00    -0.346 N 
ATOM      4  H23 ASP d   1       3.856  -7.582 -14.047  0.00  0.00     0.163 HD
ENDROOT
BRANCH   3   5
ATOM      5  CA  ASP d   1       5.153  -7.044 -12.437  0.00  0.00     0.098 C 
ATOM      6  H24 ASP d   1       4.936  -6.847 -11.377  0.00  0.00     0.088 H 
BRANCH   5   7
ATOM      7  C   ASP d   1       6.007  -5.899 -12.971  0.00  0.00     0.241 C 
ATOM      8  O   ASP d   1       5.940  -5.567 -14.160  0.00  0.00    -0.271 OA
ATOM      9  N   ALA d   1       6.812  -5.310 -12.085  0.00  0.00    -0.346 N 
ATOM     10  H27 ALA d   1       6.824  -5.657 -11.147  0.00  0.00     0.163 HD
BRANCH   9  11
ATOM     11  CA  ALA d   1       7.682  -4.176 -12.423  0.00  0.00     0.086 C 
ATOM     12  H28 ALA d   1       7.116  -3.518 -13.100  0.00  0.00     0.086 H 
BRANCH  11  13
ATOM     13  C   ALA d   1       8.961  -4.587 -13.152  0.00  0.00     0.240 C 
ATOM     14  O   ALA d   1       9.493  -3.828 -13.963  0.00  0.00    -0.271 OA
ATOM     15  N   PHE d   1       9.439  -5.792 -12.850  0.00  0.00    -0.344 N 
ATOM     16  H32 PHE d   1       8.892  -6.388 -12.263  0.00  0.00     0.163 HD
BRANCH  15  17
ATOM     17  CA  PHE d   1      10.726  -6.285 -13.336  0.00  0.00     0.100 C 
ATOM     18  H33 PHE d   1      10.845  -5.993 -14.390  0.00  0.00     0.090 H 
BRANCH  17  19
ATOM     19  C   PHE d   1      10.768  -7.807 -13.231  0.00  0.00     0.197 C 
ATOM     20  O   PHE d   1       9.832  -8.435 -12.725  0.00  0.00    -0.646 OA
ATOM     21  OXT PHE d   1      11.749  -8.441 -13.626  0.00  0.00    -0.646 OA
ENDBRANCH  17  19
BRANCH  17  22
ATOM     22  CB  PHE d   1      11.879  -5.679 -12.516  0.00  0.00    -0.013 C 
ATOM     23  H34 PHE d   1      11.952  -4.609 -12.758  0.00  0.00     0.043 H 
ATOM     24  H35 PHE d   1      12.813  -6.185 -12.803  0.00  0.00     0.043 H 
BRANCH  22  25
ATOM     25  CG  PHE d   1      11.701  -5.819 -11.025  0.00  0.00    -0.056 A 
ATOM     26  CD1 PHE d   1      12.003  -7.018 -10.378  0.00  0.00    -0.077 A 
ATOM     27  CE1 PHE d   1      11.824  -7.151  -9.010  0.00  0.00    -0.082 A 
ATOM     28  H36 PHE d   1      12.382  -7.856 -10.952  0.00  0.00     0.084 H 
ATOM     29  CZ  PHE d   1      11.343  -6.078  -8.272  0.00  0.00    -0.083 A 
ATOM     30  H38 PHE d   1      12.059  -8.088  -8.519  0.00  0.00     0.083 H 
ATOM     31  CE2 PHE d   1      11.035  -4.880  -8.904  0.00  0.00    -0.082 A 
ATOM     32  H40 PHE d   1      11.208  -6.175  -7.201  0.00  0.00     0.083 H 
ATOM     33  CD2 PHE d   1      11.215  -4.755 -10.271  0.00  0.00    -0.077 A 
ATOM     34  H39 PHE d   1      10.654  -4.044  -8.328  0.00  0.00     0.083 H 
ATOM     35  H37 PHE d   1      10.975  -3.818 -10.760  0.00  0.00     0.084 H 
ENDBRANCH  22  25
ENDBRANCH  17  22
ENDBRANCH  15  17
ENDBRANCH  11  13
BRANCH  11  36
ATOM     36  CB  ALA d   1       8.020  -3.379 -11.165  0.00  0.00    -0.049 C 
ATOM     37  H29 ALA d   1       8.671  -2.533 -11.431  0.00  0.00     0.030 H 
ATOM     38  H30 ALA d   1       8.540  -4.030 -10.447  0.00  0.00     0.030 H 
ATOM     39  H31 ALA d   1       7.093  -2.999 -10.711  0.00  0.00     0.030 H 
ENDBRANCH  11  36
ENDBRANCH   9  11
ENDBRANCH   5   7
BRANCH   5  40
ATOM     40  CB  ASP d   1       5.929  -8.364 -12.533  0.00  0.00     0.043 C 
ATOM     41  H25 ASP d   1       6.894  -8.242 -12.020  0.00  0.00     0.052 H 
ATOM     42  H26 ASP d   1       6.104  -8.592 -13.595  0.00  0.00     0.052 H 
BRANCH  40  43
ATOM     43  CG  ASP d   1       5.185  -9.533 -11.900  0.00  0.00     0.175 C 
ATOM     44  OD1 ASP d   1       4.650  -9.374 -10.780  0.00  0.00    -0.648 OA
ATOM     45  OD2 ASP d   1       5.145 -10.619 -12.521  0.00  0.00    -0.648 OA
ENDBRANCH  40  43
ENDBRANCH   5  40
ENDBRANCH   3   5
BRANCH   1  46
ATOM     46  CA  LEU d   1       1.484  -6.827 -13.520  0.00  0.00     0.089 C 
ATOM     47  H13 LEU d   1       1.516  -7.853 -13.916  0.00  0.00     0.087 H 
BRANCH  46  48
ATOM     48  N   LEU d   1       0.259  -6.701 -12.730  0.00  0.00    -0.346 N 
ATOM     49  C   GLN d   1      -0.305  -7.750 -12.135  0.00  0.00     0.241 C 
ATOM     50  O   GLN d   1       0.144  -8.899 -12.213  0.00  0.00    -0.271 OA
ATOM     51  H12 LEU d   1      -0.167  -5.801 -12.634  0.00  0.00     0.163 HD
BRANCH  49  52
ATOM     52  CA  GLN d   1      -1.558  -7.456 -11.311  0.00  0.00     0.089 C 
ATOM     53  H5  GLN d   1      -1.815  -6.396 -11.452  0.00  0.00     0.087 H 
BRANCH  52  54
ATOM     54  N   GLN d   1      -2.735  -8.272 -11.747  0.00  0.00    -0.348 N 
ATOM     55  C   ACE d   1      -3.210  -8.293 -12.997  0.00  0.00     0.214 C 
ATOM     56  O   ACE d   1      -2.747  -7.639 -13.921  0.00  0.00    -0.274 OA
ATOM     57  H4  GLN d   1      -3.195  -8.836 -11.061  0.00  0.00     0.163 HD
BRANCH  55  58
ATOM     58  CH3 ACE d   1      -4.503  -9.051 -13.191  0.00  0.00    -0.003 C 
ATOM     59  H1  ACE d   1      -4.763  -9.577 -12.260  0.00  0.00     0.040 H 
ATOM     60  H2  ACE d   1      -4.381  -9.782 -14.004  0.00  0.00     0.040 H 
ATOM     61  H3  ACE d   1      -5.306  -8.346 -13.450  0.00  0.00     0.040 H 
ENDBRANCH  55  58
ENDBRANCH  52  54
BRANCH  52  62
ATOM     62  CB  GLN d   1      -1.259  -7.685  -9.823  0.00  0.00    -0.030 C 
ATOM     63  H6  GLN d   1      -1.097  -8.761  -9.664  0.00  0.00     0.037 H 
ATOM     64  H7  GLN d   1      -2.131  -7.355  -9.239  0.00  0.00     0.037 H 
BRANCH  62  65
ATOM     65  CG  GLN d   1      -0.029  -6.933  -9.317  0.00  0.00     0.011 C 
ATOM     66  H8  GLN d   1       0.845  -7.246  -9.908  0.00  0.00     0.047 H 
ATOM     67  H9  GLN d   1       0.132  -7.190  -8.260  0.00  0.00     0.047 H 
BRANCH  65  68
ATOM     68  CD  GLN d   1      -0.184  -5.428  -9.435  0.00  0.00     0.215 C 
ATOM     69  OE1 GLN d   1      -1.149  -4.855  -8.932  0.00  0.00    -0.274 OA
ATOM     70  NE2 GLN d   1       0.763  -4.782 -10.112  0.00  0.00    -0.370 N 
ATOM     71  H10 GLN d   1       0.711  -3.789 -10.221  0.00  0.00     0.159 HD
ATOM     72  H11 GLN d   1       1.526  -5.290 -10.512  0.00  0.00     0.159 HD
ENDBRANCH  65  68
ENDBRANCH  62  65
ENDBRANCH  52  62
ENDBRANCH  49  52
ENDBRANCH  46  48
BRANCH  46  73
ATOM     73  CB  LEU d   1       1.458  -5.870 -14.725  0.00  0.00    -0.035 C 
ATOM     74  H14 LEU d   1       2.430  -5.948 -15.233  0.00  0.00     0.037 H 
ATOM     75  H15 LEU d   1       1.328  -4.849 -14.337  0.00  0.00     0.037 H 
BRANCH  73  76
ATOM     76  CG  LEU d   1       0.362  -6.111 -15.777  0.00  0.00    -0.059 C 
ATOM     77  H16 LEU d   1      -0.610  -6.008 -15.273  0.00  0.00     0.038 H 
BRANCH  76  78
ATOM     78  CD1 LEU d   1       0.422  -5.074 -16.889  0.00  0.00    -0.073 C 
ATOM     79  H17 LEU d   1      -0.373  -5.276 -17.622  0.00  0.00     0.028 H 
ATOM     80  H18 LEU d   1       1.401  -5.127 -17.387  0.00  0.00     0.028 H 
ATOM     81  H19 LEU d   1       0.281  -4.070 -16.462  0.00  0.00     0.028 H 
ENDBRANCH  76  78
BRANCH  76  82
ATOM     82  CD2 LEU d   1       0.439  -7.521 -16.357  0.00  0.00    -0.073 C 
ATOM     83  H20 LEU d   1       0.394  -8.256 -15.540  0.00  0.00     0.028 H 
ATOM     84  H21 LEU d   1       1.384  -7.640 -16.907  0.00  0.00     0.028 H 
ATOM     85  H22 LEU d   1      -0.406  -7.682 -17.042  0.00  0.00     0.028 H 
ENDBRANCH  76  82
ENDBRANCH  73  76
ENDBRANCH  46  73
ENDBRANCH   1  46
TORSDOF 23
