REMARK  27 active torsions:
REMARK  status: ('A' for Active; 'I' for Inactive)
REMARK    1  A    between atoms: C_1  and  O_2 
REMARK    2  A    between atoms: C_1  and  CH3_3 
REMARK    3  A    between atoms: C_1  and  N_4 
REMARK    4  A    between atoms: N_4  and  CA_5 
REMARK    5  A    between atoms: CA_5  and  C_6 
REMARK    6  A    between atoms: CA_5  and  CB_8 
REMARK       I    between atoms: C_6  and  N_13 
REMARK    7  A    between atoms: CB_8  and  CG_9 
REMARK    8  A    between atoms: CG_9  and  CD_10 
REMARK       I    between atoms: CD_10  and  NE2_12 
REMARK    9  A    between atoms: N_13  and  CA_14 
REMARK   10  A    between atoms: CA_14  and  C_15 
REMARK   11  A    between atoms: CA_14  and  CB_17 
REMARK       I    between atoms: C_15  and  N_21 
REMARK   12  A    between atoms: CB_17  and  CG_18 
REMARK   13  A    between atoms: CG_18  and  CD1_19 
REMARK   14  A    between atoms: CG_18  and  CD2_20 
REMARK   15  A    between atoms: N_21  and  CA_22 
REMARK   16  A    between atoms: CA_22  and  C_23 
REMARK   17  A    between atoms: CA_22  and  CB_25 
REMARK       I    between atoms: C_23  and  N_29 
REMARK   18  A    between atoms: CB_25  and  CG_26 
REMARK   19  A    between atoms: N_29  and  CA_30 
REMARK   20  A    between atoms: CA_30  and  C_31 
REMARK   21  A    between atoms: CA_30  and  CB_33 
REMARK       I    between atoms: C_31  and  N_37 
REMARK   22  A    between atoms: CB_33  and  CG_34 
REMARK   23  A    between atoms: CG_34  and  CD1_35 
REMARK   24  A    between atoms: CG_34  and  CD2_36 
REMARK   25  A    between atoms: N_37  and  CA_38 
REMARK   26  A    between atoms: CA_38  and  C_39 
REMARK   27  A    between atoms: CA_38  and  CB_41 
ROOT
ATOM      1  C   LEU d   1       2.705  -6.553 -13.099  0.00  0.00     0.241 C 
ATOM      2  O   LEU d   1       2.723  -5.791 -12.127  0.00  0.00    -0.271 OA
ATOM      3  N   ASP d   1       3.739  -7.312 -13.450  0.00  0.00    -0.346 N 
ATOM      4  H26 ASP d   1       3.624  -7.991 -14.175  0.00  0.00     0.163 HD
ENDROOT
BRANCH   1   5
ATOM      5  CA  LEU d   1       1.464  -6.683 -13.964  0.00  0.00     0.089 C 
ATOM      6  H16 LEU d   1       1.415  -7.708 -14.360  0.00  0.00     0.087 H 
BRANCH   5   7
ATOM      7  N   LEU d   1       0.279  -6.445 -13.145  0.00  0.00    -0.346 N 
ATOM      8  C   GLN d   1      -0.324  -7.447 -12.515  0.00  0.00     0.249 C 
ATOM      9  O   GLN d   1      -0.007  -8.623 -12.674  0.00  0.00    -0.271 OA
ATOM     10  H15 LEU d   1      -0.083  -5.517 -13.057  0.00  0.00     0.163 HD
BRANCH   8  11
ATOM     11  CA  GLN d   1      -1.458  -7.087 -11.569  0.00  0.00     0.181 C 
ATOM     12  H8  GLN d   1      -1.692  -6.017 -11.674  0.00  0.00     0.099 H 
BRANCH  11  13
ATOM     13  N   GLN d   1      -2.683  -7.893 -11.912  0.00  0.00    -0.037 N 
ATOM     14  H6  GLN d   1      -2.394  -8.859 -11.895  0.00  0.00     0.281 HD
ATOM     15  H7  GLN d   1      -3.343  -7.726 -11.168  0.00  0.00     0.281 HD
BRANCH  13  16
ATOM     16  C   ACE d   1      -3.373  -7.730 -13.067  0.00  0.00     0.187 C 
ATOM     17  H1  ACE d   1      -4.007  -6.851 -12.878  0.00  0.00     0.128 H 
BRANCH  16  18
ATOM     18  O   ACE d   1      -2.716  -7.399 -14.058  0.00  0.00    -0.370 OA
ATOM     19  H2  ACE d   1      -3.295  -7.314 -14.806  0.00  0.00     0.212 HD
ENDBRANCH  16  18
BRANCH  16  20
ATOM     20  CH3 ACE d   1      -4.361  -8.864 -13.288  0.00  0.00    -0.029 C 
ATOM     21  H3  ACE d   1      -4.890  -9.078 -12.348  0.00  0.00     0.033 H 
ATOM     22  H4  ACE d   1      -3.820  -9.763 -13.617  0.00  0.00     0.033 H 
ATOM     23  H5  ACE d   1      -5.088  -8.572 -14.060  0.00  0.00     0.033 H 
ENDBRANCH  16  20
ENDBRANCH  13  16
ENDBRANCH  11  13
BRANCH  11  24
ATOM     24  CB  GLN d   1      -1.018  -7.366 -10.126  0.00  0.00    -0.022 C 
ATOM     25  H9  GLN d   1      -0.815  -8.443 -10.034  0.00  0.00     0.037 H 
ATOM     26  H10 GLN d   1      -1.847  -7.091  -9.457  0.00  0.00     0.037 H 
BRANCH  24  27
ATOM     27  CG  GLN d   1       0.228  -6.608  -9.673  0.00  0.00     0.011 C 
ATOM     28  H11 GLN d   1       1.065  -6.878 -10.333  0.00  0.00     0.047 H 
ATOM     29  H12 GLN d   1       0.465  -6.904  -8.640  0.00  0.00     0.047 H 
BRANCH  27  30
ATOM     30  CD  GLN d   1       0.040  -5.103  -9.717  0.00  0.00     0.215 C 
ATOM     31  OE1 GLN d   1      -0.872  -4.566  -9.078  0.00  0.00    -0.274 OA
ATOM     32  NE2 GLN d   1       0.898  -4.411 -10.465  0.00  0.00    -0.370 N 
ATOM     33  H13 GLN d   1       0.817  -3.416 -10.528  0.00  0.00     0.159 HD
ATOM     34  H14 GLN d   1       1.623  -4.886 -10.964  0.00  0.00     0.159 HD
ENDBRANCH  27  30
ENDBRANCH  24  27
ENDBRANCH  11  24
ENDBRANCH   8  11
ENDBRANCH   5   7
BRANCH   5  35
ATOM     35  CB  LEU d   1       1.531  -5.715 -15.146  0.00  0.00    -0.035 C 
ATOM     36  H17 LEU d   1       2.489  -5.872 -15.663  0.00  0.00     0.037 H 
ATOM     37  H18 LEU d   1       1.491  -4.689 -14.751  0.00  0.00     0.037 H 
BRANCH  35  38
ATOM     38  CG  LEU d   1       0.402  -5.874 -16.175  0.00  0.00    -0.059 C 
ATOM     39  H19 LEU d   1      -0.553  -5.874 -15.630  0.00  0.00     0.038 H 
BRANCH  38  40
ATOM     40  CD1 LEU d   1       0.383  -4.710 -17.149  0.00  0.00    -0.073 C 
ATOM     41  H20 LEU d   1      -0.434  -4.851 -17.872  0.00  0.00     0.028 H 
ATOM     42  H21 LEU d   1       1.343  -4.664 -17.684  0.00  0.00     0.028 H 
ATOM     43  H22 LEU d   1       0.226  -3.772 -16.596  0.00  0.00     0.028 H 
ENDBRANCH  38  40
BRANCH  38  44
ATOM     44  CD2 LEU d   1       0.516  -7.199 -16.916  0.00  0.00    -0.073 C 
ATOM     45  H23 LEU d   1       0.528  -8.025 -16.190  0.00  0.00     0.028 H 
ATOM     46  H24 LEU d   1       1.447  -7.213 -17.502  0.00  0.00     0.028 H 
ATOM     47  H25 LEU d   1      -0.344  -7.317 -17.591  0.00  0.00     0.028 H 
ENDBRANCH  38  44
ENDBRANCH  35  38
ENDBRANCH   5  35
ENDBRANCH   1   5
BRANCH   3  48
ATOM     48  CA  ASP d   1       5.031  -7.176 -12.802  0.00  0.00     0.098 C 
ATOM     49  H27 ASP d   1       4.893  -7.176 -11.711  0.00  0.00     0.088 H 
BRANCH  48  50
ATOM     50  C   ASP d   1       5.620  -5.857 -13.238  0.00  0.00     0.241 C 
ATOM     51  O   ASP d   1       5.482  -5.458 -14.395  0.00  0.00    -0.271 OA
ATOM     52  N   LEU d   1       6.269  -5.183 -12.298  0.00  0.00    -0.346 N 
ATOM     53  H30 LEU d   1       6.321  -5.569 -11.377  0.00  0.00     0.163 HD
BRANCH  52  54
ATOM     54  CA  LEU d   1       6.906  -3.905 -12.559  0.00  0.00     0.089 C 
ATOM     55  H31 LEU d   1       6.175  -3.227 -13.024  0.00  0.00     0.087 H 
BRANCH  54  56
ATOM     56  C   LEU d   1       8.079  -4.099 -13.520  0.00  0.00     0.241 C 
ATOM     57  O   LEU d   1       9.000  -4.878 -13.247  0.00  0.00    -0.271 OA
ATOM     58  N   ALA d   1       8.017  -3.409 -14.655  0.00  0.00    -0.345 N 
ATOM     59  H41 ALA d   1       7.247  -2.789 -14.803  0.00  0.00     0.163 HD
BRANCH  58  60
ATOM     60  CA  ALA d   1       9.039  -3.528 -15.693  0.00  0.00     0.093 C 
ATOM     61  H42 ALA d   1      10.029  -3.473 -15.217  0.00  0.00     0.089 H 
BRANCH  60  62
ATOM     62  C   ALA d   1       8.918  -2.389 -16.695  0.00  0.00     0.196 C 
ATOM     63  O   ALA d   1       7.852  -1.791 -16.855  0.00  0.00    -0.646 OA
ATOM     64  OXT ALA d   1       9.885  -2.043 -17.370  0.00  0.00    -0.646 OA
ENDBRANCH  60  62
BRANCH  60  65
ATOM     65  CB  ALA d   1       8.916  -4.866 -16.404  0.00  0.00    -0.048 C 
ATOM     66  H43 ALA d   1       9.691  -4.941 -17.181  0.00  0.00     0.030 H 
ATOM     67  H44 ALA d   1       7.922  -4.944 -16.868  0.00  0.00     0.030 H 
ATOM     68  H45 ALA d   1       9.046  -5.681 -15.677  0.00  0.00     0.030 H 
ENDBRANCH  60  65
ENDBRANCH  58  60
ENDBRANCH  54  56
BRANCH  54  69
ATOM     69  CB  LEU d   1       7.377  -3.293 -11.239  0.00  0.00    -0.035 C 
ATOM     70  H32 LEU d   1       8.165  -3.952 -10.845  0.00  0.00     0.037 H 
ATOM     71  H33 LEU d   1       6.515  -3.303 -10.556  0.00  0.00     0.037 H 
BRANCH  69  72
ATOM     72  CG  LEU d   1       7.937  -1.874 -11.224  0.00  0.00    -0.059 C 
ATOM     73  H34 LEU d   1       8.905  -1.875 -11.747  0.00  0.00     0.038 H 
BRANCH  72  74
ATOM     74  CD1 LEU d   1       7.023  -0.892 -11.935  0.00  0.00    -0.073 C 
ATOM     75  H35 LEU d   1       7.466   0.114 -11.899  0.00  0.00     0.028 H 
ATOM     76  H36 LEU d   1       6.042  -0.878 -11.438  0.00  0.00     0.028 H 
ATOM     77  H37 LEU d   1       6.899  -1.200 -12.984  0.00  0.00     0.028 H 
ENDBRANCH  72  74
BRANCH  72  78
ATOM     78  CD2 LEU d   1       8.166  -1.464  -9.779  0.00  0.00    -0.073 C 
ATOM     79  H38 LEU d   1       8.830  -2.193  -9.292  0.00  0.00     0.028 H 
ATOM     80  H39 LEU d   1       7.202  -1.435  -9.249  0.00  0.00     0.028 H 
ATOM     81  H40 LEU d   1       8.631  -0.468  -9.750  0.00  0.00     0.028 H 
ENDBRANCH  72  78
ENDBRANCH  69  72
ENDBRANCH  54  69
ENDBRANCH  52  54
ENDBRANCH  48  50
BRANCH  48  82
ATOM     82  CB  ASP d   1       5.973  -8.323 -13.182  0.00  0.00     0.043 C 
ATOM     83  H28 ASP d   1       6.984  -8.082 -12.823  0.00  0.00     0.052 H 
ATOM     84  H29 ASP d   1       5.986  -8.420 -14.278  0.00  0.00     0.052 H 
BRANCH  82  85
ATOM     85  CG  ASP d   1       5.549  -9.646 -12.584  0.00  0.00     0.175 C 
ATOM     86  OD1 ASP d   1       4.927  -9.645 -11.499  0.00  0.00    -0.648 OA
ATOM     87  OD2 ASP d   1       5.845 -10.692 -13.194  0.00  0.00    -0.648 OA
ENDBRANCH  82  85
ENDBRANCH  48  82
ENDBRANCH   3  48
TORSDOF 27
