REMARK  29 active torsions:
REMARK  status: ('A' for Active; 'I' for Inactive)
REMARK    1  A    between atoms: C06_6  and  C07_7 
REMARK    2  A    between atoms: C07_7  and  O08_8 
REMARK    3  A    between atoms: O08_8  and  C09_9 
REMARK    4  A    between atoms: C09_9  and  C10_10 
REMARK    5  A    between atoms: C10_10  and  C11_11 
REMARK    6  A    between atoms: C11_11  and  O01_12 
REMARK    7  A    between atoms: C11_11  and  C25_17 
REMARK    8  A    between atoms: O01_12  and  C13_13 
REMARK    9  A    between atoms: C13_13  and  C15_15 
REMARK   10  A    between atoms: C15_15  and  C16_16 
REMARK   11  A    between atoms: C25_17  and  C18_18 
REMARK   12  A    between atoms: C25_17  and  C26_19 
REMARK   13  A    between atoms: C26_19  and  O11_20 
REMARK   14  A    between atoms: C26_19  and  C27_21 
REMARK   15  A    between atoms: C27_21  and  C39_22 
REMARK   16  A    between atoms: C27_21  and  C28_23 
REMARK   17  A    between atoms: C28_23  and  C29_24 
REMARK   18  A    between atoms: C29_24  and  C30_25 
REMARK   19  A    between atoms: C30_25  and  C31_27 
REMARK   20  A    between atoms: C31_27  and  C40_28 
REMARK   21  A    between atoms: C31_27  and  C32_29 
REMARK   22  A    between atoms: C32_29  and  O13_30 
REMARK   23  A    between atoms: C32_29  and  C33_34 
REMARK   24  A    between atoms: O13_30  and  C44_31 
REMARK   25  A    between atoms: C44_31  and  C08_33 
REMARK   26  A    between atoms: C33_34  and  C41_35 
REMARK   27  A    between atoms: C33_34  and  C34_36 
REMARK   28  A    between atoms: C35_37  and  N5_38 
REMARK   29  A    between atoms: N5_38  and  C43_39 
REMARK       I    between atoms: N5_38  and  C42_40 
ROOT
ATOM      1  C27 NWM d   1      12.239   6.778 -76.283  0.00  0.00    -0.032 C 
ATOM      2  H   NWM d   1      11.824   7.375 -77.108  0.00  0.00     0.043 H 
ENDROOT
BRANCH   1   3
ATOM      3  C26 NWM d   1      12.583   5.412 -76.920  0.00  0.00     0.044 C 
ATOM      4  H   NWM d   1      11.641   5.114 -77.403  0.00  0.00     0.084 H 
BRANCH   3   5
ATOM      5  C25 NWM d   1      12.855   4.247 -75.897  0.00  0.00    -0.007 C 
ATOM      6  H   NWM d   1      11.882   4.085 -75.410  0.00  0.00     0.047 H 
BRANCH   5   7
ATOM      7  C11 NWM d   1      13.183   2.890 -76.600  0.00  0.00     0.055 C 
ATOM      8  H   NWM d   1      12.589   2.913 -77.525  0.00  0.00     0.085 H 
BRANCH   7   9
ATOM      9  C10 NWM d   1      14.571   2.692 -77.069  0.00  0.00    -0.020 C 
ATOM     10  H   NWM d   1      14.545   1.925 -77.857  0.00  0.00     0.040 H 
ATOM     11  H   NWM d   1      14.912   3.646 -77.497  0.00  0.00     0.040 H 
BRANCH   9  12
ATOM     12  C09 NWM d   1      15.601   2.260 -76.051  0.00  0.00     0.022 C 
ATOM     13  H   NWM d   1      16.433   2.975 -76.122  0.00  0.00     0.074 H 
ATOM     14  H   NWM d   1      15.124   2.349 -75.064  0.00  0.00     0.074 H 
BRANCH  12  15
ATOM     15  O08 NWM d   1      16.163   0.987 -76.110  0.00  0.00    -0.387 OA
BRANCH  15  16
ATOM     16  C07 NWM d   1      16.408   0.224 -74.957  0.00  0.00     0.043 C 
ATOM     17  H   NWM d   1      15.486  -0.343 -74.758  0.00  0.00     0.081 H 
ATOM     18  H   NWM d   1      17.219  -0.473 -75.213  0.00  0.00     0.081 H 
BRANCH  16  19
ATOM     19  C06 NWM d   1      16.800   0.873 -73.649  0.00  0.00    -0.035 A 
ATOM     20  C01 NWM d   1      18.132   0.714 -73.198  0.00  0.00    -0.075 A 
ATOM     21  C02 NWM d   1      18.537   1.295 -72.005  0.00  0.00    -0.082 A 
ATOM     22  H   NWM d   1      18.837   0.137 -73.786  0.00  0.00     0.084 H 
ATOM     23  C03 NWM d   1      17.610   2.035 -71.241  0.00  0.00    -0.083 A 
ATOM     24  H   NWM d   1      19.559   1.181 -71.662  0.00  0.00     0.083 H 
ATOM     25  C04 NWM d   1      16.282   2.190 -71.679  0.00  0.00    -0.082 A 
ATOM     26  H   NWM d   1      17.924   2.488 -70.308  0.00  0.00     0.083 H 
ATOM     27  C05 NWM d   1      15.885   1.602 -72.879  0.00  0.00    -0.075 A 
ATOM     28  H   NWM d   1      15.574   2.761 -71.089  0.00  0.00     0.083 H 
ATOM     29  H   NWM d   1      14.861   1.710 -73.219  0.00  0.00     0.084 H 
ENDBRANCH  16  19
ENDBRANCH  15  16
ENDBRANCH  12  15
ENDBRANCH   9  12
ENDBRANCH   7   9
BRANCH   7  30
ATOM     30  O01 NWM d   1      12.700   1.821 -75.893  0.00  0.00    -0.316 OA
BRANCH  30  31
ATOM     31  C13 NWM d   1      11.368   1.474 -76.073  0.00  0.00     0.258 C 
ATOM     32  O02 NWM d   1      10.824   1.543 -77.152  0.00  0.00    -0.265 OA
BRANCH  31  33
ATOM     33  C15 NWM d   1      10.494   1.150 -74.904  0.00  0.00     0.013 C 
ATOM     34  H   NWM d   1      10.125   2.095 -74.478  0.00  0.00     0.047 H 
ATOM     35  H   NWM d   1      11.103   0.623 -74.155  0.00  0.00     0.047 H 
BRANCH  33  36
ATOM     36  C16 NWM d   1       9.291   0.276 -75.240  0.00  0.00    -0.068 C 
ATOM     37  H   NWM d   1       8.707   0.089 -74.327  0.00  0.00     0.028 H 
ATOM     38  H   NWM d   1       9.638  -0.681 -75.656  0.00  0.00     0.028 H 
ATOM     39  H   NWM d   1       8.660   0.790 -75.980  0.00  0.00     0.028 H 
ENDBRANCH  33  36
ENDBRANCH  31  33
ENDBRANCH  30  31
ENDBRANCH   7  30
ENDBRANCH   5   7
BRANCH   5  40
ATOM     40  C18 NWM d   1      13.758   4.547 -74.796  0.00  0.00    -0.068 C 
ATOM     41  H   NWM d   1      13.477   5.510 -74.344  0.00  0.00     0.028 H 
ATOM     42  H   NWM d   1      14.790   4.606 -75.173  0.00  0.00     0.028 H 
ATOM     43  H   NWM d   1      13.690   3.752 -74.039  0.00  0.00     0.028 H 
ENDBRANCH   5  40
ENDBRANCH   3   5
BRANCH   3  44
ATOM     44  O11 NWM d   1      13.484   5.466 -77.975  0.00  0.00    -0.395 OA
ATOM     45  H   NWM d   1      13.257   6.190 -78.547  0.00  0.00     0.210 HD
ENDBRANCH   3  44
ENDBRANCH   1   3
BRANCH   1  46
ATOM     46  C39 NWM d   1      11.134   6.669 -75.296  0.00  0.00    -0.070 C 
ATOM     47  H   NWM d   1      10.924   7.661 -74.870  0.00  0.00     0.028 H 
ATOM     48  H   NWM d   1      11.428   5.979 -74.491  0.00  0.00     0.028 H 
ATOM     49  H   NWM d   1      10.232   6.286 -75.796  0.00  0.00     0.028 H 
ENDBRANCH   1  46
BRANCH   1  50
ATOM     50  C28 NWM d   1      13.451   7.598 -75.791  0.00  0.00    -0.053 C 
ATOM     51  H   NWM d   1      14.304   7.348 -76.439  0.00  0.00     0.034 H 
ATOM     52  H   NWM d   1      13.668   7.280 -74.761  0.00  0.00     0.034 H 
BRANCH  50  53
ATOM     53  C29 NWM d   1      13.310   9.154 -75.781  0.00  0.00    -0.009 C 
ATOM     54  H   NWM d   1      12.938   9.440 -74.786  0.00  0.00     0.044 H 
ATOM     55  H   NWM d   1      12.561   9.417 -76.542  0.00  0.00     0.044 H 
BRANCH  53  56
ATOM     56  C30 NWM d   1      14.571  10.017 -76.063  0.00  0.00     0.133 C 
ATOM     57  O12 NWM d   1      15.694   9.545 -75.861  0.00  0.00    -0.297 OA
BRANCH  56  58
ATOM     58  C31 NWM d   1      14.428  11.458 -76.585  0.00  0.00     0.026 C 
ATOM     59  H   NWM d   1      13.361  11.585 -76.819  0.00  0.00     0.055 H 
BRANCH  58  60
ATOM     60  C40 NWM d   1      15.126  11.641 -77.892  0.00  0.00    -0.064 C 
ATOM     61  H   NWM d   1      14.834  10.834 -78.580  0.00  0.00     0.028 H 
ATOM     62  H   NWM d   1      16.214  11.612 -77.734  0.00  0.00     0.028 H 
ATOM     63  H   NWM d   1      14.844  12.612 -78.326  0.00  0.00     0.028 H 
ENDBRANCH  58  60
BRANCH  58  64
ATOM     64  C32 NWM d   1      14.711  12.499 -75.482  0.00  0.00     0.064 C 
ATOM     65  H   NWM d   1      15.745  12.288 -75.171  0.00  0.00     0.086 H 
BRANCH  64  66
ATOM     66  O13 NWM d   1      13.885  12.244 -74.306  0.00  0.00    -0.315 OA
BRANCH  66  67
ATOM     67  C44 NWM d   1      14.473  12.094 -73.047  0.00  0.00     0.255 C 
ATOM     68  O32 NWM d   1      15.664  12.168 -72.946  0.00  0.00    -0.266 OA
BRANCH  67  69
ATOM     69  C08 NWM d   1      13.707  11.380 -72.001  0.00  0.00     0.004 C 
ATOM     70  H   NWM d   1      14.298  11.344 -71.074  0.00  0.00     0.041 H 
ATOM     71  H   NWM d   1      13.492  10.355 -72.339  0.00  0.00     0.041 H 
ATOM     72  H   NWM d   1      12.762  11.910 -71.813  0.00  0.00     0.041 H 
ENDBRANCH  67  69
ENDBRANCH  66  67
ENDBRANCH  64  66
BRANCH  64  73
ATOM     73  C33 NWM d   1      14.729  13.977 -75.844  0.00  0.00    -0.013 C 
ATOM     74  H   NWM d   1      15.370  14.046 -76.735  0.00  0.00     0.049 H 
BRANCH  73  75
ATOM     75  C41 NWM d   1      15.398  14.849 -74.804  0.00  0.00    -0.067 C 
ATOM     76  H   NWM d   1      15.373  15.898 -75.134  0.00  0.00     0.028 H 
ATOM     77  H   NWM d   1      16.443  14.530 -74.675  0.00  0.00     0.028 H 
ATOM     78  H   NWM d   1      14.865  14.753 -73.847  0.00  0.00     0.028 H 
ENDBRANCH  73  75
BRANCH  73  79
ATOM     79  C34 NWM d   1      13.358  14.520 -76.288  0.00  0.00    -0.082 C 
ATOM     80  C35 NWM d   1      13.103  14.593 -77.671  0.00  0.00    -0.022 C 
ATOM     81  H   NWM d   1      13.927  14.482 -78.374  0.00  0.00     0.111 H 
ATOM     82  H   NWM d   1      12.613  14.836 -75.559  0.00  0.00     0.079 H 
BRANCH  80  83
ATOM     83  N5  NWM d   1      11.740  14.817 -78.182  0.00  0.00    -0.340 N 
ATOM     84  C42 NWM d   1      11.577  15.601 -79.338  0.00  0.00     0.174 C 
ATOM     85  O14 NWM d   1      10.447  15.795 -79.797  0.00  0.00    -0.283 OA
ATOM     86  H   NWM d   1      12.447  16.037 -79.828  0.00  0.00     0.180 H 
BRANCH  83  87
ATOM     87  C43 NWM d   1      10.576  14.221 -77.527  0.00  0.00    -0.013 C 
ATOM     88  H   NWM d   1       9.663  14.513 -78.066  0.00  0.00     0.057 H 
ATOM     89  H   NWM d   1      10.518  14.577 -76.488  0.00  0.00     0.057 H 
ATOM     90  H   NWM d   1      10.672  13.125 -77.535  0.00  0.00     0.057 H 
ENDBRANCH  83  87
ENDBRANCH  80  83
ENDBRANCH  73  79
ENDBRANCH  64  73
ENDBRANCH  58  64
ENDBRANCH  56  58
ENDBRANCH  53  56
ENDBRANCH  50  53
ENDBRANCH   1  50
TORSDOF 29
