REMARK  23 active torsions:
REMARK  status: ('A' for Active; 'I' for Inactive)
REMARK       I    between atoms: C02_2  and  N03_3 
REMARK    1  A    between atoms: N03_3  and  C04_4 
REMARK    2  A    between atoms: N03_3  and  C05_5 
REMARK    3  A    between atoms: C06_6  and  C07_7 
REMARK    4  A    between atoms: C07_7  and  C08_8 
REMARK    5  A    between atoms: C08_8  and  O09_9 
REMARK    6  A    between atoms: C08_8  and  C11_11 
REMARK    7  A    between atoms: O09_9  and  C10_10 
REMARK    8  A    between atoms: C11_11  and  C12_12 
REMARK    9  A    between atoms: C11_11  and  C13_13 
REMARK   10  A    between atoms: C13_13  and  C15_15 
REMARK   11  A    between atoms: C15_15  and  C16_16 
REMARK   12  A    between atoms: C16_16  and  C17_17 
REMARK   13  A    between atoms: C17_17  and  C18_18 
REMARK   14  A    between atoms: C17_17  and  C19_19 
REMARK   15  A    between atoms: C19_19  and  O20_20 
REMARK   16  A    between atoms: C19_19  and  C22_22 
REMARK   17  A    between atoms: O20_20  and  C21_21 
REMARK   18  A    between atoms: C22_22  and  C23_23 
REMARK   19  A    between atoms: C22_22  and  C24_24 
REMARK   20  A    between atoms: C25_25  and  C26_26 
REMARK   21  A    between atoms: C29_29  and  C31_31 
REMARK   22  A    between atoms: C34_34  and  O37_37 
REMARK   23  A    between atoms: O37_37  and  C38_38 
ROOT
ATOM      1  C19 1PO d   1     -33.383  -7.862  -2.965  0.00  0.00     0.046 C 
ATOM      2  H   1PO d   1     -32.494  -7.346  -3.357  0.00  0.00     0.084 H 
ENDROOT
BRANCH   1   3
ATOM      3  C17 1PO d   1     -33.026  -9.387  -2.752  0.00  0.00    -0.032 C 
ATOM      4  H   1PO d   1     -32.630  -9.784  -3.698  0.00  0.00     0.043 H 
BRANCH   3   5
ATOM      5  C16 1PO d   1     -34.250 -10.249  -2.349  0.00  0.00    -0.053 C 
ATOM      6  H   1PO d   1     -34.449 -10.069  -1.282  0.00  0.00     0.034 H 
ATOM      7  H   1PO d   1     -35.110  -9.909  -2.945  0.00  0.00     0.034 H 
BRANCH   5   8
ATOM      8  C15 1PO d   1     -34.110 -11.786  -2.553  0.00  0.00    -0.009 C 
ATOM      9  H   1PO d   1     -34.082 -11.985  -3.634  0.00  0.00     0.044 H 
ATOM     10  H   1PO d   1     -33.161 -12.105  -2.097  0.00  0.00     0.044 H 
BRANCH   8  11
ATOM     11  C13 1PO d   1     -35.238 -12.627  -1.943  0.00  0.00     0.133 C 
ATOM     12  O14 1PO d   1     -36.180 -12.027  -1.452  0.00  0.00    -0.297 OA
BRANCH  11  13
ATOM     13  C11 1PO d   1     -35.225 -14.165  -1.920  0.00  0.00     0.026 C 
ATOM     14  H   1PO d   1     -34.280 -14.483  -2.385  0.00  0.00     0.055 H 
BRANCH  13  15
ATOM     15  C08 1PO d   1     -35.283 -14.818  -0.482  0.00  0.00     0.050 C 
ATOM     16  H   1PO d   1     -36.293 -14.706  -0.062  0.00  0.00     0.084 H 
BRANCH  15  17
ATOM     17  C07 1PO d   1     -34.862 -16.322  -0.488  0.00  0.00    -0.024 C 
ATOM     18  H   1PO d   1     -34.768 -16.653   0.557  0.00  0.00     0.042 H 
ATOM     19  H   1PO d   1     -35.658 -16.896  -0.985  0.00  0.00     0.042 H 
BRANCH  17  20
ATOM     20  C06 1PO d   1     -33.571 -16.620  -1.186  0.00  0.00    -0.086 C 
ATOM     21  C05 1PO d   1     -33.410 -17.576  -2.128  0.00  0.00    -0.022 C 
ATOM     22  H   1PO d   1     -34.287 -18.132  -2.456  0.00  0.00     0.111 H 
ATOM     23  H   1PO d   1     -32.700 -16.024  -0.915  0.00  0.00     0.079 H 
BRANCH  21  24
ATOM     24  N03 1PO d   1     -32.148 -17.892  -2.713  0.00  0.00    -0.340 N 
ATOM     25  C02 1PO d   1     -32.003 -18.806  -3.754  0.00  0.00     0.174 C 
ATOM     26  O01 1PO d   1     -30.898 -19.053  -4.231  0.00  0.00    -0.283 OA
ATOM     27  H   1PO d   1     -32.883 -19.310  -4.151  0.00  0.00     0.180 H 
BRANCH  24  28
ATOM     28  C04 1PO d   1     -30.899 -17.254  -2.237  0.00  0.00    -0.013 C 
ATOM     29  H   1PO d   1     -31.132 -16.556  -1.419  0.00  0.00     0.057 H 
ATOM     30  H   1PO d   1     -30.429 -16.704  -3.066  0.00  0.00     0.057 H 
ATOM     31  H   1PO d   1     -30.208 -18.028  -1.872  0.00  0.00     0.057 H 
ENDBRANCH  24  28
ENDBRANCH  21  24
ENDBRANCH  17  20
ENDBRANCH  15  17
BRANCH  15  32
ATOM     32  O09 1PO d   1     -34.323 -14.175   0.316  0.00  0.00    -0.390 OA
BRANCH  32  33
ATOM     33  C10 1PO d   1     -34.814 -13.621   1.505  0.00  0.00     0.004 C 
ATOM     34  H   1PO d   1     -33.990 -13.144   2.055  0.00  0.00     0.066 H 
ATOM     35  H   1PO d   1     -35.256 -14.415   2.124  0.00  0.00     0.066 H 
ATOM     36  H   1PO d   1     -35.582 -12.869   1.270  0.00  0.00     0.066 H 
ENDBRANCH  32  33
ENDBRANCH  15  32
ENDBRANCH  13  15
BRANCH  13  37
ATOM     37  C12 1PO d   1     -36.381 -14.722  -2.757  0.00  0.00    -0.064 C 
ATOM     38  H   1PO d   1     -36.354 -14.276  -3.762  0.00  0.00     0.028 H 
ATOM     39  H   1PO d   1     -37.337 -14.475  -2.272  0.00  0.00     0.028 H 
ATOM     40  H   1PO d   1     -36.282 -15.815  -2.838  0.00  0.00     0.028 H 
ENDBRANCH  13  37
ENDBRANCH  11  13
ENDBRANCH   8  11
ENDBRANCH   5   8
ENDBRANCH   3   5
BRANCH   3  41
ATOM     41  C18 1PO d   1     -31.941  -9.478  -1.686  0.00  0.00    -0.070 C 
ATOM     42  H   1PO d   1     -31.080  -8.862  -1.986  0.00  0.00     0.028 H 
ATOM     43  H   1PO d   1     -31.622 -10.525  -1.576  0.00  0.00     0.028 H 
ATOM     44  H   1PO d   1     -32.337  -9.113  -0.727  0.00  0.00     0.028 H 
ENDBRANCH   3  41
ENDBRANCH   1   3
BRANCH   1  45
ATOM     45  O20 1PO d   1     -33.727  -7.369  -1.697  0.00  0.00    -0.390 OA
BRANCH  45  46
ATOM     46  C21 1PO d   1     -32.895  -6.345  -1.220  0.00  0.00     0.004 C 
ATOM     47  H   1PO d   1     -33.241  -6.025  -0.226  0.00  0.00     0.066 H 
ATOM     48  H   1PO d   1     -32.930  -5.491  -1.913  0.00  0.00     0.066 H 
ATOM     49  H   1PO d   1     -31.862  -6.716  -1.147  0.00  0.00     0.066 H 
ENDBRANCH  45  46
ENDBRANCH   1  45
BRANCH   1  50
ATOM     50  C22 1PO d   1     -34.598  -7.538  -3.898  0.00  0.00    -0.006 C 
ATOM     51  H   1PO d   1     -35.488  -7.998  -3.443  0.00  0.00     0.047 H 
BRANCH  50  52
ATOM     52  C23 1PO d   1     -34.438  -8.118  -5.296  0.00  0.00    -0.068 C 
ATOM     53  H   1PO d   1     -35.318  -7.859  -5.903  0.00  0.00     0.028 H 
ATOM     54  H   1PO d   1     -34.347  -9.212  -5.231  0.00  0.00     0.028 H 
ATOM     55  H   1PO d   1     -33.534  -7.702  -5.764  0.00  0.00     0.028 H 
ENDBRANCH  50  52
BRANCH  50  56
ATOM     56  C24 1PO d   1     -34.857  -6.000  -4.013  0.00  0.00     0.052 C 
ATOM     57  C25 1PO d   1     -35.802  -5.726  -5.198  0.00  0.00    -0.011 C 
ATOM     58  C27 1PO d   1     -35.831  -4.197  -5.384  0.00  0.00     0.028 C 
ATOM     59  H   1PO d   1     -35.393  -6.197  -6.104  0.00  0.00     0.046 H 
ATOM     60  O28 1PO d   1     -34.515  -3.666  -5.461  0.00  0.00    -0.356 OA
ATOM     61  H   1PO d   1     -36.353  -3.741  -4.530  0.00  0.00     0.075 H 
ATOM     62  H   1PO d   1     -36.370  -3.958  -6.313  0.00  0.00     0.075 H 
ATOM     63  C29 1PO d   1     -33.701  -3.917  -4.335  0.00  0.00     0.157 C 
ATOM     64  O30 1PO d   1     -33.631  -5.322  -4.213  0.00  0.00    -0.351 OA
ATOM     65  H   1PO d   1     -34.159  -3.491  -3.430  0.00  0.00     0.137 H 
ATOM     66  H   1PO d   1     -35.324  -5.639  -3.084  0.00  0.00     0.084 H 
BRANCH  57  67
ATOM     67  C26 1PO d   1     -37.206  -6.285  -4.959  0.00  0.00    -0.069 C 
ATOM     68  H   1PO d   1     -37.841  -6.065  -5.830  0.00  0.00     0.028 H 
ATOM     69  H   1PO d   1     -37.639  -5.818  -4.062  0.00  0.00     0.028 H 
ATOM     70  H   1PO d   1     -37.147  -7.374  -4.814  0.00  0.00     0.028 H 
ENDBRANCH  57  67
BRANCH  63  71
ATOM     71  C31 1PO d   1     -32.305  -3.260  -4.551  0.00  0.00    -0.004 A 
ATOM     72  C32 1PO d   1     -31.253  -3.957  -5.174  0.00  0.00    -0.070 A 
ATOM     73  C33 1PO d   1     -29.982  -3.413  -5.379  0.00  0.00    -0.050 A 
ATOM     74  H   1PO d   1     -31.438  -4.970  -5.513  0.00  0.00     0.084 H 
ATOM     75  C34 1PO d   1     -29.692  -2.117  -4.960  0.00  0.00     0.068 A 
ATOM     76  H   1PO d   1     -29.216  -4.004  -5.868  0.00  0.00     0.087 H 
ATOM     77  C35 1PO d   1     -30.710  -1.397  -4.332  0.00  0.00    -0.050 A 
ATOM     78  C36 1PO d   1     -31.979  -1.969  -4.137  0.00  0.00    -0.070 A 
ATOM     79  H   1PO d   1     -30.520  -0.386  -3.991  0.00  0.00     0.087 H 
ATOM     80  H   1PO d   1     -32.741  -1.378  -3.641  0.00  0.00     0.084 H 
BRANCH  75  81
ATOM     81  O37 1PO d   1     -28.446  -1.552  -5.145  0.00  0.00    -0.356 OA
BRANCH  81  82
ATOM     82  C38 1PO d   1     -27.360  -2.180  -4.486  0.00  0.00     0.010 C 
ATOM     83  H   1PO d   1     -26.430  -1.637  -4.713  0.00  0.00     0.066 H 
ATOM     84  H   1PO d   1     -27.272  -3.220  -4.834  0.00  0.00     0.066 H 
ATOM     85  H   1PO d   1     -27.535  -2.170  -3.400  0.00  0.00     0.066 H 
ENDBRANCH  81  82
ENDBRANCH  75  81
ENDBRANCH  63  71
ENDBRANCH  50  56
ENDBRANCH   1  50
TORSDOF 23
