REMARK  7 active torsions:
REMARK  status: ('A' for Active; 'I' for Inactive)
REMARK    1  A    between atoms: N1_1  and  C1_2 
REMARK    2  A    between atoms: N1_1  and  C8_11 
REMARK    3  A    between atoms: C6_7  and  O1_8 
REMARK    4  A    between atoms: O1_8  and  C7_9 
REMARK    5  A    between atoms: C8_11  and  C9_12 
REMARK       I    between atoms: C9_12  and  N2_14 
REMARK    6  A    between atoms: N2_14  and  C10_15 
REMARK    7  A    between atoms: C15_20  and  N3_21 
ROOT
ATOM      1  C10 K4E d   1      -7.356  40.649  27.003  0.00  0.00     0.012 C 
ATOM      2  C11 K4E d   1      -7.828  40.313  28.457  0.00  0.00    -0.044 C 
ATOM      3  C12 K4E d   1      -8.868  39.205  28.532  0.00  0.00    -0.044 C 
ATOM      4  C13 K4E d   1      -8.587  40.902  26.056  0.00  0.00    -0.044 C 
ATOM      5  C14 K4E d   1      -9.724  39.838  26.183  0.00  0.00    -0.044 C 
ATOM      6  C15 K4E d   1     -10.067  39.491  27.654  0.00  0.00     0.022 C 
ATOM      7  H11 K4E d   1      -6.758  39.813  26.610  0.00  0.00     0.072 H 
ATOM      8  H12 K4E d   1      -8.260  41.223  28.899  0.00  0.00     0.036 H 
ATOM      9  H13 K4E d   1      -6.950  40.003  29.042  0.00  0.00     0.036 H 
ATOM     10  H14 K4E d   1      -9.207  39.106  29.574  0.00  0.00     0.036 H 
ATOM     11  H15 K4E d   1      -8.406  38.262  28.205  0.00  0.00     0.036 H 
ATOM     12  H16 K4E d   1      -8.228  40.900  25.016  0.00  0.00     0.036 H 
ATOM     13  H17 K4E d   1      -9.010  41.889  26.296  0.00  0.00     0.036 H 
ATOM     14  H18 K4E d   1      -9.402  38.919  25.672  0.00  0.00     0.036 H 
ATOM     15  H19 K4E d   1     -10.628  40.231  25.696  0.00  0.00     0.036 H 
ATOM     16  H20 K4E d   1     -10.576  40.367  28.082  0.00  0.00     0.073 H 
ENDROOT
BRANCH   1  17
ATOM     17  N2  K4E d   1      -6.548  41.858  27.046  0.00  0.00    -0.355 N 
ATOM     18  C9  K4E d   1      -5.281  41.855  26.724  0.00  0.00     0.235 C 
ATOM     19  O2  K4E d   1      -4.657  40.847  26.530  0.00  0.00    -0.272 OA
ATOM     20  H10 K4E d   1      -6.974  42.717  27.330  0.00  0.00     0.162 HD
BRANCH  18  21
ATOM     21  C8  K4E d   1      -4.622  43.187  26.594  0.00  0.00     0.066 C 
ATOM     22  H8  K4E d   1      -3.836  43.273  27.359  0.00  0.00     0.078 H 
ATOM     23  H9  K4E d   1      -4.171  43.267  25.594  0.00  0.00     0.078 H 
BRANCH  21  24
ATOM     24  N1  K4E d   1      -5.581  44.277  26.772  0.00  0.00    -0.379 N 
ATOM     25  H1  K4E d   1      -5.926  44.790  25.948  0.00  0.00     0.160 HD
BRANCH  24  26
ATOM     26  C1  K4E d   1      -6.033  44.630  28.036  0.00  0.00     0.063 A 
ATOM     27  C2  K4E d   1      -5.193  44.445  29.182  0.00  0.00    -0.034 A 
ATOM     28  C3  K4E d   1      -5.785  44.805  30.449  0.00  0.00     0.036 A 
ATOM     29  H2  K4E d   1      -4.182  44.061  29.103  0.00  0.00     0.089 H 
ATOM     30  C4  K4E d   1      -7.116  45.316  30.617  0.00  0.00    -0.059 A 
ATOM     31 CL1  K4E d   1      -4.958  44.699  32.007  0.00  0.00    -0.084 Cl
ATOM     32  C5  K4E d   1      -7.967  45.513  29.480  0.00  0.00    -0.047 A 
ATOM     33  H3  K4E d   1      -7.480  45.554  31.610  0.00  0.00     0.086 H 
ATOM     34  C6  K4E d   1      -7.396  45.157  28.192  0.00  0.00     0.094 A 
ATOM     35  H4  K4E d   1      -8.974  45.903  29.575  0.00  0.00     0.087 H 
BRANCH  34  36
ATOM     36  O1  K4E d   1      -8.160  45.292  27.008  0.00  0.00    -0.354 OA
BRANCH  36  37
ATOM     37  C7  K4E d   1      -9.381  44.500  26.941  0.00  0.00     0.010 C 
ATOM     38  H5  K4E d   1      -9.887  44.686  25.982  0.00  0.00     0.066 H 
ATOM     39  H6  K4E d   1     -10.048  44.784  27.768  0.00  0.00     0.066 H 
ATOM     40  H7  K4E d   1      -9.130  43.432  27.022  0.00  0.00     0.066 H 
ENDBRANCH  36  37
ENDBRANCH  34  36
ENDBRANCH  24  26
ENDBRANCH  21  24
ENDBRANCH  18  21
ENDBRANCH   1  17
BRANCH   6  41
ATOM     41  N3  K4E d   1     -11.019  38.344  27.688  0.00  0.00    -0.293 N 
ATOM     42  C16 K4E d   1     -10.976  37.106  27.162  0.00  0.00     0.328 A 
ATOM     43  O3  K4E d   1     -10.089  36.648  26.522  0.00  0.00    -0.246 OA
ATOM     44  N4  K4E d   1     -12.064  36.393  27.412  0.00  0.00    -0.306 N 
ATOM     45  C17 K4E d   1     -12.884  37.215  28.105  0.00  0.00     0.063 A 
ATOM     46  H21 K4E d   1     -12.242  35.446  27.145  0.00  0.00     0.171 HD
ATOM     47  C18 K4E d   1     -12.225  38.452  28.306  0.00  0.00     0.066 A 
ATOM     48  C22 K4E d   1     -14.207  36.964  28.577  0.00  0.00    -0.055 A 
ATOM     49  C19 K4E d   1     -12.832  39.551  29.003  0.00  0.00    -0.055 A 
ATOM     50  C20 K4E d   1     -14.174  39.334  29.497  0.00  0.00    -0.081 A 
ATOM     51  H22 K4E d   1     -12.313  40.491  29.151  0.00  0.00     0.087 H 
ATOM     52  C21 K4E d   1     -14.834  38.063  29.280  0.00  0.00    -0.081 A 
ATOM     53  H23 K4E d   1     -14.688  40.125  30.031  0.00  0.00     0.083 H 
ATOM     54  H24 K4E d   1     -15.840  37.929  29.660  0.00  0.00     0.083 H 
ATOM     55  H25 K4E d   1     -14.708  36.016  28.420  0.00  0.00     0.087 H 
ENDBRANCH   6  41
TORSDOF 7
