REMARK  6 active torsions:
REMARK  status: ('A' for Active; 'I' for Inactive)
REMARK    1  A    between atoms: C6_6  and  C7_7 
REMARK    2  A    between atoms: C8_8  and  C9_9 
REMARK    3  A    between atoms: C8_8  and  C10_10 
REMARK    4  A    between atoms: N1_14  and  C12_15 
REMARK    5  A    between atoms: C17_20  and  C18_21 
REMARK       I    between atoms: C18_21  and  N2_23 
REMARK    6  A    between atoms: N2_23  and  C19_24 
ROOT
ATOM      1  C12 K4F d   1      -6.917  42.253  26.848  0.00  0.00     0.040 A 
ATOM      2  C13 K4F d   1      -8.203  42.494  27.442  0.00  0.00    -0.056 A 
ATOM      3  C14 K4F d   1      -9.130  41.442  27.641  0.00  0.00    -0.066 A 
ATOM      4  C15 K4F d   1      -6.606  40.923  26.484  0.00  0.00    -0.056 A 
ATOM      5  C16 K4F d   1      -7.540  39.863  26.686  0.00  0.00    -0.066 A 
ATOM      6  C17 K4F d   1      -8.795  40.121  27.253  0.00  0.00     0.032 A 
ATOM      7  H13 K4F d   1      -8.469  43.501  27.744  0.00  0.00     0.087 H 
ATOM      8  H14 K4F d   1     -10.095  41.647  28.090  0.00  0.00     0.085 H 
ATOM      9  H15 K4F d   1      -5.640  40.704  26.043  0.00  0.00     0.087 H 
ATOM     10  H16 K4F d   1      -7.277  38.851  26.399  0.00  0.00     0.085 H 
ENDROOT
BRANCH   1  11
ATOM     11  N1  K4F d   1      -6.045  43.257  26.588  0.00  0.00    -0.282 N 
ATOM     12  C7  K4F d   1      -6.276  44.726  26.821  0.00  0.00     0.077 C 
ATOM     13  C8  K4F d   1      -5.370  45.423  25.759  0.00  0.00     0.090 C 
ATOM     14  H6  K4F d   1      -7.284  44.877  26.407  0.00  0.00     0.086 H 
ATOM     15  O1  K4F d   1      -4.247  44.479  25.917  0.00  0.00    -0.291 OA
ATOM     16  C11 K4F d   1      -4.707  43.148  26.238  0.00  0.00     0.369 C 
ATOM     17  O2  K4F d   1      -3.980  42.164  26.207  0.00  0.00    -0.238 OA
BRANCH  12  18
ATOM     18  C6  K4F d   1      -6.477  45.238  28.066  0.00  0.00    -0.032 A 
ATOM     19  C1  K4F d   1      -7.514  46.066  28.482  0.00  0.00    -0.075 A 
ATOM     20  C2  K4F d   1      -7.547  46.621  29.785  0.00  0.00    -0.082 A 
ATOM     21  H1  K4F d   1      -8.318  46.293  27.791  0.00  0.00     0.084 H 
ATOM     22  C3  K4F d   1      -6.503  46.318  30.691  0.00  0.00    -0.083 A 
ATOM     23  H2  K4F d   1      -8.362  47.270  30.084  0.00  0.00     0.083 H 
ATOM     24  C4  K4F d   1      -5.428  45.474  30.342  0.00  0.00    -0.082 A 
ATOM     25  H3  K4F d   1      -6.530  46.748  31.686  0.00  0.00     0.083 H 
ATOM     26  C5  K4F d   1      -5.399  44.916  29.013  0.00  0.00    -0.075 A 
ATOM     27  H4  K4F d   1      -4.643  45.251  31.055  0.00  0.00     0.083 H 
ATOM     28  H5  K4F d   1      -4.587  44.263  28.713  0.00  0.00     0.084 H 
ENDBRANCH  12  18
BRANCH  13  29
ATOM     29  C9  K4F d   1      -4.781  46.778  26.250  0.00  0.00    -0.045 C 
ATOM     30  H7  K4F d   1      -4.155  47.214  25.458  0.00  0.00     0.031 H 
ATOM     31  H8  K4F d   1      -4.169  46.608  27.148  0.00  0.00     0.031 H 
ATOM     32  H9  K4F d   1      -5.602  47.469  26.491  0.00  0.00     0.031 H 
ENDBRANCH  13  29
BRANCH  13  33
ATOM     33  C10 K4F d   1      -5.830  45.471  24.353  0.00  0.00    -0.045 C 
ATOM     34  H10 K4F d   1      -6.234  44.489  24.066  0.00  0.00     0.031 H 
ATOM     35  H11 K4F d   1      -4.983  45.725  23.699  0.00  0.00     0.031 H 
ATOM     36  H12 K4F d   1      -6.615  46.235  24.250  0.00  0.00     0.031 H 
ENDBRANCH  13  33
ENDBRANCH   1  11
BRANCH   6  37
ATOM     37  C18 K4F d   1      -9.719  38.946  27.375  0.00  0.00     0.256 C 
ATOM     38  O3  K4F d   1      -9.449  37.836  26.868  0.00  0.00    -0.267 OA
ATOM     39  N2  K4F d   1     -10.892  39.176  28.079  0.00  0.00    -0.321 N 
ATOM     40  H17 K4F d   1     -11.000  40.114  28.408  0.00  0.00     0.169 HD
BRANCH  39  41
ATOM     41  C19 K4F d   1     -11.941  38.330  28.406  0.00  0.00     0.064 A 
ATOM     42  C20 K4F d   1     -11.993  36.959  28.014  0.00  0.00    -0.055 A 
ATOM     43  C21 K4F d   1     -13.137  36.160  28.312  0.00  0.00    -0.080 A 
ATOM     44  H18 K4F d   1     -11.155  36.520  27.485  0.00  0.00     0.087 H 
ATOM     45  C22 K4F d   1     -14.235  36.727  29.003  0.00  0.00    -0.071 A 
ATOM     46  H19 K4F d   1     -13.165  35.119  28.009  0.00  0.00     0.083 H 
ATOM     47  C24 K4F d   1     -14.216  38.050  29.401  0.00  0.00    -0.005 A 
ATOM     48  H20 K4F d   1     -15.102  36.115  29.223  0.00  0.00     0.084 H 
ATOM     49  C23 K4F d   1     -13.033  38.871  29.097  0.00  0.00     0.093 A 
ATOM     50  C25 K4F d   1     -15.282  38.613  30.079  0.00  0.00    -0.069 A 
ATOM     51  N3  K4F d   1     -13.013  40.180  29.502  0.00  0.00    -0.258 NA
ATOM     52  C27 K4F d   1     -14.058  40.752  30.175  0.00  0.00     0.003 A 
ATOM     53  C26 K4F d   1     -15.218  39.968  30.477  0.00  0.00    -0.065 A 
ATOM     54  H23 K4F d   1     -14.008  41.792  30.478  0.00  0.00     0.114 H 
ATOM     55  H22 K4F d   1     -16.049  40.414  31.012  0.00  0.00     0.085 H 
ATOM     56  H21 K4F d   1     -16.161  38.019  30.304  0.00  0.00     0.085 H 
ENDBRANCH  39  41
ENDBRANCH   6  37
TORSDOF 6
