REMARK  7 active torsions:
REMARK  status: ('A' for Active; 'I' for Inactive)
REMARK       I    between atoms: N1_1  and  C1_2 
REMARK       I    between atoms: C1_2  and  N2_3 
REMARK    1  A    between atoms: N3_4  and  C2_5 
REMARK    2  A    between atoms: C2_5  and  C3_6 
REMARK    3  A    between atoms: C3_6  and  C4_7 
REMARK    4  A    between atoms: C4_7  and  C5_8 
REMARK    5  A    between atoms: C5_8  and  C6_9 
REMARK    6  A    between atoms: C6_9  and  N4_10 
REMARK    7  A    between atoms: C6_9  and  P_11 
ROOT
ATOM      1  C4  19N d   1      12.568  12.780  15.030  0.00  0.00    -0.061 C 
ATOM      2  H10 19N d   1      13.591  13.147  15.200  0.00  0.00     0.033 H 
ATOM      3  H11 19N d   1      11.922  13.620  14.735  0.00  0.00     0.033 H 
ENDROOT
BRANCH   1   4
ATOM      4  C3  19N d   1      12.041  12.218  16.352  0.00  0.00    -0.050 C 
ATOM      5  H8  19N d   1      12.122  13.002  17.119  0.00  0.00     0.035 H 
ATOM      6  H9  19N d   1      10.984  11.945  16.216  0.00  0.00     0.035 H 
BRANCH   4   7
ATOM      7  C2  19N d   1      12.792  10.993  16.840  0.00  0.00     0.009 C 
ATOM      8  H6  19N d   1      12.292  10.092  16.455  0.00  0.00     0.064 H 
ATOM      9  H7  19N d   1      13.823  11.032  16.458  0.00  0.00     0.064 H 
BRANCH   7  10
ATOM     10  N3  19N d   1      12.831  10.926  18.294  0.00  0.00    -0.227 N 
ATOM     11  C1  19N d   1      12.427   9.926  19.078  0.00  0.00     0.665 C 
ATOM     12  N1  19N d   1      11.487  10.134  19.928  0.00  0.00    -0.235 N 
ATOM     13  N2  19N d   1      13.037   8.734  19.013  0.00  0.00    -0.235 N 
ATOM     14  H1  19N d   1      11.167   9.369  20.539  0.00  0.00     0.174 HD
ATOM     15  H2  19N d   1      11.053  11.066  19.999  0.00  0.00     0.174 HD
ATOM     16  H3  19N d   1      13.790   8.577  18.328  0.00  0.00     0.174 HD
ATOM     17  H4  19N d   1      12.753   7.975  19.648  0.00  0.00     0.174 HD
ATOM     18  H5  19N d   1      13.217  11.751  18.775  0.00  0.00     0.177 HD
ENDBRANCH   7  10
ENDBRANCH   4   7
ENDBRANCH   1   4
BRANCH   1  19
ATOM     19  C5  19N d   1      12.609  11.771  13.854  0.00  0.00    -0.026 C 
ATOM     20  H12 19N d   1      11.753  11.082  13.898  0.00  0.00     0.037 H 
ATOM     21  H13 19N d   1      13.545  11.194  13.865  0.00  0.00     0.037 H 
BRANCH  19  22
ATOM     22  C6  19N d   1      12.531  12.656  12.614  0.00  0.00     0.206 C 
ATOM     23  H14 19N d   1      13.005  13.626  12.826  0.00  0.00     0.106 H 
BRANCH  22  24
ATOM     24  N4  19N d   1      11.131  12.858  12.176  0.00  0.00    -0.062 N 
ATOM     25  H15 19N d   1      10.613  13.319  12.908  0.00  0.00     0.275 HD
ATOM     26  H16 19N d   1      10.709  11.964  11.977  0.00  0.00     0.275 HD
ATOM     27  H17 19N d   1      11.118  13.428  11.345  0.00  0.00     0.275 HD
ENDBRANCH  22  24
BRANCH  22  28
ATOM     28  P   19N d   1      13.368  11.825  11.232  0.00  0.00     0.290 P 
ATOM     29  O1  19N d   1      12.426  10.675  10.906  0.00  0.00    -0.638 OA
ATOM     30  O3  19N d   1      13.251  12.738   9.978  0.00  0.00    -0.638 OA
ATOM     31  O2  19N d   1      14.848  11.542  11.548  0.00  0.00    -0.638 OA
ENDBRANCH  22  28
ENDBRANCH  19  22
ENDBRANCH   1  19
TORSDOF 7
