REMARK  6 active torsions:
REMARK  status: ('A' for Active; 'I' for Inactive)
REMARK       I    between atoms: N1_1  and  C1_2 
REMARK       I    between atoms: C1_2  and  N2_3 
REMARK    1  A    between atoms: N3_4  and  C2_5 
REMARK    2  A    between atoms: C2_5  and  C3_6 
REMARK    3  A    between atoms: C3_6  and  C4_7 
REMARK    4  A    between atoms: C4_7  and  C5_8 
REMARK    5  A    between atoms: C5_8  and  N4_9 
REMARK    6  A    between atoms: C5_8  and  P_10 
ROOT
ATOM      1  C3  1OV d   1      12.727  12.717  15.109  0.00  0.00    -0.047 C 
ATOM      2  H8  1OV d   1      13.755  13.008  15.372  0.00  0.00     0.035 H 
ATOM      3  H9  1OV d   1      12.130  13.619  14.907  0.00  0.00     0.035 H 
ENDROOT
BRANCH   1   4
ATOM      4  C2  1OV d   1      12.099  11.907  16.239  0.00  0.00     0.009 C 
ATOM      5  H6  1OV d   1      11.275  12.496  16.668  0.00  0.00     0.064 H 
ATOM      6  H7  1OV d   1      11.700  10.974  15.814  0.00  0.00     0.064 H 
BRANCH   4   7
ATOM      7  N3  1OV d   1      13.015  11.564  17.306  0.00  0.00    -0.227 N 
ATOM      8  C1  1OV d   1      12.913  10.402  17.997  0.00  0.00     0.665 C 
ATOM      9  N1  1OV d   1      13.733   9.461  17.657  0.00  0.00    -0.235 N 
ATOM     10  N2  1OV d   1      11.943  10.270  18.957  0.00  0.00    -0.235 N 
ATOM     11  H1  1OV d   1      13.706   8.554  18.144  0.00  0.00     0.174 HD
ATOM     12  H2  1OV d   1      14.413   9.619  16.899  0.00  0.00     0.174 HD
ATOM     13  H3  1OV d   1      11.324  11.064  19.176  0.00  0.00     0.174 HD
ATOM     14  H4  1OV d   1      11.833   9.377  19.459  0.00  0.00     0.174 HD
ATOM     15  H5  1OV d   1      13.768  12.224  17.548  0.00  0.00     0.177 HD
ENDBRANCH   4   7
ENDBRANCH   1   4
BRANCH   1  16
ATOM     16  C4  1OV d   1      12.731  11.771  13.854  0.00  0.00    -0.025 C 
ATOM     17  H10 1OV d   1      11.899  11.055  13.929  0.00  0.00     0.037 H 
ATOM     18  H11 1OV d   1      13.684  11.223  13.808  0.00  0.00     0.037 H 
BRANCH  16  19
ATOM     19  C5  1OV d   1      12.563  12.633  12.574  0.00  0.00     0.206 C 
ATOM     20  H12 1OV d   1      13.023  13.617  12.748  0.00  0.00     0.106 H 
BRANCH  19  21
ATOM     21  N4  1OV d   1      11.129  12.832  12.132  0.00  0.00    -0.062 N 
ATOM     22  H13 1OV d   1      10.617  13.308  12.858  0.00  0.00     0.275 HD
ATOM     23  H14 1OV d   1      10.705  11.935  11.954  0.00  0.00     0.275 HD
ATOM     24  H15 1OV d   1      11.111  13.386  11.290  0.00  0.00     0.275 HD
ENDBRANCH  19  21
BRANCH  19  25
ATOM     25  P   1OV d   1      13.404  11.775  11.213  0.00  0.00     0.290 P 
ATOM     26  O1  1OV d   1      13.133  12.679   9.974  0.00  0.00    -0.638 OA
ATOM     27  O3  1OV d   1      14.954  11.560  11.448  0.00  0.00    -0.638 OA
ATOM     28  O2  1OV d   1      12.515  10.483  10.880  0.00  0.00    -0.638 OA
ENDBRANCH  19  25
ENDBRANCH  16  19
ENDBRANCH   1  16
TORSDOF 6
