REMARK  4 active torsions:
REMARK  status: ('A' for Active; 'I' for Inactive)
REMARK    1  A    between atoms: P_2  and  C6_5 
REMARK    2  A    between atoms: C6_5  and  N4_6 
REMARK    3  A    between atoms: C6_5  and  C5_7 
REMARK    4  A    between atoms: C2_10  and  N3_13 
REMARK       I    between atoms: N3_13  and  C1_14 
REMARK       I    between atoms: C1_14  and  N2_16 
ROOT
ATOM      1  C5  1OU d   1      12.273  12.659  14.000  0.00  0.00    -0.014 A 
ATOM      2  C7  1OU d   1      11.357  11.781  14.554  0.00  0.00    -0.072 A 
ATOM      3  C8  1OU d   1      11.340  11.474  15.924  0.00  0.00    -0.056 A 
ATOM      4  C2  1OU d   1      12.310  12.001  16.781  0.00  0.00     0.049 A 
ATOM      5  C3  1OU d   1      13.217  12.908  16.223  0.00  0.00    -0.056 A 
ATOM      6  C4  1OU d   1      13.231  13.228  14.854  0.00  0.00    -0.072 A 
ATOM      7  H5  1OU d   1      10.625  11.313  13.905  0.00  0.00     0.084 H 
ATOM      8  H6  1OU d   1      10.569  10.823  16.320  0.00  0.00     0.086 H 
ATOM      9  H7  1OU d   1      13.941  13.385  16.874  0.00  0.00     0.086 H 
ATOM     10  H8  1OU d   1      13.976  13.909  14.461  0.00  0.00     0.084 H 
ENDROOT
BRANCH   1  11
ATOM     11  C6  1OU d   1      12.177  12.974  12.536  0.00  0.00     0.231 C 
ATOM     12  H1  1OU d   1      12.590  13.980  12.367  0.00  0.00     0.114 H 
BRANCH  11  13
ATOM     13  P   1OU d   1      13.093  11.728  11.617  0.00  0.00     0.295 P 
ATOM     14  O1  1OU d   1      13.656  12.409  10.435  0.00  0.00    -0.638 OA
ATOM     15  O2  1OU d   1      12.137  10.579  10.955  0.00  0.00    -0.638 OA
ATOM     16  O3  1OU d   1      14.265  11.158  12.606  0.00  0.00    -0.638 OA
ENDBRANCH  11  13
BRANCH  11  17
ATOM     17  N4  1OU d   1      10.836  12.880  11.938  0.00  0.00    -0.058 N 
ATOM     18  H2  1OU d   1      10.223  13.545  12.382  0.00  0.00     0.275 HD
ATOM     19  H3  1OU d   1      10.474  11.949  12.070  0.00  0.00     0.275 HD
ATOM     20  H4  1OU d   1      10.893  13.082  10.952  0.00  0.00     0.275 HD
ENDBRANCH  11  17
ENDBRANCH   1  11
BRANCH   4  21
ATOM     21  N3  1OU d   1      12.314  11.658  18.138  0.00  0.00    -0.193 N 
ATOM     22  C1  1OU d   1      12.542  10.413  18.613  0.00  0.00     0.669 C 
ATOM     23  N1  1OU d   1      13.057   9.515  17.843  0.00  0.00    -0.235 N 
ATOM     24  N2  1OU d   1      12.203  10.097  19.906  0.00  0.00    -0.235 N 
ATOM     25  H10 1OU d   1      13.231   8.566  18.203  0.00  0.00     0.174 HD
ATOM     26  H11 1OU d   1      13.294   9.747  16.868  0.00  0.00     0.174 HD
ATOM     27  H12 1OU d   1      11.792  10.814  20.520  0.00  0.00     0.174 HD
ATOM     28  H13 1OU d   1      12.360   9.143  20.261  0.00  0.00     0.174 HD
ATOM     29  H9  1OU d   1      12.130  12.406  18.822  0.00  0.00     0.184 HD
ENDBRANCH   4  21
TORSDOF 4
