REMARK  4 active torsions:
REMARK  status: ('A' for Active; 'I' for Inactive)
REMARK    1  A    between atoms: P_2  and  C1_5 
REMARK    2  A    between atoms: C1_5  and  N1_6 
REMARK    3  A    between atoms: C1_5  and  C2_7 
REMARK    4  A    between atoms: C5_10  and  N2_13 
ROOT
ATOM      1  C2  1OT d   1      12.418  12.654  13.925  0.00  0.00    -0.014 A 
ATOM      2  C10 1OT d   1      11.687  11.624  14.454  0.00  0.00    -0.072 A 
ATOM      3  C9  1OT d   1      11.658  11.361  15.805  0.00  0.00    -0.055 A 
ATOM      4  C5  1OT d   1      12.379  12.062  16.738  0.00  0.00     0.058 A 
ATOM      5  C4  1OT d   1      13.105  13.136  16.167  0.00  0.00    -0.055 A 
ATOM      6  C3  1OT d   1      13.134  13.463  14.807  0.00  0.00    -0.072 A 
ATOM      7  H5  1OT d   1      11.111  10.994  13.786  0.00  0.00     0.084 H 
ATOM      8  H6  1OT d   1      11.027  10.551  16.153  0.00  0.00     0.087 H 
ATOM      9  H7  1OT d   1      13.686  13.756  16.840  0.00  0.00     0.087 H 
ATOM     10  H8  1OT d   1      13.696  14.319  14.450  0.00  0.00     0.084 H 
ENDROOT
BRANCH   1  11
ATOM     11  C1  1OT d   1      12.220  12.866  12.469  0.00  0.00     0.231 C 
ATOM     12  H1  1OT d   1      12.476  13.910  12.234  0.00  0.00     0.114 H 
BRANCH  11  13
ATOM     13  P   1OT d   1      13.154  11.786  11.415  0.00  0.00     0.295 P 
ATOM     14  O1  1OT d   1      12.264  10.584  10.918  0.00  0.00    -0.638 OA
ATOM     15  O2  1OT d   1      14.618  11.625  12.077  0.00  0.00    -0.638 OA
ATOM     16  O3  1OT d   1      13.259  12.646  10.052  0.00  0.00    -0.638 OA
ENDBRANCH  11  13
BRANCH  11  17
ATOM     17  N1  1OT d   1      10.794  12.589  12.124  0.00  0.00    -0.058 N 
ATOM     18  H2  1OT d   1      10.193  13.170  12.687  0.00  0.00     0.275 HD
ATOM     19  H3  1OT d   1      10.587  11.619  12.303  0.00  0.00     0.275 HD
ATOM     20  H4  1OT d   1      10.639  12.791  11.149  0.00  0.00     0.275 HD
ENDBRANCH  11  17
ENDBRANCH   1  11
BRANCH   4  21
ATOM     21  N2  1OT d   1      12.239  11.675  18.052  0.00  0.00    -0.245 N 
ATOM     22  N3  1OT d   1      12.713  12.392  19.162  0.00  0.00    -0.180 NA
ATOM     23  C8  1OT d   1      12.235  11.687  20.224  0.00  0.00     0.023 A 
ATOM     24  C7  1OT d   1      11.467  10.597  19.782  0.00  0.00    -0.048 A 
ATOM     25  H9  1OT d   1      12.422  11.933  21.268  0.00  0.00     0.117 H 
ATOM     26  C6  1OT d   1      11.455  10.640  18.401  0.00  0.00     0.006 A 
ATOM     27  H10 1OT d   1      10.973   9.857  20.410  0.00  0.00     0.087 H 
ATOM     28  H11 1OT d   1      10.919   9.970  17.730  0.00  0.00     0.114 H 
ENDBRANCH   4  21
TORSDOF 4
