REMARK  13 active torsions:
REMARK  status: ('A' for Active; 'I' for Inactive)
REMARK    1  A    between atoms: C13_8  and  C18_1 
REMARK    2  A    between atoms: C20_2  and  C23_19 
REMARK    3  A    between atoms: C20_2  and  C21_20 
REMARK    4  A    between atoms: N19_22  and  C20_2 
REMARK    5  A    between atoms: C1_3  and  O10_24 
REMARK    6  A    between atoms: C16_5  and  C17_4 
REMARK    7  A    between atoms: C15_6  and  N19_22 
REMARK    8  A    between atoms: O10_24  and  C11_9 
REMARK    9  A    between atoms: C6_10  and  C8_12 
REMARK   10  A    between atoms: C4_15  and  C7_11 
REMARK   11  A    between atoms: C2_17  and  C9_13 
REMARK   12  A    between atoms: C23_19  and  C24_18 
REMARK   13  A    between atoms: C21_20  and  C22_21 
ROOT
ATOM      1  C16 1Q5 d   1     -41.511 -21.245  36.246  0.00  0.00     0.018 A 
ATOM      2  C15 1Q5 d   1     -42.621 -20.356  35.903  0.00  0.00     0.040 A 
ATOM      3  C14 1Q5 d   1     -42.401 -19.406  34.927  0.00  0.00    -0.033 A 
ATOM      4  C13 1Q5 d   1     -41.176 -19.302  34.303  0.00  0.00     0.035 A 
ATOM      5  C11 1Q5 d   1     -40.245 -21.054  35.527  0.00  0.00     0.178 A 
ATOM      6  N12 1Q5 d   1     -40.142 -20.103  34.600  0.00  0.00    -0.229 NA
ATOM      7  H8  1Q5 d   1     -43.202 -18.732  34.647  0.00  0.00     0.090 H 
ENDROOT
BRANCH   5   8
ATOM      8  O10 1Q5 d   1     -39.201 -21.855  35.817  0.00  0.00    -0.290 OA
BRANCH   8   9
ATOM      9  C1  1Q5 d   1     -37.999 -21.731  35.204  0.00  0.00     0.089 A 
ATOM     10  C6  1Q5 d   1     -37.752 -22.233  33.840  0.00  0.00    -0.027 A 
ATOM     11  C5  1Q5 d   1     -36.493 -22.079  33.286  0.00  0.00    -0.069 A 
ATOM     12  C4  1Q5 d   1     -35.468 -21.461  34.003  0.00  0.00    -0.061 A 
ATOM     13  H18 1Q5 d   1     -36.301 -22.443  32.283  0.00  0.00     0.085 H 
ATOM     14  C3  1Q5 d   1     -35.653 -20.979  35.288  0.00  0.00    -0.069 A 
ATOM     15  C2  1Q5 d   1     -36.879 -21.095  35.911  0.00  0.00    -0.027 A 
ATOM     16  H19 1Q5 d   1     -34.828 -20.507  35.809  0.00  0.00     0.085 H 
BRANCH  10  17
ATOM     17  C8  1Q5 d   1     -38.858 -22.894  33.075  0.00  0.00    -0.049 C 
ATOM     18  H12 1Q5 d   1     -38.487 -23.200  32.086  0.00  0.00     0.033 H 
ATOM     19  H13 1Q5 d   1     -39.692 -22.187  32.952  0.00  0.00     0.033 H 
ATOM     20  H14 1Q5 d   1     -39.206 -23.780  33.626  0.00  0.00     0.033 H 
ENDBRANCH  10  17
BRANCH  12  21
ATOM     21  C7  1Q5 d   1     -34.109 -21.301  33.386  0.00  0.00    -0.051 C 
ATOM     22  H9  1Q5 d   1     -34.114 -21.728  32.372  0.00  0.00     0.033 H 
ATOM     23  H10 1Q5 d   1     -33.363 -21.826  34.001  0.00  0.00     0.033 H 
ATOM     24  H11 1Q5 d   1     -33.854 -20.232  33.333  0.00  0.00     0.033 H 
ENDBRANCH  12  21
BRANCH  15  25
ATOM     25  C9  1Q5 d   1     -37.085 -20.579  37.295  0.00  0.00    -0.049 C 
ATOM     26  H15 1Q5 d   1     -36.147 -20.139  37.666  0.00  0.00     0.033 H 
ATOM     27  H16 1Q5 d   1     -37.387 -21.407  37.954  0.00  0.00     0.033 H 
ATOM     28  H17 1Q5 d   1     -37.872 -19.811  37.286  0.00  0.00     0.033 H 
ENDBRANCH  15  25
ENDBRANCH   8   9
ENDBRANCH   5   8
BRANCH   1  29
ATOM     29  C17 1Q5 d   1     -41.670 -22.305  37.296  0.00  0.00    -0.045 C 
ATOM     30  H5  1Q5 d   1     -42.692 -22.270  37.701  0.00  0.00     0.033 H 
ATOM     31  H6  1Q5 d   1     -40.948 -22.129  38.107  0.00  0.00     0.033 H 
ATOM     32  H7  1Q5 d   1     -41.486 -23.294  36.850  0.00  0.00     0.033 H 
ENDBRANCH   1  29
BRANCH   2  33
ATOM     33  N19 1Q5 d   1     -43.811 -20.471  36.518  0.00  0.00    -0.385 N 
ATOM     34  H30 1Q5 d   1     -43.876 -20.924  37.441  0.00  0.00     0.160 HD
BRANCH  33  35
ATOM     35  C20 1Q5 d   1     -44.996 -19.957  35.878  0.00  0.00     0.009 C 
ATOM     36  H4  1Q5 d   1     -44.701 -19.230  35.107  0.00  0.00     0.072 H 
BRANCH  35  37
ATOM     37  C23 1Q5 d   1     -45.855 -19.271  36.915  0.00  0.00    -0.050 C 
ATOM     38  H23 1Q5 d   1     -46.386 -20.033  37.505  0.00  0.00     0.035 H 
ATOM     39  H24 1Q5 d   1     -46.586 -18.625  36.407  0.00  0.00     0.035 H 
BRANCH  37  40
ATOM     40  C24 1Q5 d   1     -45.009 -18.430  37.839  0.00  0.00    -0.075 C 
ATOM     41  H20 1Q5 d   1     -45.654 -17.941  38.584  0.00  0.00     0.027 H 
ATOM     42  H21 1Q5 d   1     -44.478 -17.664  37.255  0.00  0.00     0.027 H 
ATOM     43  H22 1Q5 d   1     -44.278 -19.072  38.352  0.00  0.00     0.027 H 
ENDBRANCH  37  40
ENDBRANCH  35  37
BRANCH  35  44
ATOM     44  C21 1Q5 d   1     -45.795 -21.066  35.229  0.00  0.00    -0.050 C 
ATOM     45  H25 1Q5 d   1     -46.514 -20.627  34.522  0.00  0.00     0.035 H 
ATOM     46  H26 1Q5 d   1     -46.338 -21.623  36.007  0.00  0.00     0.035 H 
BRANCH  44  47
ATOM     47  C22 1Q5 d   1     -44.886 -22.010  34.488  0.00  0.00    -0.075 C 
ATOM     48  H27 1Q5 d   1     -45.485 -22.808  34.024  0.00  0.00     0.027 H 
ATOM     49  H28 1Q5 d   1     -44.166 -22.454  35.191  0.00  0.00     0.027 H 
ATOM     50  H29 1Q5 d   1     -44.343 -21.458  33.707  0.00  0.00     0.027 H 
ENDBRANCH  44  47
ENDBRANCH  35  44
ENDBRANCH  33  35
ENDBRANCH   2  33
BRANCH   4  51
ATOM     51  C18 1Q5 d   1     -41.002 -18.252  33.256  0.00  0.00    -0.035 C 
ATOM     52  H1  1Q5 d   1     -41.941 -17.691  33.140  0.00  0.00     0.035 H 
ATOM     53  H2  1Q5 d   1     -40.739 -18.728  32.300  0.00  0.00     0.035 H 
ATOM     54  H3  1Q5 d   1     -40.198 -17.564  33.557  0.00  0.00     0.035 H 
ENDBRANCH   4  51
TORSDOF 13
