REMARK  0 active torsions:
REMARK  status: ('A' for Active; 'I' for Inactive)
ROOT
ATOM      1  O9  1P7 d   1      60.176  59.781   1.013  0.00  0.00    -0.268 OA
ATOM      2  C8  1P7 d   1      60.771  60.648   0.385  0.00  0.00     0.252 A 
ATOM      3  N7  1P7 d   1      60.680  61.990   0.566  0.00  0.00    -0.353 N 
ATOM      4  C6  1P7 d   1      61.563  62.665  -0.402  0.00  0.00     0.020 A 
ATOM      5  C10 1P7 d   1      61.711  60.348  -0.701  0.00  0.00     0.041 A 
ATOM      6  C11 1P7 d   1      62.129  59.130  -1.241  0.00  0.00    -0.046 A 
ATOM      7  C2  1P7 d   1      63.044  59.144  -2.274  0.00  0.00     0.035 A 
ATOM      8 CL1  1P7 d   1      63.575  57.626  -2.951  0.00  0.00    -0.084 Cl
ATOM      9  C5  1P7 d   1      62.212  61.558  -1.201  0.00  0.00    -0.025 A 
ATOM     10  C4  1P7 d   1      63.125  61.556  -2.233  0.00  0.00    -0.073 A 
ATOM     11  C3  1P7 d   1      63.541  60.348  -2.768  0.00  0.00    -0.061 A 
ATOM     12  H1  1P7 d   1      60.107  62.447   1.246  0.00  0.00     0.163 HD
ATOM     13  H2  1P7 d   1      62.326  63.258   0.123  0.00  0.00     0.071 H 
ATOM     14  H3  1P7 d   1      60.978  63.322  -1.062  0.00  0.00     0.071 H 
ATOM     15  H4  1P7 d   1      61.743  58.193  -0.857  0.00  0.00     0.087 H 
ATOM     16  H5  1P7 d   1      63.514  62.490  -2.622  0.00  0.00     0.084 H 
ATOM     17  H6  1P7 d   1      64.260  60.339  -3.579  0.00  0.00     0.086 H 
ENDROOT
TORSDOF 0
