REMARK  0 active torsions:
REMARK  status: ('A' for Active; 'I' for Inactive)
ROOT
ATOM      1  O8  1P8 d   1      60.282  59.630   0.827  0.00  0.00    -0.273 OA
ATOM      2  C7  1P8 d   1      61.029  59.901  -0.097  0.00  0.00     0.226 A 
ATOM      3  C6  1P8 d   1      61.798  58.910  -0.932  0.00  0.00     0.035 A 
ATOM      4  N9  1P8 d   1      61.340  61.132  -0.561  0.00  0.00    -0.326 N 
ATOM      5  C10 1P8 d   1      62.229  61.079  -1.639  0.00  0.00     0.042 A 
ATOM      6  C11 1P8 d   1      62.794  62.095  -2.418  0.00  0.00    -0.040 A 
ATOM      7  C2  1P8 d   1      63.663  61.756  -3.441  0.00  0.00     0.013 A 
ATOM      8 BR1  1P8 d   1      64.442  63.107  -4.515  0.00  0.00    -0.051 Br
ATOM      9  C5  1P8 d   1      62.557  59.758  -1.924  0.00  0.00    -0.023 A 
ATOM     10  C4  1P8 d   1      63.429  59.435  -2.938  0.00  0.00    -0.073 A 
ATOM     11  C3  1P8 d   1      63.991  60.442  -3.703  0.00  0.00    -0.066 A 
ATOM     12  H1  1P8 d   1      61.112  58.224  -1.451  0.00  0.00     0.054 H 
ATOM     13  H2  1P8 d   1      62.492  58.330  -0.306  0.00  0.00     0.054 H 
ATOM     14  H3  1P8 d   1      60.977  61.981  -0.178  0.00  0.00     0.169 HD
ATOM     15  H4  1P8 d   1      62.554  63.134  -2.223  0.00  0.00     0.089 H 
ATOM     16  H5  1P8 d   1      63.674  58.398  -3.136  0.00  0.00     0.084 H 
ATOM     17  H6  1P8 d   1      64.683  60.200  -4.501  0.00  0.00     0.085 H 
ENDROOT
TORSDOF 0
