REMARK  24 active torsions:
REMARK  status: ('A' for Active; 'I' for Inactive)
REMARK    1  A    between atoms: C2_2  and  C1_1 
REMARK    2  A    between atoms: O3_28  and  C2_2 
REMARK    3  A    between atoms: C4_4  and  O4_15 
REMARK    4  A    between atoms: C5_5  and  N5_12 
REMARK    5  A    between atoms: C6_6  and  C7_7 
REMARK    6  A    between atoms: C7_7  and  C8_8 
REMARK    7  A    between atoms: C7_7  and  O7_17 
REMARK    8  A    between atoms: C8_8  and  C9_9 
REMARK    9  A    between atoms: C8_8  and  O8_18 
REMARK   10  A    between atoms: C9_9  and  O9_19 
REMARK   11  A    between atoms: C10_10  and  C11_11 
REMARK       I    between atoms: N5_12  and  C10_10 
REMARK   12  A    between atoms: O4_43  and  C1_21 
REMARK   13  A    between atoms: C2_22  and  O2_27 
REMARK   14  A    between atoms: C3_23  and  O3_28 
REMARK   15  A    between atoms: C4_24  and  O4_29 
REMARK   16  A    between atoms: C5_25  and  C6_26 
REMARK   17  A    between atoms: C6_26  and  O6_31 
REMARK   18  A    between atoms: C1_32  and  O1_41 
REMARK   19  A    between atoms: N2_40  and  C2_33 
REMARK   20  A    between atoms: C3_34  and  O3_42 
REMARK   21  A    between atoms: C4_35  and  O4_43 
REMARK   22  A    between atoms: C5_36  and  C6_37 
REMARK   23  A    between atoms: C6_37  and  O6_45 
REMARK   24  A    between atoms: C7_38  and  C8_39 
REMARK       I    between atoms: C7_38  and  N2_40 
ROOT
ATOM      1  H18 SIA d   1     -85.956  65.475  38.880  0.00  0.00     0.133 H 
ATOM      2  H19 SIA d   1     -86.810  66.004  36.011  0.00  0.00     0.094 H 
ATOM      3  H20 SIA d   1     -86.709  63.180  37.032  0.00  0.00     0.091 H 
ATOM      4  H21 SIA d   1     -84.528  62.732  36.540  0.00  0.00     0.091 H 
ATOM      5  H22 SIA d   1     -84.452  64.122  38.506  0.00  0.00     0.090 H 
ATOM      6  C1  GAL d   1     -85.854  66.002  37.920  0.00  0.00     0.159 C 
ATOM      7  C2  GAL d   1     -86.751  65.335  36.882  0.00  0.00     0.110 C 
ATOM      8  C3  GAL d   1     -86.275  63.965  36.395  0.00  0.00     0.099 C 
ATOM      9  C4  GAL d   1     -84.749  63.801  36.404  0.00  0.00     0.090 C 
ATOM     10  C5  GAL d   1     -84.100  64.565  37.563  0.00  0.00     0.089 C 
ATOM     11  O5  GAL d   1     -84.508  65.916  37.522  0.00  0.00    -0.348 OA
ENDROOT
BRANCH   8  12
ATOM     12  O3  GAL d   1     -86.782  63.854  35.076  0.00  0.00    -0.336 OA
BRANCH  12  13
ATOM     13  C2  SIA d   1     -87.237  62.556  34.625  0.00  0.00     0.259 C 
ATOM     14  C3  SIA d   1     -88.305  62.547  35.578  0.00  0.00     0.024 C 
ATOM     15  C4  SIA d   1     -89.099  61.374  35.758  0.00  0.00     0.063 C 
ATOM     16  H1  SIA d   1     -88.994  63.354  35.288  0.00  0.00     0.045 H 
ATOM     17  H2  SIA d   1     -87.858  62.780  36.556  0.00  0.00     0.045 H 
ATOM     18  C5  SIA d   1     -88.345  60.200  36.192  0.00  0.00     0.064 C 
ATOM     19  H3  SIA d   1     -89.555  61.131  34.787  0.00  0.00     0.086 H 
ATOM     20  C6  SIA d   1     -87.200  60.052  35.209  0.00  0.00     0.091 C 
ATOM     21  H4  SIA d   1     -87.933  60.382  37.195  0.00  0.00     0.080 H 
ATOM     22  O6  SIA d   1     -86.578  61.435  35.290  0.00  0.00    -0.336 OA
ATOM     23  H5  SIA d   1     -87.594  59.846  34.203  0.00  0.00     0.090 H 
BRANCH  13  24
ATOM     24  C1  SIA d   1     -88.286  62.468  33.516  0.00  0.00     0.239 C 
ATOM     25  O1A SIA d   1     -89.123  63.407  33.367  0.00  0.00    -0.644 OA
ATOM     26  O1B SIA d   1     -88.285  61.505  32.727  0.00  0.00    -0.644 OA
ENDBRANCH  13  24
BRANCH  15  27
ATOM     27  O4  SIA d   1     -90.174  61.660  36.713  0.00  0.00    -0.393 OA
ATOM     28  H14 SIA d   1     -90.659  62.424  36.423  0.00  0.00     0.210 HD
ENDBRANCH  15  27
BRANCH  18  29
ATOM     29  N5  SIA d   1     -89.211  59.005  36.267  0.00  0.00    -0.352 N 
ATOM     30  C10 SIA d   1     -88.974  58.040  37.328  0.00  0.00     0.214 C 
ATOM     31  O10 SIA d   1     -88.068  58.235  38.125  0.00  0.00    -0.274 OA
ATOM     32  H13 SIA d   1     -89.944  58.863  35.602  0.00  0.00     0.163 HD
BRANCH  30  33
ATOM     33  C11 SIA d   1     -89.819  56.804  37.459  0.00  0.00    -0.003 C 
ATOM     34  H10 SIA d   1     -89.475  56.214  38.321  0.00  0.00     0.040 H 
ATOM     35  H11 SIA d   1     -89.731  56.201  36.543  0.00  0.00     0.040 H 
ATOM     36  H12 SIA d   1     -90.870  57.092  37.609  0.00  0.00     0.040 H 
ENDBRANCH  30  33
ENDBRANCH  18  29
BRANCH  20  37
ATOM     37  C7  SIA d   1     -86.253  59.104  35.502  0.00  0.00     0.089 C 
ATOM     38  H6  SIA d   1     -86.650  58.096  35.309  0.00  0.00     0.091 H 
BRANCH  37  39
ATOM     39  C8  SIA d   1     -85.050  59.379  34.609  0.00  0.00     0.083 C 
ATOM     40  H7  SIA d   1     -84.999  60.459  34.405  0.00  0.00     0.090 H 
BRANCH  39  41
ATOM     41  C9  SIA d   1     -83.770  58.966  35.296  0.00  0.00     0.043 C 
ATOM     42  H8  SIA d   1     -83.997  58.055  35.869  0.00  0.00     0.078 H 
ATOM     43  H9  SIA d   1     -83.505  59.779  35.988  0.00  0.00     0.078 H 
BRANCH  41  44
ATOM     44  O9  SIA d   1     -82.628  58.692  34.541  0.00  0.00    -0.398 OA
ATOM     45  H17 SIA d   1     -81.917  58.449  35.122  0.00  0.00     0.209 HD
ENDBRANCH  41  44
ENDBRANCH  39  41
BRANCH  39  46
ATOM     46  O8  SIA d   1     -85.218  58.714  33.419  0.00  0.00    -0.391 OA
ATOM     47  H16 SIA d   1     -84.489  58.910  32.842  0.00  0.00     0.210 HD
ENDBRANCH  39  46
ENDBRANCH  37  39
BRANCH  37  48
ATOM     48  O7  SIA d   1     -85.869  59.217  36.858  0.00  0.00    -0.390 OA
ATOM     49  H15 SIA d   1     -86.620  59.045  37.414  0.00  0.00     0.210 HD
ENDBRANCH  37  48
ENDBRANCH  20  37
ENDBRANCH  12  13
ENDBRANCH   8  12
BRANCH   7  50
ATOM     50  O2  GAL d   1     -88.040  65.171  37.430  0.00  0.00    -0.388 OA
ATOM     51  H25 SIA d   1     -88.360  66.010  37.741  0.00  0.00     0.210 HD
ENDBRANCH   7  50
BRANCH   9  52
ATOM     52  O4  GAL d   1     -84.189  64.210  35.170  0.00  0.00    -0.390 OA
ATOM     53  H26 SIA d   1     -84.600  63.729  34.462  0.00  0.00     0.210 HD
ENDBRANCH   9  52
BRANCH   6  54
ATOM     54  O4  NAG d   1     -86.333  67.352  38.088  0.00  0.00    -0.348 OA
BRANCH  54  55
ATOM     55  C4  NAG d   1     -86.205  67.791  39.424  0.00  0.00     0.095 C 
ATOM     56  C3  NAG d   1     -85.441  69.115  39.391  0.00  0.00     0.087 C 
ATOM     57  C2  NAG d   1     -85.595  69.941  40.665  0.00  0.00     0.086 C 
ATOM     58  H30 SIA d   1     -85.833  69.710  38.553  0.00  0.00     0.090 H 
ATOM     59  C1  NAG d   1     -87.040  69.952  41.144  0.00  0.00     0.151 C 
ATOM     60  H29 SIA d   1     -84.963  69.501  41.450  0.00  0.00     0.084 H 
ATOM     61  O5  NAG d   1     -87.499  68.628  41.291  0.00  0.00    -0.349 OA
ATOM     62  H28 SIA d   1     -87.665  70.476  40.406  0.00  0.00     0.132 H 
ATOM     63  C5  NAG d   1     -87.585  67.923  40.072  0.00  0.00     0.089 C 
ATOM     64  H32 SIA d   1     -88.236  68.479  39.381  0.00  0.00     0.090 H 
ATOM     65  H31 SIA d   1     -85.622  67.055  39.997  0.00  0.00     0.091 H 
BRANCH  56  66
ATOM     66  O3  NAG d   1     -84.072  68.860  39.164  0.00  0.00    -0.391 OA
ATOM     67  H40 SIA d   1     -83.597  69.683  39.143  0.00  0.00     0.210 HD
ENDBRANCH  56  66
BRANCH  57  68
ATOM     68  N2  NAG d   1     -85.170  71.307  40.421  0.00  0.00    -0.349 N 
ATOM     69  C7  NAG d   1     -84.636  72.045  41.389  0.00  0.00     0.214 C 
ATOM     70  O7  NAG d   1     -84.136  71.554  42.399  0.00  0.00    -0.274 OA
ATOM     71  H38 SIA d   1     -85.281  71.700  39.508  0.00  0.00     0.163 HD
BRANCH  69  72
ATOM     72  C8  NAG d   1     -84.672  73.533  41.203  0.00  0.00    -0.003 C 
ATOM     73  H35 SIA d   1     -84.201  74.022  42.069  0.00  0.00     0.040 H 
ATOM     74  H36 SIA d   1     -85.717  73.867  41.116  0.00  0.00     0.040 H 
ATOM     75  H37 SIA d   1     -84.124  73.802  40.288  0.00  0.00     0.040 H 
ENDBRANCH  69  72
ENDBRANCH  57  68
BRANCH  59  76
ATOM     76  O1  NAG d   1     -87.127  70.614  42.386  0.00  0.00    -0.369 OA
ATOM     77  H39 SIA d   1     -88.031  70.620  42.678  0.00  0.00     0.212 HD
ENDBRANCH  59  76
BRANCH  63  78
ATOM     78  C6  NAG d   1     -88.224  66.567  40.363  0.00  0.00     0.043 C 
ATOM     79  H33 SIA d   1     -88.532  66.098  39.417  0.00  0.00     0.078 H 
ATOM     80  H34 SIA d   1     -89.105  66.710  41.006  0.00  0.00     0.078 H 
BRANCH  78  81
ATOM     81  O6  NAG d   1     -87.296  65.729  41.020  0.00  0.00    -0.398 OA
ATOM     82  H41 SIA d   1     -87.030  66.133  41.838  0.00  0.00     0.209 HD
ENDBRANCH  78  81
ENDBRANCH  63  78
ENDBRANCH  54  55
ENDBRANCH   6  54
BRANCH  10  83
ATOM     83  C6  GAL d   1     -82.576  64.467  37.535  0.00  0.00     0.043 C 
ATOM     84  H23 SIA d   1     -82.217  64.699  36.521  0.00  0.00     0.078 H 
ATOM     85  H24 SIA d   1     -82.274  63.444  37.806  0.00  0.00     0.078 H 
BRANCH  83  86
ATOM     86  O6  GAL d   1     -82.003  65.378  38.450  0.00  0.00    -0.398 OA
ATOM     87  H27 SIA d   1     -82.260  66.263  38.217  0.00  0.00     0.209 HD
ENDBRANCH  83  86
ENDBRANCH  10  83
TORSDOF 24
