REMARK  17 active torsions:
REMARK  status: ('A' for Active; 'I' for Inactive)
REMARK    1  A    between atoms: C2_2  and  C1_1 
REMARK    2  A    between atoms: O6_32  and  C2_2 
REMARK    3  A    between atoms: C4_4  and  O4_15 
REMARK    4  A    between atoms: C5_5  and  N5_12 
REMARK    5  A    between atoms: C6_6  and  C7_7 
REMARK    6  A    between atoms: C7_7  and  C8_8 
REMARK    7  A    between atoms: C7_7  and  O7_17 
REMARK    8  A    between atoms: C8_8  and  C9_9 
REMARK    9  A    between atoms: C8_8  and  O8_18 
REMARK   10  A    between atoms: C9_9  and  O9_19 
REMARK   11  A    between atoms: C10_10  and  C11_11 
REMARK       I    between atoms: N5_12  and  C10_10 
REMARK   12  A    between atoms: C1_21  and  O1_27 
REMARK   13  A    between atoms: C2_22  and  O2_28 
REMARK   14  A    between atoms: C3_23  and  O3_29 
REMARK   15  A    between atoms: C4_24  and  O4_30 
REMARK   16  A    between atoms: C6_26  and  C5_25 
REMARK   17  A    between atoms: C6_26  and  O6_32 
ROOT
ATOM      1  C2  SIA d   1     -18.156  39.534  35.196  0.00  0.00     0.258 C 
ATOM      2  C3  SIA d   1     -16.853  39.566  36.034  0.00  0.00     0.024 C 
ATOM      3  C4  SIA d   1     -16.068  40.849  36.095  0.00  0.00     0.063 C 
ATOM      4  C5  SIA d   1     -16.823  41.981  36.507  0.00  0.00     0.064 C 
ATOM      5  C6  SIA d   1     -18.146  41.962  35.769  0.00  0.00     0.091 C 
ATOM      6  O6  SIA d   1     -18.752  40.595  35.874  0.00  0.00    -0.336 OA
ATOM      7  H1  SIA d   1     -16.184  38.796  35.623  0.00  0.00     0.045 H 
ATOM      8  H2  SIA d   1     -17.125  39.303  37.067  0.00  0.00     0.045 H 
ATOM      9  H3  SIA d   1     -15.709  41.056  35.076  0.00  0.00     0.086 H 
ATOM     10  H4  SIA d   1     -17.003  41.937  37.591  0.00  0.00     0.080 H 
ATOM     11  H5  SIA d   1     -17.961  42.195  34.710  0.00  0.00     0.090 H 
ENDROOT
BRANCH   1  12
ATOM     12  C1  SIA d   1     -17.400  39.711  33.925  0.00  0.00     0.239 C 
ATOM     13  O1A SIA d   1     -17.823  40.500  33.083  0.00  0.00    -0.644 OA
ATOM     14  O1B SIA d   1     -16.329  39.022  33.667  0.00  0.00    -0.644 OA
ENDBRANCH   1  12
BRANCH   1  15
ATOM     15  O6  GAL d   1     -18.821  38.346  35.636  0.00  0.00    -0.344 OA
BRANCH  15  16
ATOM     16  C6  GAL d   1     -19.386  38.369  36.929  0.00  0.00     0.050 C 
ATOM     17  H23 SIA d   1     -18.581  38.310  37.676  0.00  0.00     0.078 H 
ATOM     18  H24 SIA d   1     -19.942  39.308  37.063  0.00  0.00     0.078 H 
BRANCH  16  19
ATOM     19  C5  GAL d   1     -20.334  37.195  37.124  0.00  0.00     0.089 C 
ATOM     20  C4  GAL d   1     -21.756  37.693  37.414  0.00  0.00     0.090 C 
ATOM     21  C3  GAL d   1     -22.636  36.672  38.139  0.00  0.00     0.092 C 
ATOM     22  H21 SIA d   1     -22.231  37.906  36.445  0.00  0.00     0.091 H 
ATOM     23  C2  GAL d   1     -21.847  35.869  39.171  0.00  0.00     0.110 C 
ATOM     24  H20 SIA d   1     -23.044  35.972  37.395  0.00  0.00     0.091 H 
ATOM     25  C1  GAL d   1     -20.591  35.318  38.522  0.00  0.00     0.156 C 
ATOM     26  H19 SIA d   1     -21.565  36.532  40.002  0.00  0.00     0.094 H 
ATOM     27  O5  GAL d   1     -19.796  36.426  38.180  0.00  0.00    -0.349 OA
ATOM     28  H18 SIA d   1     -20.851  34.744  37.620  0.00  0.00     0.133 H 
ATOM     29  H22 SIA d   1     -20.361  36.585  36.209  0.00  0.00     0.090 H 
BRANCH  20  30
ATOM     30  O4  GAL d   1     -21.712  38.894  38.153  0.00  0.00    -0.390 OA
ATOM     31  H28 SIA d   1     -22.598  39.191  38.325  0.00  0.00     0.210 HD
ENDBRANCH  20  30
BRANCH  21  32
ATOM     32  O3  GAL d   1     -23.708  37.346  38.769  0.00  0.00    -0.390 OA
ATOM     33  H27 SIA d   1     -23.363  37.972  39.395  0.00  0.00     0.210 HD
ENDBRANCH  21  32
BRANCH  23  34
ATOM     34  O2  GAL d   1     -22.623  34.806  39.676  0.00  0.00    -0.388 OA
ATOM     35  H26 SIA d   1     -22.115  34.320  40.315  0.00  0.00     0.210 HD
ENDBRANCH  23  34
BRANCH  25  36
ATOM     36  O1  GAL d   1     -19.897  34.486  39.426  0.00  0.00    -0.369 OA
ATOM     37  H25 SIA d   1     -20.442  33.741  39.651  0.00  0.00     0.212 HD
ENDBRANCH  25  36
ENDBRANCH  16  19
ENDBRANCH  15  16
ENDBRANCH   1  15
BRANCH   3  38
ATOM     38  O4  SIA d   1     -14.918  40.684  36.942  0.00  0.00    -0.393 OA
ATOM     39  H14 SIA d   1     -14.422  39.925  36.657  0.00  0.00     0.210 HD
ENDBRANCH   3  38
BRANCH   5  40
ATOM     40  C7  SIA d   1     -19.067  42.925  36.295  0.00  0.00     0.089 C 
ATOM     41  H6  SIA d   1     -18.629  43.932  36.241  0.00  0.00     0.091 H 
BRANCH  40  42
ATOM     42  C8  SIA d   1     -20.383  42.857  35.515  0.00  0.00     0.083 C 
ATOM     43  H7  SIA d   1     -20.966  42.017  35.920  0.00  0.00     0.090 H 
BRANCH  42  44
ATOM     44  C9  SIA d   1     -21.215  44.119  35.648  0.00  0.00     0.043 C 
ATOM     45  H8  SIA d   1     -20.558  44.972  35.421  0.00  0.00     0.078 H 
ATOM     46  H9  SIA d   1     -21.551  44.183  36.694  0.00  0.00     0.078 H 
BRANCH  44  47
ATOM     47  O9  SIA d   1     -22.318  44.232  34.858  0.00  0.00    -0.398 OA
ATOM     48  H17 SIA d   1     -22.057  44.198  33.945  0.00  0.00     0.209 HD
ENDBRANCH  44  47
ENDBRANCH  42  44
BRANCH  42  49
ATOM     49  O8  SIA d   1     -20.159  42.628  34.168  0.00  0.00    -0.391 OA
ATOM     50  H16 SIA d   1     -20.991  42.520  33.724  0.00  0.00     0.210 HD
ENDBRANCH  42  49
ENDBRANCH  40  42
BRANCH  40  51
ATOM     51  O7  SIA d   1     -19.398  42.607  37.583  0.00  0.00    -0.390 OA
ATOM     52  H15 SIA d   1     -19.774  41.735  37.606  0.00  0.00     0.210 HD
ENDBRANCH  40  51
ENDBRANCH   5  40
BRANCH   4  53
ATOM     53  N5  SIA d   1     -16.065  43.218  36.181  0.00  0.00    -0.352 N 
ATOM     54  C10 SIA d   1     -16.061  44.366  37.133  0.00  0.00     0.214 C 
ATOM     55  O10 SIA d   1     -16.688  44.290  38.181  0.00  0.00    -0.274 OA
ATOM     56  H13 SIA d   1     -15.557  43.280  35.322  0.00  0.00     0.163 HD
BRANCH  54  57
ATOM     57  C11 SIA d   1     -15.302  45.601  36.800  0.00  0.00    -0.003 C 
ATOM     58  H10 SIA d   1     -15.415  46.332  37.614  0.00  0.00     0.040 H 
ATOM     59  H11 SIA d   1     -15.692  46.030  35.865  0.00  0.00     0.040 H 
ATOM     60  H12 SIA d   1     -14.237  45.354  36.674  0.00  0.00     0.040 H 
ENDBRANCH  54  57
ENDBRANCH   4  53
TORSDOF 17
