REMARK  17 active torsions:
REMARK  status: ('A' for Active; 'I' for Inactive)
REMARK    1  A    between atoms: C2_2  and  C1_1 
REMARK    2  A    between atoms: O3_29  and  C2_2 
REMARK    3  A    between atoms: C4_4  and  O4_15 
REMARK    4  A    between atoms: C5_5  and  N5_12 
REMARK    5  A    between atoms: C6_6  and  C7_7 
REMARK    6  A    between atoms: C7_7  and  C8_8 
REMARK    7  A    between atoms: C7_7  and  O7_17 
REMARK    8  A    between atoms: C8_8  and  C9_9 
REMARK    9  A    between atoms: C8_8  and  O8_18 
REMARK   10  A    between atoms: C9_9  and  O9_19 
REMARK   11  A    between atoms: C10_10  and  C11_11 
REMARK       I    between atoms: N5_12  and  C10_10 
REMARK   12  A    between atoms: C1_21  and  O1_27 
REMARK   13  A    between atoms: C2_22  and  O2_28 
REMARK   14  A    between atoms: C3_23  and  O3_29 
REMARK   15  A    between atoms: C4_24  and  O4_30 
REMARK   16  A    between atoms: C5_25  and  C6_26 
REMARK   17  A    between atoms: C6_26  and  O6_32 
ROOT
ATOM      1  C2  SIA d   1       6.786  15.726  35.377  0.00  0.00     0.259 C 
ATOM      2  C3  SIA d   1       6.118  14.577  36.124  0.00  0.00     0.024 C 
ATOM      3  C4  SIA d   1       6.958  13.309  36.038  0.00  0.00     0.063 C 
ATOM      4  C5  SIA d   1       8.411  13.590  36.402  0.00  0.00     0.064 C 
ATOM      5  C6  SIA d   1       8.941  14.799  35.641  0.00  0.00     0.091 C 
ATOM      6  O6  SIA d   1       8.101  15.924  35.890  0.00  0.00    -0.336 OA
ATOM      7  H1  SIA d   1       5.130  14.385  35.680  0.00  0.00     0.045 H 
ATOM      8  H2  SIA d   1       5.997  14.857  37.181  0.00  0.00     0.045 H 
ATOM      9  H3  SIA d   1       6.918  12.925  35.008  0.00  0.00     0.086 H 
ATOM     10  H4  SIA d   1       8.466  13.804  37.480  0.00  0.00     0.080 H 
ATOM     11  H5  SIA d   1       8.932  14.573  34.565  0.00  0.00     0.090 H 
ENDROOT
BRANCH   1  12
ATOM     12  C1  SIA d   1       6.863  15.393  33.910  0.00  0.00     0.239 C 
ATOM     13  O1A SIA d   1       6.193  14.429  33.480  0.00  0.00    -0.644 OA
ATOM     14  O1B SIA d   1       7.596  16.093  33.177  0.00  0.00    -0.644 OA
ENDBRANCH   1  12
BRANCH   1  15
ATOM     15  O3  GAL d   1       5.759  16.728  35.568  0.00  0.00    -0.336 OA
BRANCH  15  16
ATOM     16  C3  GAL d   1       5.341  18.078  35.268  0.00  0.00     0.099 C 
ATOM     17  C2  GAL d   1       4.818  18.098  33.839  0.00  0.00     0.110 C 
ATOM     18  C1  GAL d   1       4.667  19.490  33.174  0.00  0.00     0.156 C 
ATOM     19  H19 SIA d   1       5.467  17.498  33.185  0.00  0.00     0.094 H 
ATOM     20  O5  GAL d   1       5.632  20.379  33.648  0.00  0.00    -0.349 OA
ATOM     21  H18 SIA d   1       3.667  19.879  33.417  0.00  0.00     0.133 H 
ATOM     22  C5  GAL d   1       5.792  20.516  35.056  0.00  0.00     0.089 C 
ATOM     23  C4  GAL d   1       6.301  19.199  35.656  0.00  0.00     0.090 C 
ATOM     24  H22 SIA d   1       4.787  20.688  35.469  0.00  0.00     0.090 H 
ATOM     25  H21 SIA d   1       6.284  19.303  36.751  0.00  0.00     0.091 H 
ATOM     26  H20 SIA d   1       4.461  18.258  35.903  0.00  0.00     0.091 H 
BRANCH  17  27
ATOM     27  O2  GAL d   1       3.575  17.409  34.099  0.00  0.00    -0.388 OA
ATOM     28  H26 SIA d   1       3.760  16.547  34.452  0.00  0.00     0.210 HD
ENDBRANCH  17  27
BRANCH  18  29
ATOM     29  O1  GAL d   1       4.808  19.431  31.743  0.00  0.00    -0.369 OA
ATOM     30  H25 SIA d   1       5.681  19.125  31.524  0.00  0.00     0.212 HD
ENDBRANCH  18  29
BRANCH  22  31
ATOM     31  C6  GAL d   1       6.660  21.754  35.497  0.00  0.00     0.043 C 
ATOM     32  H23 SIA d   1       7.057  21.535  36.499  0.00  0.00     0.078 H 
ATOM     33  H24 SIA d   1       5.987  22.623  35.551  0.00  0.00     0.078 H 
BRANCH  31  34
ATOM     34  O6  GAL d   1       7.794  22.133  34.652  0.00  0.00    -0.398 OA
ATOM     35  H28 SIA d   1       8.229  22.889  35.028  0.00  0.00     0.209 HD
ENDBRANCH  31  34
ENDBRANCH  22  31
BRANCH  23  36
ATOM     36  O4  GAL d   1       7.616  18.883  35.290  0.00  0.00    -0.390 OA
ATOM     37  H27 SIA d   1       7.867  18.060  35.694  0.00  0.00     0.210 HD
ENDBRANCH  23  36
ENDBRANCH  15  16
ENDBRANCH   1  15
BRANCH   3  38
ATOM     38  O4  SIA d   1       6.425  12.322  36.928  0.00  0.00    -0.393 OA
ATOM     39  H14 SIA d   1       5.519  12.148  36.700  0.00  0.00     0.210 HD
ENDBRANCH   3  38
BRANCH   5  40
ATOM     40  C7  SIA d   1      10.368  15.127  36.064  0.00  0.00     0.089 C 
ATOM     41  H6  SIA d   1      11.039  14.339  35.693  0.00  0.00     0.091 H 
BRANCH  40  42
ATOM     42  C8  SIA d   1      10.814  16.466  35.488  0.00  0.00     0.083 C 
ATOM     43  H7  SIA d   1      10.265  17.272  35.996  0.00  0.00     0.090 H 
BRANCH  42  44
ATOM     44  C9  SIA d   1      12.308  16.680  35.697  0.00  0.00     0.043 C 
ATOM     45  H8  SIA d   1      12.594  16.319  36.696  0.00  0.00     0.078 H 
ATOM     46  H9  SIA d   1      12.540  17.752  35.614  0.00  0.00     0.078 H 
BRANCH  44  47
ATOM     47  O9  SIA d   1      13.039  15.956  34.701  0.00  0.00    -0.398 OA
ATOM     48  H17 SIA d   1      12.792  16.269  33.839  0.00  0.00     0.209 HD
ENDBRANCH  44  47
ENDBRANCH  42  44
BRANCH  42  49
ATOM     49  O8  SIA d   1      10.518  16.505  34.087  0.00  0.00    -0.391 OA
ATOM     50  H16 SIA d   1       9.586  16.372  33.958  0.00  0.00     0.210 HD
ENDBRANCH  42  49
ENDBRANCH  40  42
BRANCH  40  51
ATOM     51  O7  SIA d   1      10.443  15.174  37.493  0.00  0.00    -0.390 OA
ATOM     52  H15 SIA d   1      10.165  14.339  37.851  0.00  0.00     0.210 HD
ENDBRANCH  40  51
ENDBRANCH   5  40
BRANCH   4  53
ATOM     53  N5  SIA d   1       9.228  12.426  36.116  0.00  0.00    -0.352 N 
ATOM     54  C10 SIA d   1      10.288  12.122  36.858  0.00  0.00     0.214 C 
ATOM     55  O10 SIA d   1      10.511  12.667  37.927  0.00  0.00    -0.274 OA
ATOM     56  H13 SIA d   1       8.988  11.839  35.343  0.00  0.00     0.163 HD
BRANCH  54  57
ATOM     57  C11 SIA d   1      11.192  11.064  36.297  0.00  0.00    -0.003 C 
ATOM     58  H10 SIA d   1      12.030  10.894  36.989  0.00  0.00     0.040 H 
ATOM     59  H11 SIA d   1      11.582  11.394  35.323  0.00  0.00     0.040 H 
ATOM     60  H12 SIA d   1      10.627  10.129  36.169  0.00  0.00     0.040 H 
ENDBRANCH  54  57
ENDBRANCH   4  53
TORSDOF 17
