REMARK  8 active torsions:
REMARK  status: ('A' for Active; 'I' for Inactive)
REMARK    1  A    between atoms: C14_11  and  C13_12 
REMARK    2  A    between atoms: C13_12  and  N12_13 
REMARK    3  A    between atoms: N9_22  and  C4_23 
REMARK    4  A    between atoms: C4_23  and  C5_24 
REMARK    5  A    between atoms: C4_23  and  C3_28 
REMARK    6  A    between atoms: C5_24  and  C6_25 
REMARK    7  A    between atoms: C3_28  and  C2_29 
REMARK    8  A    between atoms: C2_29  and  C1_30 
ROOT
ATOM      1  N12 1P9 d   1      64.106  57.514  -4.989  0.00  0.00    -0.293 N 
ATOM      2  C10 1P9 d   1      65.429  57.336  -5.197  0.00  0.00     0.330 A 
ATOM      3  O11 1P9 d   1      66.260  57.273  -4.312  0.00  0.00    -0.246 OA
ATOM      4  C25 1P9 d   1      63.469  57.522  -6.218  0.00  0.00     0.066 A 
ATOM      5  C30 1P9 d   1      64.457  57.360  -7.194  0.00  0.00     0.066 A 
ATOM      6  C29 1P9 d   1      64.085  57.343  -8.532  0.00  0.00    -0.055 A 
ATOM      7  C28 1P9 d   1      62.753  57.471  -8.879  0.00  0.00    -0.081 A 
ATOM      8  C27 1P9 d   1      61.782  57.634  -7.903  0.00  0.00    -0.081 A 
ATOM      9  C26 1P9 d   1      62.130  57.660  -6.569  0.00  0.00    -0.055 A 
ATOM     10  N9  1P9 d   1      65.681  57.249  -6.520  0.00  0.00    -0.292 N 
ATOM     11  H8  1P9 d   1      64.838  57.230  -9.303  0.00  0.00     0.087 H 
ATOM     12  H9  1P9 d   1      62.465  57.444  -9.924  0.00  0.00     0.083 H 
ATOM     13  H10 1P9 d   1      60.742  57.742  -8.191  0.00  0.00     0.083 H 
ATOM     14  H11 1P9 d   1      61.371  57.786  -5.805  0.00  0.00     0.087 H 
ENDROOT
BRANCH   1  15
ATOM     15  C13 1P9 d   1      63.436  57.637  -3.687  0.00  0.00     0.029 C 
ATOM     16  H6  1P9 d   1      62.477  57.100  -3.729  0.00  0.00     0.072 H 
ATOM     17  H7  1P9 d   1      64.076  57.186  -2.914  0.00  0.00     0.072 H 
BRANCH  15  18
ATOM     18  C14 1P9 d   1      63.172  59.081  -3.322  0.00  0.00    -0.029 A 
ATOM     19  C24 1P9 d   1      62.378  59.375  -2.239  0.00  0.00    -0.015 A 
ATOM     20  C23 1P9 d   1      61.636  58.520  -1.245  0.00  0.00     0.036 A 
ATOM     21  C19 1P9 d   1      62.127  60.687  -1.873  0.00  0.00     0.043 A 
ATOM     22  C21 1P9 d   1      60.964  59.507  -0.323  0.00  0.00     0.226 A 
ATOM     23  H2  1P9 d   1      60.889  57.892  -1.753  0.00  0.00     0.054 H 
ATOM     24  H3  1P9 d   1      62.334  57.879  -0.686  0.00  0.00     0.054 H 
ATOM     25  O22 1P9 d   1      60.253  59.237   0.624  0.00  0.00    -0.273 OA
ATOM     26  N20 1P9 d   1      61.308  60.730  -0.750  0.00  0.00    -0.326 N 
ATOM     27  H1  1P9 d   1      61.010  61.577  -0.311  0.00  0.00     0.169 HD
ATOM     28  C18 1P9 d   1      62.667  61.724  -2.619  0.00  0.00    -0.040 A 
ATOM     29  C16 1P9 d   1      63.461  61.422  -3.701  0.00  0.00     0.013 A 
ATOM     30  H4  1P9 d   1      62.467  62.756  -2.354  0.00  0.00     0.089 H 
ATOM     31 BR1  1P9 d   1      64.195  62.856  -4.683  0.00  0.00    -0.051 Br
ATOM     32  C15 1P9 d   1      63.723  60.113  -4.062  0.00  0.00    -0.058 A 
ATOM     33  H5  1P9 d   1      64.354  59.897  -4.917  0.00  0.00     0.086 H 
ENDBRANCH  15  18
ENDBRANCH   1  15
BRANCH  10  34
ATOM     34  C4  1P9 d   1      67.020  57.077  -7.110  0.00  0.00     0.031 C 
ATOM     35  H12 1P9 d   1      67.760  57.035  -6.297  0.00  0.00     0.074 H 
BRANCH  34  36
ATOM     36  C5  1P9 d   1      67.373  58.243  -8.048  0.00  0.00     0.035 C 
ATOM     37  H13 1P9 d   1      66.919  58.050  -9.031  0.00  0.00     0.052 H 
ATOM     38  H14 1P9 d   1      68.467  58.290  -8.152  0.00  0.00     0.052 H 
BRANCH  36  39
ATOM     39  C6  1P9 d   1      66.882  59.577  -7.547  0.00  0.00     0.174 C 
ATOM     40  O8  1P9 d   1      66.282  60.428  -8.394  0.00  0.00    -0.648 OA
ATOM     41  O7  1P9 d   1      67.029  59.896  -6.394  0.00  0.00    -0.648 OA
ENDBRANCH  36  39
ENDBRANCH  34  36
BRANCH  34  42
ATOM     42  C3  1P9 d   1      67.077  55.777  -7.910  0.00  0.00    -0.045 C 
ATOM     43  H15 1P9 d   1      67.996  55.761  -8.514  0.00  0.00     0.036 H 
ATOM     44  H16 1P9 d   1      66.202  55.719  -8.574  0.00  0.00     0.036 H 
BRANCH  42  45
ATOM     45  C2  1P9 d   1      67.073  54.577  -6.963  0.00  0.00    -0.067 C 
ATOM     46  H17 1P9 d   1      66.056  54.409  -6.580  0.00  0.00     0.032 H 
ATOM     47  H18 1P9 d   1      67.755  54.766  -6.121  0.00  0.00     0.032 H 
BRANCH  45  48
ATOM     48  C1  1P9 d   1      67.542  53.344  -7.744  0.00  0.00    -0.076 C 
ATOM     49  H19 1P9 d   1      67.546  52.468  -7.079  0.00  0.00     0.027 H 
ATOM     50  H20 1P9 d   1      68.558  53.518  -8.128  0.00  0.00     0.027 H 
ATOM     51  H21 1P9 d   1      66.858  53.161  -8.586  0.00  0.00     0.027 H 
ENDBRANCH  45  48
ENDBRANCH  42  45
ENDBRANCH  34  42
ENDBRANCH  10  34
TORSDOF 8
