REMARK WARNING: 32 MAX_TORS EXCEEDED!!!
REMARK  48 active torsions:
REMARK  status: ('A' for Active; 'I' for Inactive)
REMARK    1  A    between atoms: C2_2  and  C1_1 
REMARK    2  A    between atoms: OAA_41  and  C2_2 
REMARK    3  A    between atoms: C4_4  and  O4_15 
REMARK    4  A    between atoms: C5_5  and  N5_12 
REMARK    5  A    between atoms: C6_6  and  C7_7 
REMARK    6  A    between atoms: C7_7  and  C8_8 
REMARK    7  A    between atoms: C7_7  and  O7_17 
REMARK    8  A    between atoms: C8_8  and  C9_9 
REMARK    9  A    between atoms: C8_8  and  O8_18 
REMARK   10  A    between atoms: C9_9  and  O9_19 
REMARK   11  A    between atoms: C10_10  and  C11_11 
REMARK       I    between atoms: N5_12  and  C10_10 
REMARK   12  A    between atoms: C2_22  and  C1_21 
REMARK   13  A    between atoms: OAB_68  and  C2_22 
REMARK   14  A    between atoms: C4_24  and  O4_35 
REMARK   15  A    between atoms: C5_25  and  N5_32 
REMARK   16  A    between atoms: C6_26  and  C7_27 
REMARK   17  A    between atoms: C7_27  and  C8_28 
REMARK   18  A    between atoms: C7_27  and  O7_37 
REMARK   19  A    between atoms: C8_28  and  C9_29 
REMARK   20  A    between atoms: C8_28  and  O8_38 
REMARK   21  A    between atoms: C9_29  and  O9_39 
REMARK   22  A    between atoms: C10_30  and  C11_31 
REMARK       I    between atoms: N5_32  and  C10_30 
REMARK   23  A    between atoms: CAG_42  and  OAA_41 
REMARK   24  A    between atoms: CAJ_43  and  CAG_42 
REMARK   25  A    between atoms: NAZ_44  and  CAJ_43 
REMARK   26  A    between atoms: CAM_49  and  CAV_48 
REMARK   27  A    between atoms: NAY_50  and  CAM_49 
REMARK   28  A    between atoms: CAO_51  and  NAY_50 
REMARK   29  A    between atoms: NAY_50  and  CAN_60 
REMARK   30  A    between atoms: CAX_52  and  CAO_51 
REMARK   31  A    between atoms: CAL_57  and  NBB_56 
REMARK   32  A    between atoms: CAI_58  and  CAL_57 
REMARK   33  A    between atoms: OAC_59  and  CAI_58 
REMARK   34  A    between atoms: C2_70  and  OAC_59 
REMARK   35  A    between atoms: CAN_60  and  CAW_61 
REMARK   36  A    between atoms: NBA_65  and  CAK_66 
REMARK   37  A    between atoms: CAK_66  and  CAH_67 
REMARK   38  A    between atoms: CAH_67  and  OAB_68 
REMARK   39  A    between atoms: C2_70  and  C1_69 
REMARK   40  A    between atoms: C4_72  and  O4_83 
REMARK   41  A    between atoms: N5_80  and  C5_73 
REMARK   42  A    between atoms: C6_74  and  C7_75 
REMARK   43  A    between atoms: C7_75  and  C8_76 
REMARK   44  A    between atoms: C7_75  and  O7_85 
REMARK   45  A    between atoms: C8_76  and  C9_77 
REMARK   46  A    between atoms: C8_76  and  O8_86 
REMARK   47  A    between atoms: C9_77  and  O9_87 
REMARK   48  A    between atoms: C10_78  and  C11_79 
REMARK       I    between atoms: C10_78  and  N5_80 
ROOT
ATOM      1  H42 SIA d   1       7.281 -35.048   1.403  0.00  0.00     0.281 HD
ATOM      2  NAY 1P0 d   1       7.919 -34.471   0.878  0.00  0.00    -0.055 N 
ENDROOT
BRANCH   2   3
ATOM      3  CAM 1P0 d   1       7.201 -34.144  -0.392  0.00  0.00     0.127 C 
ATOM      4  H40 SIA d   1       7.958 -33.979  -1.173  0.00  0.00     0.086 H 
ATOM      5  H41 SIA d   1       6.580 -35.012  -0.660  0.00  0.00     0.086 H 
BRANCH   3   6
ATOM      6  CAV 1P0 d   1       6.287 -32.906  -0.355  0.00  0.00     0.101 A 
ATOM      7  CAD 1P0 d   1       6.359 -31.853  -1.164  0.00  0.00     0.027 A 
ATOM      8  NAZ 1P0 d   1       5.377 -30.998  -0.809  0.00  0.00    -0.259 N 
ATOM      9  H39 SIA d   1       7.080 -31.707  -1.967  0.00  0.00     0.117 H 
ATOM     10  NAS 1P0 d   1       4.743 -31.503   0.153  0.00  0.00    -0.066 NA
ATOM     11  NAP 1P0 d   1       5.276 -32.700   0.475  0.00  0.00    -0.134 NA
BRANCH   8  12
ATOM     12  CAJ 1P0 d   1       5.136 -29.658  -1.523  0.00  0.00     0.038 C 
ATOM     13  H37 SIA d   1       6.116 -29.244  -1.804  0.00  0.00     0.070 H 
ATOM     14  H38 SIA d   1       4.549 -29.860  -2.431  0.00  0.00     0.070 H 
BRANCH  12  15
ATOM     15  CAG 1P0 d   1       4.385 -28.585  -0.701  0.00  0.00     0.040 C 
ATOM     16  H35 SIA d   1       3.752 -27.984  -1.371  0.00  0.00     0.077 H 
ATOM     17  H36 SIA d   1       3.756 -29.075   0.056  0.00  0.00     0.077 H 
BRANCH  15  18
ATOM     18  OAA 1P0 d   1       5.352 -27.724  -0.045  0.00  0.00    -0.345 OA
BRANCH  18  19
ATOM     19  C2  SIA d   1       5.636 -26.328   0.053  0.00  0.00     0.258 C 
ATOM     20  C3  SIA d   1       6.990 -25.937   0.694  0.00  0.00     0.024 C 
ATOM     21  C4  SIA d   1       7.009 -24.492   1.187  0.00  0.00     0.063 C 
ATOM     22  H1  SIA d   1       7.785 -26.064  -0.056  0.00  0.00     0.045 H 
ATOM     23  H2  SIA d   1       7.181 -26.603   1.548  0.00  0.00     0.045 H 
ATOM     24  C5  SIA d   1       5.756 -24.181   2.026  0.00  0.00     0.064 C 
ATOM     25  H3  SIA d   1       7.002 -23.829   0.309  0.00  0.00     0.086 H 
ATOM     26  C6  SIA d   1       4.489 -24.580   1.261  0.00  0.00     0.091 C 
ATOM     27  H4  SIA d   1       5.814 -24.757   2.961  0.00  0.00     0.080 H 
ATOM     28  O6  SIA d   1       4.548 -25.968   0.924  0.00  0.00    -0.336 OA
ATOM     29  H5  SIA d   1       4.464 -23.995   0.330  0.00  0.00     0.090 H 
BRANCH  19  30
ATOM     30  C1  SIA d   1       5.437 -25.754  -1.355  0.00  0.00     0.239 C 
ATOM     31  O1A SIA d   1       6.412 -25.752  -2.135  0.00  0.00    -0.644 OA
ATOM     32  O1B SIA d   1       4.313 -25.321  -1.732  0.00  0.00    -0.644 OA
ENDBRANCH  19  30
BRANCH  21  33
ATOM     33  O4  SIA d   1       8.220 -24.236   1.931  0.00  0.00    -0.393 OA
ATOM     34  H14 SIA d   1       8.973 -24.437   1.387  0.00  0.00     0.210 HD
ENDBRANCH  21  33
BRANCH  24  35
ATOM     35  N5  SIA d   1       5.639 -22.767   2.349  0.00  0.00    -0.352 N 
ATOM     36  C10 SIA d   1       5.775 -22.270   3.585  0.00  0.00     0.214 C 
ATOM     37  O10 SIA d   1       6.022 -22.971   4.545  0.00  0.00    -0.274 OA
ATOM     38  H13 SIA d   1       5.446 -22.129   1.604  0.00  0.00     0.163 HD
BRANCH  36  39
ATOM     39  C11 SIA d   1       5.633 -20.781   3.729  0.00  0.00    -0.003 C 
ATOM     40  H10 SIA d   1       5.765 -20.500   4.784  0.00  0.00     0.040 H 
ATOM     41  H11 SIA d   1       4.633 -20.474   3.390  0.00  0.00     0.040 H 
ATOM     42  H12 SIA d   1       6.397 -20.279   3.118  0.00  0.00     0.040 H 
ENDBRANCH  36  39
ENDBRANCH  24  35
BRANCH  26  43
ATOM     43  C7  SIA d   1       3.176 -24.296   2.031  0.00  0.00     0.089 C 
ATOM     44  H6  SIA d   1       3.091 -23.211   2.192  0.00  0.00     0.091 H 
BRANCH  43  45
ATOM     45  C8  SIA d   1       1.990 -24.753   1.183  0.00  0.00     0.083 C 
ATOM     46  H7  SIA d   1       1.942 -25.851   1.224  0.00  0.00     0.090 H 
BRANCH  45  47
ATOM     47  C9  SIA d   1       0.656 -24.200   1.689  0.00  0.00     0.043 C 
ATOM     48  H8  SIA d   1       0.569 -24.403   2.767  0.00  0.00     0.078 H 
ATOM     49  H9  SIA d   1      -0.166 -24.699   1.154  0.00  0.00     0.078 H 
BRANCH  47  50
ATOM     50  O9  SIA d   1       0.566 -22.782   1.470  0.00  0.00    -0.398 OA
ATOM     51  H17 SIA d   1       0.637 -22.601   0.540  0.00  0.00     0.209 HD
ENDBRANCH  47  50
ENDBRANCH  45  47
BRANCH  45  52
ATOM     52  O8  SIA d   1       2.196 -24.349  -0.184  0.00  0.00    -0.391 OA
ATOM     53  H16 SIA d   1       3.025 -24.695  -0.494  0.00  0.00     0.210 HD
ENDBRANCH  45  52
ENDBRANCH  43  45
BRANCH  43  54
ATOM     54  O7  SIA d   1       3.187 -24.938   3.318  0.00  0.00    -0.390 OA
ATOM     55  H15 SIA d   1       3.935 -24.632   3.817  0.00  0.00     0.210 HD
ENDBRANCH  43  54
ENDBRANCH  26  43
ENDBRANCH  18  19
ENDBRANCH  15  18
ENDBRANCH  12  15
ENDBRANCH   8  12
ENDBRANCH   3   6
ENDBRANCH   2   3
BRANCH   2  56
ATOM     56  CAO 1P0 d   1       9.146 -35.296   0.681  0.00  0.00     0.127 C 
ATOM     57  H43 SIA d   1       8.959 -36.158   0.024  0.00  0.00     0.086 H 
ATOM     58  H44 SIA d   1       9.562 -35.646   1.637  0.00  0.00     0.086 H 
BRANCH  56  59
ATOM     59  CAX 1P0 d   1      10.068 -34.232  -0.002  0.00  0.00     0.101 A 
ATOM     60  CAF 1P0 d   1      11.154 -34.345  -0.764  0.00  0.00     0.027 A 
ATOM     61  NBB 1P0 d   1      11.492 -33.063  -1.045  0.00  0.00    -0.259 N 
ATOM     62  H45 SIA d   1      11.655 -35.257  -1.087  0.00  0.00     0.117 H 
ATOM     63  NAU 1P0 d   1      10.671 -32.304  -0.508  0.00  0.00    -0.066 NA
ATOM     64  NAR 1P0 d   1       9.840 -32.916   0.097  0.00  0.00    -0.134 NA
BRANCH  61  65
ATOM     65  CAL 1P0 d   1      12.539 -32.377  -1.837  0.00  0.00     0.038 C 
ATOM     66  H46 SIA d   1      12.304 -31.304  -1.895  0.00  0.00     0.070 H 
ATOM     67  H47 SIA d   1      12.563 -32.803  -2.851  0.00  0.00     0.070 H 
BRANCH  65  68
ATOM     68  CAI 1P0 d   1      13.892 -32.554  -1.192  0.00  0.00     0.040 C 
ATOM     69  H48 SIA d   1      14.694 -32.237  -1.875  0.00  0.00     0.077 H 
ATOM     70  H49 SIA d   1      14.051 -33.603  -0.902  0.00  0.00     0.077 H 
BRANCH  68  71
ATOM     71  OAC 1P0 d   1      13.846 -31.690  -0.009  0.00  0.00    -0.345 OA
BRANCH  71  72
ATOM     72  C2  SIA d   1      15.018 -31.169   0.626  0.00  0.00     0.258 C 
ATOM     73  C3  SIA d   1      14.845 -30.463   1.979  0.00  0.00     0.024 C 
ATOM     74  C4  SIA d   1      16.008 -29.512   2.287  0.00  0.00     0.063 C 
ATOM     75  H57 SIA d   1      14.790 -31.224   2.772  0.00  0.00     0.045 H 
ATOM     76  H58 SIA d   1      13.909 -29.885   1.960  0.00  0.00     0.045 H 
ATOM     77  C5  SIA d   1      16.269 -28.565   1.102  0.00  0.00     0.064 C 
ATOM     78  H59 SIA d   1      16.917 -30.111   2.445  0.00  0.00     0.086 H 
ATOM     79  C6  SIA d   1      16.493 -29.405  -0.160  0.00  0.00     0.091 C 
ATOM     80  H60 SIA d   1      15.395 -27.911   0.967  0.00  0.00     0.080 H 
ATOM     81  O6  SIA d   1      15.347 -30.231  -0.433  0.00  0.00    -0.336 OA
ATOM     82  H61 SIA d   1      17.343 -30.072   0.049  0.00  0.00     0.090 H 
BRANCH  72  83
ATOM     83  C1  SIA d   1      16.065 -32.271   0.688  0.00  0.00     0.239 C 
ATOM     84  O1A SIA d   1      16.889 -32.366  -0.258  0.00  0.00    -0.644 OA
ATOM     85  O1B SIA d   1      16.083 -33.070   1.647  0.00  0.00    -0.644 OA
ENDBRANCH  72  83
BRANCH  74  86
ATOM     86  O4  SIA d   1      15.721 -28.800   3.507  0.00  0.00    -0.393 OA
ATOM     87  H70 SIA d   1      16.460 -28.246   3.731  0.00  0.00     0.210 HD
ENDBRANCH  74  86
BRANCH  77  88
ATOM     88  N5  SIA d   1      17.457 -27.744   1.306  0.00  0.00    -0.352 N 
ATOM     89  C10 SIA d   1      17.446 -26.422   1.522  0.00  0.00     0.214 C 
ATOM     90  O10 SIA d   1      16.440 -25.733   1.609  0.00  0.00    -0.274 OA
ATOM     91  H69 SIA d   1      18.346 -28.202   1.283  0.00  0.00     0.163 HD
BRANCH  89  92
ATOM     92  C11 SIA d   1      18.797 -25.797   1.698  0.00  0.00    -0.003 C 
ATOM     93  H66 SIA d   1      18.682 -24.716   1.869  0.00  0.00     0.040 H 
ATOM     94  H67 SIA d   1      19.399 -25.963   0.792  0.00  0.00     0.040 H 
ATOM     95  H68 SIA d   1      19.302 -26.253   2.562  0.00  0.00     0.040 H 
ENDBRANCH  89  92
ENDBRANCH  77  88
BRANCH  79  96
ATOM     96  C7  SIA d   1      16.861 -28.590  -1.409  0.00  0.00     0.089 C 
ATOM     97  H62 SIA d   1      17.801 -28.057  -1.204  0.00  0.00     0.091 H 
BRANCH  96  98
ATOM     98  C8  SIA d   1      17.062 -29.488  -2.634  0.00  0.00     0.083 C 
ATOM     99  H63 SIA d   1      16.078 -29.742  -3.055  0.00  0.00     0.090 H 
BRANCH  98 100
ATOM    100  C9  SIA d   1      17.904 -28.809  -3.721  0.00  0.00     0.043 C 
ATOM    101  H64 SIA d   1      17.380 -27.908  -4.073  0.00  0.00     0.078 H 
ATOM    102  H65 SIA d   1      18.040 -29.506  -4.561  0.00  0.00     0.078 H 
BRANCH 100 103
ATOM    103  O9  SIA d   1      19.203 -28.431  -3.203  0.00  0.00    -0.398 OA
ATOM    104  H73 SIA d   1      19.090 -27.826  -2.479  0.00  0.00     0.209 HD
ENDBRANCH 100 103
ENDBRANCH  98 100
BRANCH  98 105
ATOM    105  O8  SIA d   1      17.725 -30.680  -2.216  0.00  0.00    -0.391 OA
ATOM    106  H72 SIA d   1      17.210 -31.108  -1.542  0.00  0.00     0.210 HD
ENDBRANCH  98 105
ENDBRANCH  96  98
BRANCH  96 107
ATOM    107  O7  SIA d   1      15.853 -27.639  -1.718  0.00  0.00    -0.390 OA
ATOM    108  H71 SIA d   1      16.128 -27.119  -2.464  0.00  0.00     0.210 HD
ENDBRANCH  96 107
ENDBRANCH  79  96
ENDBRANCH  71  72
ENDBRANCH  68  71
ENDBRANCH  65  68
ENDBRANCH  61  65
ENDBRANCH  56  59
ENDBRANCH   2  56
BRANCH   2 109
ATOM    109  CAN 1P0 d   1       8.199 -33.270   1.750  0.00  0.00     0.127 C 
ATOM    110  H50 SIA d   1       7.517 -32.429   1.556  0.00  0.00     0.086 H 
ATOM    111  H51 SIA d   1       9.240 -32.921   1.681  0.00  0.00     0.086 H 
BRANCH 109 112
ATOM    112  CAW 1P0 d   1       7.900 -33.988   3.046  0.00  0.00     0.101 A 
ATOM    113  CAE 1P0 d   1       8.789 -34.409   3.915  0.00  0.00     0.027 A 
ATOM    114  NBA 1P0 d   1       8.074 -35.023   4.835  0.00  0.00    -0.259 N 
ATOM    115  H52 SIA d   1       9.870 -34.280   3.883  0.00  0.00     0.117 H 
ATOM    116  NAT 1P0 d   1       6.832 -34.948   4.492  0.00  0.00    -0.066 NA
ATOM    117  NAQ 1P0 d   1       6.702 -34.374   3.425  0.00  0.00    -0.134 NA
BRANCH 114 118
ATOM    118  CAK 1P0 d   1       8.684 -35.581   6.031  0.00  0.00     0.038 C 
ATOM    119  H53 SIA d   1       9.648 -35.093   6.237  0.00  0.00     0.070 H 
ATOM    120  H54 SIA d   1       8.838 -36.664   5.917  0.00  0.00     0.070 H 
BRANCH 118 121
ATOM    121  CAH 1P0 d   1       7.673 -35.292   7.168  0.00  0.00     0.040 C 
ATOM    122  H55 SIA d   1       8.010 -35.784   8.092  0.00  0.00     0.077 H 
ATOM    123  H56 SIA d   1       6.683 -35.680   6.886  0.00  0.00     0.077 H 
BRANCH 121 124
ATOM    124  OAB 1P0 d   1       7.587 -33.847   7.388  0.00  0.00    -0.345 OA
BRANCH 124 125
ATOM    125  C2  SIA d   1       7.960 -32.993   8.488  0.00  0.00     0.258 C 
ATOM    126  C3  SIA d   1       8.182 -31.478   8.374  0.00  0.00     0.024 C 
ATOM    127  C4  SIA d   1       8.563 -30.850   9.717  0.00  0.00     0.063 C 
ATOM    128  H18 SIA d   1       7.254 -31.009   8.014  0.00  0.00     0.045 H 
ATOM    129  H19 SIA d   1       8.991 -31.291   7.653  0.00  0.00     0.045 H 
ATOM    130  C5  SIA d   1       9.763 -31.583  10.324  0.00  0.00     0.064 C 
ATOM    131  H20 SIA d   1       7.710 -30.940  10.406  0.00  0.00     0.086 H 
ATOM    132  C6  SIA d   1       9.468 -33.078  10.375  0.00  0.00     0.091 C 
ATOM    133  H21 SIA d   1      10.648 -31.406   9.695  0.00  0.00     0.080 H 
ATOM    134  O6  SIA d   1       9.146 -33.568   9.065  0.00  0.00    -0.336 OA
ATOM    135  H22 SIA d   1       8.587 -33.216  11.019  0.00  0.00     0.090 H 
BRANCH 125 136
ATOM    136  C1  SIA d   1       6.705 -33.318   9.306  0.00  0.00     0.239 C 
ATOM    137  O1A SIA d   1       5.657 -32.650   9.135  0.00  0.00    -0.644 OA
ATOM    138  O1B SIA d   1       6.733 -34.248  10.146  0.00  0.00    -0.644 OA
ENDBRANCH 125 136
BRANCH 127 139
ATOM    139  O4  SIA d   1       8.862 -29.458   9.532  0.00  0.00    -0.393 OA
ATOM    140  H31 SIA d   1       9.070 -29.066  10.372  0.00  0.00     0.210 HD
ENDBRANCH 127 139
BRANCH 130 141
ATOM    141  N5  SIA d   1      10.033 -31.103  11.677  0.00  0.00    -0.352 N 
ATOM    142  C10 SIA d   1      11.111 -30.389  11.979  0.00  0.00     0.214 C 
ATOM    143  O10 SIA d   1      11.949 -30.087  11.152  0.00  0.00    -0.274 OA
ATOM    144  H30 SIA d   1       9.381 -31.320  12.403  0.00  0.00     0.163 HD
BRANCH 142 145
ATOM    145  C11 SIA d   1      11.242 -29.967  13.411  0.00  0.00    -0.003 C 
ATOM    146  H27 SIA d   1      12.167 -29.386  13.539  0.00  0.00     0.040 H 
ATOM    147  H28 SIA d   1      11.277 -30.859  14.054  0.00  0.00     0.040 H 
ATOM    148  H29 SIA d   1      10.378 -29.347  13.691  0.00  0.00     0.040 H 
ENDBRANCH 142 145
ENDBRANCH 130 141
BRANCH 132 149
ATOM    149  C7  SIA d   1      10.606 -33.915  10.969  0.00  0.00     0.089 C 
ATOM    150  H23 SIA d   1      10.842 -33.537  11.975  0.00  0.00     0.091 H 
BRANCH 149 151
ATOM    151  C8  SIA d   1      10.173 -35.387  11.104  0.00  0.00     0.083 C 
ATOM    152  H24 SIA d   1      10.355 -35.885  10.140  0.00  0.00     0.090 H 
BRANCH 151 153
ATOM    153  C9  SIA d   1      10.925 -36.156  12.199  0.00  0.00     0.043 C 
ATOM    154  H25 SIA d   1      12.004 -35.982  12.075  0.00  0.00     0.078 H 
ATOM    155  H26 SIA d   1      10.712 -37.229  12.087  0.00  0.00     0.078 H 
BRANCH 153 156
ATOM    156  O9  SIA d   1      10.537 -35.742  13.529  0.00  0.00    -0.398 OA
ATOM    157  H34 SIA d   1       9.607 -35.895  13.648  0.00  0.00     0.209 HD
ENDBRANCH 153 156
ENDBRANCH 151 153
BRANCH 151 158
ATOM    158  O8  SIA d   1       8.774 -35.454  11.416  0.00  0.00    -0.391 OA
ATOM    159  H33 SIA d   1       8.280 -34.985  10.754  0.00  0.00     0.210 HD
ENDBRANCH 151 158
ENDBRANCH 149 151
BRANCH 149 160
ATOM    160  O7  SIA d   1      11.762 -33.742  10.135  0.00  0.00    -0.390 OA
ATOM    161  H32 SIA d   1      12.492 -34.225  10.504  0.00  0.00     0.210 HD
ENDBRANCH 149 160
ENDBRANCH 132 149
ENDBRANCH 124 125
ENDBRANCH 121 124
ENDBRANCH 118 121
ENDBRANCH 114 118
ENDBRANCH 109 112
ENDBRANCH   2 109
TORSDOF 48
