REMARK WARNING: 32 MAX_TORS EXCEEDED!!!
REMARK  51 active torsions:
REMARK  status: ('A' for Active; 'I' for Inactive)
REMARK    1  A    between atoms: C2_2  and  C1_1 
REMARK    2  A    between atoms: OAB_71  and  C2_2 
REMARK    3  A    between atoms: C4_4  and  O4_15 
REMARK    4  A    between atoms: C5_5  and  N5_12 
REMARK    5  A    between atoms: C6_6  and  C7_7 
REMARK    6  A    between atoms: C7_7  and  C8_8 
REMARK    7  A    between atoms: C7_7  and  O7_17 
REMARK    8  A    between atoms: C8_8  and  C9_9 
REMARK    9  A    between atoms: C8_8  and  O8_18 
REMARK   10  A    between atoms: C9_9  and  O9_19 
REMARK   11  A    between atoms: C10_10  and  C11_11 
REMARK       I    between atoms: N5_12  and  C10_10 
REMARK   12  A    between atoms: C2_22  and  C1_21 
REMARK   13  A    between atoms: OAC_61  and  C2_22 
REMARK   14  A    between atoms: C4_24  and  O4_35 
REMARK   15  A    between atoms: C5_25  and  N5_32 
REMARK   16  A    between atoms: C6_26  and  C7_27 
REMARK   17  A    between atoms: C7_27  and  C8_28 
REMARK   18  A    between atoms: C7_27  and  O7_37 
REMARK   19  A    between atoms: C8_28  and  C9_29 
REMARK   20  A    between atoms: C8_28  and  O8_38 
REMARK   21  A    between atoms: C9_29  and  O9_39 
REMARK   22  A    between atoms: C10_30  and  C11_31 
REMARK       I    between atoms: N5_32  and  C10_30 
REMARK   23  A    between atoms: OAA_41  and  CAG_42 
REMARK   24  A    between atoms: C2_73  and  OAA_41 
REMARK   25  A    between atoms: CAG_42  and  CAJ_43 
REMARK   26  A    between atoms: CAJ_43  and  CAM_44 
REMARK   27  A    between atoms: CAM_44  and  NBC_45 
REMARK   28  A    between atoms: CAY_49  and  CAP_50 
REMARK   29  A    between atoms: CAP_50  and  NBB_51 
REMARK   30  A    between atoms: NBB_51  and  CAR_52 
REMARK   31  A    between atoms: NBB_51  and  CAQ_62 
REMARK   32  A    between atoms: CAR_52  and  CBA_53 
REMARK   33  A    between atoms: NBE_57  and  CAO_58 
REMARK   34  A    between atoms: CAO_58  and  CAL_59 
REMARK   35  A    between atoms: CAL_59  and  CAI_60 
REMARK   36  A    between atoms: CAI_60  and  OAC_61 
REMARK   37  A    between atoms: CAQ_62  and  CAZ_63 
REMARK   38  A    between atoms: NBD_67  and  CAN_68 
REMARK   39  A    between atoms: CAN_68  and  CAK_69 
REMARK   40  A    between atoms: CAK_69  and  CAH_70 
REMARK   41  A    between atoms: CAH_70  and  OAB_71 
REMARK   42  A    between atoms: C2_73  and  C1_72 
REMARK   43  A    between atoms: C4_75  and  O4_86 
REMARK   44  A    between atoms: N5_83  and  C5_76 
REMARK   45  A    between atoms: C6_77  and  C7_78 
REMARK   46  A    between atoms: C7_78  and  C8_79 
REMARK   47  A    between atoms: C7_78  and  O7_88 
REMARK   48  A    between atoms: C8_79  and  C9_80 
REMARK   49  A    between atoms: C8_79  and  O8_89 
REMARK   50  A    between atoms: C9_80  and  O9_90 
REMARK   51  A    between atoms: C10_81  and  C11_82 
REMARK       I    between atoms: C10_81  and  N5_83 
ROOT
ATOM      1  H44 SIA d   1      -0.504  18.441   7.351  0.00  0.00     0.281 HD
ATOM      2  NBB 1P4 d   1      -1.250  19.088   7.146  0.00  0.00    -0.055 N 
ENDROOT
BRANCH   2   3
ATOM      3  CAP 1P4 d   1      -1.715  18.799   5.791  0.00  0.00     0.127 C 
ATOM      4  H42 SIA d   1      -2.804  18.941   5.727  0.00  0.00     0.086 H 
ATOM      5  H43 SIA d   1      -1.216  19.464   5.071  0.00  0.00     0.086 H 
BRANCH   3   6
ATOM      6  CAY 1P4 d   1      -1.360  17.355   5.498  0.00  0.00     0.101 A 
ATOM      7  CAD 1P4 d   1      -2.137  16.500   4.859  0.00  0.00     0.027 A 
ATOM      8  NBC 1P4 d   1      -1.463  15.361   4.827  0.00  0.00    -0.261 N 
ATOM      9  H41 SIA d   1      -3.126  16.692   4.445  0.00  0.00     0.117 H 
ATOM     10  NAV 1P4 d   1      -0.303  15.558   5.455  0.00  0.00    -0.066 NA
ATOM     11  NAS 1P4 d   1      -0.232  16.765   5.872  0.00  0.00    -0.134 NA
BRANCH   8  12
ATOM     12  CAM 1P4 d   1      -1.981  14.116   4.180  0.00  0.00     0.020 C 
ATOM     13  H39 SIA d   1      -3.010  14.292   3.833  0.00  0.00     0.067 H 
ATOM     14  H40 SIA d   1      -1.342  13.864   3.321  0.00  0.00     0.067 H 
BRANCH  12  15
ATOM     15  CAJ 1P4 d   1      -1.979  12.938   5.172  0.00  0.00    -0.028 C 
ATOM     16  H37 SIA d   1      -2.086  13.319   6.198  0.00  0.00     0.038 H 
ATOM     17  H38 SIA d   1      -2.815  12.261   4.943  0.00  0.00     0.038 H 
BRANCH  15  18
ATOM     18  CAG 1P4 d   1      -0.660  12.185   5.041  0.00  0.00     0.025 C 
ATOM     19  H35 SIA d   1      -0.735  11.455   4.221  0.00  0.00     0.074 H 
ATOM     20  H36 SIA d   1       0.149  12.898   4.824  0.00  0.00     0.074 H 
BRANCH  18  21
ATOM     21  OAA 1P4 d   1      -0.376  11.498   6.269  0.00  0.00    -0.346 OA
BRANCH  21  22
ATOM     22  C2  SIA d   1      -0.160  10.086   6.313  0.00  0.00     0.258 C 
ATOM     23  C3  SIA d   1       0.302   9.557   7.670  0.00  0.00     0.024 C 
ATOM     24  C4  SIA d   1       0.967   8.185   7.566  0.00  0.00     0.063 C 
ATOM     25  H63 SIA d   1      -0.572   9.476   8.334  0.00  0.00     0.045 H 
ATOM     26  H64 SIA d   1       1.024  10.268   8.099  0.00  0.00     0.045 H 
ATOM     27  C5  SIA d   1       2.028   8.098   6.467  0.00  0.00     0.064 C 
ATOM     28  H65 SIA d   1       0.191   7.442   7.330  0.00  0.00     0.086 H 
ATOM     29  C6  SIA d   1       1.353   8.565   5.197  0.00  0.00     0.091 C 
ATOM     30  H66 SIA d   1       2.895   8.726   6.718  0.00  0.00     0.080 H 
ATOM     31  O6  SIA d   1       0.879   9.918   5.355  0.00  0.00    -0.336 OA
ATOM     32  H67 SIA d   1       0.485   7.912   5.025  0.00  0.00     0.090 H 
BRANCH  22  33
ATOM     33  C1  SIA d   1      -1.459   9.425   5.815  0.00  0.00     0.239 C 
ATOM     34  O1A SIA d   1      -1.541   8.992   4.638  0.00  0.00    -0.644 OA
ATOM     35  O1B SIA d   1      -2.407   9.380   6.590  0.00  0.00    -0.644 OA
ENDBRANCH  22  33
BRANCH  24  36
ATOM     36  O4  SIA d   1       1.496   7.894   8.829  0.00  0.00    -0.393 OA
ATOM     37  H76 SIA d   1       1.851   7.013   8.827  0.00  0.00     0.210 HD
ENDBRANCH  24  36
BRANCH  27  38
ATOM     38  N5  SIA d   1       2.453   6.704   6.234  0.00  0.00    -0.352 N 
ATOM     39  C10 SIA d   1       3.653   6.223   6.570  0.00  0.00     0.214 C 
ATOM     40  O10 SIA d   1       4.504   6.897   7.110  0.00  0.00    -0.274 OA
ATOM     41  H75 SIA d   1       1.803   6.082   5.798  0.00  0.00     0.163 HD
BRANCH  39  42
ATOM     42  C11 SIA d   1       3.900   4.772   6.293  0.00  0.00    -0.003 C 
ATOM     43  H72 SIA d   1       4.918   4.505   6.614  0.00  0.00     0.040 H 
ATOM     44  H73 SIA d   1       3.794   4.581   5.215  0.00  0.00     0.040 H 
ATOM     45  H74 SIA d   1       3.170   4.163   6.846  0.00  0.00     0.040 H 
ENDBRANCH  39  42
ENDBRANCH  27  38
BRANCH  29  46
ATOM     46  C7  SIA d   1       2.240   8.482   3.969  0.00  0.00     0.089 C 
ATOM     47  H68 SIA d   1       2.567   7.442   3.824  0.00  0.00     0.091 H 
BRANCH  46  48
ATOM     48  C8  SIA d   1       1.527   8.971   2.746  0.00  0.00     0.083 C 
ATOM     49  H69 SIA d   1       1.546  10.070   2.716  0.00  0.00     0.090 H 
BRANCH  48  50
ATOM     50  C9  SIA d   1       2.244   8.402   1.530  0.00  0.00     0.043 C 
ATOM     51  H70 SIA d   1       1.952   7.352   1.380  0.00  0.00     0.078 H 
ATOM     52  H71 SIA d   1       3.333   8.463   1.674  0.00  0.00     0.078 H 
BRANCH  50  53
ATOM     53  O9  SIA d   1       1.861   9.177   0.404  0.00  0.00    -0.398 OA
ATOM     54  H79 SIA d   1       2.296   8.843  -0.372  0.00  0.00     0.209 HD
ENDBRANCH  50  53
ENDBRANCH  48  50
BRANCH  48  55
ATOM     55  O8  SIA d   1       0.185   8.518   2.746  0.00  0.00    -0.391 OA
ATOM     56  H78 SIA d   1      -0.267   8.871   3.503  0.00  0.00     0.210 HD
ENDBRANCH  48  55
ENDBRANCH  46  48
BRANCH  46  57
ATOM     57  O7  SIA d   1       3.354   9.329   4.136  0.00  0.00    -0.390 OA
ATOM     58  H77 SIA d   1       3.911   9.273   3.369  0.00  0.00     0.210 HD
ENDBRANCH  46  57
ENDBRANCH  29  46
ENDBRANCH  21  22
ENDBRANCH  18  21
ENDBRANCH  15  18
ENDBRANCH  12  15
ENDBRANCH   8  12
ENDBRANCH   3   6
ENDBRANCH   2   3
BRANCH   2  59
ATOM     59  CAR 1P4 d   1      -2.321  18.824   8.090  0.00  0.00     0.127 C 
ATOM     60  H45 SIA d   1      -2.946  17.982   7.758  0.00  0.00     0.086 H 
ATOM     61  H46 SIA d   1      -2.951  19.714   8.236  0.00  0.00     0.086 H 
BRANCH  59  62
ATOM     62  CBA 1P4 d   1      -1.562  18.477   9.352  0.00  0.00     0.101 A 
ATOM     63  CAF 1P4 d   1      -1.911  18.767  10.588  0.00  0.00     0.027 A 
ATOM     64  NBE 1P4 d   1      -0.935  18.237  11.330  0.00  0.00    -0.261 N 
ATOM     65  H47 SIA d   1      -2.791  19.312  10.927  0.00  0.00     0.117 H 
ATOM     66  NAX 1P4 d   1      -0.068  17.683  10.523  0.00  0.00    -0.066 NA
ATOM     67  NAU 1P4 d   1      -0.417  17.806   9.353  0.00  0.00    -0.134 NA
BRANCH  64  68
ATOM     68  CAO 1P4 d   1      -0.811  18.287  12.770  0.00  0.00     0.020 C 
ATOM     69  H48 SIA d   1      -0.831  19.334  13.106  0.00  0.00     0.067 H 
ATOM     70  H49 SIA d   1       0.139  17.823  13.075  0.00  0.00     0.067 H 
BRANCH  68  71
ATOM     71  CAL 1P4 d   1      -1.974  17.528  13.395  0.00  0.00    -0.028 C 
ATOM     72  H50 SIA d   1      -2.928  17.917  13.008  0.00  0.00     0.038 H 
ATOM     73  H51 SIA d   1      -1.950  17.638  14.489  0.00  0.00     0.038 H 
BRANCH  71  74
ATOM     74  CAI 1P4 d   1      -1.816  16.047  13.012  0.00  0.00     0.025 C 
ATOM     75  H52 SIA d   1      -1.501  15.967  11.961  0.00  0.00     0.074 H 
ATOM     76  H53 SIA d   1      -2.774  15.525  13.148  0.00  0.00     0.074 H 
BRANCH  74  77
ATOM     77  OAC 1P4 d   1      -0.798  15.446  13.880  0.00  0.00    -0.346 OA
BRANCH  77  78
ATOM     78  C2  SIA d   1      -0.516  15.013  15.183  0.00  0.00     0.258 C 
ATOM     79  C3  SIA d   1       0.898  14.355  15.181  0.00  0.00     0.024 C 
ATOM     80  C4  SIA d   1       1.057  13.352  16.313  0.00  0.00     0.063 C 
ATOM     81  H18 SIA d   1       1.657  15.143  15.294  0.00  0.00     0.045 H 
ATOM     82  H19 SIA d   1       1.048  13.836  14.223  0.00  0.00     0.045 H 
ATOM     83  C5  SIA d   1      -0.110  12.336  16.308  0.00  0.00     0.064 C 
ATOM     84  H20 SIA d   1       1.052  13.890  17.273  0.00  0.00     0.086 H 
ATOM     85  C6  SIA d   1      -1.444  13.101  16.342  0.00  0.00     0.091 C 
ATOM     86  H21 SIA d   1      -0.051  11.693  15.417  0.00  0.00     0.080 H 
ATOM     87  O6  SIA d   1      -1.531  13.987  15.213  0.00  0.00    -0.336 OA
ATOM     88  H22 SIA d   1      -1.435  13.715  17.255  0.00  0.00     0.090 H 
BRANCH  78  89
ATOM     89  C1  SIA d   1      -0.680  16.060  16.280  0.00  0.00     0.239 C 
ATOM     90  O1A SIA d   1       0.168  16.978  16.317  0.00  0.00    -0.644 OA
ATOM     91  O1B SIA d   1      -1.621  16.015  17.126  0.00  0.00    -0.644 OA
ENDBRANCH  78  89
BRANCH  80  92
ATOM     92  O4  SIA d   1       2.330  12.669  16.158  0.00  0.00    -0.393 OA
ATOM     93  H31 SIA d   1       2.336  12.196  15.334  0.00  0.00     0.210 HD
ENDBRANCH  80  92
BRANCH  83  94
ATOM     94  N5  SIA d   1      -0.060  11.548  17.509  0.00  0.00    -0.352 N 
ATOM     95  C10 SIA d   1       0.245  10.239  17.544  0.00  0.00     0.214 C 
ATOM     96  O10 SIA d   1       0.544   9.578  16.580  0.00  0.00    -0.274 OA
ATOM     97  H30 SIA d   1      -0.266  12.003  18.375  0.00  0.00     0.163 HD
BRANCH  95  98
ATOM     98  C11 SIA d   1       0.205   9.664  18.898  0.00  0.00    -0.003 C 
ATOM     99  H27 SIA d   1       0.464   8.596  18.851  0.00  0.00     0.040 H 
ATOM    100  H28 SIA d   1      -0.806   9.778  19.315  0.00  0.00     0.040 H 
ATOM    101  H29 SIA d   1       0.928  10.188  19.541  0.00  0.00     0.040 H 
ENDBRANCH  95  98
ENDBRANCH  83  94
BRANCH  85 102
ATOM    102  C7  SIA d   1      -2.706  12.228  16.405  0.00  0.00     0.089 C 
ATOM    103  H23 SIA d   1      -2.694  11.614  17.317  0.00  0.00     0.091 H 
BRANCH 102 104
ATOM    104  C8  SIA d   1      -3.953  13.152  16.394  0.00  0.00     0.083 C 
ATOM    105  H24 SIA d   1      -4.085  13.555  15.379  0.00  0.00     0.090 H 
BRANCH 104 106
ATOM    106  C9  SIA d   1      -5.226  12.439  16.820  0.00  0.00     0.043 C 
ATOM    107  H25 SIA d   1      -5.497  11.678  16.074  0.00  0.00     0.078 H 
ATOM    108  H26 SIA d   1      -6.047  13.165  16.918  0.00  0.00     0.078 H 
BRANCH 106 109
ATOM    109  O9  SIA d   1      -4.972  11.812  18.090  0.00  0.00    -0.398 OA
ATOM    110  H34 SIA d   1      -4.735  12.475  18.728  0.00  0.00     0.209 HD
ENDBRANCH 106 109
ENDBRANCH 104 106
BRANCH 104 111
ATOM    111  O8  SIA d   1      -3.754  14.223  17.327  0.00  0.00    -0.391 OA
ATOM    112  H33 SIA d   1      -2.964  14.699  17.098  0.00  0.00     0.210 HD
ENDBRANCH 104 111
ENDBRANCH 102 104
BRANCH 102 113
ATOM    113  O7  SIA d   1      -2.764  11.401  15.263  0.00  0.00    -0.390 OA
ATOM    114  H32 SIA d   1      -3.558  10.880  15.290  0.00  0.00     0.210 HD
ENDBRANCH 102 113
ENDBRANCH  85 102
ENDBRANCH  77  78
ENDBRANCH  74  77
ENDBRANCH  71  74
ENDBRANCH  68  71
ENDBRANCH  64  68
ENDBRANCH  59  62
ENDBRANCH   2  59
BRANCH   2 115
ATOM    115  CAQ 1P4 d   1      -0.699  20.399   7.276  0.00  0.00     0.127 C 
ATOM    116  H54 SIA d   1      -0.670  20.728   8.325  0.00  0.00     0.086 H 
ATOM    117  H55 SIA d   1      -1.253  21.136   6.676  0.00  0.00     0.086 H 
BRANCH 115 118
ATOM    118  CAZ 1P4 d   1       0.664  20.159   6.735  0.00  0.00     0.101 A 
ATOM    119  CAE 1P4 d   1       1.673  19.693   7.429  0.00  0.00     0.027 A 
ATOM    120  NBD 1P4 d   1       2.644  19.614   6.529  0.00  0.00    -0.261 N 
ATOM    121  H56 SIA d   1       1.706  19.434   8.486  0.00  0.00     0.117 H 
ATOM    122  NAW 1P4 d   1       2.172  20.013   5.387  0.00  0.00    -0.066 NA
ATOM    123  NAT 1P4 d   1       1.018  20.322   5.475  0.00  0.00    -0.134 NA
BRANCH 120 124
ATOM    124  CAN 1P4 d   1       4.008  19.218   6.652  0.00  0.00     0.020 C 
ATOM    125  H57 SIA d   1       4.670  20.064   6.414  0.00  0.00     0.067 H 
ATOM    126  H58 SIA d   1       4.222  18.382   5.970  0.00  0.00     0.067 H 
BRANCH 124 127
ATOM    127  CAK 1P4 d   1       4.211  18.787   8.079  0.00  0.00    -0.028 C 
ATOM    128  H59 SIA d   1       3.907  17.738   8.212  0.00  0.00     0.038 H 
ATOM    129  H60 SIA d   1       3.632  19.427   8.761  0.00  0.00     0.038 H 
BRANCH 127 130
ATOM    130  CAH 1P4 d   1       5.715  18.948   8.337  0.00  0.00     0.025 C 
ATOM    131  H61 SIA d   1       5.891  19.808   9.000  0.00  0.00     0.074 H 
ATOM    132  H62 SIA d   1       6.243  19.104   7.385  0.00  0.00     0.074 H 
BRANCH 130 133
ATOM    133  OAB 1P4 d   1       6.187  17.737   8.968  0.00  0.00    -0.346 OA
BRANCH 133 134
ATOM    134  C2  SIA d   1       7.474  17.107   9.086  0.00  0.00     0.258 C 
ATOM    135  C3  SIA d   1       7.458  15.571   9.190  0.00  0.00     0.024 C 
ATOM    136  C4  SIA d   1       8.750  15.024   9.811  0.00  0.00     0.063 C 
ATOM    137  H1  SIA d   1       7.342  15.148   8.181  0.00  0.00     0.045 H 
ATOM    138  H2  SIA d   1       6.606  15.266   9.816  0.00  0.00     0.045 H 
ATOM    139  C5  SIA d   1       9.162  15.732  11.123  0.00  0.00     0.064 C 
ATOM    140  H3  SIA d   1       9.571  15.171   9.094  0.00  0.00     0.086 H 
ATOM    141  C6  SIA d   1       9.191  17.236  10.831  0.00  0.00     0.091 C 
ATOM    142  H4  SIA d   1       8.422  15.509  11.906  0.00  0.00     0.080 H 
ATOM    143  O6  SIA d   1       7.917  17.676  10.328  0.00  0.00    -0.336 OA
ATOM    144  H5  SIA d   1       9.948  17.395  10.049  0.00  0.00     0.090 H 
BRANCH 134 145
ATOM    145  C1  SIA d   1       8.331  17.642   7.942  0.00  0.00     0.239 C 
ATOM    146  O1A SIA d   1       8.262  17.110   6.822  0.00  0.00    -0.644 OA
ATOM    147  O1B SIA d   1       9.066  18.636   8.164  0.00  0.00    -0.644 OA
ENDBRANCH 134 145
BRANCH 136 148
ATOM    148  O4  SIA d   1       8.534  13.623   9.975  0.00  0.00    -0.393 OA
ATOM    149  H14 SIA d   1       9.334  13.214  10.284  0.00  0.00     0.210 HD
ENDBRANCH 136 148
BRANCH 139 150
ATOM    150  N5  SIA d   1      10.494  15.330  11.591  0.00  0.00    -0.352 N 
ATOM    151  C10 SIA d   1      10.720  14.589  12.676  0.00  0.00     0.214 C 
ATOM    152  O10 SIA d   1       9.831  14.164  13.414  0.00  0.00    -0.274 OA
ATOM    153  H13 SIA d   1      11.286  15.633  11.060  0.00  0.00     0.163 HD
BRANCH 151 154
ATOM    154  C11 SIA d   1      12.175  14.274  12.956  0.00  0.00    -0.003 C 
ATOM    155  H10 SIA d   1      12.249  13.662  13.867  0.00  0.00     0.040 H 
ATOM    156  H11 SIA d   1      12.732  15.212  13.098  0.00  0.00     0.040 H 
ATOM    157  H12 SIA d   1      12.600  13.720  12.106  0.00  0.00     0.040 H 
ENDBRANCH 151 154
ENDBRANCH 139 150
BRANCH 141 158
ATOM    158  C7  SIA d   1       9.559  18.132  12.014  0.00  0.00     0.089 C 
ATOM    159  H6  SIA d   1      10.592  17.906  12.319  0.00  0.00     0.091 H 
BRANCH 158 160
ATOM    160  C8  SIA d   1       9.490  19.606  11.559  0.00  0.00     0.083 C 
ATOM    161  H7  SIA d   1       8.429  19.891  11.507  0.00  0.00     0.090 H 
BRANCH 160 162
ATOM    162  C9  SIA d   1      10.188  20.553  12.523  0.00  0.00     0.043 C 
ATOM    163  H8  SIA d   1      11.271  20.541  12.330  0.00  0.00     0.078 H 
ATOM    164  H9  SIA d   1       9.996  20.232  13.557  0.00  0.00     0.078 H 
BRANCH 162 165
ATOM    165  O9  SIA d   1       9.681  21.884  12.332  0.00  0.00    -0.398 OA
ATOM    166  H17 SIA d   1      10.116  22.477  12.934  0.00  0.00     0.209 HD
ENDBRANCH 162 165
ENDBRANCH 160 162
BRANCH 160 167
ATOM    167  O8  SIA d   1      10.072  19.769  10.251  0.00  0.00    -0.391 OA
ATOM    168  H16 SIA d   1       9.643  19.182   9.639  0.00  0.00     0.210 HD
ENDBRANCH 160 167
ENDBRANCH 158 160
BRANCH 158 169
ATOM    169  O7  SIA d   1       8.693  17.889  13.146  0.00  0.00    -0.390 OA
ATOM    170  H15 SIA d   1       7.796  18.090  12.906  0.00  0.00     0.210 HD
ENDBRANCH 158 169
ENDBRANCH 141 158
ENDBRANCH 133 134
ENDBRANCH 130 133
ENDBRANCH 127 130
ENDBRANCH 124 127
ENDBRANCH 120 124
ENDBRANCH 115 118
ENDBRANCH   2 115
TORSDOF 51
