REMARK WARNING: 32 MAX_TORS EXCEEDED!!!
REMARK  54 active torsions:
REMARK  status: ('A' for Active; 'I' for Inactive)
REMARK    1  A    between atoms: C2_2  and  C1_1 
REMARK    2  A    between atoms: OAB_52  and  C2_2 
REMARK    3  A    between atoms: C4_4  and  O4_15 
REMARK    4  A    between atoms: C5_5  and  N5_12 
REMARK    5  A    between atoms: C6_6  and  C7_7 
REMARK    6  A    between atoms: C7_7  and  C8_8 
REMARK    7  A    between atoms: C7_7  and  O7_17 
REMARK    8  A    between atoms: C8_8  and  C9_9 
REMARK    9  A    between atoms: C8_8  and  O8_18 
REMARK   10  A    between atoms: C9_9  and  O9_19 
REMARK   11  A    between atoms: C10_10  and  C11_11 
REMARK       I    between atoms: N5_12  and  C10_10 
REMARK   12  A    between atoms: C11_11  and  C22_20 
REMARK   13  A    between atoms: OAA_22  and  CAG_23 
REMARK   14  A    between atoms: C2_75  and  OAA_22 
REMARK   15  A    between atoms: CAG_23  and  CAJ_24 
REMARK   16  A    between atoms: CAJ_24  and  CAM_25 
REMARK   17  A    between atoms: CAM_25  and  NBC_26 
REMARK   18  A    between atoms: CAY_30  and  CAP_31 
REMARK   19  A    between atoms: CAP_31  and  NBB_32 
REMARK   20  A    between atoms: NBB_32  and  CAR_33 
REMARK   21  A    between atoms: NBB_32  and  CAQ_43 
REMARK   22  A    between atoms: CAR_33  and  CBA_34 
REMARK   23  A    between atoms: NBE_38  and  CAO_39 
REMARK   24  A    between atoms: CAO_39  and  CAL_40 
REMARK   25  A    between atoms: CAL_40  and  CAI_41 
REMARK   26  A    between atoms: CAI_41  and  OAC_42 
REMARK   27  A    between atoms: OAC_42  and  C2_54 
REMARK   28  A    between atoms: CAQ_43  and  CAZ_44 
REMARK   29  A    between atoms: NBD_48  and  CAN_49 
REMARK   30  A    between atoms: CAN_49  and  CAK_50 
REMARK   31  A    between atoms: CAK_50  and  CAH_51 
REMARK   32  A    between atoms: CAH_51  and  OAB_52 
REMARK   33  A    between atoms: C2_54  and  C1_53 
REMARK   34  A    between atoms: C4_56  and  O4_67 
REMARK   35  A    between atoms: C5_57  and  N5_64 
REMARK   36  A    between atoms: C6_58  and  C7_59 
REMARK   37  A    between atoms: C7_59  and  C8_60 
REMARK   38  A    between atoms: C7_59  and  O7_69 
REMARK   39  A    between atoms: C8_60  and  C9_61 
REMARK   40  A    between atoms: C8_60  and  O8_70 
REMARK   41  A    between atoms: C9_61  and  O9_71 
REMARK   42  A    between atoms: C10_62  and  C11_63 
REMARK       I    between atoms: N5_64  and  C10_62 
REMARK   43  A    between atoms: C11_63  and  C22_72 
REMARK   44  A    between atoms: C2_75  and  C1_74 
REMARK   45  A    between atoms: C4_77  and  O4_88 
REMARK   46  A    between atoms: N5_85  and  C5_78 
REMARK   47  A    between atoms: C6_79  and  C7_80 
REMARK   48  A    between atoms: C7_80  and  C8_81 
REMARK   49  A    between atoms: C7_80  and  O7_90 
REMARK   50  A    between atoms: C8_81  and  C9_82 
REMARK   51  A    between atoms: C8_81  and  O8_91 
REMARK   52  A    between atoms: C9_82  and  O9_92 
REMARK   53  A    between atoms: C10_83  and  C11_84 
REMARK       I    between atoms: C10_83  and  N5_85 
REMARK   54  A    between atoms: C11_84  and  C22_93 
ROOT
ATOM      1  H29 18D d   1     -28.662  17.749 -29.276  0.00  0.00     0.281 HD
ATOM      2  NBB 1P4 d   1     -27.810  18.253 -29.466  0.00  0.00    -0.055 N 
ENDROOT
BRANCH   2   3
ATOM      3  CAP 1P4 d   1     -27.782  18.450 -30.942  0.00  0.00     0.127 C 
ATOM      4  H27 18D d   1     -28.443  19.290 -31.203  0.00  0.00     0.086 H 
ATOM      5  H28 18D d   1     -26.753  18.683 -31.251  0.00  0.00     0.086 H 
BRANCH   3   6
ATOM      6  CAY 1P4 d   1     -28.253  17.198 -31.687  0.00  0.00     0.101 A 
ATOM      7  CAD 1P4 d   1     -27.526  16.098 -31.822  0.00  0.00     0.027 A 
ATOM      8  NBC 1P4 d   1     -28.270  15.243 -32.497  0.00  0.00    -0.261 N 
ATOM      9  H26 1P4 d   1     -26.516  15.933 -31.450  0.00  0.00     0.117 H 
ATOM     10  NAV 1P4 d   1     -29.433  15.813 -32.775  0.00  0.00    -0.066 NA
ATOM     11  NAS 1P4 d   1     -29.437  17.026 -32.284  0.00  0.00    -0.134 NA
BRANCH   8  12
ATOM     12  CAM 1P4 d   1     -27.681  13.927 -32.785  0.00  0.00     0.020 C 
ATOM     13  H24 1P4 d   1     -27.095  13.998 -33.713  0.00  0.00     0.067 H 
ATOM     14  H25 1P4 d   1     -27.018  13.647 -31.953  0.00  0.00     0.067 H 
BRANCH  12  15
ATOM     15  CAJ 1P4 d   1     -28.742  12.840 -32.955  0.00  0.00    -0.028 C 
ATOM     16  H22 1P4 d   1     -29.490  13.178 -33.688  0.00  0.00     0.038 H 
ATOM     17  H23 1P4 d   1     -28.261  11.920 -33.319  0.00  0.00     0.038 H 
BRANCH  15  18
ATOM     18  CAG 1P4 d   1     -29.439  12.548 -31.626  0.00  0.00     0.025 C 
ATOM     19  H20 1P4 d   1     -29.756  13.498 -31.171  0.00  0.00     0.074 H 
ATOM     20  H21 1P4 d   1     -30.321  11.919 -31.814  0.00  0.00     0.074 H 
BRANCH  18  21
ATOM     21  OAA 1P4 d   1     -28.553  11.858 -30.711  0.00  0.00    -0.346 OA
BRANCH  21  22
ATOM     22  C2  18D d   1     -28.246  10.469 -30.797  0.00  0.00     0.258 C 
ATOM     23  C3  18D d   1     -27.780  10.030 -29.402  0.00  0.00     0.024 C 
ATOM     24  C4  18D d   1     -27.117   8.661 -29.433  0.00  0.00     0.063 C 
ATOM     25  H67 1P4 d   1     -28.651   9.989 -28.732  0.00  0.00     0.045 H 
ATOM     26  H68 1P4 d   1     -27.058  10.767 -29.020  0.00  0.00     0.045 H 
ATOM     27  C5  18D d   1     -26.015   8.630 -30.498  0.00  0.00     0.064 C 
ATOM     28  H69 1P4 d   1     -27.874   7.907 -29.694  0.00  0.00     0.086 H 
ATOM     29  C6  18D d   1     -26.650   8.987 -31.838  0.00  0.00     0.091 C 
ATOM     30  H70 1P4 d   1     -25.240   9.368 -30.246  0.00  0.00     0.080 H 
ATOM     31  O6  18D d   1     -27.203  10.312 -31.763  0.00  0.00    -0.336 OA
ATOM     32  H71 1P4 d   1     -27.471   8.276 -32.013  0.00  0.00     0.090 H 
BRANCH  22  33
ATOM     33  C1  18D d   1     -29.498   9.760 -31.268  0.00  0.00     0.239 C 
ATOM     34  O1  18D d   1     -30.451   9.663 -30.472  0.00  0.00    -0.644 OA
ATOM     35  O3  18D d   1     -29.553   9.333 -32.453  0.00  0.00    -0.644 OA
ENDBRANCH  22  33
BRANCH  24  36
ATOM     36  O4  18D d   1     -26.593   8.352 -28.135  0.00  0.00    -0.393 OA
ATOM     37  H79 1P4 d   1     -26.208   7.483 -28.148  0.00  0.00     0.210 HD
ENDBRANCH  24  36
BRANCH  27  38
ATOM     38  N5  18D d   1     -25.408   7.310 -30.579  0.00  0.00    -0.351 N 
ATOM     39  C10 18D d   1     -24.117   7.089 -30.276  0.00  0.00     0.217 C 
ATOM     40  O10 18D d   1     -23.395   7.995 -29.880  0.00  0.00    -0.274 OA
ATOM     41  H78 1P4 d   1     -25.973   6.538 -30.871  0.00  0.00     0.163 HD
BRANCH  39  42
ATOM     42  C11 18D d   1     -23.614   5.684 -30.420  0.00  0.00     0.006 C 
ATOM     43  H76 1P4 d   1     -23.253   5.545 -31.450  0.00  0.00     0.046 H 
ATOM     44  H77 1P4 d   1     -24.447   4.992 -30.227  0.00  0.00     0.046 H 
BRANCH  42  45
ATOM     45  C22 18D d   1     -22.447   5.346 -29.434  0.00  0.00    -0.068 C 
ATOM     46  H83 1P4 d   1     -22.125   4.306 -29.590  0.00  0.00     0.028 H 
ATOM     47  H84 1P4 d   1     -22.795   5.471 -28.398  0.00  0.00     0.028 H 
ATOM     48  H85 1P4 d   1     -21.601   6.024 -29.621  0.00  0.00     0.028 H 
ENDBRANCH  42  45
ENDBRANCH  39  42
ENDBRANCH  27  38
BRANCH  29  49
ATOM     49  C7  18D d   1     -25.705   8.899 -33.039  0.00  0.00     0.089 C 
ATOM     50  H72 1P4 d   1     -25.376   7.855 -33.151  0.00  0.00     0.091 H 
BRANCH  49  51
ATOM     51  C8  18D d   1     -26.386   9.327 -34.343  0.00  0.00     0.083 C 
ATOM     52  H73 1P4 d   1     -26.418  10.426 -34.375  0.00  0.00     0.090 H 
BRANCH  51  53
ATOM     53  C9  18D d   1     -25.596   8.818 -35.548  0.00  0.00     0.043 C 
ATOM     54  H74 1P4 d   1     -25.771   7.738 -35.666  0.00  0.00     0.078 H 
ATOM     55  H75 1P4 d   1     -24.524   9.000 -35.382  0.00  0.00     0.078 H 
BRANCH  53  56
ATOM     56  O9  18D d   1     -26.013   9.500 -36.745  0.00  0.00    -0.398 OA
ATOM     57  H82 1P4 d   1     -25.514   9.173 -37.484  0.00  0.00     0.209 HD
ENDBRANCH  53  56
ENDBRANCH  51  53
BRANCH  51  58
ATOM     58  O8  18D d   1     -27.732   8.822 -34.421  0.00  0.00    -0.391 OA
ATOM     59  H81 1P4 d   1     -28.230   9.134 -33.675  0.00  0.00     0.210 HD
ENDBRANCH  51  58
ENDBRANCH  49  51
BRANCH  49  60
ATOM     60  O7  18D d   1     -24.566   9.717 -32.776  0.00  0.00    -0.390 OA
ATOM     61  H80 1P4 d   1     -23.945   9.633 -33.490  0.00  0.00     0.210 HD
ENDBRANCH  49  60
ENDBRANCH  29  49
ENDBRANCH  21  22
ENDBRANCH  18  21
ENDBRANCH  15  18
ENDBRANCH  12  15
ENDBRANCH   8  12
ENDBRANCH   3   6
ENDBRANCH   2   3
BRANCH   2  62
ATOM     62  CAR 1P4 d   1     -27.884  19.514 -28.629  0.00  0.00     0.127 C 
ATOM     63  H30 18D d   1     -28.390  20.343 -29.145  0.00  0.00     0.086 H 
ATOM     64  H31 18D d   1     -26.900  19.851 -28.271  0.00  0.00     0.086 H 
BRANCH  62  65
ATOM     65  CBA 1P4 d   1     -28.744  18.881 -27.518  0.00  0.00     0.101 A 
ATOM     66  CAF 1P4 d   1     -29.244  19.404 -26.414  0.00  0.00     0.027 A 
ATOM     67  NBE 1P4 d   1     -29.881  18.382 -25.825  0.00  0.00    -0.261 N 
ATOM     68  H32 18D d   1     -29.159  20.431 -26.062  0.00  0.00     0.117 H 
ATOM     69  NAX 1P4 d   1     -29.763  17.364 -26.568  0.00  0.00    -0.066 NA
ATOM     70  NAU 1P4 d   1     -29.106  17.605 -27.554  0.00  0.00    -0.134 NA
BRANCH  67  71
ATOM     71  CAO 1P4 d   1     -30.699  18.229 -24.608  0.00  0.00     0.020 C 
ATOM     72  H33 18D d   1     -31.487  17.492 -24.820  0.00  0.00     0.067 H 
ATOM     73  H34 18D d   1     -31.158  19.203 -24.384  0.00  0.00     0.067 H 
BRANCH  71  74
ATOM     74  CAL 1P4 d   1     -29.946  17.767 -23.364  0.00  0.00    -0.028 C 
ATOM     75  H35 18D d   1     -30.204  16.717 -23.163  0.00  0.00     0.038 H 
ATOM     76  H36 18D d   1     -30.255  18.390 -22.512  0.00  0.00     0.038 H 
BRANCH  74  77
ATOM     77  CAI 1P4 d   1     -28.449  17.876 -23.528  0.00  0.00     0.025 C 
ATOM     78  H37 18D d   1     -28.047  18.716 -22.943  0.00  0.00     0.074 H 
ATOM     79  H38 18D d   1     -28.175  18.002 -24.586  0.00  0.00     0.074 H 
BRANCH  77  80
ATOM     80  OAC 1P4 d   1     -27.973  16.609 -23.014  0.00  0.00    -0.346 OA
BRANCH  80  81
ATOM     81  C2  18D d   1     -27.900  15.804 -21.821  0.00  0.00     0.258 C 
ATOM     82  C3  18D d   1     -26.523  15.129 -21.846  0.00  0.00     0.024 C 
ATOM     83  C4  18D d   1     -26.404  14.025 -20.800  0.00  0.00     0.063 C 
ATOM     84  H48 18D d   1     -25.752  15.889 -21.649  0.00  0.00     0.045 H 
ATOM     85  H49 18D d   1     -26.360  14.692 -22.842  0.00  0.00     0.045 H 
ATOM     86  C5  18D d   1     -27.547  13.029 -20.925  0.00  0.00     0.064 C 
ATOM     87  H50 18D d   1     -26.441  14.479 -19.799  0.00  0.00     0.086 H 
ATOM     88  C6  18D d   1     -28.849  13.807 -20.758  0.00  0.00     0.091 C 
ATOM     89  H51 18D d   1     -27.521  12.569 -21.924  0.00  0.00     0.080 H 
ATOM     90  O6  18D d   1     -28.933  14.818 -21.788  0.00  0.00    -0.336 OA
ATOM     91  H52 18D d   1     -28.805  14.312 -19.782  0.00  0.00     0.090 H 
BRANCH  81  92
ATOM     92  C1  18D d   1     -28.075  16.761 -20.651  0.00  0.00     0.239 C 
ATOM     93  O1  18D d   1     -29.145  16.753 -19.988  0.00  0.00    -0.644 OA
ATOM     94  O3  18D d   1     -27.149  17.553 -20.400  0.00  0.00    -0.644 OA
ENDBRANCH  81  92
BRANCH  83  95
ATOM     95  O4  18D d   1     -25.147  13.356 -20.963  0.00  0.00    -0.393 OA
ATOM     96  H60 18D d   1     -25.055  12.690 -20.292  0.00  0.00     0.210 HD
ENDBRANCH  83  95
BRANCH  86  97
ATOM     97  N5  18D d   1     -27.446  11.971 -19.920  0.00  0.00    -0.351 N 
ATOM     98  C10 18D d   1     -27.185  10.682 -20.213  0.00  0.00     0.217 C 
ATOM     99  O10 18D d   1     -27.000  10.319 -21.367  0.00  0.00    -0.274 OA
ATOM    100  H59 18D d   1     -27.578  12.219 -18.960  0.00  0.00     0.163 HD
BRANCH  98 101
ATOM    101  C11 18D d   1     -27.145   9.717 -19.055  0.00  0.00     0.006 C 
ATOM    102  H57 18D d   1     -28.166   9.358 -18.856  0.00  0.00     0.046 H 
ATOM    103  H58 18D d   1     -26.761  10.242 -18.168  0.00  0.00     0.046 H 
BRANCH 101 104
ATOM    104  C22 18D d   1     -26.227   8.488 -19.351  0.00  0.00    -0.068 C 
ATOM    105  H64 18D d   1     -26.227   7.813 -18.483  0.00  0.00     0.028 H 
ATOM    106  H65 18D d   1     -25.201   8.835 -19.545  0.00  0.00     0.028 H 
ATOM    107  H66 18D d   1     -26.606   7.951 -20.233  0.00  0.00     0.028 H 
ENDBRANCH 101 104
ENDBRANCH  98 101
ENDBRANCH  86  97
BRANCH  88 108
ATOM    108  C7  18D d   1     -30.120  12.947 -20.765  0.00  0.00     0.089 C 
ATOM    109  H53 18D d   1     -30.088  12.261 -19.906  0.00  0.00     0.091 H 
BRANCH 108 110
ATOM    110  C8  18D d   1     -31.394  13.805 -20.668  0.00  0.00     0.083 C 
ATOM    111  H54 18D d   1     -31.628  14.200 -21.668  0.00  0.00     0.090 H 
BRANCH 110 112
ATOM    112  C9  18D d   1     -32.566  12.969 -20.166  0.00  0.00     0.043 C 
ATOM    113  H55 18D d   1     -32.671  12.074 -20.797  0.00  0.00     0.078 H 
ATOM    114  H56 18D d   1     -33.488  13.566 -20.220  0.00  0.00     0.078 H 
BRANCH 112 115
ATOM    115  O9  18D d   1     -32.337  12.565 -18.796  0.00  0.00    -0.398 OA
ATOM    116  H63 18D d   1     -32.248  13.337 -18.250  0.00  0.00     0.209 HD
ENDBRANCH 112 115
ENDBRANCH 110 112
BRANCH 110 117
ATOM    117  O8  18D d   1     -31.224  14.900 -19.755  0.00  0.00    -0.391 OA
ATOM    118  H62 18D d   1     -30.498  15.441 -20.043  0.00  0.00     0.210 HD
ENDBRANCH 110 117
ENDBRANCH 108 110
BRANCH 108 119
ATOM    119  O7  18D d   1     -30.163  12.188 -21.977  0.00  0.00    -0.390 OA
ATOM    120  H61 18D d   1     -30.209  12.780 -22.719  0.00  0.00     0.210 HD
ENDBRANCH 108 119
ENDBRANCH  88 108
ENDBRANCH  80  81
ENDBRANCH  77  80
ENDBRANCH  74  77
ENDBRANCH  71  74
ENDBRANCH  67  71
ENDBRANCH  62  65
ENDBRANCH   2  62
BRANCH   2 121
ATOM    121  CAQ 1P4 d   1     -26.701  17.389 -29.017  0.00  0.00     0.127 C 
ATOM    122  H39 18D d   1     -26.678  16.437 -29.567  0.00  0.00     0.086 H 
ATOM    123  H40 18D d   1     -26.754  17.187 -27.937  0.00  0.00     0.086 H 
BRANCH 121 124
ATOM    124  CAZ 1P4 d   1     -25.513  18.270 -29.367  0.00  0.00     0.101 A 
ATOM    125  CAE 1P4 d   1     -24.442  17.945 -30.053  0.00  0.00     0.027 A 
ATOM    126  NBD 1P4 d   1     -23.773  19.093 -30.070  0.00  0.00    -0.261 N 
ATOM    127  H41 18D d   1     -24.172  16.986 -30.493  0.00  0.00     0.117 H 
ATOM    128  NAW 1P4 d   1     -24.457  19.987 -29.437  0.00  0.00    -0.066 NA
ATOM    129  NAT 1P4 d   1     -25.435  19.555 -29.043  0.00  0.00    -0.134 NA
BRANCH 126 130
ATOM    130  CAN 1P4 d   1     -22.519  19.243 -30.700  0.00  0.00     0.020 C 
ATOM    131  H42 18D d   1     -22.660  19.676 -31.701  0.00  0.00     0.067 H 
ATOM    132  H43 18D d   1     -22.033  18.261 -30.790  0.00  0.00     0.067 H 
BRANCH 130 133
ATOM    133  CAK 1P4 d   1     -21.657  20.157 -29.873  0.00  0.00    -0.028 C 
ATOM    134  H44 18D d   1     -22.124  21.148 -29.775  0.00  0.00     0.038 H 
ATOM    135  H45 18D d   1     -20.660  20.264 -30.325  0.00  0.00     0.038 H 
BRANCH 133 136
ATOM    136  CAH 1P4 d   1     -21.561  19.468 -28.509  0.00  0.00     0.025 C 
ATOM    137  H46 18D d   1     -22.474  19.678 -27.932  0.00  0.00     0.074 H 
ATOM    138  H47 18D d   1     -20.687  19.858 -27.967  0.00  0.00     0.074 H 
BRANCH 136 139
ATOM    139  OAB 1P4 d   1     -21.417  18.013 -28.676  0.00  0.00    -0.346 OA
BRANCH 139 140
ATOM    140  C2  18D d   1     -20.146  17.393 -28.484  0.00  0.00     0.258 C 
ATOM    141  C3  18D d   1     -20.243  15.860 -28.364  0.00  0.00     0.024 C 
ATOM    142  C4  18D d   1     -19.023  15.232 -27.696  0.00  0.00     0.063 C 
ATOM    143  H1  18D d   1     -20.346  15.436 -29.374  0.00  0.00     0.045 H 
ATOM    144  H2  18D d   1     -21.134  15.611 -27.769  0.00  0.00     0.045 H 
ATOM    145  C5  18D d   1     -18.745  15.948 -26.366  0.00  0.00     0.064 C 
ATOM    146  H3  18D d   1     -18.147  15.366 -28.348  0.00  0.00     0.086 H 
ATOM    147  C6  18D d   1     -18.559  17.448 -26.646  0.00  0.00     0.091 C 
ATOM    148  H4  18D d   1     -19.616  15.818 -25.707  0.00  0.00     0.080 H 
ATOM    149  O6  18D d   1     -19.768  17.968 -27.227  0.00  0.00    -0.336 OA
ATOM    150  H5  18D d   1     -17.739  17.548 -27.372  0.00  0.00     0.090 H 
BRANCH 140 151
ATOM    151  C1  18D d   1     -19.190  17.863 -29.577  0.00  0.00     0.239 C 
ATOM    152  O1  18D d   1     -18.435  18.842 -29.367  0.00  0.00    -0.644 OA
ATOM    153  O3  18D d   1     -19.177  17.254 -30.662  0.00  0.00    -0.644 OA
ENDBRANCH 140 151
BRANCH 142 154
ATOM    154  O4  18D d   1     -19.260  13.810 -27.535  0.00  0.00    -0.393 OA
ATOM    155  H13 18D d   1     -18.495  13.405 -27.143  0.00  0.00     0.210 HD
ENDBRANCH 142 154
BRANCH 145 156
ATOM    156  N5  18D d   1     -17.576  15.387 -25.691  0.00  0.00    -0.351 N 
ATOM    157  C10 18D d   1     -17.661  14.687 -24.555  0.00  0.00     0.217 C 
ATOM    158  O10 18D d   1     -18.758  14.486 -24.028  0.00  0.00    -0.274 OA
ATOM    159  H12 18D d   1     -16.674  15.533 -26.096  0.00  0.00     0.163 HD
BRANCH 157 160
ATOM    160  C11 18D d   1     -16.360  14.166 -23.980  0.00  0.00     0.006 C 
ATOM    161  H10 18D d   1     -15.887  14.963 -23.388  0.00  0.00     0.046 H 
ATOM    162  H11 18D d   1     -15.694  13.879 -24.807  0.00  0.00     0.046 H 
BRANCH 160 163
ATOM    163  C22 18D d   1     -16.592  12.927 -23.065  0.00  0.00    -0.068 C 
ATOM    164  H17 18D d   1     -15.627  12.579 -22.668  0.00  0.00     0.028 H 
ATOM    165  H18 18D d   1     -17.060  12.121 -23.650  0.00  0.00     0.028 H 
ATOM    166  H19 18D d   1     -17.253  13.206 -22.231  0.00  0.00     0.028 H 
ENDBRANCH 160 163
ENDBRANCH 157 160
ENDBRANCH 145 156
BRANCH 147 167
ATOM    167  C7  18D d   1     -18.214  18.323 -25.429  0.00  0.00     0.089 C 
ATOM    168  H6  18D d   1     -17.222  18.025 -25.058  0.00  0.00     0.091 H 
BRANCH 167 169
ATOM    169  C8  18D d   1     -18.175  19.817 -25.777  0.00  0.00     0.083 C 
ATOM    170  H7  18D d   1     -19.205  20.202 -25.760  0.00  0.00     0.090 H 
BRANCH 169 171
ATOM    171  C9  18D d   1     -17.329  20.583 -24.764  0.00  0.00     0.043 C 
ATOM    172  H8  18D d   1     -17.671  20.354 -23.744  0.00  0.00     0.078 H 
ATOM    173  H9  18D d   1     -17.418  21.664 -24.947  0.00  0.00     0.078 H 
BRANCH 171 174
ATOM    174  O9  18D d   1     -15.952  20.171 -24.922  0.00  0.00    -0.398 OA
ATOM    175  H16 18D d   1     -15.663  20.368 -25.805  0.00  0.00     0.209 HD
ENDBRANCH 171 174
ENDBRANCH 169 171
BRANCH 169 176
ATOM    176  O8  18D d   1     -17.601  20.070 -27.068  0.00  0.00    -0.391 OA
ATOM    177  H15 18D d   1     -18.101  19.609 -27.731  0.00  0.00     0.210 HD
ENDBRANCH 169 176
ENDBRANCH 167 169
BRANCH 167 178
ATOM    178  O7  18D d   1     -19.188  18.113 -24.389  0.00  0.00    -0.390 OA
ATOM    179  H14 18D d   1     -20.042  18.395 -24.695  0.00  0.00     0.210 HD
ENDBRANCH 167 178
ENDBRANCH 147 167
ENDBRANCH 139 140
ENDBRANCH 136 139
ENDBRANCH 133 136
ENDBRANCH 130 133
ENDBRANCH 126 130
ENDBRANCH 121 124
ENDBRANCH   2 121
TORSDOF 54
