REMARK WARNING: 32 MAX_TORS EXCEEDED!!!
REMARK  51 active torsions:
REMARK  status: ('A' for Active; 'I' for Inactive)
REMARK    1  A    between atoms: C2_2  and  C1_1 
REMARK    2  A    between atoms: OAA_22  and  C2_2 
REMARK    3  A    between atoms: C4_4  and  O4_15 
REMARK    4  A    between atoms: C5_5  and  N5_12 
REMARK    5  A    between atoms: C6_6  and  C7_7 
REMARK    6  A    between atoms: C7_7  and  C8_8 
REMARK    7  A    between atoms: C7_7  and  O7_17 
REMARK    8  A    between atoms: C8_8  and  C9_9 
REMARK    9  A    between atoms: C8_8  and  O8_18 
REMARK   10  A    between atoms: C9_9  and  O9_19 
REMARK   11  A    between atoms: C10_10  and  C11_11 
REMARK       I    between atoms: N5_12  and  C10_10 
REMARK   12  A    between atoms: C11_11  and  C22_20 
REMARK   13  A    between atoms: CAG_23  and  OAA_22 
REMARK   14  A    between atoms: CAJ_24  and  CAG_23 
REMARK   15  A    between atoms: NAZ_25  and  CAJ_24 
REMARK   16  A    between atoms: CAM_30  and  CAV_29 
REMARK   17  A    between atoms: NAY_31  and  CAM_30 
REMARK   18  A    between atoms: CAO_32  and  NAY_31 
REMARK   19  A    between atoms: NAY_31  and  CAN_41 
REMARK   20  A    between atoms: CAX_33  and  CAO_32 
REMARK   21  A    between atoms: CAL_38  and  NBB_37 
REMARK   22  A    between atoms: CAI_39  and  CAL_38 
REMARK   23  A    between atoms: OAC_40  and  CAI_39 
REMARK   24  A    between atoms: C2_72  and  OAC_40 
REMARK   25  A    between atoms: CAN_41  and  CAW_42 
REMARK   26  A    between atoms: NBA_46  and  CAK_47 
REMARK   27  A    between atoms: CAK_47  and  CAH_48 
REMARK   28  A    between atoms: CAH_48  and  OAB_49 
REMARK   29  A    between atoms: OAB_49  and  C2_51 
REMARK   30  A    between atoms: C2_51  and  C1_50 
REMARK   31  A    between atoms: C4_53  and  O4_64 
REMARK   32  A    between atoms: C5_54  and  N5_61 
REMARK   33  A    between atoms: C6_55  and  C7_56 
REMARK   34  A    between atoms: C7_56  and  C8_57 
REMARK   35  A    between atoms: C7_56  and  O7_66 
REMARK   36  A    between atoms: C8_57  and  C9_58 
REMARK   37  A    between atoms: C8_57  and  O8_67 
REMARK   38  A    between atoms: C9_58  and  O9_68 
REMARK   39  A    between atoms: C10_59  and  C11_60 
REMARK       I    between atoms: N5_61  and  C10_59 
REMARK   40  A    between atoms: C11_60  and  C22_69 
REMARK   41  A    between atoms: C2_72  and  C1_71 
REMARK   42  A    between atoms: C4_74  and  O4_85 
REMARK   43  A    between atoms: N5_82  and  C5_75 
REMARK   44  A    between atoms: C6_76  and  C7_77 
REMARK   45  A    between atoms: C7_77  and  C8_78 
REMARK   46  A    between atoms: C7_77  and  O7_87 
REMARK   47  A    between atoms: C8_78  and  C9_79 
REMARK   48  A    between atoms: C8_78  and  O8_88 
REMARK   49  A    between atoms: C9_79  and  O9_89 
REMARK   50  A    between atoms: C10_80  and  C11_81 
REMARK       I    between atoms: C10_80  and  N5_82 
REMARK   51  A    between atoms: C11_81  and  C22_90 
ROOT
ATOM      1  H27 18D d   1     -26.434  17.853 -29.168  0.00  0.00     0.281 HD
ATOM      2  NAY 1P0 d   1     -27.256  18.334 -29.498  0.00  0.00    -0.055 N 
ENDROOT
BRANCH   2   3
ATOM      3  CAM 1P0 d   1     -27.232  19.749 -28.723  0.00  0.00     0.127 C 
ATOM      4  H25 18D d   1     -27.561  20.610 -29.324  0.00  0.00     0.086 H 
ATOM      5  H26 18D d   1     -27.757  19.755 -27.756  0.00  0.00     0.086 H 
BRANCH   3   6
ATOM      6  CAV 1P0 d   1     -25.650  19.566 -28.625  0.00  0.00     0.101 A 
ATOM      7  CAD 1P0 d   1     -24.756  19.807 -29.566  0.00  0.00     0.027 A 
ATOM      8  NAZ 1P0 d   1     -23.577  19.491 -29.110  0.00  0.00    -0.259 N 
ATOM      9  H24 18D d   1     -24.968  20.204 -30.558  0.00  0.00     0.117 H 
ATOM     10  NAS 1P0 d   1     -23.739  19.003 -27.940  0.00  0.00    -0.066 NA
ATOM     11  NAP 1P0 d   1     -25.015  19.020 -27.631  0.00  0.00    -0.134 NA
BRANCH   8  12
ATOM     12  CAJ 1P0 d   1     -22.327  19.659 -29.815  0.00  0.00     0.038 C 
ATOM     13  H22 18D d   1     -22.271  18.924 -30.632  0.00  0.00     0.070 H 
ATOM     14  H23 18D d   1     -22.281  20.676 -30.232  0.00  0.00     0.070 H 
BRANCH  12  15
ATOM     15  CAG 1P0 d   1     -21.162  19.453 -28.883  0.00  0.00     0.040 C 
ATOM     16  H20 18D d   1     -20.259  19.934 -29.287  0.00  0.00     0.077 H 
ATOM     17  H21 18D d   1     -21.387  19.870 -27.890  0.00  0.00     0.077 H 
BRANCH  15  18
ATOM     18  OAA 1P0 d   1     -20.976  18.020 -28.798  0.00  0.00    -0.345 OA
BRANCH  18  19
ATOM     19  C2  18D d   1     -19.718  17.450 -28.503  0.00  0.00     0.258 C 
ATOM     20  C3  18D d   1     -19.857  15.923 -28.377  0.00  0.00     0.024 C 
ATOM     21  C4  18D d   1     -18.647  15.286 -27.683  0.00  0.00     0.063 C 
ATOM     22  H1  18D d   1     -19.955  15.492 -29.384  0.00  0.00     0.045 H 
ATOM     23  H2  18D d   1     -20.761  15.697 -27.792  0.00  0.00     0.045 H 
ATOM     24  C5  18D d   1     -18.366  15.998 -26.356  0.00  0.00     0.064 C 
ATOM     25  H3  18D d   1     -17.764  15.387 -28.331  0.00  0.00     0.086 H 
ATOM     26  C6  18D d   1     -18.166  17.496 -26.647  0.00  0.00     0.091 C 
ATOM     27  H4  18D d   1     -19.239  15.876 -25.698  0.00  0.00     0.080 H 
ATOM     28  O6  18D d   1     -19.371  18.029 -27.237  0.00  0.00    -0.336 OA
ATOM     29  H5  18D d   1     -17.339  17.586 -27.367  0.00  0.00     0.090 H 
BRANCH  19  30
ATOM     30  C1  18D d   1     -18.736  17.907 -29.583  0.00  0.00     0.239 C 
ATOM     31  O1  18D d   1     -17.965  18.866 -29.370  0.00  0.00    -0.644 OA
ATOM     32  O3  18D d   1     -18.735  17.307 -30.666  0.00  0.00    -0.644 OA
ENDBRANCH  19  30
BRANCH  21  33
ATOM     33  O4  18D d   1     -18.914  13.892 -27.474  0.00  0.00    -0.393 OA
ATOM     34  H13 18D d   1     -18.160  13.485 -27.063  0.00  0.00     0.210 HD
ENDBRANCH  21  33
BRANCH  24  35
ATOM     35  N5  18D d   1     -17.204  15.441 -25.678  0.00  0.00    -0.351 N 
ATOM     36  C10 18D d   1     -17.299  14.737 -24.550  0.00  0.00     0.217 C 
ATOM     37  O10 18D d   1     -18.405  14.513 -24.030  0.00  0.00    -0.274 OA
ATOM     38  H12 18D d   1     -16.299  15.593 -26.074  0.00  0.00     0.163 HD
BRANCH  36  39
ATOM     39  C11 18D d   1     -15.999  14.225 -23.970  0.00  0.00     0.006 C 
ATOM     40  H10 18D d   1     -15.504  15.040 -23.422  0.00  0.00     0.046 H 
ATOM     41  H11 18D d   1     -15.349  13.886 -24.790  0.00  0.00     0.046 H 
BRANCH  39  42
ATOM     42  C22 18D d   1     -16.253  13.022 -22.983  0.00  0.00    -0.068 C 
ATOM     43  H17 18D d   1     -15.292  12.671 -22.578  0.00  0.00     0.028 H 
ATOM     44  H18 18D d   1     -16.744  12.200 -23.525  0.00  0.00     0.028 H 
ATOM     45  H19 18D d   1     -16.899  13.355 -22.158  0.00  0.00     0.028 H 
ENDBRANCH  39  42
ENDBRANCH  36  39
ENDBRANCH  24  35
BRANCH  26  46
ATOM     46  C7  18D d   1     -17.835  18.370 -25.440  0.00  0.00     0.089 C 
ATOM     47  H6  18D d   1     -16.843  18.087 -25.059  0.00  0.00     0.091 H 
BRANCH  46  48
ATOM     48  C8  18D d   1     -17.801  19.855 -25.845  0.00  0.00     0.083 C 
ATOM     49  H7  18D d   1     -18.838  20.196 -25.980  0.00  0.00     0.090 H 
BRANCH  48  50
ATOM     50  C9  18D d   1     -17.129  20.701 -24.785  0.00  0.00     0.043 C 
ATOM     51  H8  18D d   1     -17.622  20.548 -23.814  0.00  0.00     0.078 H 
ATOM     52  H9  18D d   1     -17.185  21.764 -25.061  0.00  0.00     0.078 H 
BRANCH  50  53
ATOM     53  O9  18D d   1     -15.747  20.283 -24.708  0.00  0.00    -0.398 OA
ATOM     54  H16 18D d   1     -15.330  20.414 -25.552  0.00  0.00     0.209 HD
ENDBRANCH  50  53
ENDBRANCH  48  50
BRANCH  48  55
ATOM     55  O8  18D d   1     -17.069  20.082 -27.062  0.00  0.00    -0.391 OA
ATOM     56  H15 18D d   1     -17.455  19.569 -27.763  0.00  0.00     0.210 HD
ENDBRANCH  48  55
ENDBRANCH  46  48
BRANCH  46  57
ATOM     57  O7  18D d   1     -18.815  18.152 -24.395  0.00  0.00    -0.390 OA
ATOM     58  H14 18D d   1     -18.588  18.675 -23.635  0.00  0.00     0.210 HD
ENDBRANCH  46  57
ENDBRANCH  26  46
ENDBRANCH  18  19
ENDBRANCH  15  18
ENDBRANCH  12  15
ENDBRANCH   8  12
ENDBRANCH   3   6
ENDBRANCH   2   3
BRANCH   2  59
ATOM     59  CAO 1P0 d   1     -27.245  18.242 -30.941  0.00  0.00     0.127 C 
ATOM     60  H28 18D d   1     -26.363  18.778 -31.320  0.00  0.00     0.086 H 
ATOM     61  H29 18D d   1     -28.158  18.717 -31.330  0.00  0.00     0.086 H 
BRANCH  59  62
ATOM     62  CAX 1P0 d   1     -27.190  16.717 -31.473  0.00  0.00     0.101 A 
ATOM     63  CAF 1P0 d   1     -28.268  15.967 -31.682  0.00  0.00     0.027 A 
ATOM     64  NBB 1P0 d   1     -27.901  14.758 -32.121  0.00  0.00    -0.259 N 
ATOM     65  H30 18D d   1     -29.296  16.289 -31.520  0.00  0.00     0.117 H 
ATOM     66  NAU 1P0 d   1     -26.630  14.704 -32.241  0.00  0.00    -0.066 NA
ATOM     67  NAR 1P0 d   1     -26.150  15.963 -31.821  0.00  0.00    -0.134 NA
BRANCH  64  68
ATOM     68  CAL 1P0 d   1     -28.960  13.843 -32.366  0.00  0.00     0.038 C 
ATOM     69  H31 18D d   1     -29.476  14.113 -33.299  0.00  0.00     0.070 H 
ATOM     70  H32 18D d   1     -29.675  13.870 -31.531  0.00  0.00     0.070 H 
BRANCH  68  71
ATOM     71  CAI 1P0 d   1     -28.382  12.477 -32.488  0.00  0.00     0.040 C 
ATOM     72  H33 18D d   1     -27.408  12.528 -32.996  0.00  0.00     0.077 H 
ATOM     73  H34 18D d   1     -29.063  11.833 -33.064  0.00  0.00     0.077 H 
BRANCH  71  74
ATOM     74  OAC 1P0 d   1     -28.208  11.927 -31.113  0.00  0.00    -0.345 OA
BRANCH  74  75
ATOM     75  C2  18D d   1     -27.853  10.522 -31.026  0.00  0.00     0.258 C 
ATOM     76  C3  18D d   1     -27.343  10.117 -29.630  0.00  0.00     0.024 C 
ATOM     77  C4  18D d   1     -26.715   8.729 -29.604  0.00  0.00     0.063 C 
ATOM     78  H61 18D d   1     -28.191  10.131 -28.930  0.00  0.00     0.045 H 
ATOM     79  H62 18D d   1     -26.588  10.849 -29.307  0.00  0.00     0.045 H 
ATOM     80  C5  18D d   1     -25.613   8.658 -30.662  0.00  0.00     0.064 C 
ATOM     81  H63 18D d   1     -27.483   7.979 -29.844  0.00  0.00     0.086 H 
ATOM     82  C6  18D d   1     -26.244   8.978 -32.024  0.00  0.00     0.091 C 
ATOM     83  H64 18D d   1     -24.843   9.408 -30.428  0.00  0.00     0.080 H 
ATOM     84  O6  18D d   1     -26.795  10.321 -31.960  0.00  0.00    -0.336 OA
ATOM     85  H65 18D d   1     -27.060   8.260 -32.196  0.00  0.00     0.090 H 
BRANCH  75  86
ATOM     86  C1  18D d   1     -29.111   9.785 -31.467  0.00  0.00     0.239 C 
ATOM     87  O1  18D d   1     -30.059   9.691 -30.667  0.00  0.00    -0.644 OA
ATOM     88  O3  18D d   1     -29.193   9.312 -32.638  0.00  0.00    -0.644 OA
ENDBRANCH  75  86
BRANCH  77  89
ATOM     89  O4  18D d   1     -26.210   8.465 -28.286  0.00  0.00    -0.393 OA
ATOM     90  H73 18D d   1     -25.830   7.595 -28.262  0.00  0.00     0.210 HD
ENDBRANCH  77  89
BRANCH  80  91
ATOM     91  N5  18D d   1     -24.982   7.337 -30.711  0.00  0.00    -0.351 N 
ATOM     92  C10 18D d   1     -23.710   7.123 -30.394  0.00  0.00     0.217 C 
ATOM     93  O10 18D d   1     -22.990   8.034 -29.998  0.00  0.00    -0.274 OA
ATOM     94  H72 18D d   1     -25.537   6.556 -30.998  0.00  0.00     0.163 HD
BRANCH  92  95
ATOM     95  C11 18D d   1     -23.221   5.704 -30.516  0.00  0.00     0.006 C 
ATOM     96  H70 18D d   1     -22.819   5.543 -31.527  0.00  0.00     0.046 H 
ATOM     97  H71 18D d   1     -24.059   5.013 -30.340  0.00  0.00     0.046 H 
BRANCH  95  98
ATOM     98  C22 18D d   1     -22.080   5.429 -29.446  0.00  0.00    -0.068 C 
ATOM     99  H77 18D d   1     -21.729   4.391 -29.543  0.00  0.00     0.028 H 
ATOM    100  H78 18D d   1     -22.480   5.588 -28.434  0.00  0.00     0.028 H 
ATOM    101  H79 18D d   1     -21.240   6.117 -29.620  0.00  0.00     0.028 H 
ENDBRANCH  95  98
ENDBRANCH  92  95
ENDBRANCH  80  91
BRANCH  82 102
ATOM    102  C7  18D d   1     -25.289   8.894 -33.214  0.00  0.00     0.089 C 
ATOM    103  H66 18D d   1     -24.962   7.851 -33.337  0.00  0.00     0.091 H 
BRANCH 102 104
ATOM    104  C8  18D d   1     -25.942   9.369 -34.517  0.00  0.00     0.083 C 
ATOM    105  H67 18D d   1     -25.992  10.468 -34.509  0.00  0.00     0.090 H 
BRANCH 104 106
ATOM    106  C9  18D d   1     -25.125   8.911 -35.723  0.00  0.00     0.043 C 
ATOM    107  H68 18D d   1     -25.288   7.835 -35.884  0.00  0.00     0.078 H 
ATOM    108  H69 18D d   1     -24.058   9.095 -35.529  0.00  0.00     0.078 H 
BRANCH 106 109
ATOM    109  O9  18D d   1     -25.525   9.635 -36.907  0.00  0.00    -0.398 OA
ATOM    110  H76 18D d   1     -25.008   9.339 -37.647  0.00  0.00     0.209 HD
ENDBRANCH 106 109
ENDBRANCH 104 106
BRANCH 104 111
ATOM    111  O8  18D d   1     -27.260   8.840 -34.641  0.00  0.00    -0.391 OA
ATOM    112  H75 18D d   1     -27.782   9.116 -33.897  0.00  0.00     0.210 HD
ENDBRANCH 104 111
ENDBRANCH 102 104
BRANCH 102 113
ATOM    113  O7  18D d   1     -24.161   9.725 -32.947  0.00  0.00    -0.390 OA
ATOM    114  H74 18D d   1     -23.542   9.657 -33.665  0.00  0.00     0.210 HD
ENDBRANCH 102 113
ENDBRANCH  82 102
ENDBRANCH  74  75
ENDBRANCH  71  74
ENDBRANCH  68  71
ENDBRANCH  64  68
ENDBRANCH  59  62
ENDBRANCH   2  59
BRANCH   2 115
ATOM    115  CAN 1P0 d   1     -28.458  17.497 -29.188  0.00  0.00     0.127 C 
ATOM    116  H35 18D d   1     -28.278  16.449 -29.471  0.00  0.00     0.086 H 
ATOM    117  H36 18D d   1     -29.338  17.877 -29.728  0.00  0.00     0.086 H 
BRANCH 115 118
ATOM    118  CAW 1P0 d   1     -28.670  17.610 -27.686  0.00  0.00     0.101 A 
ATOM    119  CAE 1P0 d   1     -29.326  16.781 -26.880  0.00  0.00     0.027 A 
ATOM    120  NBA 1P0 d   1     -29.260  17.352 -25.673  0.00  0.00    -0.259 N 
ATOM    121  H37 18D d   1     -29.811  15.842 -27.145  0.00  0.00     0.117 H 
ATOM    122  NAT 1P0 d   1     -28.636  18.437 -25.778  0.00  0.00    -0.066 NA
ATOM    123  NAQ 1P0 d   1     -28.265  18.624 -26.956  0.00  0.00    -0.134 NA
BRANCH 120 124
ATOM    124  CAK 1P0 d   1     -29.836  16.835 -24.440  0.00  0.00     0.038 C 
ATOM    125  H38 18D d   1     -29.747  15.739 -24.422  0.00  0.00     0.070 H 
ATOM    126  H39 18D d   1     -30.898  17.117 -24.381  0.00  0.00     0.070 H 
BRANCH 124 127
ATOM    127  CAH 1P0 d   1     -29.068  17.441 -23.235  0.00  0.00     0.040 C 
ATOM    128  H40 18D d   1     -29.684  17.368 -22.327  0.00  0.00     0.077 H 
ATOM    129  H41 18D d   1     -28.834  18.497 -23.436  0.00  0.00     0.077 H 
BRANCH 127 130
ATOM    130  OAB 1P0 d   1     -27.831  16.688 -23.054  0.00  0.00    -0.345 OA
BRANCH 130 131
ATOM    131  C2  18D d   1     -27.586  15.911 -21.862  0.00  0.00     0.258 C 
ATOM    132  C3  18D d   1     -26.209  15.253 -21.925  0.00  0.00     0.024 C 
ATOM    133  C4  18D d   1     -26.065  14.173 -20.851  0.00  0.00     0.063 C 
ATOM    134  H42 18D d   1     -25.437  16.020 -21.769  0.00  0.00     0.045 H 
ATOM    135  H43 18D d   1     -26.075  14.794 -22.916  0.00  0.00     0.045 H 
ATOM    136  C5  18D d   1     -27.214  13.169 -20.930  0.00  0.00     0.064 C 
ATOM    137  H44 18D d   1     -26.074  14.649 -19.859  0.00  0.00     0.086 H 
ATOM    138  C6  18D d   1     -28.522  13.944 -20.767  0.00  0.00     0.091 C 
ATOM    139  H45 18D d   1     -27.200  12.697 -21.923  0.00  0.00     0.080 H 
ATOM    140  O6  18D d   1     -28.608  14.920 -21.827  0.00  0.00    -0.336 OA
ATOM    141  H46 18D d   1     -28.479  14.471 -19.803  0.00  0.00     0.090 H 
BRANCH 131 142
ATOM    142  C1  18D d   1     -27.755  16.868 -20.673  0.00  0.00     0.239 C 
ATOM    143  O1  18D d   1     -28.802  16.829 -19.974  0.00  0.00    -0.644 OA
ATOM    144  O3  18D d   1     -26.860  17.694 -20.444  0.00  0.00    -0.644 OA
ENDBRANCH 131 142
BRANCH 133 145
ATOM    145  O4  18D d   1     -24.815  13.493 -21.040  0.00  0.00    -0.393 OA
ATOM    146  H54 18D d   1     -24.707  12.836 -20.362  0.00  0.00     0.210 HD
ENDBRANCH 133 145
BRANCH 136 147
ATOM    147  N5  18D d   1     -27.104  12.109 -19.923  0.00  0.00    -0.351 N 
ATOM    148  C10 18D d   1     -26.877  10.827 -20.213  0.00  0.00     0.217 C 
ATOM    149  O10 18D d   1     -26.675  10.456 -21.370  0.00  0.00    -0.274 OA
ATOM    150  H53 18D d   1     -27.205  12.362 -18.961  0.00  0.00     0.163 HD
BRANCH 148 151
ATOM    151  C11 18D d   1     -26.845   9.877 -19.022  0.00  0.00     0.006 C 
ATOM    152  H51 18D d   1     -27.871   9.543 -18.807  0.00  0.00     0.046 H 
ATOM    153  H52 18D d   1     -26.444  10.415 -18.150  0.00  0.00     0.046 H 
BRANCH 151 154
ATOM    154  C22 18D d   1     -25.941   8.604 -19.296  0.00  0.00    -0.068 C 
ATOM    155  H58 18D d   1     -25.950   7.951 -18.411  0.00  0.00     0.028 H 
ATOM    156  H59 18D d   1     -24.910   8.925 -19.505  0.00  0.00     0.028 H 
ATOM    157  H60 18D d   1     -26.336   8.053 -20.162  0.00  0.00     0.028 H 
ENDBRANCH 151 154
ENDBRANCH 148 151
ENDBRANCH 136 147
BRANCH 138 158
ATOM    158  C7  18D d   1     -29.789  13.086 -20.764  0.00  0.00     0.089 C 
ATOM    159  H47 18D d   1     -29.763  12.429 -19.882  0.00  0.00     0.091 H 
BRANCH 158 160
ATOM    160  C8  18D d   1     -31.080  13.936 -20.701  0.00  0.00     0.083 C 
ATOM    161  H48 18D d   1     -31.291  14.337 -21.703  0.00  0.00     0.090 H 
BRANCH 160 162
ATOM    162  C9  18D d   1     -32.272  13.104 -20.233  0.00  0.00     0.043 C 
ATOM    163  H49 18D d   1     -32.381  12.223 -20.883  0.00  0.00     0.078 H 
ATOM    164  H50 18D d   1     -33.186  13.713 -20.285  0.00  0.00     0.078 H 
BRANCH 162 165
ATOM    165  O9  18D d   1     -32.058  12.670 -18.864  0.00  0.00    -0.398 OA
ATOM    166  H57 18D d   1     -31.964  13.431 -18.303  0.00  0.00     0.209 HD
ENDBRANCH 162 165
ENDBRANCH 160 162
BRANCH 160 167
ATOM    167  O8  18D d   1     -30.905  15.015 -19.783  0.00  0.00    -0.391 OA
ATOM    168  H56 18D d   1     -30.166  15.546 -20.057  0.00  0.00     0.210 HD
ENDBRANCH 160 167
ENDBRANCH 158 160
BRANCH 158 169
ATOM    169  O7  18D d   1     -29.807  12.283 -21.946  0.00  0.00    -0.390 OA
ATOM    170  H55 18D d   1     -29.854  12.846 -22.709  0.00  0.00     0.210 HD
ENDBRANCH 158 169
ENDBRANCH 138 158
ENDBRANCH 130 131
ENDBRANCH 127 130
ENDBRANCH 124 127
ENDBRANCH 120 124
ENDBRANCH 115 118
ENDBRANCH   2 115
TORSDOF 51
