REMARK WARNING: 32 MAX_TORS EXCEEDED!!!
REMARK  40 active torsions:
REMARK  status: ('A' for Active; 'I' for Inactive)
REMARK    1  A    between atoms: N_1  and  CA_2 
REMARK    2  A    between atoms: CA_2  and  C_3 
REMARK    3  A    between atoms: CA_2  and  CB_5 
REMARK       I    between atoms: C_3  and  N_7 
REMARK    4  A    between atoms: CB_5  and  OG_6 
REMARK    5  A    between atoms: N_7  and  CA_8 
REMARK    6  A    between atoms: CA_8  and  C_9 
REMARK    7  A    between atoms: CA_8  and  CB_11 
REMARK       I    between atoms: C_9  and  N_18 
REMARK    8  A    between atoms: CB_11  and  CG_12 
REMARK    9  A    between atoms: CG_12  and  CD_13 
REMARK   10  A    between atoms: CD_13  and  NE_14 
REMARK       I    between atoms: NE_14  and  CZ_15 
REMARK       I    between atoms: CZ_15  and  NH1_16 
REMARK   11  A    between atoms: N_18  and  CA_19 
REMARK   12  A    between atoms: CA_19  and  C_20 
REMARK   13  A    between atoms: CA_19  and  CB_22 
REMARK       I    between atoms: C_20  and  N_32 
REMARK   14  A    between atoms: CB_22  and  CG_23 
REMARK   15  A    between atoms: N_32  and  CA_33 
REMARK   16  A    between atoms: CA_33  and  C_34 
REMARK   17  A    between atoms: CA_33  and  CB_36 
REMARK       I    between atoms: C_34  and  N_41 
REMARK   18  A    between atoms: CB_36  and  CG_37 
REMARK   19  A    between atoms: CG_37  and  CD_38 
REMARK       I    between atoms: CD_38  and  NE2_40 
REMARK   20  A    between atoms: N_41  and  CA_42 
REMARK   21  A    between atoms: CA_42  and  C_43 
REMARK   22  A    between atoms: CA_42  and  CB_45 
REMARK       I    between atoms: C_43  and  N_48 
REMARK   23  A    between atoms: CB_45  and  OG1_46 
REMARK   24  A    between atoms: CB_45  and  CG2_47 
REMARK   25  A    between atoms: N_48  and  CA_49 
REMARK   26  A    between atoms: CA_49  and  C_50 
REMARK   27  A    between atoms: CA_49  and  CB_52 
REMARK       I    between atoms: C_50  and  N_54 
REMARK   28  A    between atoms: CB_52  and  OG_53 
REMARK   29  A    between atoms: N_54  and  CA_55 
REMARK   30  A    between atoms: CA_55  and  C_56 
REMARK   31  A    between atoms: CA_55  and  CB_58 
REMARK       I    between atoms: C_56  and  N_62 
REMARK   32  A    between atoms: CB_58  and  CG1_59 
REMARK   33  A    between atoms: CB_58  and  CG2_60 
REMARK   34  A    between atoms: CG1_59  and  CD1_61 
REMARK   35  A    between atoms: N_62  and  CA_63 
REMARK   36  A    between atoms: CA_63  and  C_64 
REMARK   37  A    between atoms: CA_63  and  CB_66 
REMARK   38  A    between atoms: CB_66  and  CG1_67 
REMARK   39  A    between atoms: CB_66  and  CG2_68 
REMARK   40  A    between atoms: CG1_67  and  CD1_69 
ROOT
ATOM      1  CA  GLN d   1      16.086  26.288  18.993  0.00  0.00     0.090 C 
ATOM      2  H   GLN d   1      16.878  26.125  19.739  0.00  0.00     0.087 H 
ENDROOT
BRANCH   1   3
ATOM      3  N   GLN d   1      16.652  26.950  17.830  0.00  0.00    -0.346 N 
ATOM      4  C   TRP d   1      17.756  26.516  17.236  0.00  0.00     0.241 C 
ATOM      5  O   TRP d   1      18.446  25.603  17.680  0.00  0.00    -0.271 OA
ATOM      6  H   GLN d   1      16.194  27.760  17.465  0.00  0.00     0.163 HD
BRANCH   4   7
ATOM      7  CA  TRP d   1      18.120  27.210  15.927  0.00  0.00     0.093 C 
ATOM      8  H   TRP d   1      17.799  28.261  15.974  0.00  0.00     0.088 H 
BRANCH   7   9
ATOM      9  N   TRP d   1      19.557  27.176  15.686  0.00  0.00    -0.346 N 
ATOM     10  C   ARG d   1      20.341  28.188  16.042  0.00  0.00     0.241 C 
ATOM     11  O   ARG d   1      19.912  29.192  16.607  0.00  0.00    -0.271 OA
ATOM     12  H   TRP d   1      19.961  26.375  15.244  0.00  0.00     0.163 HD
BRANCH  10  13
ATOM     13  CA  ARG d   1      21.827  28.040  15.706  0.00  0.00     0.089 C 
ATOM     14  H   ARG d   1      22.424  28.538  16.484  0.00  0.00     0.087 H 
BRANCH  13  15
ATOM     15  N   ARG d   1      22.171  26.628  15.670  0.00  0.00    -0.346 N 
ATOM     16  C   SER d   1      22.186  25.883  16.770  0.00  0.00     0.251 C 
ATOM     17  O   SER d   1      22.000  26.347  17.896  0.00  0.00    -0.271 OA
ATOM     18  H   ARG d   1      22.403  26.206  14.793  0.00  0.00     0.163 HD
BRANCH  16  19
ATOM     19  CA  SER d   1      22.443  24.393  16.568  0.00  0.00     0.195 C 
ATOM     20  H   SER d   1      21.557  23.848  16.925  0.00  0.00     0.102 H 
BRANCH  19  21
ATOM     21  N   SER d   1      22.627  24.070  15.156  0.00  0.00    -0.064 N 
ATOM     22  H   SER d   1      22.794  23.081  15.057  0.00  0.00     0.275 HD
ATOM     23  H   SER d   1      23.416  24.582  14.794  0.00  0.00     0.275 HD
ATOM     24  H   SER d   1      21.798  24.324  14.642  0.00  0.00     0.275 HD
ENDBRANCH  19  21
BRANCH  19  25
ATOM     25  CB  SER d   1      23.646  23.929  17.394  0.00  0.00     0.051 C 
ATOM     26  H   SER d   1      23.570  22.845  17.561  0.00  0.00     0.077 H 
ATOM     27  H   SER d   1      23.640  24.451  18.362  0.00  0.00     0.077 H 
BRANCH  25  28
ATOM     28  OG  SER d   1      24.864  24.209  16.726  0.00  0.00    -0.398 OA
ATOM     29  H   SER d   1      25.592  23.912  17.259  0.00  0.00     0.209 HD
ENDBRANCH  25  28
ENDBRANCH  19  25
ENDBRANCH  16  19
ENDBRANCH  13  15
BRANCH  13  30
ATOM     30  CB  ARG d   1      22.133  28.689  14.352  0.00  0.00    -0.036 C 
ATOM     31  H   ARG d   1      21.181  28.850  13.825  0.00  0.00     0.036 H 
ATOM     32  H   ARG d   1      22.760  27.995  13.773  0.00  0.00     0.036 H 
BRANCH  30  33
ATOM     33  CG  ARG d   1      22.860  30.026  14.440  0.00  0.00    -0.048 C 
ATOM     34  H   ARG d   1      23.754  29.906  15.069  0.00  0.00     0.035 H 
ATOM     35  H   ARG d   1      22.188  30.769  14.895  0.00  0.00     0.035 H 
BRANCH  33  36
ATOM     36  CD  ARG d   1      23.287  30.522  13.060  0.00  0.00     0.009 C 
ATOM     37  H   ARG d   1      23.025  29.757  12.314  0.00  0.00     0.064 H 
ATOM     38  H   ARG d   1      24.376  30.675  13.062  0.00  0.00     0.064 H 
BRANCH  36  39
ATOM     39  NE  ARG d   1      22.638  31.778  12.691  0.00  0.00    -0.227 N 
ATOM     40  CZ  ARG d   1      23.102  32.987  13.004  0.00  0.00     0.665 C 
ATOM     41  NH1 ARG d   1      22.439  34.071  12.619  0.00  0.00    -0.235 N 
ATOM     42  NH2 ARG d   1      24.228  33.122  13.694  0.00  0.00    -0.235 N 
ATOM     43  H   ARG d   1      22.797  35.006  12.860  0.00  0.00     0.174 HD
ATOM     44  H   ARG d   1      21.567  33.977  12.079  0.00  0.00     0.174 HD
ATOM     45  H   ARG d   1      24.750  32.287  13.997  0.00  0.00     0.174 HD
ATOM     46  H   ARG d   1      24.580  34.062  13.926  0.00  0.00     0.174 HD
ATOM     47  H   ARG d   1      21.762  31.725  12.152  0.00  0.00     0.177 HD
ENDBRANCH  36  39
ENDBRANCH  33  36
ENDBRANCH  30  33
ENDBRANCH  13  30
ENDBRANCH  10  13
ENDBRANCH   7   9
BRANCH   7  48
ATOM     48  CB  TRP d   1      17.360  26.501  14.809  0.00  0.00    -0.012 C 
ATOM     49  H   TRP d   1      16.285  26.628  15.004  0.00  0.00     0.044 H 
ATOM     50  H   TRP d   1      17.617  25.433  14.856  0.00  0.00     0.044 H 
BRANCH  48  51
ATOM     51  CG  TRP d   1      17.627  26.971  13.414  0.00  0.00    -0.028 A 
ATOM     52  CD1 TRP d   1      18.208  28.146  13.025  0.00  0.00    -0.015 A 
ATOM     53  NE1 TRP d   1      18.272  28.205  11.650  0.00  0.00    -0.365 N 
ATOM     54  H   TRP d   1      18.567  28.920  13.701  0.00  0.00     0.112 H 
ATOM     55  CE2 TRP d   1      17.741  27.054  11.131  0.00  0.00     0.042 A 
ATOM     56  H   TRP d   1      18.657  28.987  11.101  0.00  0.00     0.165 HD
ATOM     57  CD2 TRP d   1      17.320  26.256  12.216  0.00  0.00    -0.002 A 
ATOM     58  CZ2 TRP d   1      17.590  26.649   9.803  0.00  0.00    -0.056 A 
ATOM     59  CE3 TRP d   1      16.734  25.012  11.953  0.00  0.00    -0.070 A 
ATOM     60  CZ3 TRP d   1      16.587  24.611  10.636  0.00  0.00    -0.082 A 
ATOM     61  H   TRP d   1      16.402  24.375  12.765  0.00  0.00     0.084 H 
ATOM     62  CH2 TRP d   1      17.014  25.428   9.578  0.00  0.00    -0.081 A 
ATOM     63  H   TRP d   1      16.135  23.650  10.419  0.00  0.00     0.083 H 
ATOM     64  H   TRP d   1      16.885  25.084   8.558  0.00  0.00     0.083 H 
ATOM     65  H   TRP d   1      17.916  27.277   8.982  0.00  0.00     0.086 H 
ENDBRANCH  48  51
ENDBRANCH   7  48
ENDBRANCH   4   7
ENDBRANCH   1   3
BRANCH   1  66
ATOM     66  C   GLN d   1      15.488  24.940  18.580  0.00  0.00     0.241 C 
ATOM     67  O   GLN d   1      14.971  24.795  17.462  0.00  0.00    -0.271 OA
ATOM     68  N   THR d   1      15.578  23.962  19.480  0.00  0.00    -0.344 N 
ATOM     69  H   THR d   1      16.147  24.107  20.289  0.00  0.00     0.163 HD
BRANCH  68  70
ATOM     70  CA  THR d   1      14.882  22.689  19.335  0.00  0.00     0.113 C 
ATOM     71  H   THR d   1      14.191  22.751  18.481  0.00  0.00     0.091 H 
BRANCH  70  72
ATOM     72  C   THR d   1      14.102  22.426  20.604  0.00  0.00     0.243 C 
ATOM     73  O   THR d   1      14.614  22.623  21.702  0.00  0.00    -0.271 OA
ATOM     74  N   SER d   1      12.853  21.989  20.460  0.00  0.00    -0.344 N 
ATOM     75  H   SER d   1      12.465  21.904  19.542  0.00  0.00     0.163 HD
BRANCH  74  76
ATOM     76  CA  SER d   1      12.045  21.633  21.612  0.00  0.00     0.109 C 
ATOM     77  H   SER d   1      12.684  21.632  22.507  0.00  0.00     0.090 H 
BRANCH  76  78
ATOM     78  C   SER d   1      11.447  20.242  21.421  0.00  0.00     0.243 C 
ATOM     79  O   SER d   1      11.038  19.889  20.321  0.00  0.00    -0.271 OA
ATOM     80  N   ILE d   1      11.434  19.458  22.494  0.00  0.00    -0.346 N 
ATOM     81  H   ILE d   1      11.896  19.774  23.323  0.00  0.00     0.163 HD
BRANCH  80  82
ATOM     82  CA  ILE d   1      10.774  18.153  22.515  0.00  0.00     0.092 C 
ATOM     83  H   ILE d   1      10.772  17.708  21.509  0.00  0.00     0.088 H 
BRANCH  82  84
ATOM     84  C   ILE d   1       9.352  18.402  22.992  0.00  0.00     0.241 C 
ATOM     85  O   ILE d   1       9.152  19.041  24.031  0.00  0.00    -0.271 OA
ATOM     86  N   ILE d   1       8.367  17.927  22.228  0.00  0.00    -0.344 N 
ATOM     87  H   ILE d   1       8.599  17.364  21.435  0.00  0.00     0.163 HD
BRANCH  86  88
ATOM     88  CA  ILE d   1       6.959  18.203  22.513  0.00  0.00     0.099 C 
ATOM     89  H   ILE d   1       6.879  18.479  23.575  0.00  0.00     0.090 H 
BRANCH  88  90
ATOM     90  C   ILE d   1       6.094  16.982  22.263  0.00  0.00     0.197 C 
ATOM     91  O   ILE d   1       6.549  15.958  21.740  0.00  0.00    -0.646 OA
ATOM     92  OXT ILE d   1       4.902  17.024  22.581  0.00  0.00    -0.646 OA
ENDBRANCH  88  90
BRANCH  88  93
ATOM     93  CB  ILE d   1       6.405  19.371  21.661  0.00  0.00    -0.029 C 
ATOM     94  H   ILE d   1       5.348  19.513  21.932  0.00  0.00     0.043 H 
BRANCH  93  95
ATOM     95  CG1 ILE d   1       6.471  19.064  20.161  0.00  0.00    -0.063 C 
ATOM     96  H   ILE d   1       5.982  18.096  19.974  0.00  0.00     0.033 H 
ATOM     97  H   ILE d   1       7.526  19.007  19.856  0.00  0.00     0.033 H 
BRANCH  95  98
ATOM     98  CD1 ILE d   1       5.770  20.144  19.324  0.00  0.00    -0.076 C 
ATOM     99  H   ILE d   1       5.841  19.885  18.257  0.00  0.00     0.027 H 
ATOM    100  H   ILE d   1       6.255  21.116  19.498  0.00  0.00     0.027 H 
ATOM    101  H   ILE d   1       4.711  20.205  19.617  0.00  0.00     0.027 H 
ENDBRANCH  95  98
ENDBRANCH  93  95
BRANCH  93 102
ATOM    102  CG2 ILE d   1       7.151  20.669  21.961  0.00  0.00    -0.070 C 
ATOM    103  H   ILE d   1       7.098  20.881  23.039  0.00  0.00     0.028 H 
ATOM    104  H   ILE d   1       6.689  21.495  21.402  0.00  0.00     0.028 H 
ATOM    105  H   ILE d   1       8.204  20.565  21.659  0.00  0.00     0.028 H 
ENDBRANCH  93 102
ENDBRANCH  88  93
ENDBRANCH  86  88
ENDBRANCH  82  84
BRANCH  82 106
ATOM    106  CB  ILE d   1      11.491  17.207  23.502  0.00  0.00    -0.030 C 
ATOM    107  H   ILE d   1      11.449  17.659  24.504  0.00  0.00     0.043 H 
BRANCH 106 108
ATOM    108  CG1 ILE d   1      12.957  17.024  23.115  0.00  0.00    -0.063 C 
ATOM    109  H   ILE d   1      13.383  18.010  22.876  0.00  0.00     0.033 H 
ATOM    110  H   ILE d   1      13.007  16.377  22.227  0.00  0.00     0.033 H 
BRANCH 108 111
ATOM    111  CD1 ILE d   1      13.791  16.390  24.227  0.00  0.00    -0.076 C 
ATOM    112  H   ILE d   1      14.833  16.285  23.890  0.00  0.00     0.027 H 
ATOM    113  H   ILE d   1      13.383  15.398  24.471  0.00  0.00     0.027 H 
ATOM    114  H   ILE d   1      13.758  17.030  25.121  0.00  0.00     0.027 H 
ENDBRANCH 108 111
ENDBRANCH 106 108
BRANCH 106 115
ATOM    115  CG2 ILE d   1      10.803  15.852  23.556  0.00  0.00    -0.071 C 
ATOM    116  H   ILE d   1       9.748  15.988  23.835  0.00  0.00     0.028 H 
ATOM    117  H   ILE d   1      11.301  15.217  24.304  0.00  0.00     0.028 H 
ATOM    118  H   ILE d   1      10.862  15.371  22.569  0.00  0.00     0.028 H 
ENDBRANCH 106 115
ENDBRANCH  82 106
ENDBRANCH  80  82
ENDBRANCH  76  78
BRANCH  76 119
ATOM    119  CB  SER d   1      10.911  22.641  21.810  0.00  0.00     0.044 C 
ATOM    120  H   SER d   1      10.282  22.310  22.649  0.00  0.00     0.077 H 
ATOM    121  H   SER d   1      10.306  22.682  20.892  0.00  0.00     0.077 H 
BRANCH 119 122
ATOM    122  OG  SER d   1      11.408  23.940  22.092  0.00  0.00    -0.398 OA
ATOM    123  H   SER d   1      11.949  24.235  21.369  0.00  0.00     0.209 HD
ENDBRANCH 119 122
ENDBRANCH  76 119
ENDBRANCH  74  76
ENDBRANCH  70  72
BRANCH  70 124
ATOM    124  CB  THR d   1      15.861  21.530  19.104  0.00  0.00     0.060 C 
ATOM    125  H   THR d   1      16.603  21.522  19.916  0.00  0.00     0.086 H 
BRANCH 124 126
ATOM    126  OG1 THR d   1      16.528  21.728  17.855  0.00  0.00    -0.393 OA
ATOM    127  H   THR d   1      17.003  22.550  17.878  0.00  0.00     0.210 HD
ENDBRANCH 124 126
BRANCH 124 128
ATOM    128  CG2 THR d   1      15.133  20.178  19.083  0.00  0.00    -0.050 C 
ATOM    129  H   THR d   1      15.862  19.372  18.916  0.00  0.00     0.031 H 
ATOM    130  H   THR d   1      14.390  20.174  18.272  0.00  0.00     0.031 H 
ATOM    131  H   THR d   1      14.626  20.020  20.046  0.00  0.00     0.031 H 
ENDBRANCH 124 128
ENDBRANCH  70 124
ENDBRANCH  68  70
ENDBRANCH   1  66
BRANCH   1 132
ATOM    132  CB  GLN d   1      14.979  27.155  19.604  0.00  0.00    -0.030 C 
ATOM    133  H   GLN d   1      14.609  26.650  20.508  0.00  0.00     0.037 H 
ATOM    134  H   GLN d   1      14.164  27.236  18.870  0.00  0.00     0.037 H 
BRANCH 132 135
ATOM    135  CG  GLN d   1      15.409  28.562  19.991  0.00  0.00     0.011 C 
ATOM    136  H   GLN d   1      16.084  28.951  19.215  0.00  0.00     0.047 H 
ATOM    137  H   GLN d   1      15.942  28.517  20.952  0.00  0.00     0.047 H 
BRANCH 135 138
ATOM    138  CD  GLN d   1      14.234  29.504  20.130  0.00  0.00     0.215 C 
ATOM    139  OE1 GLN d   1      13.546  29.511  21.154  0.00  0.00    -0.274 OA
ATOM    140  NE2 GLN d   1      13.992  30.303  19.097  0.00  0.00    -0.370 N 
ATOM    141  H   GLN d   1      13.228  30.947  19.131  0.00  0.00     0.159 HD
ATOM    142  H   GLN d   1      14.574  30.260  18.285  0.00  0.00     0.159 HD
ENDBRANCH 135 138
ENDBRANCH 132 135
ENDBRANCH   1 132
TORSDOF 40
