REMARK  3 active torsions:
REMARK  status: ('A' for Active; 'I' for Inactive)
REMARK    1  A    between atoms: C9_8  and  N19_17 
REMARK    2  A    between atoms: C11_10  and  C13_12 
REMARK    3  A    between atoms: N19_17  and  C20_18 
ROOT
ATOM      1  C20 1Q3 d   1      23.246   5.182   2.789  0.00  0.00     0.026 C 
ATOM      2  C21 1Q3 d   1      21.786   5.223   2.308  0.00  0.00    -0.045 C 
ATOM      3  C22 1Q3 d   1      21.012   4.254   3.223  0.00  0.00    -0.062 C 
ATOM      4  C23 1Q3 d   1      22.048   3.358   3.894  0.00  0.00    -0.048 C 
ATOM      5  C24 1Q3 d   1      23.052   4.439   4.168  0.00  0.00     0.050 C 
ATOM      6  C25 1Q3 d   1      24.279   3.932   4.796  0.00  0.00     0.066 C 
ATOM      7  N26 1Q3 d   1      25.226   3.586   5.322  0.00  0.00    -0.197 NA
ATOM      8  H8  1Q3 d   1      23.708   6.175   2.894  0.00  0.00     0.074 H 
ATOM      9  H9  1Q3 d   1      21.719   4.895   1.260  0.00  0.00     0.036 H 
ATOM     10  H10 1Q3 d   1      21.381   6.242   2.400  0.00  0.00     0.036 H 
ATOM     11  H11 1Q3 d   1      20.315   3.646   2.627  0.00  0.00     0.033 H 
ATOM     12  H12 1Q3 d   1      20.450   4.818   3.982  0.00  0.00     0.033 H 
ATOM     13  H13 1Q3 d   1      22.436   2.581   3.219  0.00  0.00     0.035 H 
ATOM     14  H14 1Q3 d   1      21.669   2.889   4.814  0.00  0.00     0.035 H 
ATOM     15  H15 1Q3 d   1      22.611   5.154   4.878  0.00  0.00     0.066 H 
ENDROOT
BRANCH   1  16
ATOM     16  N19 1Q3 d   1      23.974   4.354   1.868  0.00  0.00    -0.368 N 
ATOM     17  H7  1Q3 d   1      23.360   3.616   1.494  0.00  0.00     0.161 HD
BRANCH  16  18
ATOM     18  C9  1Q3 d   1      25.202   4.242   1.344  0.00  0.00     0.139 A 
ATOM     19  C8  1Q3 d   1      26.377   5.072   1.389  0.00  0.00     0.045 A 
ATOM     20  C1  1Q3 d   1      26.551   6.399   1.970  0.00  0.00    -0.052 A 
ATOM     21  C7  1Q3 d   1      27.530   4.417   0.790  0.00  0.00     0.141 A 
ATOM     22  C2  1Q3 d   1      27.813   7.009   1.928  0.00  0.00    -0.019 A 
ATOM     23  H1  1Q3 d   1      25.708   6.911   2.432  0.00  0.00     0.087 H 
ATOM     24  N3  1Q3 d   1      28.907   6.421   1.369  0.00  0.00    -0.332 N 
ATOM     25  H2  1Q3 d   1      27.924   8.001   2.364  0.00  0.00     0.111 H 
ATOM     26  C5  1Q3 d   1      28.864   5.108   0.767  0.00  0.00     0.275 A 
ATOM     27  H3  1Q3 d   1      29.775   6.918   1.375  0.00  0.00     0.168 HD
ATOM     28  O6  1Q3 d   1      29.907   4.628   0.323  0.00  0.00    -0.266 OA
ATOM     29  N12 1Q3 d   1      27.520   3.171   0.280  0.00  0.00    -0.222 NA
ATOM     30  C11 1Q3 d   1      26.350   2.530   0.322  0.00  0.00     0.165 A 
ATOM     31  N10 1Q3 d   1      25.213   3.019   0.802  0.00  0.00    -0.210 NA
BRANCH  30  32
ATOM     32  C13 1Q3 d   1      26.190   1.160  -0.077  0.00  0.00     0.048 A 
ATOM     33  C14 1Q3 d   1      27.085   0.275  -0.641  0.00  0.00     0.036 A 
ATOM     34  N15 1Q3 d   1      26.489  -0.919  -0.701  0.00  0.00    -0.187 NA
ATOM     35  H4  1Q3 d   1      28.095   0.507  -0.977  0.00  0.00     0.118 H 
ATOM     36  N17 1Q3 d   1      25.225  -0.887  -0.231  0.00  0.00    -0.289 N 
ATOM     37  C18 1Q3 d   1      25.020   0.366   0.150  0.00  0.00     0.011 A 
ATOM     38  H5  1Q3 d   1      24.559  -1.671  -0.179  0.00  0.00     0.188 HD
ATOM     39  H6  1Q3 d   1      24.090   0.740   0.577  0.00  0.00     0.115 H 
ENDBRANCH  30  32
ENDBRANCH  16  18
ENDBRANCH   1  16
TORSDOF 3
