REMARK  20 active torsions:
REMARK  status: ('A' for Active; 'I' for Inactive)
REMARK    1  A    between atoms: N_1  and  CA_2 
REMARK    2  A    between atoms: CA_2  and  C_3 
REMARK    3  A    between atoms: CA_2  and  CB_5 
REMARK       I    between atoms: C_3  and  N_9 
REMARK    4  A    between atoms: CB_5  and  CG_6 
REMARK    5  A    between atoms: N_9  and  CA_10 
REMARK    6  A    between atoms: CA_10  and  C_11 
REMARK    7  A    between atoms: CA_10  and  CB_13 
REMARK       I    between atoms: C_11  and  N_15 
REMARK    8  A    between atoms: CB_13  and  OG_14 
REMARK    9  A    between atoms: N_15  and  CA_16 
REMARK   10  A    between atoms: CA_16  and  C_17 
REMARK   11  A    between atoms: CA_16  and  CB_19 
REMARK       I    between atoms: C_17  and  N_23 
REMARK   12  A    between atoms: CB_19  and  CG1_20 
REMARK   13  A    between atoms: CB_19  and  CG2_21 
REMARK   14  A    between atoms: CG1_20  and  CD1_22 
REMARK   15  A    between atoms: N_23  and  CA_24 
REMARK   16  A    between atoms: CA_24  and  C_25 
REMARK   17  A    between atoms: CA_24  and  CB_27 
REMARK   18  A    between atoms: CB_27  and  CG1_28 
REMARK   19  A    between atoms: CB_27  and  CG2_29 
REMARK   20  A    between atoms: CG1_28  and  CD1_30 
ROOT
ATOM      1  CA  ILE d   1       1.399  23.997  48.109  0.00  0.00     0.092 C 
ATOM      2  H   ILE d   1       1.450  25.016  47.698  0.00  0.00     0.088 H 
ENDROOT
BRANCH   1   3
ATOM      3  N   ILE d   1       0.347  23.257  47.418  0.00  0.00    -0.346 N 
ATOM      4  C   SER d   1       0.024  23.514  46.152  0.00  0.00     0.243 C 
ATOM      5  O   SER d   1       0.539  24.419  45.497  0.00  0.00    -0.271 OA
ATOM      6  H   ILE d   1      -0.144  22.538  47.909  0.00  0.00     0.163 HD
BRANCH   4   7
ATOM      7  CA  SER d   1      -1.028  22.604  45.529  0.00  0.00     0.109 C 
ATOM      8  H   SER d   1      -1.574  22.100  46.340  0.00  0.00     0.090 H 
BRANCH   7   9
ATOM      9  N   SER d   1      -1.991  23.339  44.718  0.00  0.00    -0.344 N 
ATOM     10  C   ASP d   1      -3.083  23.765  45.340  0.00  0.00     0.249 C 
ATOM     11  O   ASP d   1      -3.384  23.400  46.461  0.00  0.00    -0.271 OA
ATOM     12  H   SER d   1      -1.837  23.513  43.745  0.00  0.00     0.163 HD
BRANCH  10  13
ATOM     13  CA  ASP d   1      -3.983  24.743  44.670  0.00  0.00     0.185 C 
ATOM     14  H   ASP d   1      -3.931  24.638  43.576  0.00  0.00     0.100 H 
BRANCH  13  15
ATOM     15  N   ASP d   1      -5.311  24.477  45.157  0.00  0.00    -0.066 N 
ATOM     16  H   ASP d   1      -5.960  25.118  44.729  0.00  0.00     0.275 HD
ATOM     17  H   ASP d   1      -5.332  24.595  46.158  0.00  0.00     0.275 HD
ATOM     18  H   ASP d   1      -5.571  23.531  44.925  0.00  0.00     0.275 HD
ENDBRANCH  13  15
BRANCH  13  19
ATOM     19  CB  ASP d   1      -3.608  26.144  45.087  0.00  0.00     0.050 C 
ATOM     20  H   ASP d   1      -2.594  26.366  44.723  0.00  0.00     0.052 H 
ATOM     21  H   ASP d   1      -3.626  26.207  46.185  0.00  0.00     0.052 H 
BRANCH  19  22
ATOM     22  CG  ASP d   1      -4.538  27.134  44.538  0.00  0.00     0.175 C 
ATOM     23  OD1 ASP d   1      -5.506  26.699  43.951  0.00  0.00    -0.648 OA
ATOM     24  OD2 ASP d   1      -4.327  28.302  44.656  0.00  0.00    -0.648 OA
ENDBRANCH  19  22
ENDBRANCH  13  19
ENDBRANCH  10  13
ENDBRANCH   7   9
BRANCH   7  25
ATOM     25  CB  SER d   1      -0.338  21.552  44.671  0.00  0.00     0.044 C 
ATOM     26  H   SER d   1       0.280  20.909  45.315  0.00  0.00     0.077 H 
ATOM     27  H   SER d   1       0.302  22.053  43.930  0.00  0.00     0.077 H 
BRANCH  25  28
ATOM     28  OG  SER d   1      -1.292  20.757  43.999  0.00  0.00    -0.398 OA
ATOM     29  H   SER d   1      -1.826  21.309  43.440  0.00  0.00     0.209 HD
ENDBRANCH  25  28
ENDBRANCH   7  25
ENDBRANCH   4   7
ENDBRANCH   1   3
BRANCH   1  30
ATOM     30  C   ILE d   1       2.728  23.290  47.907  0.00  0.00     0.241 C 
ATOM     31  O   ILE d   1       2.826  22.079  48.104  0.00  0.00    -0.271 OA
ATOM     32  N   ILE d   1       3.751  24.044  47.518  0.00  0.00    -0.344 N 
ATOM     33  H   ILE d   1       3.605  25.021  47.365  0.00  0.00     0.163 HD
BRANCH  32  34
ATOM     34  CA  ILE d   1       5.079  23.483  47.309  0.00  0.00     0.099 C 
ATOM     35  H   ILE d   1       5.109  22.486  47.772  0.00  0.00     0.090 H 
BRANCH  34  36
ATOM     36  C   ILE d   1       6.133  24.366  47.959  0.00  0.00     0.197 C 
ATOM     37  O   ILE d   1       5.916  25.560  48.155  0.00  0.00    -0.646 OA
ATOM     38  OXT ILE d   1       7.225  23.898  48.279  0.00  0.00    -0.646 OA
ENDBRANCH  34  36
BRANCH  34  39
ATOM     39  CB  ILE d   1       5.430  23.344  45.805  0.00  0.00    -0.029 C 
ATOM     40  H   ILE d   1       5.638  24.348  45.407  0.00  0.00     0.043 H 
BRANCH  39  41
ATOM     41  CG1 ILE d   1       4.255  22.756  45.020  0.00  0.00    -0.063 C 
ATOM     42  H   ILE d   1       3.353  23.343  45.249  0.00  0.00     0.033 H 
ATOM     43  H   ILE d   1       4.106  21.715  45.342  0.00  0.00     0.033 H 
BRANCH  41  44
ATOM     44  CD1 ILE d   1       4.472  22.770  43.507  0.00  0.00    -0.076 C 
ATOM     45  H   ILE d   1       3.594  22.335  43.007  0.00  0.00     0.027 H 
ATOM     46  H   ILE d   1       5.365  22.178  43.259  0.00  0.00     0.027 H 
ATOM     47  H   ILE d   1       4.613  23.806  43.166  0.00  0.00     0.027 H 
ENDBRANCH  41  44
ENDBRANCH  39  41
BRANCH  39  48
ATOM     48  CG2 ILE d   1       6.685  22.492  45.627  0.00  0.00    -0.070 C 
ATOM     49  H   ILE d   1       7.513  22.935  46.200  0.00  0.00     0.028 H 
ATOM     50  H   ILE d   1       6.955  22.455  44.561  0.00  0.00     0.028 H 
ATOM     51  H   ILE d   1       6.491  21.473  45.992  0.00  0.00     0.028 H 
ENDBRANCH  39  48
ENDBRANCH  34  39
ENDBRANCH  32  34
ENDBRANCH   1  30
BRANCH   1  52
ATOM     52  CB  ILE d   1       1.144  24.068  49.624  0.00  0.00    -0.030 C 
ATOM     53  H   ILE d   1       1.343  23.070  50.041  0.00  0.00     0.043 H 
BRANCH  52  54
ATOM     54  CG1 ILE d   1      -0.321  24.399  49.929  0.00  0.00    -0.063 C 
ATOM     55  H   ILE d   1      -0.412  24.582  51.010  0.00  0.00     0.033 H 
ATOM     56  H   ILE d   1      -0.933  23.529  49.651  0.00  0.00     0.033 H 
BRANCH  54  57
ATOM     57  CD1 ILE d   1      -0.863  25.605  49.202  0.00  0.00    -0.076 C 
ATOM     58  H   ILE d   1      -1.915  25.761  49.484  0.00  0.00     0.027 H 
ATOM     59  H   ILE d   1      -0.795  25.440  48.117  0.00  0.00     0.027 H 
ATOM     60  H   ILE d   1      -0.274  26.493  49.475  0.00  0.00     0.027 H 
ENDBRANCH  54  57
ENDBRANCH  52  54
BRANCH  52  61
ATOM     61  CG2 ILE d   1       2.126  25.045  50.292  0.00  0.00    -0.071 C 
ATOM     62  H   ILE d   1       3.157  24.759  50.038  0.00  0.00     0.028 H 
ATOM     63  H   ILE d   1       1.993  25.009  51.383  0.00  0.00     0.028 H 
ATOM     64  H   ILE d   1       1.930  26.066  49.932  0.00  0.00     0.028 H 
ENDBRANCH  52  61
ENDBRANCH   1  52
TORSDOF 20
