REMARK WARNING: 32 MAX_TORS EXCEEDED!!!
REMARK  36 active torsions:
REMARK  status: ('A' for Active; 'I' for Inactive)
REMARK    1  A    between atoms: N_1  and  CA_2 
REMARK    2  A    between atoms: CA_2  and  C_3 
REMARK    3  A    between atoms: CA_2  and  CB_5 
REMARK       I    between atoms: C_3  and  N_12 
REMARK    4  A    between atoms: CB_5  and  CG_6 
REMARK    5  A    between atoms: CG_6  and  CD_7 
REMARK    6  A    between atoms: CD_7  and  NE_8 
REMARK       I    between atoms: NE_8  and  CZ_9 
REMARK       I    between atoms: CZ_9  and  NH1_10 
REMARK       I    between atoms: CZ_9  and  NH2_11 
REMARK    7  A    between atoms: N_12  and  CA_13 
REMARK    8  A    between atoms: CA_13  and  C_14 
REMARK    9  A    between atoms: CA_13  and  CB_16 
REMARK       I    between atoms: C_14  and  N_26 
REMARK   10  A    between atoms: CB_16  and  CG_17 
REMARK   11  A    between atoms: N_26  and  CA_27 
REMARK   12  A    between atoms: CA_27  and  C_28 
REMARK   13  A    between atoms: CA_27  and  CB_30 
REMARK       I    between atoms: C_28  and  N_35 
REMARK   14  A    between atoms: CB_30  and  CG_31 
REMARK   15  A    between atoms: CG_31  and  CD_32 
REMARK       I    between atoms: CD_32  and  NE2_34 
REMARK   16  A    between atoms: N_35  and  CA_36 
REMARK   17  A    between atoms: CA_36  and  C_37 
REMARK   18  A    between atoms: CA_36  and  CB_39 
REMARK       I    between atoms: C_37  and  N_43 
REMARK   19  A    between atoms: CB_39  and  CG_40 
REMARK   20  A    between atoms: N_43  and  CA_44 
REMARK   21  A    between atoms: CA_44  and  C_45 
REMARK   22  A    between atoms: CA_44  and  CB_47 
REMARK       I    between atoms: C_45  and  N_50 
REMARK   23  A    between atoms: CB_47  and  OG1_48 
REMARK   24  A    between atoms: CB_47  and  CG2_49 
REMARK   25  A    between atoms: N_50  and  CA_51 
REMARK   26  A    between atoms: CA_51  and  C_52 
REMARK   27  A    between atoms: CA_51  and  CB_54 
REMARK       I    between atoms: C_52  and  N_61 
REMARK   28  A    between atoms: CB_54  and  CG_55 
REMARK   29  A    between atoms: CG_55  and  CD_56 
REMARK   30  A    between atoms: CD_56  and  NE_57 
REMARK       I    between atoms: NE_57  and  CZ_58 
REMARK       I    between atoms: CZ_58  and  NH1_59 
REMARK   31  A    between atoms: N_61  and  CA_62 
REMARK   32  A    between atoms: CA_62  and  C_63 
REMARK   33  A    between atoms: CA_62  and  CB_65 
REMARK   34  A    between atoms: CB_65  and  CG_66 
REMARK   35  A    between atoms: CG_66  and  CD1_67 
REMARK   36  A    between atoms: CG_66  and  CD2_68 
ROOT
ATOM      1  C   GLN d   1      23.540  20.031  33.796  0.00  0.00     0.241 C 
ATOM      2  O   GLN d   1      22.976  21.064  33.698  0.00  0.00    -0.271 OA
ATOM      3  N   ASP d   1      23.020  18.890  33.423  0.00  0.00    -0.346 N 
ATOM      4  H   ASP d   1      23.552  18.051  33.536  0.00  0.00     0.163 HD
ENDROOT
BRANCH   3   5
ATOM      5  CA  ASP d   1      21.686  18.813  32.847  0.00  0.00     0.098 C 
ATOM      6  H   ASP d   1      21.109  19.697  33.155  0.00  0.00     0.088 H 
BRANCH   5   7
ATOM      7  C   ASP d   1      20.986  17.560  33.360  0.00  0.00     0.241 C 
ATOM      8  O   ASP d   1      21.504  16.453  33.218  0.00  0.00    -0.271 OA
ATOM      9  N   THR d   1      19.808  17.730  33.955  0.00  0.00    -0.344 N 
ATOM     10  H   THR d   1      19.376  18.632  33.942  0.00  0.00     0.163 HD
BRANCH   9  11
ATOM     11  CA  THR d   1      19.134  16.620  34.628  0.00  0.00     0.113 C 
ATOM     12  H   THR d   1      19.673  15.697  34.369  0.00  0.00     0.091 H 
BRANCH  11  13
ATOM     13  C   THR d   1      17.684  16.456  34.194  0.00  0.00     0.243 C 
ATOM     14  O   THR d   1      16.910  17.408  34.231  0.00  0.00    -0.271 OA
ATOM     15  N   ARG d   1      17.326  15.246  33.778  0.00  0.00    -0.346 N 
ATOM     16  H   ARG d   1      18.028  14.540  33.682  0.00  0.00     0.163 HD
BRANCH  15  17
ATOM     17  CA  ARG d   1      15.945  14.913  33.457  0.00  0.00     0.089 C 
ATOM     18  H   ARG d   1      15.493  15.782  32.956  0.00  0.00     0.087 H 
BRANCH  17  19
ATOM     19  C   ARG d   1      15.123  14.612  34.712  0.00  0.00     0.241 C 
ATOM     20  O   ARG d   1      15.543  13.831  35.585  0.00  0.00    -0.271 OA
ATOM     21  N   LEU d   1      13.947  15.229  34.800  0.00  0.00    -0.345 N 
ATOM     22  H   LEU d   1      13.651  15.805  34.038  0.00  0.00     0.163 HD
BRANCH  21  23
ATOM     23  CA  LEU d   1      13.072  15.102  35.959  0.00  0.00     0.096 C 
ATOM     24  H   LEU d   1      13.507  14.363  36.647  0.00  0.00     0.089 H 
BRANCH  23  25
ATOM     25  C   LEU d   1      11.681  14.639  35.553  0.00  0.00     0.196 C 
ATOM     26  O   LEU d   1      11.325  14.677  34.367  0.00  0.00    -0.646 OA
ATOM     27  OXT LEU d   1      10.881  14.256  36.405  0.00  0.00    -0.646 OA
ENDBRANCH  23  25
BRANCH  23  28
ATOM     28  CB  LEU d   1      12.947  16.449  36.682  0.00  0.00    -0.034 C 
ATOM     29  H   LEU d   1      12.386  16.274  37.612  0.00  0.00     0.037 H 
ATOM     30  H   LEU d   1      12.373  17.123  36.028  0.00  0.00     0.037 H 
BRANCH  28  31
ATOM     31  CG  LEU d   1      14.243  17.167  37.057  0.00  0.00    -0.059 C 
ATOM     32  H   LEU d   1      14.891  17.194  36.168  0.00  0.00     0.038 H 
BRANCH  31  33
ATOM     33  CD1 LEU d   1      13.959  18.603  37.483  0.00  0.00    -0.073 C 
ATOM     34  H   LEU d   1      14.904  19.100  37.748  0.00  0.00     0.028 H 
ATOM     35  H   LEU d   1      13.288  18.601  38.355  0.00  0.00     0.028 H 
ATOM     36  H   LEU d   1      13.480  19.144  36.653  0.00  0.00     0.028 H 
ENDBRANCH  31  33
BRANCH  31  37
ATOM     37  CD2 LEU d   1      14.976  16.414  38.157  0.00  0.00    -0.073 C 
ATOM     38  H   LEU d   1      15.170  15.382  37.828  0.00  0.00     0.028 H 
ATOM     39  H   LEU d   1      14.357  16.399  39.066  0.00  0.00     0.028 H 
ATOM     40  H   LEU d   1      15.931  16.916  38.372  0.00  0.00     0.028 H 
ENDBRANCH  31  37
ENDBRANCH  28  31
ENDBRANCH  23  28
ENDBRANCH  21  23
ENDBRANCH  17  19
BRANCH  17  41
ATOM     41  CB  ARG d   1      15.900  13.726  32.496  0.00  0.00    -0.036 C 
ATOM     42  H   ARG d   1      16.338  12.854  33.003  0.00  0.00     0.036 H 
ATOM     43  H   ARG d   1      16.503  13.975  31.610  0.00  0.00     0.036 H 
BRANCH  41  44
ATOM     44  CG  ARG d   1      14.509  13.359  32.036  0.00  0.00    -0.048 C 
ATOM     45  H   ARG d   1      13.966  14.272  31.752  0.00  0.00     0.035 H 
ATOM     46  H   ARG d   1      13.975  12.855  32.855  0.00  0.00     0.035 H 
BRANCH  44  47
ATOM     47  CD  ARG d   1      14.589  12.428  30.839  0.00  0.00     0.009 C 
ATOM     48  H   ARG d   1      15.146  11.525  31.130  0.00  0.00     0.064 H 
ATOM     49  H   ARG d   1      15.123  12.943  30.026  0.00  0.00     0.064 H 
BRANCH  47  50
ATOM     50  NE  ARG d   1      13.272  12.029  30.355  0.00  0.00    -0.227 N 
ATOM     51  CZ  ARG d   1      13.058  11.484  29.160  0.00  0.00     0.665 C 
ATOM     52  NH1 ARG d   1      14.073  11.285  28.331  0.00  0.00    -0.235 N 
ATOM     53  NH2 ARG d   1      11.832  11.144  28.792  0.00  0.00    -0.235 N 
ATOM     54  H   ARG d   1      13.907  10.863  27.406  0.00  0.00     0.174 HD
ATOM     55  H   ARG d   1      15.027  11.552  28.612  0.00  0.00     0.174 HD
ATOM     56  H   ARG d   1      11.041  11.297  29.433  0.00  0.00     0.174 HD
ATOM     57  H   ARG d   1      11.670  10.726  27.864  0.00  0.00     0.174 HD
ATOM     58  H   ARG d   1      12.462  12.178  30.973  0.00  0.00     0.177 HD
ENDBRANCH  47  50
ENDBRANCH  44  47
ENDBRANCH  41  44
ENDBRANCH  17  41
ENDBRANCH  15  17
ENDBRANCH  11  13
BRANCH  11  59
ATOM     59  CB  THR d   1      19.181  16.798  36.149  0.00  0.00     0.060 C 
ATOM     60  H   THR d   1      18.650  17.724  36.416  0.00  0.00     0.086 H 
BRANCH  59  61
ATOM     61  OG1 THR d   1      20.548  16.906  36.565  0.00  0.00    -0.393 OA
ATOM     62  H   THR d   1      20.948  17.657  36.142  0.00  0.00     0.210 HD
ENDBRANCH  59  61
BRANCH  59  63
ATOM     63  CG2 THR d   1      18.507  15.625  36.859  0.00  0.00    -0.050 C 
ATOM     64  H   THR d   1      18.555  15.778  37.947  0.00  0.00     0.031 H 
ATOM     65  H   THR d   1      19.026  14.691  36.597  0.00  0.00     0.031 H 
ATOM     66  H   THR d   1      17.455  15.561  36.544  0.00  0.00     0.031 H 
ENDBRANCH  59  63
ENDBRANCH  11  59
ENDBRANCH   9  11
ENDBRANCH   5   7
BRANCH   5  67
ATOM     67  CB  ASP d   1      21.776  18.789  31.324  0.00  0.00     0.043 C 
ATOM     68  H   ASP d   1      22.314  17.880  31.017  0.00  0.00     0.052 H 
ATOM     69  H   ASP d   1      22.334  19.676  30.990  0.00  0.00     0.052 H 
BRANCH  67  70
ATOM     70  CG  ASP d   1      20.419  18.794  30.663  0.00  0.00     0.175 C 
ATOM     71  OD1 ASP d   1      19.939  19.892  30.313  0.00  0.00    -0.648 OA
ATOM     72  OD2 ASP d   1      19.837  17.702  30.495  0.00  0.00    -0.648 OA
ENDBRANCH  67  70
ENDBRANCH   5  67
ENDBRANCH   3   5
BRANCH   1  73
ATOM     73  CA  GLN d   1      24.909  19.963  34.474  0.00  0.00     0.090 C 
ATOM     74  H   GLN d   1      25.498  19.152  34.020  0.00  0.00     0.087 H 
BRANCH  73  75
ATOM     75  N   GLN d   1      25.608  21.209  34.306  0.00  0.00    -0.346 N 
ATOM     76  C   TRP d   1      25.988  21.622  33.116  0.00  0.00     0.241 C 
ATOM     77  O   TRP d   1      25.878  20.917  32.111  0.00  0.00    -0.271 OA
ATOM     78  H   GLN d   1      25.809  21.771  35.108  0.00  0.00     0.163 HD
BRANCH  76  79
ATOM     79  CA  TRP d   1      26.538  23.044  33.019  0.00  0.00     0.093 C 
ATOM     80  H   TRP d   1      26.869  23.350  34.023  0.00  0.00     0.088 H 
BRANCH  79  81
ATOM     81  N   TRP d   1      27.683  23.176  32.115  0.00  0.00    -0.346 N 
ATOM     82  C   ARG d   1      28.922  23.328  32.580  0.00  0.00     0.249 C 
ATOM     83  O   ARG d   1      29.198  23.247  33.777  0.00  0.00    -0.271 OA
ATOM     84  H   TRP d   1      27.531  23.151  31.127  0.00  0.00     0.163 HD
BRANCH  82  85
ATOM     85  CA  ARG d   1      30.022  23.595  31.549  0.00  0.00     0.176 C 
ATOM     86  H   ARG d   1      30.613  22.673  31.443  0.00  0.00     0.099 H 
BRANCH  85  87
ATOM     87  N   ARG d   1      29.490  23.932  30.234  0.00  0.00    -0.067 N 
ATOM     88  H   ARG d   1      30.252  24.098  29.596  0.00  0.00     0.275 HD
ATOM     89  H   ARG d   1      28.924  24.763  30.303  0.00  0.00     0.275 HD
ATOM     90  H   ARG d   1      28.927  23.169  29.894  0.00  0.00     0.275 HD
ENDBRANCH  85  87
BRANCH  85  91
ATOM     91  CB  ARG d   1      30.954  24.705  32.052  0.00  0.00    -0.029 C 
ATOM     92  H   ARG d   1      31.992  24.394  31.863  0.00  0.00     0.036 H 
ATOM     93  H   ARG d   1      30.797  24.821  33.135  0.00  0.00     0.036 H 
BRANCH  91  94
ATOM     94  CG  ARG d   1      30.736  26.063  31.391  0.00  0.00    -0.047 C 
ATOM     95  H   ARG d   1      29.660  26.294  31.401  0.00  0.00     0.035 H 
ATOM     96  H   ARG d   1      31.091  26.012  30.351  0.00  0.00     0.035 H 
BRANCH  94  97
ATOM     97  CD  ARG d   1      31.487  27.182  32.114  0.00  0.00     0.009 C 
ATOM     98  H   ARG d   1      31.645  28.014  31.412  0.00  0.00     0.064 H 
ATOM     99  H   ARG d   1      32.461  26.796  32.450  0.00  0.00     0.064 H 
BRANCH  97 100
ATOM    100  NE  ARG d   1      30.751  27.679  33.275  0.00  0.00    -0.227 N 
ATOM    101  CZ  ARG d   1      31.101  28.742  33.996  0.00  0.00     0.665 C 
ATOM    102  NH1 ARG d   1      32.188  29.440  33.688  0.00  0.00    -0.235 N 
ATOM    103  NH2 ARG d   1      30.356  29.111  35.031  0.00  0.00    -0.235 N 
ATOM    104  H   ARG d   1      32.450  30.261  34.252  0.00  0.00     0.174 HD
ATOM    105  H   ARG d   1      32.769  29.160  32.885  0.00  0.00     0.174 HD
ATOM    106  H   ARG d   1      29.512  28.574  35.275  0.00  0.00     0.174 HD
ATOM    107  H   ARG d   1      30.622  29.934  35.590  0.00  0.00     0.174 HD
ATOM    108  H   ARG d   1      29.901  27.170  33.555  0.00  0.00     0.177 HD
ENDBRANCH  97 100
ENDBRANCH  94  97
ENDBRANCH  91  94
ENDBRANCH  85  91
ENDBRANCH  82  85
ENDBRANCH  79  81
BRANCH  79 109
ATOM    109  CB  TRP d   1      25.403  23.967  32.573  0.00  0.00    -0.012 C 
ATOM    110  H   TRP d   1      24.579  23.870  33.295  0.00  0.00     0.044 H 
ATOM    111  H   TRP d   1      25.062  23.636  31.581  0.00  0.00     0.044 H 
BRANCH 109 112
ATOM    112  CG  TRP d   1      25.771  25.408  32.480  0.00  0.00    -0.028 A 
ATOM    113  CD1 TRP d   1      26.981  25.971  32.768  0.00  0.00    -0.015 A 
ATOM    114  NE1 TRP d   1      26.930  27.329  32.563  0.00  0.00    -0.365 N 
ATOM    115  H   TRP d   1      27.858  25.424  33.110  0.00  0.00     0.112 H 
ATOM    116  CE2 TRP d   1      25.673  27.665  32.131  0.00  0.00     0.042 A 
ATOM    117  H   TRP d   1      27.709  27.987  32.710  0.00  0.00     0.165 HD
ATOM    118  CD2 TRP d   1      24.915  26.479  32.072  0.00  0.00    -0.002 A 
ATOM    119  CZ2 TRP d   1      25.142  28.905  31.797  0.00  0.00    -0.056 A 
ATOM    120  CE3 TRP d   1      23.582  26.549  31.657  0.00  0.00    -0.070 A 
ATOM    121  CZ3 TRP d   1      23.056  27.783  31.318  0.00  0.00    -0.082 A 
ATOM    122  H   TRP d   1      22.973  25.654  31.602  0.00  0.00     0.084 H 
ATOM    123  CH2 TRP d   1      23.834  28.945  31.393  0.00  0.00    -0.081 A 
ATOM    124  H   TRP d   1      22.025  27.851  30.989  0.00  0.00     0.083 H 
ATOM    125  H   TRP d   1      23.391  29.898  31.125  0.00  0.00     0.083 H 
ATOM    126  H   TRP d   1      25.741  29.807  31.854  0.00  0.00     0.086 H 
ENDBRANCH 109 112
ENDBRANCH  79 109
ENDBRANCH  76  79
ENDBRANCH  73  75
BRANCH  73 127
ATOM    127  CB  GLN d   1      24.727  19.683  35.969  0.00  0.00    -0.030 C 
ATOM    128  H   GLN d   1      24.378  18.648  36.097  0.00  0.00     0.037 H 
ATOM    129  H   GLN d   1      23.973  20.376  36.371  0.00  0.00     0.037 H 
BRANCH 127 130
ATOM    130  CG  GLN d   1      26.011  19.862  36.736  0.00  0.00     0.011 C 
ATOM    131  H   GLN d   1      26.550  20.717  36.302  0.00  0.00     0.047 H 
ATOM    132  H   GLN d   1      26.611  18.949  36.613  0.00  0.00     0.047 H 
BRANCH 130 133
ATOM    133  CD  GLN d   1      25.846  20.115  38.209  0.00  0.00     0.215 C 
ATOM    134  OE1 GLN d   1      25.518  19.224  38.988  0.00  0.00    -0.274 OA
ATOM    135  NE2 GLN d   1      26.107  21.322  38.596  0.00  0.00    -0.370 N 
ATOM    136  H   GLN d   1      26.020  21.567  39.562  0.00  0.00     0.159 HD
ATOM    137  H   GLN d   1      26.396  22.009  37.929  0.00  0.00     0.159 HD
ENDBRANCH 130 133
ENDBRANCH 127 130
ENDBRANCH  73 127
ENDBRANCH   1  73
TORSDOF 36
