REMARK WARNING: 32 MAX_TORS EXCEEDED!!!
REMARK  37 active torsions:
REMARK  status: ('A' for Active; 'I' for Inactive)
REMARK    1  A    between atoms: N_1  and  CA_2 
REMARK    2  A    between atoms: CA_2  and  C_3 
REMARK    3  A    between atoms: CA_2  and  CB_5 
REMARK       I    between atoms: C_3  and  N_7 
REMARK    4  A    between atoms: CB_5  and  OG_6 
REMARK    5  A    between atoms: N_7  and  CA_8 
REMARK    6  A    between atoms: CA_8  and  C_9 
REMARK    7  A    between atoms: CA_8  and  CB_11 
REMARK       I    between atoms: C_9  and  N_18 
REMARK    8  A    between atoms: CB_11  and  CG_12 
REMARK    9  A    between atoms: CG_12  and  CD_13 
REMARK   10  A    between atoms: CD_13  and  NE_14 
REMARK       I    between atoms: NE_14  and  CZ_15 
REMARK       I    between atoms: CZ_15  and  NH1_16 
REMARK       I    between atoms: CZ_15  and  NH2_17 
REMARK   11  A    between atoms: N_18  and  CA_19 
REMARK   12  A    between atoms: CA_19  and  C_20 
REMARK   13  A    between atoms: CA_19  and  CB_22 
REMARK       I    between atoms: C_20  and  N_32 
REMARK   14  A    between atoms: CB_22  and  CG_23 
REMARK   15  A    between atoms: CA_33  and  C_34 
REMARK       I    between atoms: C_34  and  N_39 
REMARK   16  A    between atoms: N_39  and  CA_40 
REMARK   17  A    between atoms: CA_40  and  C_41 
REMARK   18  A    between atoms: CA_40  and  CB_43 
REMARK       I    between atoms: C_41  and  N_46 
REMARK   19  A    between atoms: CB_43  and  OG1_44 
REMARK   20  A    between atoms: CB_43  and  CG2_45 
REMARK   21  A    between atoms: N_46  and  CA_47 
REMARK   22  A    between atoms: CA_47  and  C_48 
REMARK   23  A    between atoms: CA_47  and  CB_50 
REMARK       I    between atoms: C_48  and  N_53 
REMARK   24  A    between atoms: CB_50  and  OG1_51 
REMARK   25  A    between atoms: CB_50  and  CG2_52 
REMARK   26  A    between atoms: N_53  and  CA_54 
REMARK   27  A    between atoms: CA_54  and  C_55 
REMARK   28  A    between atoms: CA_54  and  CB_57 
REMARK       I    between atoms: C_55  and  N_64 
REMARK   29  A    between atoms: CB_57  and  CG_58 
REMARK   30  A    between atoms: CG_58  and  CD_59 
REMARK   31  A    between atoms: CD_59  and  NE_60 
REMARK       I    between atoms: NE_60  and  CZ_61 
REMARK       I    between atoms: CZ_61  and  NH1_62 
REMARK   32  A    between atoms: N_64  and  CA_65 
REMARK   33  A    between atoms: CA_65  and  C_66 
REMARK   34  A    between atoms: CA_65  and  CB_68 
REMARK   35  A    between atoms: CB_68  and  CG_69 
REMARK   36  A    between atoms: CG_69  and  CD1_70 
REMARK   37  A    between atoms: CG_69  and  CD2_71 
ROOT
ATOM      1  C   PRO d   1      30.617   7.827  32.758  0.00  0.00     0.241 C 
ATOM      2  O   PRO d   1      31.347   8.392  31.937  0.00  0.00    -0.271 OA
ATOM      3  N   THR d   1      29.407   7.366  32.461  0.00  0.00    -0.344 N 
ATOM      4  H   THR d   1      28.858   6.924  33.171  0.00  0.00     0.163 HD
ENDROOT
BRANCH   1   5
ATOM      5  CA  PRO d   1      31.107   7.621  34.194  0.00  0.00     0.091 C 
ATOM      6  N   PRO d   1      32.556   7.387  34.248  0.00  0.00    -0.337 N 
ATOM      7  C   TRP d   1      33.105   6.346  33.602  0.00  0.00     0.243 C 
ATOM      8  CD  PRO d   1      33.245   8.383  35.087  0.00  0.00    -0.001 C 
ATOM      9  O   TRP d   1      32.439   5.548  32.952  0.00  0.00    -0.271 OA
ATOM     10  CG  PRO d   1      32.131   8.976  35.898  0.00  0.00    -0.048 C 
ATOM     11  H   PRO d   1      33.734   9.150  34.468  0.00  0.00     0.064 H 
ATOM     12  H   PRO d   1      33.993   7.903  35.735  0.00  0.00     0.064 H 
ATOM     13  CB  PRO d   1      30.930   8.919  34.990  0.00  0.00    -0.036 C 
ATOM     14  H   PRO d   1      31.957   8.386  36.810  0.00  0.00     0.035 H 
ATOM     15  H   PRO d   1      32.361  10.016  36.173  0.00  0.00     0.035 H 
ATOM     16  H   PRO d   1      30.000   8.890  35.577  0.00  0.00     0.036 H 
ATOM     17  H   PRO d   1      30.911   9.788  34.316  0.00  0.00     0.036 H 
ATOM     18  H   PRO d   1      30.557   6.788  34.657  0.00  0.00     0.087 H 
BRANCH   7  19
ATOM     19  CA  TRP d   1      34.619   6.168  33.707  0.00  0.00     0.093 C 
ATOM     20  H   TRP d   1      34.905   6.148  34.769  0.00  0.00     0.088 H 
BRANCH  19  21
ATOM     21  N   TRP d   1      35.014   4.908  33.083  0.00  0.00    -0.346 N 
ATOM     22  C   ARG d   1      35.655   3.954  33.754  0.00  0.00     0.241 C 
ATOM     23  O   ARG d   1      35.921   4.042  34.956  0.00  0.00    -0.271 OA
ATOM     24  H   TRP d   1      34.795   4.757  32.119  0.00  0.00     0.163 HD
BRANCH  22  25
ATOM     25  CA  ARG d   1      36.035   2.703  32.959  0.00  0.00     0.089 C 
ATOM     26  H   ARG d   1      36.082   1.860  33.664  0.00  0.00     0.087 H 
BRANCH  25  27
ATOM     27  N   ARG d   1      35.042   2.374  31.938  0.00  0.00    -0.346 N 
ATOM     28  C   SER d   1      33.837   1.903  32.250  0.00  0.00     0.251 C 
ATOM     29  O   SER d   1      33.439   1.780  33.412  0.00  0.00    -0.271 OA
ATOM     30  H   ARG d   1      35.276   2.507  30.975  0.00  0.00     0.163 HD
BRANCH  28  31
ATOM     31  CA  SER d   1      32.938   1.533  31.071  0.00  0.00     0.195 C 
ATOM     32  H   SER d   1      32.656   2.463  30.555  0.00  0.00     0.102 H 
BRANCH  31  33
ATOM     33  N   SER d   1      33.639   0.683  30.115  0.00  0.00    -0.064 N 
ATOM     34  H   SER d   1      33.022   0.457  29.351  0.00  0.00     0.275 HD
ATOM     35  H   SER d   1      33.933  -0.166  30.572  0.00  0.00     0.275 HD
ATOM     36  H   SER d   1      34.447   1.171  29.761  0.00  0.00     0.275 HD
ENDBRANCH  31  33
BRANCH  31  37
ATOM     37  CB  SER d   1      31.655   0.852  31.558  0.00  0.00     0.051 C 
ATOM     38  H   SER d   1      30.985   0.700  30.699  0.00  0.00     0.077 H 
ATOM     39  H   SER d   1      31.164   1.504  32.296  0.00  0.00     0.077 H 
BRANCH  37  40
ATOM     40  OG  SER d   1      31.921  -0.406  32.161  0.00  0.00    -0.398 OA
ATOM     41  H   SER d   1      32.495  -0.283  32.907  0.00  0.00     0.209 HD
ENDBRANCH  37  40
ENDBRANCH  31  37
ENDBRANCH  28  31
ENDBRANCH  25  27
BRANCH  25  42
ATOM     42  CB  ARG d   1      37.422   2.872  32.326  0.00  0.00    -0.036 C 
ATOM     43  H   ARG d   1      38.103   3.270  33.092  0.00  0.00     0.036 H 
ATOM     44  H   ARG d   1      37.337   3.594  31.500  0.00  0.00     0.036 H 
BRANCH  42  45
ATOM     45  CG  ARG d   1      38.027   1.582  31.773  0.00  0.00    -0.048 C 
ATOM     46  H   ARG d   1      37.244   1.020  31.243  0.00  0.00     0.035 H 
ATOM     47  H   ARG d   1      38.407   0.980  32.611  0.00  0.00     0.035 H 
BRANCH  45  48
ATOM     48  CD  ARG d   1      39.175   1.861  30.805  0.00  0.00     0.009 C 
ATOM     49  H   ARG d   1      38.830   2.586  30.053  0.00  0.00     0.064 H 
ATOM     50  H   ARG d   1      39.450   0.919  30.308  0.00  0.00     0.064 H 
BRANCH  48  51
ATOM     51  NE  ARG d   1      40.363   2.404  31.463  0.00  0.00    -0.227 N 
ATOM     52  CZ  ARG d   1      41.475   2.748  30.818  0.00  0.00     0.665 C 
ATOM     53  NH1 ARG d   1      41.552   2.607  29.504  0.00  0.00    -0.235 N 
ATOM     54  NH2 ARG d   1      42.511   3.237  31.483  0.00  0.00    -0.235 N 
ATOM     55  H   ARG d   1      42.414   2.874  29.007  0.00  0.00     0.174 HD
ATOM     56  H   ARG d   1      40.750   2.230  28.979  0.00  0.00     0.174 HD
ATOM     57  H   ARG d   1      42.460   3.350  32.505  0.00  0.00     0.174 HD
ATOM     58  H   ARG d   1      43.368   3.504  30.978  0.00  0.00     0.174 HD
ATOM     59  H   ARG d   1      40.337   2.527  32.485  0.00  0.00     0.177 HD
ENDBRANCH  48  51
ENDBRANCH  45  48
ENDBRANCH  42  45
ENDBRANCH  25  42
ENDBRANCH  22  25
ENDBRANCH  19  21
BRANCH  19  60
ATOM     60  CB  TRP d   1      35.332   7.335  33.021  0.00  0.00    -0.012 C 
ATOM     61  H   TRP d   1      35.174   8.243  33.622  0.00  0.00     0.044 H 
ATOM     62  H   TRP d   1      34.892   7.475  32.023  0.00  0.00     0.044 H 
BRANCH  60  63
ATOM     63  CG  TRP d   1      36.795   7.121  32.866  0.00  0.00    -0.028 A 
ATOM     64  CD1 TRP d   1      37.765   7.303  33.812  0.00  0.00    -0.015 A 
ATOM     65  NE1 TRP d   1      39.003   7.006  33.282  0.00  0.00    -0.365 N 
ATOM     66  H   TRP d   1      37.586   7.634  34.834  0.00  0.00     0.112 H 
ATOM     67  CE2 TRP d   1      38.843   6.621  31.975  0.00  0.00     0.042 A 
ATOM     68  H   TRP d   1      39.900   7.064  33.785  0.00  0.00     0.165 HD
ATOM     69  CD2 TRP d   1      37.465   6.692  31.681  0.00  0.00    -0.002 A 
ATOM     70  CZ2 TRP d   1      39.792   6.225  31.027  0.00  0.00    -0.056 A 
ATOM     71  CE3 TRP d   1      37.030   6.347  30.397  0.00  0.00    -0.070 A 
ATOM     72  CZ3 TRP d   1      37.970   5.950  29.459  0.00  0.00    -0.082 A 
ATOM     73  H   TRP d   1      35.978   6.389  30.140  0.00  0.00     0.084 H 
ATOM     74  CH2 TRP d   1      39.335   5.896  29.778  0.00  0.00    -0.081 A 
ATOM     75  H   TRP d   1      37.645   5.676  28.462  0.00  0.00     0.083 H 
ATOM     76  H   TRP d   1      40.044   5.587  29.019  0.00  0.00     0.083 H 
ATOM     77  H   TRP d   1      40.847   6.180  31.271  0.00  0.00     0.086 H 
ENDBRANCH  60  63
ENDBRANCH  19  60
ENDBRANCH   7  19
ENDBRANCH   1   5
BRANCH   3  78
ATOM     78  CA  THR d   1      28.871   7.497  31.115  0.00  0.00     0.113 C 
ATOM     79  H   THR d   1      29.588   8.088  30.526  0.00  0.00     0.091 H 
BRANCH  78  80
ATOM     80  C   THR d   1      27.546   8.241  31.132  0.00  0.00     0.243 C 
ATOM     81  O   THR d   1      26.795   8.188  32.108  0.00  0.00    -0.271 OA
ATOM     82  N   THR d   1      27.269   8.949  30.046  0.00  0.00    -0.344 N 
ATOM     83  H   THR d   1      27.927   8.967  29.293  0.00  0.00     0.163 HD
BRANCH  82  84
ATOM     84  CA  THR d   1      26.037   9.696  29.925  0.00  0.00     0.113 C 
ATOM     85  H   THR d   1      25.353   9.389  30.730  0.00  0.00     0.091 H 
BRANCH  84  86
ATOM     86  C   THR d   1      25.408   9.383  28.579  0.00  0.00     0.243 C 
ATOM     87  O   THR d   1      26.073   9.432  27.537  0.00  0.00    -0.271 OA
ATOM     88  N   ARG d   1      24.125   9.050  28.597  0.00  0.00    -0.346 N 
ATOM     89  H   ARG d   1      23.648   8.955  29.471  0.00  0.00     0.163 HD
BRANCH  88  90
ATOM     90  CA  ARG d   1      23.406   8.822  27.351  0.00  0.00     0.089 C 
ATOM     91  H   ARG d   1      24.114   8.420  26.611  0.00  0.00     0.087 H 
BRANCH  90  92
ATOM     92  C   ARG d   1      22.847  10.140  26.809  0.00  0.00     0.241 C 
ATOM     93  O   ARG d   1      22.244  10.926  27.546  0.00  0.00    -0.271 OA
ATOM     94  N   LEU d   1      23.066  10.385  25.522  0.00  0.00    -0.345 N 
ATOM     95  H   LEU d   1      23.511   9.682  24.967  0.00  0.00     0.163 HD
BRANCH  94  96
ATOM     96  CA  LEU d   1      22.682  11.640  24.889  0.00  0.00     0.096 C 
ATOM     97  H   LEU d   1      22.132  12.256  25.616  0.00  0.00     0.089 H 
BRANCH  96  98
ATOM     98  C   LEU d   1      21.812  11.385  23.678  0.00  0.00     0.196 C 
ATOM     99  O   LEU d   1      21.793  10.278  23.138  0.00  0.00    -0.646 OA
ATOM    100  OXT LEU d   1      21.137  12.298  23.207  0.00  0.00    -0.646 OA
ENDBRANCH  96  98
BRANCH  96 101
ATOM    101  CB  LEU d   1      23.919  12.389  24.413  0.00  0.00    -0.034 C 
ATOM    102  H   LEU d   1      23.570  13.291  23.888  0.00  0.00     0.037 H 
ATOM    103  H   LEU d   1      24.443  11.732  23.704  0.00  0.00     0.037 H 
BRANCH 101 104
ATOM    104  CG  LEU d   1      24.941  12.839  25.446  0.00  0.00    -0.059 C 
ATOM    105  H   LEU d   1      25.229  11.980  26.070  0.00  0.00     0.038 H 
BRANCH 104 106
ATOM    106  CD1 LEU d   1      26.163  13.353  24.716  0.00  0.00    -0.073 C 
ATOM    107  H   LEU d   1      26.915  13.684  25.448  0.00  0.00     0.028 H 
ATOM    108  H   LEU d   1      25.878  14.200  24.075  0.00  0.00     0.028 H 
ATOM    109  H   LEU d   1      26.584  12.549  24.095  0.00  0.00     0.028 H 
ENDBRANCH 104 106
BRANCH 104 110
ATOM    110  CD2 LEU d   1      24.351  13.912  26.338  0.00  0.00    -0.073 C 
ATOM    111  H   LEU d   1      23.466  13.513  26.856  0.00  0.00     0.028 H 
ATOM    112  H   LEU d   1      24.058  14.778  25.726  0.00  0.00     0.028 H 
ATOM    113  H   LEU d   1      25.100  14.225  27.080  0.00  0.00     0.028 H 
ENDBRANCH 104 110
ENDBRANCH 101 104
ENDBRANCH  96 101
ENDBRANCH  94  96
ENDBRANCH  90  92
BRANCH  90 114
ATOM    114  CB  ARG d   1      22.295   7.790  27.557  0.00  0.00    -0.036 C 
ATOM    115  H   ARG d   1      21.552   8.213  28.248  0.00  0.00     0.036 H 
ATOM    116  H   ARG d   1      22.738   6.887  28.002  0.00  0.00     0.036 H 
BRANCH 114 117
ATOM    117  CG  ARG d   1      21.588   7.395  26.278  0.00  0.00    -0.048 C 
ATOM    118  H   ARG d   1      22.336   7.237  25.487  0.00  0.00     0.035 H 
ATOM    119  H   ARG d   1      20.905   8.204  25.980  0.00  0.00     0.035 H 
BRANCH 117 120
ATOM    120  CD  ARG d   1      20.791   6.117  26.471  0.00  0.00     0.009 C 
ATOM    121  H   ARG d   1      20.050   6.277  27.268  0.00  0.00     0.064 H 
ATOM    122  H   ARG d   1      21.478   5.310  26.765  0.00  0.00     0.064 H 
BRANCH 120 123
ATOM    123  NE  ARG d   1      20.095   5.723  25.250  0.00  0.00    -0.227 N 
ATOM    124  CZ  ARG d   1      19.479   4.558  25.090  0.00  0.00     0.665 C 
ATOM    125  NH1 ARG d   1      19.478   3.670  26.074  0.00  0.00    -0.235 N 
ATOM    126  NH2 ARG d   1      18.868   4.279  23.946  0.00  0.00    -0.235 N 
ATOM    127  H   ARG d   1      19.000   2.766  25.951  0.00  0.00     0.174 HD
ATOM    128  H   ARG d   1      19.955   3.884  26.962  0.00  0.00     0.174 HD
ATOM    129  H   ARG d   1      18.868   4.968  23.181  0.00  0.00     0.174 HD
ATOM    130  H   ARG d   1      18.393   3.373  23.823  0.00  0.00     0.174 HD
ATOM    131  H   ARG d   1      20.081   6.389  24.465  0.00  0.00     0.177 HD
ENDBRANCH 120 123
ENDBRANCH 117 120
ENDBRANCH 114 117
ENDBRANCH  90 114
ENDBRANCH  88  90
ENDBRANCH  84  86
BRANCH  84 132
ATOM    132  CB  THR d   1      26.279  11.208  30.028  0.00  0.00     0.060 C 
ATOM    133  H   THR d   1      26.979  11.515  29.237  0.00  0.00     0.086 H 
BRANCH 132 134
ATOM    134  OG1 THR d   1      26.847  11.520  31.308  0.00  0.00    -0.393 OA
ATOM    135  H   THR d   1      27.673  11.061  31.407  0.00  0.00     0.210 HD
ENDBRANCH 132 134
BRANCH 132 136
ATOM    136  CG2 THR d   1      24.975  11.961  29.857  0.00  0.00    -0.050 C 
ATOM    137  H   THR d   1      25.163  13.042  29.933  0.00  0.00     0.031 H 
ATOM    138  H   THR d   1      24.269  11.655  30.643  0.00  0.00     0.031 H 
ATOM    139  H   THR d   1      24.546  11.732  28.870  0.00  0.00     0.031 H 
ENDBRANCH 132 136
ENDBRANCH  84 132
ENDBRANCH  82  84
ENDBRANCH  78  80
BRANCH  78 140
ATOM    140  CB  THR d   1      28.700   6.125  30.418  0.00  0.00     0.060 C 
ATOM    141  H   THR d   1      28.562   6.288  29.339  0.00  0.00     0.086 H 
BRANCH 140 142
ATOM    142  OG1 THR d   1      27.552   5.453  30.942  0.00  0.00    -0.393 OA
ATOM    143  H   THR d   1      26.779   5.982  30.787  0.00  0.00     0.210 HD
ENDBRANCH 140 142
BRANCH 140 144
ATOM    144  CG2 THR d   1      29.930   5.256  30.635  0.00  0.00    -0.050 C 
ATOM    145  H   THR d   1      29.788   4.288  30.133  0.00  0.00     0.031 H 
ATOM    146  H   THR d   1      30.078   5.092  31.713  0.00  0.00     0.031 H 
ATOM    147  H   THR d   1      30.814   5.760  30.216  0.00  0.00     0.031 H 
ENDBRANCH 140 144
ENDBRANCH  78 140
ENDBRANCH   3  78
TORSDOF 37
