REMARK WARNING: 32 MAX_TORS EXCEEDED!!!
REMARK  47 active torsions:
REMARK  status: ('A' for Active; 'I' for Inactive)
REMARK    1  A    between atoms: N_1  and  CA_2 
REMARK    2  A    between atoms: CA_2  and  C_3 
REMARK    3  A    between atoms: CA_2  and  CB_5 
REMARK       I    between atoms: C_3  and  N_6 
REMARK    4  A    between atoms: N_6  and  CA_7 
REMARK    5  A    between atoms: CA_7  and  C_8 
REMARK    6  A    between atoms: CA_7  and  CB_10 
REMARK       I    between atoms: C_8  and  N_14 
REMARK    7  A    between atoms: CB_10  and  CG_11 
REMARK       I    between atoms: CG_11  and  ND2_13 
REMARK    8  A    between atoms: N_14  and  CA_15 
REMARK    9  A    between atoms: CA_15  and  C_16 
REMARK   10  A    between atoms: CA_15  and  CB_18 
REMARK       I    between atoms: C_16  and  N_20 
REMARK   11  A    between atoms: CB_18  and  OG_19 
REMARK   12  A    between atoms: N_20  and  CA_21 
REMARK   13  A    between atoms: CA_21  and  C_22 
REMARK   14  A    between atoms: CA_21  and  CB_24 
REMARK       I    between atoms: C_22  and  N_31 
REMARK   15  A    between atoms: CB_24  and  CG_25 
REMARK   16  A    between atoms: CG_25  and  CD_26 
REMARK   17  A    between atoms: CD_26  and  NE_27 
REMARK       I    between atoms: NE_27  and  CZ_28 
REMARK       I    between atoms: CZ_28  and  NH1_29 
REMARK       I    between atoms: CZ_28  and  NH2_30 
REMARK   18  A    between atoms: N_31  and  CA_32 
REMARK   19  A    between atoms: CA_32  and  C_33 
REMARK   20  A    between atoms: CA_32  and  CB_35 
REMARK       I    between atoms: C_33  and  N_45 
REMARK   21  A    between atoms: CB_35  and  CG_36 
REMARK   22  A    between atoms: N_45  and  CA_46 
REMARK   23  A    between atoms: CA_46  and  C_47 
REMARK   24  A    between atoms: CA_46  and  CB_49 
REMARK       I    between atoms: C_47  and  N_54 
REMARK   25  A    between atoms: CB_49  and  CG_50 
REMARK   26  A    between atoms: CG_50  and  CD_51 
REMARK       I    between atoms: CD_51  and  NE2_53 
REMARK   27  A    between atoms: N_54  and  CA_55 
REMARK   28  A    between atoms: CA_55  and  C_56 
REMARK   29  A    between atoms: CA_55  and  CB_58 
REMARK       I    between atoms: C_56  and  N_62 
REMARK   30  A    between atoms: CB_58  and  CG_59 
REMARK   31  A    between atoms: N_62  and  CA_63 
REMARK   32  A    between atoms: CA_63  and  C_64 
REMARK   33  A    between atoms: CA_63  and  CB_66 
REMARK       I    between atoms: C_64  and  N_69 
REMARK   34  A    between atoms: CB_66  and  OG1_67 
REMARK   35  A    between atoms: CB_66  and  CG2_68 
REMARK   36  A    between atoms: N_69  and  CA_70 
REMARK   37  A    between atoms: CA_70  and  C_71 
REMARK   38  A    between atoms: CA_70  and  CB_73 
REMARK       I    between atoms: C_71  and  N_80 
REMARK   39  A    between atoms: CB_73  and  CG_74 
REMARK   40  A    between atoms: CG_74  and  CD_75 
REMARK   41  A    between atoms: CD_75  and  NE_76 
REMARK       I    between atoms: NE_76  and  CZ_77 
REMARK       I    between atoms: CZ_77  and  NH1_78 
REMARK   42  A    between atoms: N_80  and  CA_81 
REMARK   43  A    between atoms: CA_81  and  C_82 
REMARK   44  A    between atoms: CA_81  and  CB_84 
REMARK   45  A    between atoms: CB_84  and  CG_85 
REMARK   46  A    between atoms: CG_85  and  CD1_86 
REMARK   47  A    between atoms: CG_85  and  CD2_87 
ROOT
ATOM      1  C   TRP d   1      25.909  21.425  33.051  0.00  0.00     0.241 C 
ATOM      2  O   TRP d   1      25.691  20.835  31.991  0.00  0.00    -0.271 OA
ATOM      3  N   GLN d   1      25.568  20.946  34.242  0.00  0.00    -0.346 N 
ATOM      4  H   GLN d   1      25.850  21.445  35.062  0.00  0.00     0.163 HD
ENDROOT
BRANCH   3   5
ATOM      5  CA  GLN d   1      24.800  19.723  34.395  0.00  0.00     0.090 C 
ATOM      6  H   GLN d   1      25.368  18.876  33.983  0.00  0.00     0.087 H 
BRANCH   5   7
ATOM      7  C   GLN d   1      23.476  19.867  33.642  0.00  0.00     0.241 C 
ATOM      8  O   GLN d   1      22.956  20.974  33.517  0.00  0.00    -0.271 OA
ATOM      9  N   ASP d   1      22.938  18.762  33.136  0.00  0.00    -0.346 N 
ATOM     10  H   ASP d   1      23.456  17.907  33.154  0.00  0.00     0.163 HD
BRANCH   9  11
ATOM     11  CA  ASP d   1      21.607  18.783  32.557  0.00  0.00     0.098 C 
ATOM     12  H   ASP d   1      21.068  19.681  32.892  0.00  0.00     0.088 H 
BRANCH  11  13
ATOM     13  C   ASP d   1      20.882  17.541  33.048  0.00  0.00     0.241 C 
ATOM     14  O   ASP d   1      21.340  16.422  32.818  0.00  0.00    -0.271 OA
ATOM     15  N   THR d   1      19.768  17.729  33.750  0.00  0.00    -0.344 N 
ATOM     16  H   THR d   1      19.370  18.645  33.811  0.00  0.00     0.163 HD
BRANCH  15  17
ATOM     17  CA  THR d   1      19.119  16.614  34.433  0.00  0.00     0.113 C 
ATOM     18  H   THR d   1      19.643  15.688  34.154  0.00  0.00     0.091 H 
BRANCH  17  19
ATOM     19  C   THR d   1      17.671  16.490  34.018  0.00  0.00     0.243 C 
ATOM     20  O   THR d   1      16.933  17.468  34.045  0.00  0.00    -0.271 OA
ATOM     21  N   ARG d   1      17.279  15.289  33.607  0.00  0.00    -0.346 N 
ATOM     22  H   ARG d   1      17.957  14.560  33.516  0.00  0.00     0.163 HD
BRANCH  21  23
ATOM     23  CA  ARG d   1      15.891  15.007  33.286  0.00  0.00     0.089 C 
ATOM     24  H   ARG d   1      15.457  15.901  32.815  0.00  0.00     0.087 H 
BRANCH  23  25
ATOM     25  C   ARG d   1      15.086  14.689  34.543  0.00  0.00     0.241 C 
ATOM     26  O   ARG d   1      15.529  13.913  35.403  0.00  0.00    -0.271 OA
ATOM     27  N   LEU d   1      13.904  15.290  34.649  0.00  0.00    -0.345 N 
ATOM     28  H   LEU d   1      13.591  15.875  33.901  0.00  0.00     0.163 HD
BRANCH  27  29
ATOM     29  CA  LEU d   1      13.047  15.125  35.822  0.00  0.00     0.096 C 
ATOM     30  H   LEU d   1      13.511  14.383  36.488  0.00  0.00     0.089 H 
BRANCH  29  31
ATOM     31  C   LEU d   1      11.661  14.638  35.439  0.00  0.00     0.196 C 
ATOM     32  O   LEU d   1      11.282  14.641  34.258  0.00  0.00    -0.646 OA
ATOM     33  OXT LEU d   1      10.894  14.252  36.335  0.00  0.00    -0.646 OA
ENDBRANCH  29  31
BRANCH  29  34
ATOM     34  CB  LEU d   1      12.907  16.453  36.577  0.00  0.00    -0.034 C 
ATOM     35  H   LEU d   1      12.378  16.246  37.519  0.00  0.00     0.037 H 
ATOM     36  H   LEU d   1      12.299  17.127  35.956  0.00  0.00     0.037 H 
BRANCH  34  37
ATOM     37  CG  LEU d   1      14.200  17.186  36.924  0.00  0.00    -0.059 C 
ATOM     38  H   LEU d   1      14.847  17.188  36.034  0.00  0.00     0.038 H 
BRANCH  37  39
ATOM     39  CD1 LEU d   1      13.926  18.640  37.314  0.00  0.00    -0.073 C 
ATOM     40  H   LEU d   1      14.875  19.139  37.558  0.00  0.00     0.028 H 
ATOM     41  H   LEU d   1      13.263  18.666  38.191  0.00  0.00     0.028 H 
ATOM     42  H   LEU d   1      13.443  19.160  36.474  0.00  0.00     0.028 H 
ENDBRANCH  37  39
BRANCH  37  43
ATOM     43  CD2 LEU d   1      14.916  16.449  38.030  0.00  0.00    -0.073 C 
ATOM     44  H   LEU d   1      15.098  15.409  37.720  0.00  0.00     0.028 H 
ATOM     45  H   LEU d   1      14.295  16.457  38.938  0.00  0.00     0.028 H 
ATOM     46  H   LEU d   1      15.877  16.943  38.238  0.00  0.00     0.028 H 
ENDBRANCH  37  43
ENDBRANCH  34  37
ENDBRANCH  29  34
ENDBRANCH  27  29
ENDBRANCH  23  25
BRANCH  23  47
ATOM     47  CB  ARG d   1      15.805  13.845  32.295  0.00  0.00    -0.036 C 
ATOM     48  H   ARG d   1      16.225  12.950  32.776  0.00  0.00     0.036 H 
ATOM     49  H   ARG d   1      16.406  14.101  31.410  0.00  0.00     0.036 H 
BRANCH  47  50
ATOM     50  CG  ARG d   1      14.413  13.525  31.841  0.00  0.00    -0.048 C 
ATOM     51  H   ARG d   1      13.901  14.453  31.546  0.00  0.00     0.035 H 
ATOM     52  H   ARG d   1      13.860  13.046  32.663  0.00  0.00     0.035 H 
BRANCH  50  53
ATOM     53  CD  ARG d   1      14.474  12.585  30.660  0.00  0.00     0.009 C 
ATOM     54  H   ARG d   1      15.050  11.694  30.950  0.00  0.00     0.064 H 
ATOM     55  H   ARG d   1      14.983  13.097  29.830  0.00  0.00     0.064 H 
BRANCH  53  56
ATOM     56  NE  ARG d   1      13.155  12.160  30.207  0.00  0.00    -0.227 N 
ATOM     57  CZ  ARG d   1      12.914  11.629  29.012  0.00  0.00     0.665 C 
ATOM     58  NH1 ARG d   1      13.901  11.469  28.148  0.00  0.00    -0.235 N 
ATOM     59  NH2 ARG d   1      11.687  11.263  28.679  0.00  0.00    -0.235 N 
ATOM     60  H   ARG d   1      13.714  11.058  27.223  0.00  0.00     0.174 HD
ATOM     61  H   ARG d   1      14.858  11.756  28.400  0.00  0.00     0.174 HD
ATOM     62  H   ARG d   1      10.914  11.385  29.348  0.00  0.00     0.174 HD
ATOM     63  H   ARG d   1      11.505  10.856  27.750  0.00  0.00     0.174 HD
ATOM     64  H   ARG d   1      12.361  12.278  30.852  0.00  0.00     0.177 HD
ENDBRANCH  53  56
ENDBRANCH  50  53
ENDBRANCH  47  50
ENDBRANCH  23  47
ENDBRANCH  21  23
ENDBRANCH  17  19
BRANCH  17  65
ATOM     65  CB  THR d   1      19.201  16.781  35.961  0.00  0.00     0.060 C 
ATOM     66  H   THR d   1      18.684  17.709  36.245  0.00  0.00     0.086 H 
BRANCH  65  67
ATOM     67  OG1 THR d   1      20.574  16.868  36.355  0.00  0.00    -0.393 OA
ATOM     68  H   THR d   1      20.977  17.616  35.931  0.00  0.00     0.210 HD
ENDBRANCH  65  67
BRANCH  65  69
ATOM     69  CG2 THR d   1      18.539  15.609  36.680  0.00  0.00    -0.050 C 
ATOM     70  H   THR d   1      18.613  15.757  37.767  0.00  0.00     0.031 H 
ATOM     71  H   THR d   1      19.047  14.674  36.401  0.00  0.00     0.031 H 
ATOM     72  H   THR d   1      17.480  15.552  36.389  0.00  0.00     0.031 H 
ENDBRANCH  65  69
ENDBRANCH  17  65
ENDBRANCH  15  17
ENDBRANCH  11  13
BRANCH  11  73
ATOM     73  CB  ASP d   1      21.704  18.800  31.038  0.00  0.00     0.043 C 
ATOM     74  H   ASP d   1      22.204  17.878  30.706  0.00  0.00     0.052 H 
ATOM     75  H   ASP d   1      22.301  19.672  30.732  0.00  0.00     0.052 H 
BRANCH  73  76
ATOM     76  CG  ASP d   1      20.355  18.882  30.377  0.00  0.00     0.175 C 
ATOM     77  OD1 ASP d   1      19.786  19.991  30.350  0.00  0.00    -0.648 OA
ATOM     78  OD2 ASP d   1      19.870  17.840  29.891  0.00  0.00    -0.648 OA
ENDBRANCH  73  76
ENDBRANCH  11  73
ENDBRANCH   9  11
ENDBRANCH   5   7
BRANCH   5  79
ATOM     79  CB  GLN d   1      24.525  19.478  35.882  0.00  0.00    -0.030 C 
ATOM     80  H   GLN d   1      24.027  18.502  35.982  0.00  0.00     0.037 H 
ATOM     81  H   GLN d   1      23.852  20.271  36.241  0.00  0.00     0.037 H 
BRANCH  79  82
ATOM     82  CG  GLN d   1      25.771  19.471  36.772  0.00  0.00     0.011 C 
ATOM     83  H   GLN d   1      26.661  19.484  36.126  0.00  0.00     0.047 H 
ATOM     84  H   GLN d   1      25.766  18.549  37.372  0.00  0.00     0.047 H 
BRANCH  82  85
ATOM     85  CD  GLN d   1      25.843  20.660  37.716  0.00  0.00     0.215 C 
ATOM     86  OE1 GLN d   1      25.782  21.815  37.294  0.00  0.00    -0.274 OA
ATOM     87  NE2 GLN d   1      25.970  20.379  39.006  0.00  0.00    -0.370 N 
ATOM     88  H   GLN d   1      26.023  21.119  39.676  0.00  0.00     0.159 HD
ATOM     89  H   GLN d   1      26.013  19.427  39.308  0.00  0.00     0.159 HD
ENDBRANCH  82  85
ENDBRANCH  79  82
ENDBRANCH   5  79
ENDBRANCH   3   5
BRANCH   1  90
ATOM     90  CA  TRP d   1      26.557  22.800  33.053  0.00  0.00     0.093 C 
ATOM     91  H   TRP d   1      26.925  23.037  34.062  0.00  0.00     0.088 H 
BRANCH  90  92
ATOM     92  N   TRP d   1      27.671  22.861  32.111  0.00  0.00    -0.346 N 
ATOM     93  C   ARG d   1      28.912  23.141  32.487  0.00  0.00     0.241 C 
ATOM     94  O   ARG d   1      29.225  23.268  33.642  0.00  0.00    -0.271 OA
ATOM     95  H   TRP d   1      27.491  22.685  31.143  0.00  0.00     0.163 HD
BRANCH  93  96
ATOM     96  CA  ARG d   1      30.004  23.190  31.401  0.00  0.00     0.089 C 
ATOM     97  H   ARG d   1      29.558  22.974  30.419  0.00  0.00     0.087 H 
BRANCH  96  98
ATOM     98  N   ARG d   1      30.681  24.465  31.337  0.00  0.00    -0.346 N 
ATOM     99  C   SER d   1      30.646  25.240  30.260  0.00  0.00     0.243 C 
ATOM    100  O   SER d   1      29.928  24.973  29.290  0.00  0.00    -0.271 OA
ATOM    101  H   ARG d   1      31.196  24.776  32.136  0.00  0.00     0.163 HD
BRANCH  99 102
ATOM    102  CA  SER d   1      31.543  26.477  30.245  0.00  0.00     0.109 C 
ATOM    103  H   SER d   1      31.010  27.293  29.734  0.00  0.00     0.090 H 
BRANCH 102 104
ATOM    104  N   SER d   1      31.845  26.908  31.602  0.00  0.00    -0.344 N 
ATOM    105  C   ASN d   1      30.960  27.596  32.310  0.00  0.00     0.241 C 
ATOM    106  O   ASN d   1      29.852  27.896  31.876  0.00  0.00    -0.271 OA
ATOM    107  H   SER d   1      32.732  26.682  32.006  0.00  0.00     0.163 HD
BRANCH 105 108
ATOM    108  CA  ASN d   1      31.389  28.012  33.711  0.00  0.00     0.097 C 
ATOM    109  H   ASN d   1      32.489  28.012  33.734  0.00  0.00     0.088 H 
BRANCH 108 110
ATOM    110  N   ASN d   1      30.940  29.354  34.073  0.00  0.00    -0.346 N 
ATOM    111  C   ALA d   1      31.740  30.405  33.933  0.00  0.00     0.248 C 
ATOM    112  O   ALA d   1      32.852  30.327  33.425  0.00  0.00    -0.271 OA
ATOM    113  H   ASN d   1      30.016  29.483  34.432  0.00  0.00     0.163 HD
BRANCH 111 114
ATOM    114  CA  ALA d   1      31.206  31.742  34.434  0.00  0.00     0.172 C 
ATOM    115  H   ALA d   1      30.261  31.557  34.966  0.00  0.00     0.098 H 
BRANCH 114 116
ATOM    116  N   ALA d   1      32.141  32.362  35.368  0.00  0.00    -0.067 N 
ATOM    117  H   ALA d   1      31.766  33.243  35.684  0.00  0.00     0.275 HD
ATOM    118  H   ALA d   1      33.023  32.519  34.906  0.00  0.00     0.275 HD
ATOM    119  H   ALA d   1      32.280  31.753  36.159  0.00  0.00     0.275 HD
ENDBRANCH 114 116
BRANCH 114 120
ATOM    120  CB  ALA d   1      30.921  32.674  33.266  0.00  0.00    -0.042 C 
ATOM    121  H   ALA d   1      30.216  32.190  32.574  0.00  0.00     0.030 H 
ATOM    122  H   ALA d   1      31.859  32.896  32.737  0.00  0.00     0.030 H 
ATOM    123  H   ALA d   1      30.482  33.610  33.642  0.00  0.00     0.030 H 
ENDBRANCH 114 120
ENDBRANCH 111 114
ENDBRANCH 108 110
BRANCH 108 124
ATOM    124  CB  ASN d   1      30.890  26.999  34.743  0.00  0.00     0.036 C 
ATOM    125  H   ASN d   1      31.177  25.989  34.414  0.00  0.00     0.051 H 
ATOM    126  H   ASN d   1      29.794  27.067  34.803  0.00  0.00     0.051 H 
BRANCH 124 127
ATOM    127  CG  ASN d   1      31.467  27.243  36.116  0.00  0.00     0.217 C 
ATOM    128  OD1 ASN d   1      32.629  27.617  36.253  0.00  0.00    -0.274 OA
ATOM    129  ND2 ASN d   1      30.653  27.046  37.142  0.00  0.00    -0.370 N 
ATOM    130  H   ASN d   1      30.981  27.192  38.075  0.00  0.00     0.159 HD
ATOM    131  H   ASN d   1      29.711  26.751  36.983  0.00  0.00     0.159 HD
ENDBRANCH 124 127
ENDBRANCH 108 124
ENDBRANCH 105 108
ENDBRANCH 102 104
BRANCH 102 132
ATOM    132  CB  SER d   1      32.820  26.166  29.464  0.00  0.00     0.044 C 
ATOM    133  H   SER d   1      33.561  26.956  29.653  0.00  0.00     0.077 H 
ATOM    134  H   SER d   1      32.587  26.131  28.389  0.00  0.00     0.077 H 
BRANCH 132 135
ATOM    135  OG  SER d   1      33.355  24.922  29.864  0.00  0.00    -0.398 OA
ATOM    136  H   SER d   1      34.147  24.745  29.369  0.00  0.00     0.209 HD
ENDBRANCH 132 135
ENDBRANCH 102 132
ENDBRANCH  99 102
ENDBRANCH  96  98
BRANCH  96 137
ATOM    137  CB  ARG d   1      30.998  22.109  31.778  0.00  0.00    -0.036 C 
ATOM    138  H   ARG d   1      30.589  21.572  32.646  0.00  0.00     0.036 H 
ATOM    139  H   ARG d   1      31.936  22.607  32.064  0.00  0.00     0.036 H 
BRANCH 137 140
ATOM    140  CG  ARG d   1      31.328  21.098  30.742  0.00  0.00    -0.048 C 
ATOM    141  H   ARG d   1      32.242  21.397  30.207  0.00  0.00     0.035 H 
ATOM    142  H   ARG d   1      30.496  21.011  30.027  0.00  0.00     0.035 H 
BRANCH 140 143
ATOM    143  CD  ARG d   1      31.553  19.752  31.445  0.00  0.00     0.009 C 
ATOM    144  H   ARG d   1      30.596  19.393  31.852  0.00  0.00     0.064 H 
ATOM    145  H   ARG d   1      32.272  19.890  32.266  0.00  0.00     0.064 H 
BRANCH 143 146
ATOM    146  NE  ARG d   1      32.070  18.774  30.524  0.00  0.00    -0.227 N 
ATOM    147  CZ  ARG d   1      33.150  18.992  29.794  0.00  0.00     0.665 C 
ATOM    148  NH1 ARG d   1      33.801  20.131  29.941  0.00  0.00    -0.235 N 
ATOM    149  NH2 ARG d   1      33.586  18.083  28.947  0.00  0.00    -0.235 N 
ATOM    150  H   ARG d   1      34.645  20.318  29.381  0.00  0.00     0.174 HD
ATOM    151  H   ARG d   1      33.465  20.833  30.616  0.00  0.00     0.174 HD
ATOM    152  H   ARG d   1      33.075  17.196  28.835  0.00  0.00     0.174 HD
ATOM    153  H   ARG d   1      34.438  18.259  28.396  0.00  0.00     0.174 HD
ATOM    154  H   ARG d   1      31.581  17.872  30.431  0.00  0.00     0.177 HD
ENDBRANCH 143 146
ENDBRANCH 140 143
ENDBRANCH 137 140
ENDBRANCH  96 137
ENDBRANCH  93  96
ENDBRANCH  90  92
BRANCH  90 155
ATOM    155  CB  TRP d   1      25.468  23.795  32.645  0.00  0.00    -0.012 C 
ATOM    156  H   TRP d   1      24.670  23.747  33.401  0.00  0.00     0.044 H 
ATOM    157  H   TRP d   1      25.070  23.474  31.671  0.00  0.00     0.044 H 
BRANCH 155 158
ATOM    158  CG  TRP d   1      25.886  25.222  32.517  0.00  0.00    -0.028 A 
ATOM    159  CD1 TRP d   1      27.121  25.753  32.764  0.00  0.00    -0.015 A 
ATOM    160  NE1 TRP d   1      27.103  27.111  32.539  0.00  0.00    -0.365 N 
ATOM    161  H   TRP d   1      27.991  25.185  33.091  0.00  0.00     0.112 H 
ATOM    162  CE2 TRP d   1      25.842  27.478  32.134  0.00  0.00     0.042 A 
ATOM    163  H   TRP d   1      27.904  27.748  32.655  0.00  0.00     0.165 HD
ATOM    164  CD2 TRP d   1      25.052  26.313  32.115  0.00  0.00    -0.002 A 
ATOM    165  CZ2 TRP d   1      25.340  28.728  31.793  0.00  0.00    -0.056 A 
ATOM    166  CE3 TRP d   1      23.706  26.416  31.736  0.00  0.00    -0.070 A 
ATOM    167  CZ3 TRP d   1      23.206  27.660  31.396  0.00  0.00    -0.082 A 
ATOM    168  H   TRP d   1      23.070  25.538  31.710  0.00  0.00     0.084 H 
ATOM    169  CH2 TRP d   1      24.021  28.801  31.428  0.00  0.00    -0.081 A 
ATOM    170  H   TRP d   1      22.168  27.755  31.100  0.00  0.00     0.083 H 
ATOM    171  H   TRP d   1      23.598  29.762  31.158  0.00  0.00     0.083 H 
ATOM    172  H   TRP d   1      25.968  29.612  31.815  0.00  0.00     0.086 H 
ENDBRANCH 155 158
ENDBRANCH  90 155
ENDBRANCH   1  90
TORSDOF 47
