REMARK  1 active torsions:
REMARK  status: ('A' for Active; 'I' for Inactive)
REMARK    1  A    between atoms: C1_1  and  C6_6 
ROOT
ATOM      1  C6  K8A d   1     -10.137 -26.379  43.208  0.00  0.00     0.032 A 
ATOM      2  N7  K8A d   1      -8.083 -25.182  43.317  0.00  0.00    -0.271 NA
ATOM      3  C8  K8A d   1      -9.795 -26.835  41.922  0.00  0.00    -0.050 A 
ATOM      4  C9  K8A d   1      -9.232 -25.536  43.876  0.00  0.00     0.015 A 
ATOM      5  C10 K8A d   1      -8.575 -26.438  41.378  0.00  0.00     0.029 A 
ATOM      6 BR1  K8A d   1      -8.084 -26.998  39.640  0.00  0.00    -0.050 Br
ATOM      7  C12 K8A d   1      -7.738 -25.593  42.105  0.00  0.00     0.019 A 
ATOM      8  H2  K8A d   1     -10.466 -27.481  41.367  0.00  0.00     0.087 H 
ATOM      9  H3  K8A d   1      -9.478 -25.169  44.866  0.00  0.00     0.116 H 
ATOM     10  H4  K8A d   1      -6.797 -25.269  41.675  0.00  0.00     0.116 H 
ENDROOT
BRANCH   1  11
ATOM     11  C1  K8A d   1     -11.437 -26.747  43.825  0.00  0.00     0.180 A 
ATOM     12  N3  K8A d   1     -11.795 -26.583  45.086  0.00  0.00    -0.108 NA
ATOM     13  N2  K8A d   1     -12.993 -26.998  45.282  0.00  0.00    -0.023 NA
ATOM     14  N4  K8A d   1     -13.494 -27.438  44.182  0.00  0.00    -0.046 NA
ATOM     15  N5  K8A d   1     -12.508 -27.285  43.189  0.00  0.00    -0.239 N 
ATOM     16  H1  K8A d   1     -12.584 -27.530  42.191  0.00  0.00     0.192 HD
ENDBRANCH   1  11
TORSDOF 1
