REMARK  10 active torsions:
REMARK  status: ('A' for Active; 'I' for Inactive)
REMARK    1  A    between atoms: O3B_8  and  PG_1 
REMARK    2  A    between atoms: PB_5  and  O3B_8 
REMARK    3  A    between atoms: O3A_12  and  PB_5 
REMARK    4  A    between atoms: PA_9  and  O3A_12 
REMARK    5  A    between atoms: PA_9  and  O5'_13 
REMARK    6  A    between atoms: O5'_13  and  C5'_14 
REMARK    7  A    between atoms: C5'_14  and  C4'_15 
REMARK    8  A    between atoms: C3'_17  and  O3'_18 
REMARK    9  A    between atoms: C2'_19  and  O2'_20 
REMARK   10  A    between atoms: C1'_21  and  N9_22 
ROOT
ATOM      1  C4' ATP d   1     -13.497  10.518  89.697  0.00  0.00     0.089 C 
ATOM      2  O4' ATP d   1     -13.318   9.232  89.105  0.00  0.00    -0.353 OA
ATOM      3  C3' ATP d   1     -13.637  10.317  91.199  0.00  0.00     0.091 C 
ATOM      4  C2' ATP d   1     -13.583   8.820  91.434  0.00  0.00     0.105 C 
ATOM      5  C1' ATP d   1     -13.555   8.190  90.051  0.00  0.00     0.139 C 
ATOM      6  H   ATP d   1     -14.408  10.992  89.302  0.00  0.00     0.090 H 
ATOM      7  H   ATP d   1     -12.817  10.819  91.732  0.00  0.00     0.091 H 
ATOM      8  H   ATP d   1     -12.676   8.552  91.996  0.00  0.00     0.093 H 
ATOM      9  H   ATP d   1     -14.517   7.698  89.843  0.00  0.00     0.122 H 
ENDROOT
BRANCH   1  10
ATOM     10  C5' ATP d   1     -12.294  11.387  89.365  0.00  0.00     0.058 C 
ATOM     11  H   ATP d   1     -12.047  11.293  88.297  0.00  0.00     0.079 H 
ATOM     12  H   ATP d   1     -12.516  12.439  89.599  0.00  0.00     0.079 H 
BRANCH  10  13
ATOM     13  O5' ATP d   1     -11.200  10.933  90.159  0.00  0.00    -0.287 OA
BRANCH  13  14
ATOM     14  PA  ATP d   1      -9.765  11.655  90.104  0.00  0.00     0.417 P 
ATOM     15  O1A ATP d   1      -8.804  10.858  90.954  0.00  0.00    -0.624 OA
ATOM     16  O2A ATP d   1      -9.416  12.001  88.678  0.00  0.00    -0.624 OA
BRANCH  14  17
ATOM     17  O3A ATP d   1     -10.129  13.020  90.870  0.00  0.00    -0.180 OA
BRANCH  17  18
ATOM     18  PB  ATP d   1      -9.011  14.073  91.336  0.00  0.00     0.428 P 
ATOM     19  O1B ATP d   1      -9.247  15.376  90.609  0.00  0.00    -0.624 OA
ATOM     20  O2B ATP d   1      -7.657  13.409  91.282  0.00  0.00    -0.624 OA
BRANCH  18  21
ATOM     21  O3B ATP d   1      -9.472  14.244  92.869  0.00  0.00    -0.173 OA
BRANCH  21  22
ATOM     22  PG  ATP d   1      -8.552  14.954  93.979  0.00  0.00     0.431 P 
ATOM     23  O1G ATP d   1      -8.526  16.402  93.554  0.00  0.00    -0.616 OA
ATOM     24  O2G ATP d   1      -9.300  14.692  95.262  0.00  0.00    -0.616 OA
ATOM     25  O3G ATP d   1      -7.227  14.238  93.883  0.00  0.00    -0.616 OA
ENDBRANCH  21  22
ENDBRANCH  18  21
ENDBRANCH  17  18
ENDBRANCH  14  17
ENDBRANCH  13  14
ENDBRANCH  10  13
ENDBRANCH   1  10
BRANCH   3  26
ATOM     26  O3' ATP d   1     -14.893  10.837  91.645  0.00  0.00    -0.390 OA
ATOM     27  H   ATP d   1     -14.973  10.708  92.583  0.00  0.00     0.210 HD
ENDBRANCH   3  26
BRANCH   5  28
ATOM     28  N9  ATP d   1     -12.456   7.200  89.958  0.00  0.00    -0.294 N 
ATOM     29  C8  ATP d   1     -11.150   7.456  90.161  0.00  0.00     0.071 A 
ATOM     30  N7  ATP d   1     -10.400   6.337  89.998  0.00  0.00    -0.236 NA
ATOM     31  H   ATP d   1     -10.748   8.434  90.422  0.00  0.00     0.144 H 
ATOM     32  C5  ATP d   1     -11.239   5.333  89.683  0.00  0.00     0.149 A 
ATOM     33  C6  ATP d   1     -11.109   3.890  89.379  0.00  0.00     0.155 A 
ATOM     34  C4  ATP d   1     -12.593   5.906  89.660  0.00  0.00     0.167 A 
ATOM     35  N6  ATP d   1      -9.898   3.282  89.381  0.00  0.00    -0.382 N 
ATOM     36  N1  ATP d   1     -12.239   3.202  89.100  0.00  0.00    -0.222 NA
ATOM     37  H   ATP d   1      -9.826   2.277  89.167  0.00  0.00     0.157 HD
ATOM     38  H   ATP d   1      -9.050   3.825  89.596  0.00  0.00     0.157 HD
ATOM     39  C2  ATP d   1     -13.447   3.796  89.096  0.00  0.00     0.091 A 
ATOM     40  N3  ATP d   1     -13.639   5.100  89.362  0.00  0.00    -0.222 NA
ATOM     41  H   ATP d   1     -14.315   3.188  88.865  0.00  0.00     0.146 H 
ENDBRANCH   5  28
BRANCH   4  42
ATOM     42  O2' ATP d   1     -14.738   8.385  92.157  0.00  0.00    -0.388 OA
ATOM     43  H   ATP d   1     -15.519   8.592  91.658  0.00  0.00     0.210 HD
ENDBRANCH   4  42
TORSDOF 10
