REMARK  7 active torsions:
REMARK  status: ('A' for Active; 'I' for Inactive)
REMARK    1  A    between atoms: C29_10  and  C31_11 
REMARK    2  A    between atoms: C31_11  and  C32_12 
REMARK    3  A    between atoms: C23_15  and  N2_16 
REMARK    4  A    between atoms: N2_16  and  C22_17 
REMARK    5  A    between atoms: C22_17  and  C21_18 
REMARK    6  A    between atoms: C21_18  and  O2_19 
REMARK    7  A    between atoms: C21_18  and  C5_20 
ROOT
ATOM      1  C21 1QT d   1      64.238  -9.464  19.262  0.00  0.00     0.078 C 
ATOM      2  H22 1QT d   1      63.374  -9.277  18.608  0.00  0.00     0.088 H 
ENDROOT
BRANCH   1   3
ATOM      3  C22 1QT d   1      63.728  -9.541  20.725  0.00  0.00     0.108 C 
ATOM      4  H20 1QT d   1      62.775 -10.088  20.772  0.00  0.00     0.079 H 
ATOM      5  H21 1QT d   1      64.470 -10.041  21.365  0.00  0.00     0.079 H 
BRANCH   3   6
ATOM      6  N2  1QT d   1      63.537  -8.116  21.156  0.00  0.00    -0.064 N 
ATOM      7  H18 1QT d   1      64.263  -7.568  20.723  0.00  0.00     0.278 HD
ATOM      8  H19 1QT d   1      62.638  -7.813  20.814  0.00  0.00     0.278 HD
BRANCH   6   9
ATOM      9  C23 1QT d   1      63.578  -7.834  22.641  0.00  0.00     0.132 C 
ATOM     10  C24 1QT d   1      62.605  -8.740  23.492  0.00  0.00    -0.005 C 
ATOM     11  C1  1QT d   1      63.078  -8.848  24.965  0.00  0.00     0.070 C 
ATOM     12  H7  1QT d   1      61.597  -8.301  23.471  0.00  0.00     0.041 H 
ATOM     13  H8  1QT d   1      62.576  -9.747  23.050  0.00  0.00     0.041 H 
ATOM     14  C2  1QT d   1      62.791  -7.577  25.821  0.00  0.00    -0.035 C 
ATOM     15  C4  1QT d   1      62.114  -9.659  25.881  0.00  0.00    -0.035 C 
ATOM     16  O3  1QT d   1      64.425  -9.279  25.016  0.00  0.00    -0.340 OA
ATOM     17  C3  1QT d   1      61.564  -8.296  26.419  0.00  0.00    -0.060 C 
ATOM     18  H1  1QT d   1      63.577  -7.336  26.552  0.00  0.00     0.037 H 
ATOM     19  H2  1QT d   1      62.549  -6.679  25.233  0.00  0.00     0.037 H 
ATOM     20  H3  1QT d   1      60.604  -7.992  25.977  0.00  0.00     0.033 H 
ATOM     21  H4  1QT d   1      61.498  -8.238  27.515  0.00  0.00     0.033 H 
ATOM     22  H5  1QT d   1      61.375 -10.268  25.340  0.00  0.00     0.037 H 
ATOM     23  H6  1QT d   1      62.617 -10.279  26.638  0.00  0.00     0.037 H 
ATOM     24  C26 1QT d   1      65.346  -8.636  24.298  0.00  0.00     0.078 A 
ATOM     25  C27 1QT d   1      66.664  -8.702  24.751  0.00  0.00    -0.050 A 
ATOM     26  C25 1QT d   1      65.017  -7.919  23.155  0.00  0.00     0.006 A 
ATOM     27  C28 1QT d   1      67.647  -8.007  24.061  0.00  0.00    -0.074 A 
ATOM     28  H9  1QT d   1      66.916  -9.287  25.628  0.00  0.00     0.087 H 
ATOM     29  C29 1QT d   1      67.297  -7.298  22.914  0.00  0.00    -0.058 A 
ATOM     30  H10 1QT d   1      68.673  -8.016  24.410  0.00  0.00     0.084 H 
ATOM     31  C30 1QT d   1      66.001  -7.234  22.472  0.00  0.00    -0.066 A 
ATOM     32  H16 1QT d   1      65.751  -6.650  21.593  0.00  0.00     0.085 H 
ATOM     33  H17 1QT d   1      63.241  -6.796  22.778  0.00  0.00     0.092 H 
BRANCH  29  34
ATOM     34  C31 1QT d   1      68.318  -6.561  22.112  0.00  0.00    -0.044 C 
ATOM     35  H11 1QT d   1      68.101  -6.663  21.038  0.00  0.00     0.039 H 
ATOM     36  H12 1QT d   1      69.322  -6.957  22.323  0.00  0.00     0.039 H 
BRANCH  34  37
ATOM     37  C32 1QT d   1      68.236  -5.102  22.524  0.00  0.00    -0.073 C 
ATOM     38  H13 1QT d   1      68.975  -4.518  21.955  0.00  0.00     0.028 H 
ATOM     39  H14 1QT d   1      68.448  -5.012  23.600  0.00  0.00     0.028 H 
ATOM     40  H15 1QT d   1      67.226  -4.718  22.316  0.00  0.00     0.028 H 
ENDBRANCH  34  37
ENDBRANCH  29  34
ENDBRANCH   6   9
ENDBRANCH   3   6
ENDBRANCH   1   3
BRANCH   1  41
ATOM     41  O2  1QT d   1      65.153  -8.372  19.187  0.00  0.00    -0.392 OA
ATOM     42  H23 1QT d   1      65.484  -8.298  18.300  0.00  0.00     0.210 HD
ENDBRANCH   1  41
BRANCH   1  43
ATOM     43  C5  1QT d   1      64.992 -10.720  18.728  0.00  0.00     0.042 C 
ATOM     44  C20 1QT d   1      65.401 -10.514  17.269  0.00  0.00    -0.020 C 
ATOM     45  C18 1QT d   1      65.843 -11.801  16.635  0.00  0.00    -0.056 A 
ATOM     46  H25 1QT d   1      66.230  -9.792  17.229  0.00  0.00     0.043 H 
ATOM     47  H26 1QT d   1      64.541 -10.117  16.709  0.00  0.00     0.043 H 
ATOM     48  C19 1QT d   1      64.942 -12.567  15.916  0.00  0.00    -0.071 A 
ATOM     49  C17 1QT d   1      67.161 -12.215  16.821  0.00  0.00    -0.077 A 
ATOM     50  C14 1QT d   1      65.353 -13.770  15.335  0.00  0.00    -0.058 A 
ATOM     51  H27 1QT d   1      63.917 -12.234  15.803  0.00  0.00     0.085 H 
ATOM     52  C15 1QT d   1      66.678 -14.196  15.516  0.00  0.00    -0.077 A 
ATOM     53  C13 1QT d   1      64.379 -14.646  14.524  0.00  0.00    -0.041 C 
ATOM     54  C16 1QT d   1      67.573 -13.417  16.261  0.00  0.00    -0.082 A 
ATOM     55  H30 1QT d   1      67.010 -15.130  15.078  0.00  0.00     0.084 H 
ATOM     56  H29 1QT d   1      68.594 -13.755  16.401  0.00  0.00     0.083 H 
ATOM     57  C12 1QT d   1      63.361 -15.316  15.452  0.00  0.00    -0.061 C 
ATOM     58  H31 1QT d   1      64.948 -15.422  13.991  0.00  0.00     0.040 H 
ATOM     59  H32 1QT d   1      63.846 -14.017  13.796  0.00  0.00     0.040 H 
ATOM     60  C11 1QT d   1      64.007 -16.453  16.252  0.00  0.00    -0.065 C 
ATOM     61  H33 1QT d   1      62.538 -15.725  14.847  0.00  0.00     0.033 H 
ATOM     62  H34 1QT d   1      62.964 -14.565  16.151  0.00  0.00     0.033 H 
ATOM     63  C10 1QT d   1      63.085 -16.939  17.390  0.00  0.00    -0.065 C 
ATOM     64  H35 1QT d   1      64.951 -16.093  16.686  0.00  0.00     0.033 H 
ATOM     65  H36 1QT d   1      64.213 -17.295  15.575  0.00  0.00     0.033 H 
ATOM     66  C9  1QT d   1      62.808 -15.751  18.333  0.00  0.00    -0.065 C 
ATOM     67  H37 1QT d   1      63.578 -17.749  17.948  0.00  0.00     0.033 H 
ATOM     68  H38 1QT d   1      62.138 -17.308  16.969  0.00  0.00     0.033 H 
ATOM     69  C8  1QT d   1      64.075 -15.121  18.959  0.00  0.00    -0.057 C 
ATOM     70  H39 1QT d   1      62.160 -16.104  19.149  0.00  0.00     0.033 H 
ATOM     71  H40 1QT d   1      62.284 -14.972  17.760  0.00  0.00     0.033 H 
ATOM     72  C7  1QT d   1      63.631 -14.075  20.004  0.00  0.00     0.009 C 
ATOM     73  H41 1QT d   1      64.674 -14.633  18.176  0.00  0.00     0.033 H 
ATOM     74  H42 1QT d   1      64.676 -15.902  19.447  0.00  0.00     0.033 H 
ATOM     75  C6  1QT d   1      64.466 -12.809  19.928  0.00  0.00     0.217 C 
ATOM     76  H43 1QT d   1      63.735 -14.510  21.009  0.00  0.00     0.047 H 
ATOM     77  H44 1QT d   1      62.577 -13.817  19.823  0.00  0.00     0.047 H 
ATOM     78  O1  1QT d   1      65.323 -12.609  20.776  0.00  0.00    -0.274 OA
ATOM     79  N1  1QT d   1      64.228 -11.978  18.903  0.00  0.00    -0.354 N 
ATOM     80  H45 1QT d   1      63.517 -12.213  18.240  0.00  0.00     0.163 HD
ATOM     81  H28 1QT d   1      67.853 -11.608  17.394  0.00  0.00     0.084 H 
ATOM     82  H24 1QT d   1      65.914 -10.820  19.319  0.00  0.00     0.077 H 
ENDBRANCH   1  43
TORSDOF 7
