REMARK  12 active torsions:
REMARK  status: ('A' for Active; 'I' for Inactive)
REMARK    1  A    between atoms: N2_11  and  C6_12 
REMARK    2  A    between atoms: C12_18  and  C26_19 
REMARK       I    between atoms: C26_19  and  N3_21 
REMARK    3  A    between atoms: N3_21  and  C27_22 
REMARK    4  A    between atoms: C27_22  and  C31_23 
REMARK    5  A    between atoms: C27_22  and  C28_30 
REMARK    6  A    between atoms: C31_23  and  C20_24 
REMARK    7  A    between atoms: C28_30  and  O3_31 
REMARK    8  A    between atoms: C28_30  and  C29_32 
REMARK    9  A    between atoms: C29_32  and  N4_33 
REMARK   10  A    between atoms: N4_33  and  C30_34 
REMARK   11  A    between atoms: C30_34  and  C14_35 
REMARK   12  A    between atoms: C16_40  and  C32_41 
ROOT
ATOM      1  C27 1QU d   1      66.350 -10.390  19.003  0.00  0.00     0.042 C 
ATOM      2  H19 1QU d   1      67.178 -10.557  19.708  0.00  0.00     0.077 H 
ENDROOT
BRANCH   1   3
ATOM      3  N3  1QU d   1      65.562 -11.633  18.987  0.00  0.00    -0.349 N 
ATOM      4  C26 1QU d   1      65.742 -12.615  19.881  0.00  0.00     0.253 C 
ATOM      5  O2  1QU d   1      66.281 -12.437  20.963  0.00  0.00    -0.268 OA
ATOM      6  H18 1QU d   1      64.864 -11.749  18.280  0.00  0.00     0.163 HD
BRANCH   4   7
ATOM      7  C12 1QU d   1      64.897 -13.899  19.662  0.00  0.00     0.050 A 
ATOM      8  C13 1QU d   1      64.233 -14.547  20.708  0.00  0.00    -0.035 A 
ATOM      9  C33 1QU d   1      63.463 -15.694  20.407  0.00  0.00     0.107 A 
ATOM     10  H7  1QU d   1      64.307 -14.177  21.730  0.00  0.00     0.088 H 
ATOM     11  N1  1QU d   1      62.775 -16.360  21.307  0.00  0.00    -0.313 N 
ATOM     12  C5  1QU d   1      63.344 -16.138  19.097  0.00  0.00     0.275 A 
ATOM     13  C1  1QU d   1      61.409 -16.410  21.322  0.00  0.00     0.224 C 
ATOM     14  C4  1QU d   1      63.393 -17.181  22.361  0.00  0.00     0.003 C 
ATOM     15  O1  1QU d   1      60.616 -15.851  20.533  0.00  0.00    -0.273 OA
ATOM     16  C2  1QU d   1      60.931 -17.299  22.431  0.00  0.00     0.011 C 
ATOM     17  C3  1QU d   1      62.227 -17.636  23.229  0.00  0.00    -0.042 C 
ATOM     18  H1  1QU d   1      60.471 -18.213  22.028  0.00  0.00     0.047 H 
ATOM     19  H2  1QU d   1      60.205 -16.773  23.068  0.00  0.00     0.047 H 
ATOM     20  H3  1QU d   1      62.290 -18.718  23.414  0.00  0.00     0.036 H 
ATOM     21  H4  1QU d   1      62.234 -17.099  24.189  0.00  0.00     0.036 H 
ATOM     22  H5  1QU d   1      63.913 -18.047  21.924  0.00  0.00     0.065 H 
ATOM     23  H6  1QU d   1      64.106 -16.585  22.950  0.00  0.00     0.065 H 
ATOM     24  O4  1QU d   1      62.653 -17.098  18.788  0.00  0.00    -0.265 OA
ATOM     25  N2  1QU d   1      63.975 -15.487  18.108  0.00  0.00    -0.317 N 
ATOM     26  C11 1QU d   1      64.719 -14.365  18.369  0.00  0.00    -0.001 A 
ATOM     27  H17 1QU d   1      65.180 -13.828  17.541  0.00  0.00     0.113 H 
BRANCH  25  28
ATOM     28  C6  1QU d   1      63.812 -16.031  16.762  0.00  0.00     0.019 C 
ATOM     29  C7  1QU d   1      65.204 -16.314  16.113  0.00  0.00    -0.045 C 
ATOM     30  C8  1QU d   1      65.191 -15.555  14.816  0.00  0.00    -0.063 C 
ATOM     31  H9  1QU d   1      65.333 -17.391  15.929  0.00  0.00     0.036 H 
ATOM     32  H10 1QU d   1      66.014 -15.953  16.764  0.00  0.00     0.036 H 
ATOM     33  C9  1QU d   1      64.197 -14.431  15.062  0.00  0.00    -0.063 C 
ATOM     34  H11 1QU d   1      64.857 -16.199  13.989  0.00  0.00     0.033 H 
ATOM     35  H12 1QU d   1      66.189 -15.152  14.588  0.00  0.00     0.033 H 
ATOM     36  C10 1QU d   1      63.063 -15.063  15.838  0.00  0.00    -0.045 C 
ATOM     37  H13 1QU d   1      63.831 -14.025  14.108  0.00  0.00     0.033 H 
ATOM     38  H14 1QU d   1      64.663 -13.626  15.649  0.00  0.00     0.033 H 
ATOM     39  H15 1QU d   1      62.505 -14.311  16.415  0.00  0.00     0.036 H 
ATOM     40  H16 1QU d   1      62.373 -15.600  15.171  0.00  0.00     0.036 H 
ATOM     41  H8  1QU d   1      63.245 -16.971  16.833  0.00  0.00     0.073 H 
ENDBRANCH  25  28
ENDBRANCH   4   7
ENDBRANCH   1   3
BRANCH   1  42
ATOM     42  C31 1QU d   1      66.960 -10.181  17.590  0.00  0.00    -0.020 C 
ATOM     43  H20 1QU d   1      67.772  -9.442  17.658  0.00  0.00     0.043 H 
ATOM     44  H21 1QU d   1      66.177  -9.805  16.916  0.00  0.00     0.043 H 
BRANCH  42  45
ATOM     45  C20 1QU d   1      67.531 -11.504  17.010  0.00  0.00    -0.056 A 
ATOM     46  C21 1QU d   1      68.316 -12.367  17.779  0.00  0.00    -0.077 A 
ATOM     47  C22 1QU d   1      68.793 -13.563  17.240  0.00  0.00    -0.082 A 
ATOM     48  H22 1QU d   1      68.557 -12.105  18.803  0.00  0.00     0.084 H 
ATOM     49  C23 1QU d   1      68.538 -13.884  15.918  0.00  0.00    -0.083 A 
ATOM     50  H23 1QU d   1      69.366 -14.243  17.860  0.00  0.00     0.083 H 
ATOM     51  C24 1QU d   1      67.780 -13.017  15.153  0.00  0.00    -0.082 A 
ATOM     52  H24 1QU d   1      68.927 -14.801  15.489  0.00  0.00     0.083 H 
ATOM     53  C25 1QU d   1      67.266 -11.859  15.705  0.00  0.00    -0.077 A 
ATOM     54  H25 1QU d   1      67.587 -13.248  14.111  0.00  0.00     0.083 H 
ATOM     55  H26 1QU d   1      66.640 -11.215  15.098  0.00  0.00     0.084 H 
ENDBRANCH  42  45
ENDBRANCH   1  42
BRANCH   1  56
ATOM     56  C28 1QU d   1      65.668  -9.133  19.456  0.00  0.00     0.078 C 
ATOM     57  H27 1QU d   1      64.759  -8.979  18.856  0.00  0.00     0.088 H 
BRANCH  56  58
ATOM     58  O3  1QU d   1      66.571  -8.039  19.273  0.00  0.00    -0.392 OA
ATOM     59  H28 1QU d   1      66.802  -7.971  18.354  0.00  0.00     0.210 HD
ENDBRANCH  56  58
BRANCH  56  60
ATOM     60  C29 1QU d   1      65.296  -9.175  20.941  0.00  0.00     0.107 C 
ATOM     61  H29 1QU d   1      66.157  -9.519  21.532  0.00  0.00     0.079 H 
ATOM     62  H30 1QU d   1      64.449  -9.860  21.095  0.00  0.00     0.079 H 
BRANCH  60  63
ATOM     63  N4  1QU d   1      64.923  -7.829  21.349  0.00  0.00    -0.069 N 
ATOM     64  H31 1QU d   1      64.012  -7.613  20.976  0.00  0.00     0.277 HD
ATOM     65  H32 1QU d   1      65.599  -7.176  20.985  0.00  0.00     0.277 HD
BRANCH  63  66
ATOM     66  C30 1QU d   1      64.881  -7.708  22.845  0.00  0.00     0.105 C 
ATOM     67  H33 1QU d   1      64.424  -8.609  23.280  0.00  0.00     0.083 H 
ATOM     68  H34 1QU d   1      64.293  -6.824  23.131  0.00  0.00     0.083 H 
BRANCH  66  69
ATOM     69  C14 1QU d   1      66.356  -7.557  23.362  0.00  0.00    -0.032 A 
ATOM     70  C15 1QU d   1      67.262  -6.642  22.779  0.00  0.00    -0.061 A 
ATOM     71  C16 1QU d   1      68.565  -6.490  23.240  0.00  0.00     0.048 A 
ATOM     72  H35 1QU d   1      66.929  -6.037  21.943  0.00  0.00     0.085 H 
ATOM     73  C17 1QU d   1      68.972  -7.320  24.271  0.00  0.00    -0.068 A 
ATOM     74  C18 1QU d   1      68.096  -8.222  24.852  0.00  0.00    -0.082 A 
ATOM     75  H38 1QU d   1      69.993  -7.263  24.629  0.00  0.00     0.084 H 
ATOM     76  C19 1QU d   1      66.771  -8.357  24.412  0.00  0.00    -0.075 A 
ATOM     77  H37 1QU d   1      68.445  -8.841  25.670  0.00  0.00     0.083 H 
ATOM     78  H36 1QU d   1      66.095  -9.064  24.879  0.00  0.00     0.084 H 
BRANCH  71  79
ATOM     79  C32 1QU d   1      69.567  -5.456  22.574  0.00  0.00     0.417 C 
ATOM     80  F2  1QU d   1      70.702  -5.266  23.226  0.00  0.00    -0.166 F 
ATOM     81  F3  1QU d   1      69.064  -4.237  22.388  0.00  0.00    -0.166 F 
ATOM     82  F1  1QU d   1      69.856  -5.964  21.401  0.00  0.00    -0.166 F 
ENDBRANCH  71  79
ENDBRANCH  66  69
ENDBRANCH  63  66
ENDBRANCH  60  63
ENDBRANCH  56  60
ENDBRANCH   1  56
TORSDOF 12
