REMARK  6 active torsions:
REMARK  status: ('A' for Active; 'I' for Inactive)
REMARK    1  A    between atoms: N2_3  and  C16_9 
REMARK    2  A    between atoms: C13_7  and  C7_4 
REMARK    3  A    between atoms: C5_13  and  C12_18 
REMARK    4  A    between atoms: C10_16  and  C15_20 
REMARK    5  A    between atoms: C15_20  and  N4_21 
REMARK    6  A    between atoms: N4_21  and  C17_22 
ROOT
ATOM      1  N3  1QN d   1      -7.621  -0.252   9.016  0.00  0.00    -0.172 NA
ATOM      2  N2  1QN d   1      -6.557   0.535   9.334  0.00  0.00    -0.284 N 
ATOM      3  C13 1QN d   1      -6.317  -1.280  10.601  0.00  0.00     0.023 A 
ATOM      4  C12 1QN d   1      -7.496  -1.371   9.797  0.00  0.00     0.100 A 
ATOM      5  C14 1QN d   1      -5.737  -0.046  10.294  0.00  0.00     0.011 A 
ATOM      6  H11 1QN d   1      -4.827   0.375  10.720  0.00  0.00     0.115 H 
ENDROOT
BRANCH   3   7
ATOM      7  C7  1QN d   1      -5.754  -2.241  11.513  0.00  0.00    -0.019 A 
ATOM      8  C8  1QN d   1      -5.824  -3.604  11.236  0.00  0.00    -0.055 A 
ATOM      9  C9  1QN d   1      -5.229  -4.490  12.135  0.00  0.00     0.003 A 
ATOM     10  H4  1QN d   1      -6.327  -3.967  10.347  0.00  0.00     0.087 H 
ATOM     11  N1  1QN d   1      -4.564  -4.105  13.248  0.00  0.00    -0.264 NA
ATOM     12  H3  1QN d   1      -5.304  -5.551  11.929  0.00  0.00     0.114 H 
ATOM     13  C10 1QN d   1      -4.489  -2.771  13.483  0.00  0.00     0.060 A 
ATOM     14  C11 1QN d   1      -5.093  -1.811  12.664  0.00  0.00    -0.047 A 
ATOM     15  H10 1QN d   1      -5.048  -0.758  12.918  0.00  0.00     0.088 H 
BRANCH  13  16
ATOM     16  C15 1QN d   1      -3.713  -2.353  14.713  0.00  0.00     0.120 C 
ATOM     17  H12 1QN d   1      -3.749  -3.156  15.464  0.00  0.00     0.085 H 
ATOM     18  H13 1QN d   1      -4.153  -1.437  15.134  0.00  0.00     0.085 H 
BRANCH  16  19
ATOM     19  N4  1QN d   1      -2.311  -2.098  14.327  0.00  0.00    -0.074 N 
ATOM     20  H14 1QN d   1      -2.009  -2.843  13.719  0.00  0.00     0.277 HD
ATOM     21  H15 1QN d   1      -1.748  -2.097  15.163  0.00  0.00     0.277 HD
BRANCH  19  22
ATOM     22  C17 1QN d   1      -2.104  -0.822  13.630  0.00  0.00     0.065 C 
ATOM     23  H16 1QN d   1      -1.039  -0.710  13.379  0.00  0.00     0.067 H 
ATOM     24  H17 1QN d   1      -2.416   0.007  14.282  0.00  0.00     0.067 H 
ATOM     25  H18 1QN d   1      -2.702  -0.807  12.707  0.00  0.00     0.067 H 
ENDBRANCH  19  22
ENDBRANCH  16  19
ENDBRANCH  13  16
ENDBRANCH   3   7
BRANCH   4  26
ATOM     26  C5  1QN d   1      -8.546  -2.375   9.784  0.00  0.00    -0.005 A 
ATOM     27  C4  1QN d   1      -8.900  -3.021  10.968  0.00  0.00    -0.068 A 
ATOM     28  C3  1QN d   1      -9.959  -3.915  10.987  0.00  0.00    -0.045 A 
ATOM     29  H1  1QN d   1      -8.345  -2.823  11.878  0.00  0.00     0.085 H 
ATOM     30  C2  1QN d   1     -10.672  -4.142   9.804  0.00  0.00     0.116 A 
ATOM     31  H9  1QN d   1     -10.230  -4.429  11.902  0.00  0.00     0.088 H 
ATOM     32  C1  1QN d   1     -10.322  -3.511   8.607  0.00  0.00    -0.045 A 
ATOM     33  F1  1QN d   1     -11.705  -4.974   9.826  0.00  0.00    -0.206 F 
ATOM     34  C6  1QN d   1      -9.246  -2.633   8.606  0.00  0.00    -0.068 A 
ATOM     35  H8  1QN d   1     -10.879  -3.703   7.697  0.00  0.00     0.088 H 
ATOM     36  H2  1QN d   1      -8.949  -2.146   7.684  0.00  0.00     0.085 H 
ENDBRANCH   4  26
BRANCH   2  37
ATOM     37  C16 1QN d   1      -6.376   1.847   8.702  0.00  0.00     0.002 C 
ATOM     38  H5  1QN d   1      -5.463   2.320   9.093  0.00  0.00     0.059 H 
ATOM     39  H6  1QN d   1      -7.244   2.485   8.926  0.00  0.00     0.059 H 
ATOM     40  H7  1QN d   1      -6.286   1.720   7.613  0.00  0.00     0.059 H 
ENDBRANCH   2  37
TORSDOF 6
