REMARK  3 active torsions:
REMARK  status: ('A' for Active; 'I' for Inactive)
REMARK    1  A    between atoms: N3_1  and  C13_7 
REMARK    2  A    between atoms: C1_11  and  C4_2 
REMARK    3  A    between atoms: C5_15  and  C6_5 
ROOT
ATOM      1  N3  1QM d   1      -6.442   0.527   9.003  0.00  0.00    -0.284 N 
ATOM      2  C4  1QM d   1      -6.152  -1.249  10.316  0.00  0.00     0.025 A 
ATOM      3  N2  1QM d   1      -7.549  -0.239   8.792  0.00  0.00    -0.172 NA
ATOM      4  C5  1QM d   1      -7.391  -1.331   9.600  0.00  0.00     0.100 A 
ATOM      5  C12 1QM d   1      -5.571  -0.041   9.926  0.00  0.00     0.011 A 
ATOM      6  H14 1QM d   1      -4.626   0.373  10.274  0.00  0.00     0.115 H 
ENDROOT
BRANCH   2   7
ATOM      7  C1  1QM d   1      -5.605  -2.238  11.207  0.00  0.00     0.015 A 
ATOM      8  C2  1QM d   1      -5.889  -3.586  10.981  0.00  0.00    -0.052 A 
ATOM      9  C3  1QM d   1      -5.385  -4.543  11.863  0.00  0.00     0.004 A 
ATOM     10  H10 1QM d   1      -6.493  -3.885  10.132  0.00  0.00     0.087 H 
ATOM     11  N1  1QM d   1      -4.659  -4.245  12.962  0.00  0.00    -0.261 NA
ATOM     12  H11 1QM d   1      -5.588  -5.587  11.654  0.00  0.00     0.114 H 
ATOM     13  C14 1QM d   1      -4.388  -2.939  13.187  0.00  0.00     0.093 A 
ATOM     14  C18 1QM d   1      -3.636  -2.617  14.461  0.00  0.00     0.123 C 
ATOM     15  C15 1QM d   1      -4.796  -1.925  12.308  0.00  0.00     0.106 A 
ATOM     16  N4  1QM d   1      -2.322  -2.012  14.223  0.00  0.00    -0.068 N 
ATOM     17  H6  1QM d   1      -3.493  -3.549  15.027  0.00  0.00     0.085 H 
ATOM     18  H7  1QM d   1      -4.240  -1.916  15.055  0.00  0.00     0.085 H 
ATOM     19  C17 1QM d   1      -2.372  -0.615  13.784  0.00  0.00     0.102 C 
ATOM     20  H15 1QM d   1      -1.851  -2.550  13.512  0.00  0.00     0.277 HD
ATOM     21  H16 1QM d   1      -1.795  -2.054  15.081  0.00  0.00     0.277 HD
ATOM     22  C16 1QM d   1      -3.085  -0.376  12.440  0.00  0.00     0.049 C 
ATOM     23  H17 1QM d   1      -2.897  -0.034  14.556  0.00  0.00     0.079 H 
ATOM     24  H18 1QM d   1      -1.338  -0.250  13.691  0.00  0.00     0.079 H 
ATOM     25  O1  1QM d   1      -4.473  -0.619  12.558  0.00  0.00    -0.346 OA
ATOM     26  H8  1QM d   1      -2.927   0.667  12.128  0.00  0.00     0.077 H 
ATOM     27  H9  1QM d   1      -2.663  -1.053  11.683  0.00  0.00     0.077 H 
ENDBRANCH   2   7
BRANCH   4  28
ATOM     28  C6  1QM d   1      -8.446  -2.325   9.667  0.00  0.00    -0.005 A 
ATOM     29  C7  1QM d   1      -9.071  -2.743   8.493  0.00  0.00    -0.068 A 
ATOM     30  C8  1QM d   1     -10.136  -3.632   8.548  0.00  0.00    -0.045 A 
ATOM     31  H1  1QM d   1      -8.725  -2.373   7.535  0.00  0.00     0.085 H 
ATOM     32  C9  1QM d   1     -10.577  -4.075   9.798  0.00  0.00     0.116 A 
ATOM     33  H5  1QM d   1     -10.616  -3.976   7.639  0.00  0.00     0.088 H 
ATOM     34  C10 1QM d   1      -9.951  -3.672  10.982  0.00  0.00    -0.045 A 
ATOM     35  F1  1QM d   1     -11.614  -4.901   9.871  0.00  0.00    -0.206 F 
ATOM     36  C11 1QM d   1      -8.874  -2.803  10.905  0.00  0.00    -0.068 A 
ATOM     37  H12 1QM d   1     -10.302  -4.033  11.942  0.00  0.00     0.088 H 
ATOM     38  H13 1QM d   1      -8.363  -2.494  11.810  0.00  0.00     0.085 H 
ENDBRANCH   4  28
BRANCH   1  39
ATOM     39  C13 1QM d   1      -6.261   1.811   8.318  0.00  0.00     0.002 C 
ATOM     40  H2  1QM d   1      -5.307   2.262   8.630  0.00  0.00     0.059 H 
ATOM     41  H3  1QM d   1      -7.089   2.486   8.580  0.00  0.00     0.059 H 
ATOM     42  H4  1QM d   1      -6.251   1.648   7.230  0.00  0.00     0.059 H 
ENDBRANCH   1  39
TORSDOF 3
