REMARK  4 active torsions:
REMARK  status: ('A' for Active; 'I' for Inactive)
REMARK    1  A    between atoms: C7_4  and  C6_5 
REMARK    2  A    between atoms: C13_7  and  C15_18 
REMARK    3  A    between atoms: C10_14  and  C8_8 
REMARK    4  A    between atoms: C15_18  and  O1_19 
ROOT
ATOM      1  N2  1QJ d   1     -19.307  -1.543  39.239  0.00  0.00    -0.174 NA
ATOM      2  C7  1QJ d   1     -20.281  -0.931  39.979  0.00  0.00     0.099 A 
ATOM      3  C9  1QJ d   1     -21.229  -2.770  39.067  0.00  0.00     0.009 A 
ATOM      4  C8  1QJ d   1     -21.502  -1.671  39.887  0.00  0.00     0.022 A 
ATOM      5  N1  1QJ d   1     -19.900  -2.641  38.696  0.00  0.00    -0.288 N 
ATOM      6  H2  1QJ d   1     -21.918  -3.563  38.779  0.00  0.00     0.115 H 
ATOM      7  H6  1QJ d   1     -19.414  -3.304  38.076  0.00  0.00     0.188 HD
ENDROOT
BRANCH   4   8
ATOM      8  C10 1QJ d   1     -22.780  -1.362  40.470  0.00  0.00    -0.019 A 
ATOM      9  C11 1QJ d   1     -23.195  -0.042  40.630  0.00  0.00    -0.055 A 
ATOM     10  C12 1QJ d   1     -24.475   0.191  41.139  0.00  0.00     0.003 A 
ATOM     11  H7  1QJ d   1     -22.542   0.782  40.367  0.00  0.00     0.087 H 
ATOM     12  N3  1QJ d   1     -25.338  -0.792  41.482  0.00  0.00    -0.263 NA
ATOM     13  H8  1QJ d   1     -24.795   1.219  41.266  0.00  0.00     0.114 H 
ATOM     14  C13 1QJ d   1     -24.896  -2.065  41.334  0.00  0.00     0.058 A 
ATOM     15  C14 1QJ d   1     -23.633  -2.398  40.846  0.00  0.00    -0.046 A 
ATOM     16  H9  1QJ d   1     -23.323  -3.433  40.761  0.00  0.00     0.088 H 
BRANCH  14  17
ATOM     17  C15 1QJ d   1     -25.855  -3.179  41.696  0.00  0.00     0.056 C 
ATOM     18  H10 1QJ d   1     -26.763  -2.750  42.145  0.00  0.00     0.083 H 
ATOM     19  H11 1QJ d   1     -25.375  -3.857  42.416  0.00  0.00     0.083 H 
BRANCH  17  20
ATOM     20  O1  1QJ d   1     -26.196  -3.889  40.544  0.00  0.00    -0.395 OA
ATOM     21  H12 1QJ d   1     -26.610  -3.302  39.923  0.00  0.00     0.209 HD
ENDBRANCH  17  20
ENDBRANCH  14  17
ENDBRANCH   4   8
BRANCH   2  22
ATOM     22  C6  1QJ d   1     -19.997   0.259  40.754  0.00  0.00    -0.005 A 
ATOM     23  C1  1QJ d   1     -19.244   1.288  40.191  0.00  0.00    -0.068 A 
ATOM     24  C2  1QJ d   1     -18.910   2.400  40.953  0.00  0.00    -0.045 A 
ATOM     25  H3  1QJ d   1     -18.919   1.220  39.159  0.00  0.00     0.085 H 
ATOM     26  C3  1QJ d   1     -19.328   2.453  42.286  0.00  0.00     0.116 A 
ATOM     27  H4  1QJ d   1     -18.336   3.212  40.522  0.00  0.00     0.088 H 
ATOM     28  C4  1QJ d   1     -20.094   1.431  42.857  0.00  0.00    -0.045 A 
ATOM     29  F1  1QJ d   1     -18.995   3.499  43.032  0.00  0.00    -0.206 F 
ATOM     30  C5  1QJ d   1     -20.431   0.336  42.076  0.00  0.00    -0.068 A 
ATOM     31  H1  1QJ d   1     -20.418   1.494  43.890  0.00  0.00     0.088 H 
ATOM     32  H5  1QJ d   1     -21.033  -0.462  42.495  0.00  0.00     0.085 H 
ENDBRANCH   2  22
TORSDOF 4
