REMARK  4 active torsions:
REMARK  status: ('A' for Active; 'I' for Inactive)
REMARK    1  A    between atoms: C4_2  and  C5_16 
REMARK    2  A    between atoms: C14_21  and  C16_10 
REMARK    3  A    between atoms: N1_13  and  C1_12 
REMARK    4  A    between atoms: C11_19  and  C3_15 
ROOT
ATOM      1  N3  1QG d   1      21.927  21.923 -51.441  0.00  0.00    -0.263 NA
ATOM      2  C13 1QG d   1      22.711  22.010 -50.346  0.00  0.00     0.003 A 
ATOM      3  C11 1QG d   1      21.161  23.428 -49.200  0.00  0.00    -0.019 A 
ATOM      4  C12 1QG d   1      22.373  22.743 -49.206  0.00  0.00    -0.055 A 
ATOM      5  C14 1QG d   1      20.747  22.598 -51.408  0.00  0.00     0.067 A 
ATOM      6  C15 1QG d   1      20.328  23.364 -50.320  0.00  0.00    -0.046 A 
ATOM      7  H4  1QG d   1      23.657  21.481 -50.352  0.00  0.00     0.114 H 
ATOM      8  H15 1QG d   1      23.036  22.777 -48.349  0.00  0.00     0.087 H 
ATOM      9  H16 1QG d   1      19.383  23.895 -50.343  0.00  0.00     0.088 H 
ENDROOT
BRANCH   3  10
ATOM     10  C3  1QG d   1      20.763  24.167 -48.032  0.00  0.00     0.023 A 
ATOM     11  C4  1QG d   1      21.598  24.869 -47.108  0.00  0.00     0.100 A 
ATOM     12  N2  1QG d   1      20.848  25.382 -46.084  0.00  0.00    -0.172 NA
ATOM     13  N1  1QG d   1      19.563  25.021 -46.365  0.00  0.00    -0.284 N 
ATOM     14  C2  1QG d   1      19.460  24.292 -47.544  0.00  0.00     0.011 A 
ATOM     15  H13 1QG d   1      18.550  23.899 -47.995  0.00  0.00     0.115 H 
BRANCH  11  16
ATOM     16  C5  1QG d   1      23.025  25.127 -47.183  0.00  0.00    -0.005 A 
ATOM     17  C6  1QG d   1      23.804  25.046 -46.030  0.00  0.00    -0.068 A 
ATOM     18  C7  1QG d   1      25.154  25.363 -46.074  0.00  0.00    -0.045 A 
ATOM     19  H2  1QG d   1      23.353  24.734 -45.095  0.00  0.00     0.085 H 
ATOM     20  C8  1QG d   1      25.709  25.754 -47.295  0.00  0.00     0.116 A 
ATOM     21  H1  1QG d   1      25.765  25.308 -45.180  0.00  0.00     0.088 H 
ATOM     22  C9  1QG d   1      24.943  25.831 -48.464  0.00  0.00    -0.045 A 
ATOM     23  F1  1QG d   1      27.000  26.060 -47.349  0.00  0.00    -0.206 F 
ATOM     24  C10 1QG d   1      23.596  25.511 -48.396  0.00  0.00    -0.068 A 
ATOM     25  H3  1QG d   1      25.393  26.134 -49.402  0.00  0.00     0.088 H 
ATOM     26  H14 1QG d   1      22.984  25.559 -49.289  0.00  0.00     0.085 H 
ENDBRANCH  11  16
BRANCH  13  27
ATOM     27  C1  1QG d   1      18.444  25.450 -45.521  0.00  0.00     0.002 C 
ATOM     28  H10 1QG d   1      17.504  25.049 -45.927  0.00  0.00     0.059 H 
ATOM     29  H11 1QG d   1      18.397  26.549 -45.505  0.00  0.00     0.059 H 
ATOM     30  H12 1QG d   1      18.591  25.074 -44.498  0.00  0.00     0.059 H 
ENDBRANCH  13  27
ENDBRANCH   3  10
BRANCH   5  31
ATOM     31  C16 1QG d   1      19.886  22.445 -52.639  0.00  0.00     0.163 C 
ATOM     32  C17 1QG d   1      18.582  21.706 -52.267  0.00  0.00     0.051 C 
ATOM     33  O1  1QG d   1      17.784  21.557 -53.413  0.00  0.00    -0.387 OA
ATOM     34  H17 1QG d   1      18.034  22.288 -51.512  0.00  0.00     0.078 H 
ATOM     35  H18 1QG d   1      18.826  20.714 -51.859  0.00  0.00     0.078 H 
ATOM     36  C18 1QG d   1      17.406  22.789 -53.969  0.00  0.00     0.042 C 
ATOM     37  C19 1QG d   1      18.642  23.627 -54.348  0.00  0.00     0.102 C 
ATOM     38  H5  1QG d   1      16.805  22.607 -54.872  0.00  0.00     0.076 H 
ATOM     39  H6  1QG d   1      16.805  23.346 -53.235  0.00  0.00     0.076 H 
ATOM     40  N4  1QG d   1      19.494  23.781 -53.147  0.00  0.00    -0.061 N 
ATOM     41  H8  1QG d   1      18.323  24.617 -54.706  0.00  0.00     0.079 H 
ATOM     42  H9  1QG d   1      19.208  23.116 -55.141  0.00  0.00     0.079 H 
ATOM     43  H19 1QG d   1      20.321  24.304 -53.388  0.00  0.00     0.278 HD
ATOM     44  H20 1QG d   1      18.981  24.274 -52.433  0.00  0.00     0.278 HD
ATOM     45  H7  1QG d   1      20.436  21.888 -53.412  0.00  0.00     0.097 H 
ENDBRANCH   5  31
TORSDOF 4
