REMARK  6 active torsions:
REMARK  status: ('A' for Active; 'I' for Inactive)
REMARK    1  A    between atoms: C2'_10  and  O2'_11 
REMARK    2  A    between atoms: C1'_12  and  N9_13 
REMARK    3  A    between atoms: C2_20  and  N2_21 
REMARK    4  A    between atoms: C2A_33  and  O2A_34 
REMARK    5  A    between atoms: C1A_35  and  N91_36 
REMARK    6  A    between atoms: C21_43  and  N21_44 
ROOT
ATOM      1  P1  C2E d   1     -17.510 -14.421  -6.271  0.00  0.00     0.408 P 
ATOM      2  O2P C2E d   1     -16.554 -13.540  -5.531  0.00  0.00    -0.624 OA
ATOM      3  O1P C2E d   1     -18.523 -13.474  -6.909  0.00  0.00    -0.624 OA
ATOM      4  O5' C2E d   1     -16.838 -15.179  -7.464  0.00  0.00    -0.287 OA
ATOM      5  C5' C2E d   1     -17.465 -15.310  -8.690  0.00  0.00     0.058 C 
ATOM      6  C4' C2E d   1     -17.677 -16.629  -9.293  0.00  0.00     0.090 C 
ATOM      7  O4' C2E d   1     -16.691 -17.612  -9.041  0.00  0.00    -0.353 OA
ATOM      8  C3' C2E d   1     -18.821 -17.293  -8.708  0.00  0.00     0.106 C 
ATOM      9  O3' C2E d   1     -20.085 -16.693  -8.941  0.00  0.00    -0.279 OA
ATOM     10  C2' C2E d   1     -18.750 -18.582  -9.298  0.00  0.00     0.106 C 
ATOM     11  C1' C2E d   1     -17.318 -18.744  -9.589  0.00  0.00     0.140 C 
ATOM     12  P11 C2E d   1     -21.267 -17.399  -8.169  0.00  0.00     0.408 P 
ATOM     13  O21 C2E d   1     -22.136 -18.207  -9.057  0.00  0.00    -0.624 OA
ATOM     14  O11 C2E d   1     -22.171 -16.267  -7.695  0.00  0.00    -0.624 OA
ATOM     15  O5A C2E d   1     -20.779 -18.167  -6.854  0.00  0.00    -0.287 OA
ATOM     16  C5A C2E d   1     -20.740 -17.544  -5.582  0.00  0.00     0.058 C 
ATOM     17  C4A C2E d   1     -19.506 -17.455  -4.856  0.00  0.00     0.090 C 
ATOM     18  O4A C2E d   1     -18.904 -18.781  -4.642  0.00  0.00    -0.353 OA
ATOM     19  C3A C2E d   1     -18.476 -16.722  -5.623  0.00  0.00     0.106 C 
ATOM     20  O3A C2E d   1     -18.352 -15.377  -5.293  0.00  0.00    -0.279 OA
ATOM     21  C2A C2E d   1     -17.210 -17.467  -5.424  0.00  0.00     0.106 C 
ATOM     22  C1A C2E d   1     -17.563 -18.452  -4.366  0.00  0.00     0.140 C 
ATOM     23  H1  C2E d   1     -16.869 -14.729  -9.410  0.00  0.00     0.079 H 
ATOM     24  H2  C2E d   1     -18.459 -14.852  -8.583  0.00  0.00     0.079 H 
ATOM     25  H3  C2E d   1     -17.805 -16.489 -10.377  0.00  0.00     0.090 H 
ATOM     26  H4  C2E d   1     -18.683 -17.362  -7.619  0.00  0.00     0.092 H 
ATOM     27  H5  C2E d   1     -19.102 -19.360  -8.605  0.00  0.00     0.093 H 
ATOM     28  H7  C2E d   1     -17.197 -18.641 -10.677  0.00  0.00     0.122 H 
ATOM     29  H12 C2E d   1     -21.445 -18.092  -4.940  0.00  0.00     0.079 H 
ATOM     30  H13 C2E d   1     -21.098 -16.514  -5.724  0.00  0.00     0.079 H 
ATOM     31  H14 C2E d   1     -19.694 -16.959  -3.893  0.00  0.00     0.090 H 
ATOM     32  H15 C2E d   1     -18.746 -16.767  -6.688  0.00  0.00     0.092 H 
ATOM     33  H16 C2E d   1     -16.899 -17.965  -6.354  0.00  0.00     0.093 H 
ATOM     34  H18 C2E d   1     -17.560 -17.914  -3.407  0.00  0.00     0.122 H 
ENDROOT
BRANCH  11  35
ATOM     35  N9  C2E d   1     -16.830 -20.129  -9.303  0.00  0.00    -0.293 N 
ATOM     36  C8  C2E d   1     -17.555 -21.149  -8.830  0.00  0.00     0.071 A 
ATOM     37  N7  C2E d   1     -16.799 -22.255  -8.750  0.00  0.00    -0.235 NA
ATOM     38  H8  C2E d   1     -18.606 -21.090  -8.550  0.00  0.00     0.144 H 
ATOM     39  C5  C2E d   1     -15.560 -21.954  -9.194  0.00  0.00     0.159 A 
ATOM     40  C6  C2E d   1     -14.368 -22.680  -9.341  0.00  0.00     0.226 A 
ATOM     41  C4  C2E d   1     -15.582 -20.601  -9.559  0.00  0.00     0.185 A 
ATOM     42  O6  C2E d   1     -14.309 -24.014  -8.989  0.00  0.00    -0.169 OA
ATOM     43  N1  C2E d   1     -13.281 -22.058  -9.827  0.00  0.00    -0.164 N 
ATOM     44  C2  C2E d   1     -13.355 -20.755 -10.162  0.00  0.00     0.702 A 
ATOM     45  H9  C2E d   1     -12.423 -22.559  -9.939  0.00  0.00     0.186 HD
ATOM     46  N3  C2E d   1     -14.471 -20.029 -10.041  0.00  0.00    -0.044 NA
BRANCH  44  47
ATOM     47  N2  C2E d   1     -12.189 -20.098 -10.683  0.00  0.00    -0.233 N 
ATOM     48  H10 C2E d   1     -12.232 -19.102 -10.943  0.00  0.00     0.174 HD
ATOM     49  H11 C2E d   1     -11.310 -20.622 -10.797  0.00  0.00     0.174 HD
ENDBRANCH  44  47
ENDBRANCH  11  35
BRANCH  10  50
ATOM     50  O2' C2E d   1     -19.526 -18.607 -10.480  0.00  0.00    -0.388 OA
ATOM     51  H6  C2E d   1     -20.430 -18.406 -10.268  0.00  0.00     0.210 HD
ENDBRANCH  10  50
BRANCH  21  52
ATOM     52  O2A C2E d   1     -16.201 -16.674  -4.969  0.00  0.00    -0.388 OA
ATOM     53  H17 C2E d   1     -16.036 -15.981  -5.598  0.00  0.00     0.210 HD
ENDBRANCH  21  52
BRANCH  22  54
ATOM     54  N91 C2E d   1     -16.594 -19.566  -4.171  0.00  0.00    -0.293 N 
ATOM     55  C81 C2E d   1     -16.913 -20.708  -3.564  0.00  0.00     0.071 A 
ATOM     56  N71 C2E d   1     -15.845 -21.518  -3.522  0.00  0.00    -0.235 NA
ATOM     57  H19 C2E d   1     -17.896 -20.948  -3.161  0.00  0.00     0.144 H 
ATOM     58  C51 C2E d   1     -14.798 -20.883  -4.089  0.00  0.00     0.159 A 
ATOM     59  C61 C2E d   1     -13.455 -21.221  -4.314  0.00  0.00     0.226 A 
ATOM     60  C41 C2E d   1     -15.270 -19.637  -4.499  0.00  0.00     0.185 A 
ATOM     61  O61 C2E d   1     -12.973 -22.435  -3.915  0.00  0.00    -0.169 OA
ATOM     62  N11 C2E d   1     -12.632 -20.343  -4.923  0.00  0.00    -0.164 N 
ATOM     63  C21 C2E d   1     -13.113 -19.154  -5.313  0.00  0.00     0.702 A 
ATOM     64  H20 C2E d   1     -11.673 -20.577  -5.082  0.00  0.00     0.186 HD
ATOM     65  N31 C2E d   1     -14.391 -18.805  -5.108  0.00  0.00    -0.044 NA
BRANCH  63  66
ATOM     66  N21 C2E d   1     -12.232 -18.214  -5.983  0.00  0.00    -0.233 N 
ATOM     67  H21 C2E d   1     -12.592 -17.298  -6.287  0.00  0.00     0.174 HD
ATOM     68  H22 C2E d   1     -11.248 -18.463  -6.155  0.00  0.00     0.174 HD
ENDBRANCH  63  66
ENDBRANCH  22  54
TORSDOF 6
