REMARK  8 active torsions:
REMARK  status: ('A' for Active; 'I' for Inactive)
REMARK    1  A    between atoms: N1_8  and  C1'_9 
REMARK    2  A    between atoms: C2'_11  and  O2'_12 
REMARK    3  A    between atoms: C3'_13  and  O3'_14 
REMARK    4  A    between atoms: C4'_15  and  C5'_16 
REMARK    5  A    between atoms: C5'_16  and  N11_17 
REMARK       I    between atoms: N11_17  and  C12_18 
REMARK    6  A    between atoms: C12_18  and  C14_20 
REMARK    7  A    between atoms: C18_24  and  C20_26 
REMARK    8  A    between atoms: C20_26  and  O21_27 
ROOT
ATOM      1  C1' WS1 d   1      15.987  23.368   6.236  0.00  0.00     0.141 C 
ATOM      2  O4' WS1 d   1      14.666  22.816   6.190  0.00  0.00    -0.354 OA
ATOM      3  C2' WS1 d   1      16.863  22.509   5.329  0.00  0.00     0.105 C 
ATOM      4  C3' WS1 d   1      16.105  21.203   5.313  0.00  0.00     0.091 C 
ATOM      5  C4' WS1 d   1      14.650  21.670   5.332  0.00  0.00     0.083 C 
ATOM      6  H4  WS1 d   1      15.970  24.398   5.850  0.00  0.00     0.123 H 
ATOM      7  H5  WS1 d   1      17.882  22.396   5.728  0.00  0.00     0.093 H 
ATOM      8  H7  WS1 d   1      16.327  20.617   6.217  0.00  0.00     0.091 H 
ATOM      9  H9  WS1 d   1      14.365  21.970   4.313  0.00  0.00     0.090 H 
ENDROOT
BRANCH   5  10
ATOM     10  C5' WS1 d   1      13.610  20.655   5.818  0.00  0.00     0.022 C 
ATOM     11  H10 WS1 d   1      13.431  19.927   5.013  0.00  0.00     0.068 H 
ATOM     12  H11 WS1 d   1      12.676  21.192   6.040  0.00  0.00     0.068 H 
BRANCH  10  13
ATOM     13  N11 WS1 d   1      14.020  19.930   7.013  0.00  0.00    -0.353 N 
ATOM     14  C12 WS1 d   1      14.614  18.739   6.917  0.00  0.00     0.270 C 
ATOM     15  O13 WS1 d   1      15.059  18.319   5.848  0.00  0.00    -0.266 OA
ATOM     16  H12 WS1 d   1      13.855  20.329   7.915  0.00  0.00     0.162 HD
BRANCH  14  17
ATOM     17  C14 WS1 d   1      14.760  17.861   8.125  0.00  0.00     0.124 A 
ATOM     18  C15 WS1 d   1      14.346  18.256   9.399  0.00  0.00    -0.050 A 
ATOM     19  C16 WS1 d   1      14.520  17.372  10.466  0.00  0.00    -0.079 A 
ATOM     20  H13 WS1 d   1      13.898  19.230   9.557  0.00  0.00     0.087 H 
ATOM     21  C17 WS1 d   1      15.098  16.120  10.242  0.00  0.00    -0.057 A 
ATOM     22  H14 WS1 d   1      14.208  17.656  11.464  0.00  0.00     0.083 H 
ATOM     23  C18 WS1 d   1      15.491  15.771   8.951  0.00  0.00     0.058 A 
ATOM     24  H15 WS1 d   1      15.239  15.427  11.064  0.00  0.00     0.086 H 
ATOM     25  N19 WS1 d   1      15.317  16.645   7.935  0.00  0.00    -0.246 NA
BRANCH  23  26
ATOM     26  C20 WS1 d   1      16.119  14.429   8.650  0.00  0.00     0.056 C 
ATOM     27  H16 WS1 d   1      15.450  13.622   8.985  0.00  0.00     0.083 H 
ATOM     28  H17 WS1 d   1      17.084  14.345   9.171  0.00  0.00     0.083 H 
BRANCH  26  29
ATOM     29  O21 WS1 d   1      16.322  14.334   7.237  0.00  0.00    -0.395 OA
ATOM     30  H18 WS1 d   1      16.717  13.495   7.031  0.00  0.00     0.209 HD
ENDBRANCH  26  29
ENDBRANCH  23  26
ENDBRANCH  14  17
ENDBRANCH  10  13
ENDBRANCH   5  10
BRANCH   4  31
ATOM     31  O3' WS1 d   1      16.437  20.411   4.171  0.00  0.00    -0.390 OA
ATOM     32  H8  WS1 d   1      15.943  19.600   4.195  0.00  0.00     0.210 HD
ENDBRANCH   4  31
BRANCH   1  33
ATOM     33  N1  WS1 d   1      16.477  23.397   7.630  0.00  0.00    -0.280 N 
ATOM     34  C2  WS1 d   1      17.657  24.112   7.926  0.00  0.00     0.331 A 
ATOM     35  N3  WS1 d   1      18.133  24.172   9.174  0.00  0.00    -0.275 N 
ATOM     36  O2  WS1 d   1      18.268  24.688   7.008  0.00  0.00    -0.246 OA
ATOM     37  C4  WS1 d   1      17.497  23.559  10.183  0.00  0.00     0.250 A 
ATOM     38  H1  WS1 d   1      18.974  24.681   9.357  0.00  0.00     0.173 HD
ATOM     39  O4  WS1 d   1      17.967  23.636  11.343  0.00  0.00    -0.268 OA
ATOM     40  C5  WS1 d   1      16.323  22.844   9.932  0.00  0.00    -0.002 A 
ATOM     41  C6  WS1 d   1      15.823  22.775   8.629  0.00  0.00    -0.008 A 
ATOM     42  H2  WS1 d   1      15.801  22.344  10.746  0.00  0.00     0.094 H 
ATOM     43  H3  WS1 d   1      14.909  22.221   8.423  0.00  0.00     0.112 H 
ENDBRANCH   1  33
BRANCH   3  44
ATOM     44  O2' WS1 d   1      16.899  23.047   3.993  0.00  0.00    -0.388 OA
ATOM     45  H6  WS1 d   1      17.254  23.928   4.017  0.00  0.00     0.210 HD
ENDBRANCH   3  44
TORSDOF 8
