REMARK  8 active torsions:
REMARK  status: ('A' for Active; 'I' for Inactive)
REMARK    1  A    between atoms: N1_8  and  C1'_9 
REMARK    2  A    between atoms: C2'_11  and  O2'_12 
REMARK    3  A    between atoms: C3'_13  and  O3'_14 
REMARK    4  A    between atoms: C4'_15  and  C5'_16 
REMARK    5  A    between atoms: C5'_16  and  N11_17 
REMARK       I    between atoms: N11_17  and  C12_18 
REMARK    6  A    between atoms: C12_18  and  C14_20 
REMARK    7  A    between atoms: C18_24  and  C20_26 
REMARK    8  A    between atoms: C20_26  and  O1'_27 
ROOT
ATOM      1  C1' WS2 d   1      15.916  23.475   6.161  0.00  0.00     0.141 C 
ATOM      2  O4' WS2 d   1      14.601  22.910   6.114  0.00  0.00    -0.354 OA
ATOM      3  C2' WS2 d   1      16.795  22.583   5.292  0.00  0.00     0.105 C 
ATOM      4  C3' WS2 d   1      16.051  21.269   5.308  0.00  0.00     0.091 C 
ATOM      5  C4' WS2 d   1      14.599  21.731   5.305  0.00  0.00     0.083 C 
ATOM      6  H4  WS2 d   1      15.901  24.501   5.765  0.00  0.00     0.123 H 
ATOM      7  H5  WS2 d   1      17.811  22.487   5.702  0.00  0.00     0.093 H 
ATOM      8  H7  WS2 d   1      16.277  20.702   6.223  0.00  0.00     0.091 H 
ATOM      9  H9  WS2 d   1      14.319  21.990   4.273  0.00  0.00     0.090 H 
ENDROOT
BRANCH   5  10
ATOM     10  C5' WS2 d   1      13.561  20.730   5.819  0.00  0.00     0.022 C 
ATOM     11  H10 WS2 d   1      13.356  20.001   5.021  0.00  0.00     0.068 H 
ATOM     12  H11 WS2 d   1      12.639  21.279   6.060  0.00  0.00     0.068 H 
BRANCH  10  13
ATOM     13  N11 WS2 d   1      13.987  20.005   7.004  0.00  0.00    -0.353 N 
ATOM     14  C12 WS2 d   1      14.541  18.795   6.921  0.00  0.00     0.270 C 
ATOM     15  O13 WS2 d   1      14.974  18.366   5.858  0.00  0.00    -0.266 OA
ATOM     16  H12 WS2 d   1      13.862  20.424   7.904  0.00  0.00     0.162 HD
BRANCH  14  17
ATOM     17  C14 WS2 d   1      14.662  17.924   8.142  0.00  0.00     0.124 A 
ATOM     18  C15 WS2 d   1      14.102  18.302   9.366  0.00  0.00    -0.050 A 
ATOM     19  C16 WS2 d   1      14.242  17.456  10.470  0.00  0.00    -0.079 A 
ATOM     20  H13 WS2 d   1      13.566  19.240   9.458  0.00  0.00     0.087 H 
ATOM     21  C17 WS2 d   1      14.939  16.255  10.333  0.00  0.00    -0.057 A 
ATOM     22  H14 WS2 d   1      13.812  17.731  11.426  0.00  0.00     0.083 H 
ATOM     23  C18 WS2 d   1      15.479  15.910   9.093  0.00  0.00     0.058 A 
ATOM     24  H15 WS2 d   1      15.060  15.594  11.184  0.00  0.00     0.086 H 
ATOM     25  N19 WS2 d   1      15.335  16.750   8.037  0.00  0.00    -0.246 NA
BRANCH  23  26
ATOM     26  C20 WS2 d   1      16.247  14.613   8.918  0.00  0.00     0.056 C 
ATOM     27  H16 WS2 d   1      15.713  13.800   9.431  0.00  0.00     0.083 H 
ATOM     28  H17 WS2 d   1      17.252  14.723   9.352  0.00  0.00     0.083 H 
BRANCH  26  29
ATOM     29  O1' WS2 d   1      16.362  14.301   7.528  0.00  0.00    -0.395 OA
ATOM     30  H18 WS2 d   1      16.824  15.002   7.084  0.00  0.00     0.209 HD
ENDBRANCH  26  29
ENDBRANCH  23  26
ENDBRANCH  14  17
ENDBRANCH  10  13
ENDBRANCH   5  10
BRANCH   4  31
ATOM     31  O3' WS2 d   1      16.373  20.459   4.175  0.00  0.00    -0.390 OA
ATOM     32  H8  WS2 d   1      15.887  19.644   4.221  0.00  0.00     0.210 HD
ENDBRANCH   4  31
BRANCH   1  33
ATOM     33  N1  WS2 d   1      16.435  23.488   7.541  0.00  0.00    -0.280 N 
ATOM     34  C2  WS2 d   1      17.651  24.157   7.826  0.00  0.00     0.331 A 
ATOM     35  N3  WS2 d   1      18.139  24.182   9.076  0.00  0.00    -0.275 N 
ATOM     36  O2  WS2 d   1      18.281  24.726   6.912  0.00  0.00    -0.246 OA
ATOM     37  C4  WS2 d   1      17.492  23.578  10.086  0.00  0.00     0.250 A 
ATOM     38  H1  WS2 d   1      18.999  24.659   9.258  0.00  0.00     0.173 HD
ATOM     39  O4  WS2 d   1      17.981  23.612  11.245  0.00  0.00    -0.268 OA
ATOM     40  C5  WS2 d   1      16.290  22.906   9.843  0.00  0.00    -0.002 A 
ATOM     41  C6  WS2 d   1      15.775  22.879   8.543  0.00  0.00    -0.008 A 
ATOM     42  H2  WS2 d   1      15.762  22.410  10.656  0.00  0.00     0.094 H 
ATOM     43  H3  WS2 d   1      14.837  22.364   8.341  0.00  0.00     0.112 H 
ENDBRANCH   1  33
BRANCH   3  44
ATOM     44  O2' WS2 d   1      16.841  23.082   3.944  0.00  0.00    -0.388 OA
ATOM     45  H6  WS2 d   1      17.199  23.962   3.945  0.00  0.00     0.210 HD
ENDBRANCH   3  44
TORSDOF 8
