REMARK  7 active torsions:
REMARK  status: ('A' for Active; 'I' for Inactive)
REMARK    1  A    between atoms: C18_10  and  C20_11 
REMARK    2  A    between atoms: C20_11  and  C21_12 
REMARK    3  A    between atoms: C11_15  and  N10_16 
REMARK    4  A    between atoms: N10_16  and  C9_17 
REMARK    5  A    between atoms: C9_17  and  C6_18 
REMARK    6  A    between atoms: C6_18  and  O8_19 
REMARK    7  A    between atoms: C6_18  and  C5_20 
ROOT
ATOM      1  C6  1R8 d   1      32.032   5.385  14.354  0.00  0.00     0.078 C 
ATOM      2  H22 1R8 d   1      32.318   4.877  15.287  0.00  0.00     0.088 H 
ENDROOT
BRANCH   1   3
ATOM      3  C9  1R8 d   1      31.001   4.524  13.632  0.00  0.00     0.108 C 
ATOM      4  H20 1R8 d   1      30.120   4.385  14.275  0.00  0.00     0.079 H 
ATOM      5  H21 1R8 d   1      30.698   5.017  12.696  0.00  0.00     0.079 H 
BRANCH   3   6
ATOM      6  N10 1R8 d   1      31.608   3.205  13.327  0.00  0.00    -0.064 N 
ATOM      7  H18 1R8 d   1      32.573   3.356  13.079  0.00  0.00     0.278 HD
ATOM      8  H19 1R8 d   1      31.560   2.639  14.160  0.00  0.00     0.278 HD
BRANCH   6   9
ATOM      9  C11 1R8 d   1      30.957   2.448  12.215  0.00  0.00     0.132 C 
ATOM     10  C12 1R8 d   1      29.547   1.958  12.611  0.00  0.00    -0.005 C 
ATOM     11  C1  1R8 d   1      28.786   1.511  11.347  0.00  0.00     0.070 C 
ATOM     12  H7  1R8 d   1      29.635   1.110  13.306  0.00  0.00     0.041 H 
ATOM     13  H8  1R8 d   1      28.998   2.776  13.100  0.00  0.00     0.041 H 
ATOM     14  C2  1R8 d   1      29.290   0.192  10.714  0.00  0.00    -0.035 C 
ATOM     15  C4  1R8 d   1      27.465   0.827  11.714  0.00  0.00    -0.035 C 
ATOM     16  O13 1R8 d   1      28.631   2.587  10.410  0.00  0.00    -0.340 OA
ATOM     17  C3  1R8 d   1      28.037  -0.524  11.225  0.00  0.00    -0.060 C 
ATOM     18  H1  1R8 d   1      29.375   0.223   9.618  0.00  0.00     0.037 H 
ATOM     19  H2  1R8 d   1      30.230  -0.183  11.145  0.00  0.00     0.037 H 
ATOM     20  H3  1R8 d   1      28.230  -1.248  12.030  0.00  0.00     0.033 H 
ATOM     21  H4  1R8 d   1      27.441  -1.005  10.435  0.00  0.00     0.033 H 
ATOM     22  H5  1R8 d   1      27.228   0.853  12.788  0.00  0.00     0.037 H 
ATOM     23  H6  1R8 d   1      26.598   1.184  11.138  0.00  0.00     0.037 H 
ATOM     24  C15 1R8 d   1      29.764   3.272  10.074  0.00  0.00     0.078 A 
ATOM     25  C16 1R8 d   1      29.760   4.018   8.888  0.00  0.00    -0.050 A 
ATOM     26  C14 1R8 d   1      30.905   3.265  10.886  0.00  0.00     0.006 A 
ATOM     27  C17 1R8 d   1      30.901   4.730   8.500  0.00  0.00    -0.074 A 
ATOM     28  H9  1R8 d   1      28.870   4.044   8.269  0.00  0.00     0.087 H 
ATOM     29  C18 1R8 d   1      32.038   4.711   9.298  0.00  0.00    -0.058 A 
ATOM     30  H10 1R8 d   1      30.897   5.297   7.576  0.00  0.00     0.084 H 
ATOM     31  C19 1R8 d   1      32.037   3.977  10.478  0.00  0.00    -0.066 A 
ATOM     32  H16 1R8 d   1      32.929   3.956  11.093  0.00  0.00     0.085 H 
ATOM     33  H17 1R8 d   1      31.574   1.557  12.026  0.00  0.00     0.092 H 
BRANCH  29  34
ATOM     34  C20 1R8 d   1      33.299   5.480   8.890  0.00  0.00    -0.044 C 
ATOM     35  H11 1R8 d   1      33.717   5.990   9.770  0.00  0.00     0.039 H 
ATOM     36  H12 1R8 d   1      33.041   6.225   8.123  0.00  0.00     0.039 H 
BRANCH  34  37
ATOM     37  C21 1R8 d   1      34.342   4.501   8.322  0.00  0.00    -0.073 C 
ATOM     38  H13 1R8 d   1      35.245   5.056   8.030  0.00  0.00     0.028 H 
ATOM     39  H14 1R8 d   1      33.925   3.991   7.441  0.00  0.00     0.028 H 
ATOM     40  H15 1R8 d   1      34.601   3.756   9.089  0.00  0.00     0.028 H 
ENDBRANCH  34  37
ENDBRANCH  29  34
ENDBRANCH   6   9
ENDBRANCH   3   6
ENDBRANCH   1   3
BRANCH   1  41
ATOM     41  O8  1R8 d   1      33.163   5.483  13.507  0.00  0.00    -0.392 OA
ATOM     42  H23 1R8 d   1      33.828   6.015  13.928  0.00  0.00     0.210 HD
ENDBRANCH   1  41
BRANCH   1  43
ATOM     43  C5  1R8 d   1      31.534   6.794  14.714  0.00  0.00     0.042 C 
ATOM     44  C22 1R8 d   1      32.637   7.587  15.437  0.00  0.00    -0.020 C 
ATOM     45  C23 1R8 d   1      32.134   8.942  15.950  0.00  0.00    -0.056 A 
ATOM     46  H25 1R8 d   1      33.467   7.760  14.736  0.00  0.00     0.043 H 
ATOM     47  H26 1R8 d   1      32.996   6.996  16.292  0.00  0.00     0.043 H 
ATOM     48  C24 1R8 d   1      31.587   9.037  17.234  0.00  0.00    -0.071 A 
ATOM     49  C28 1R8 d   1      32.219  10.081  15.140  0.00  0.00    -0.077 A 
ATOM     50  C25 1R8 d   1      31.117  10.257  17.724  0.00  0.00    -0.058 A 
ATOM     51  H27 1R8 d   1      31.527   8.152  17.857  0.00  0.00     0.085 H 
ATOM     52  C26 1R8 d   1      31.191  11.400  16.915  0.00  0.00    -0.077 A 
ATOM     53  C29 1R8 d   1      30.506  10.324  19.144  0.00  0.00    -0.041 C 
ATOM     54  C27 1R8 d   1      31.745  11.307  15.630  0.00  0.00    -0.082 A 
ATOM     55  H30 1R8 d   1      30.822  12.351  17.281  0.00  0.00     0.084 H 
ATOM     56  H29 1R8 d   1      31.808  12.193  15.008  0.00  0.00     0.083 H 
ATOM     57  C30 1R8 d   1      28.951  10.356  19.120  0.00  0.00    -0.061 C 
ATOM     58  H31 1R8 d   1      30.870  11.234  19.643  0.00  0.00     0.040 H 
ATOM     59  H32 1R8 d   1      30.832   9.440  19.711  0.00  0.00     0.040 H 
ATOM     60  C33 1R8 d   1      28.303   9.100  18.470  0.00  0.00    -0.065 C 
ATOM     61  H33 1R8 d   1      28.632  11.243  18.553  0.00  0.00     0.033 H 
ATOM     62  H34 1R8 d   1      28.590  10.434  20.156  0.00  0.00     0.033 H 
ATOM     63  C34 1R8 d   1      27.974   9.350  16.972  0.00  0.00    -0.065 C 
ATOM     64  H35 1R8 d   1      27.373   8.858  19.006  0.00  0.00     0.033 H 
ATOM     65  H36 1R8 d   1      29.002   8.255  18.548  0.00  0.00     0.033 H 
ATOM     66  C35 1R8 d   1      27.172   8.201  16.329  0.00  0.00    -0.057 C 
ATOM     67  H37 1R8 d   1      28.919   9.469  16.421  0.00  0.00     0.033 H 
ATOM     68  H38 1R8 d   1      27.385  10.275  16.893  0.00  0.00     0.033 H 
ATOM     69  C36 1R8 d   1      27.983   6.909  16.149  0.00  0.00     0.009 C 
ATOM     70  H39 1R8 d   1      26.822   8.532  15.340  0.00  0.00     0.033 H 
ATOM     71  H40 1R8 d   1      26.305   7.981  16.970  0.00  0.00     0.033 H 
ATOM     72  C31 1R8 d   1      29.119   7.076  15.139  0.00  0.00     0.217 C 
ATOM     73  H41 1R8 d   1      27.309   6.114  15.796  0.00  0.00     0.047 H 
ATOM     74  H42 1R8 d   1      28.412   6.622  17.120  0.00  0.00     0.047 H 
ATOM     75  O32 1R8 d   1      28.885   7.510  14.011  0.00  0.00    -0.274 OA
ATOM     76  N7  1R8 d   1      30.331   6.699  15.562  0.00  0.00    -0.354 N 
ATOM     77  H43 1R8 d   1      30.425   6.338  16.490  0.00  0.00     0.163 HD
ATOM     78  H28 1R8 d   1      32.646  10.016  14.146  0.00  0.00     0.084 H 
ATOM     79  H24 1R8 d   1      31.271   7.323  13.786  0.00  0.00     0.077 H 
ENDBRANCH   1  43
TORSDOF 7
