REMARK  7 active torsions:
REMARK  status: ('A' for Active; 'I' for Inactive)
REMARK    1  A    between atoms: C24_10  and  C26_11 
REMARK    2  A    between atoms: C26_11  and  C27_12 
REMARK    3  A    between atoms: C18_15  and  N2_16 
REMARK    4  A    between atoms: N2_16  and  C17_17 
REMARK    5  A    between atoms: C17_17  and  C16_18 
REMARK    6  A    between atoms: C16_18  and  O2_19 
REMARK    7  A    between atoms: C16_18  and  C12_20 
ROOT
ATOM      1  C16 1R6 d   1      67.154  49.064   6.785  0.00  0.00     0.078 C 
ATOM      2  H22 1R6 d   1      67.102  48.838   5.710  0.00  0.00     0.088 H 
ENDROOT
BRANCH   1   3
ATOM      3  C17 1R6 d   1      66.280  48.065   7.556  0.00  0.00     0.108 C 
ATOM      4  H20 1R6 d   1      66.560  47.035   7.289  0.00  0.00     0.079 H 
ATOM      5  H21 1R6 d   1      66.407  48.211   8.639  0.00  0.00     0.079 H 
BRANCH   3   6
ATOM      6  N2  1R6 d   1      64.874  48.323   7.172  0.00  0.00    -0.064 N 
ATOM      7  H18 1R6 d   1      64.762  49.319   7.070  0.00  0.00     0.278 HD
ATOM      8  H19 1R6 d   1      64.711  47.874   6.285  0.00  0.00     0.278 HD
BRANCH   6   9
ATOM      9  C18 1R6 d   1      63.841  47.850   8.110  0.00  0.00     0.132 C 
ATOM     10  C19 1R6 d   1      63.837  46.304   8.135  0.00  0.00    -0.005 C 
ATOM     11  C1  1R6 d   1      63.031  45.848   9.358  0.00  0.00     0.070 C 
ATOM     12  H7  1R6 d   1      63.371  45.918   7.216  0.00  0.00     0.041 H 
ATOM     13  H8  1R6 d   1      64.869  45.930   8.208  0.00  0.00     0.041 H 
ATOM     14  C2  1R6 d   1      61.532  46.134   9.198  0.00  0.00    -0.035 C 
ATOM     15  C4  1R6 d   1      62.734  44.345   9.344  0.00  0.00    -0.035 C 
ATOM     16  O1  1R6 d   1      63.575  46.335  10.597  0.00  0.00    -0.340 OA
ATOM     17  C3  1R6 d   1      61.323  44.663   8.816  0.00  0.00    -0.060 C 
ATOM     18  H1  1R6 d   1      61.027  46.438  10.127  0.00  0.00     0.037 H 
ATOM     19  H2  1R6 d   1      61.290  46.849   8.398  0.00  0.00     0.037 H 
ATOM     20  H3  1R6 d   1      61.195  44.490   7.737  0.00  0.00     0.033 H 
ATOM     21  H4  1R6 d   1      60.512  44.164   9.366  0.00  0.00     0.033 H 
ATOM     22  H5  1R6 d   1      63.359  43.765   8.649  0.00  0.00     0.037 H 
ATOM     23  H6  1R6 d   1      62.751  43.870  10.336  0.00  0.00     0.037 H 
ATOM     24  C21 1R6 d   1      63.799  47.689  10.669  0.00  0.00     0.078 A 
ATOM     25  C22 1R6 d   1      63.903  48.270  11.938  0.00  0.00    -0.050 A 
ATOM     26  C20 1R6 d   1      63.961  48.482   9.518  0.00  0.00     0.006 A 
ATOM     27  C23 1R6 d   1      64.126  49.641  12.072  0.00  0.00    -0.074 A 
ATOM     28  H9  1R6 d   1      63.810  47.651  12.823  0.00  0.00     0.087 H 
ATOM     29  C24 1R6 d   1      64.266  50.439  10.929  0.00  0.00    -0.058 A 
ATOM     30  H10 1R6 d   1      64.191  50.087  13.058  0.00  0.00     0.084 H 
ATOM     31  C25 1R6 d   1      64.183  49.863   9.653  0.00  0.00    -0.066 A 
ATOM     32  H16 1R6 d   1      64.290  50.483   8.771  0.00  0.00     0.085 H 
ATOM     33  H17 1R6 d   1      62.868  48.170   7.708  0.00  0.00     0.092 H 
BRANCH  29  34
ATOM     34  C26 1R6 d   1      64.521  51.942  11.083  0.00  0.00    -0.044 C 
ATOM     35  H11 1R6 d   1      65.376  52.226  10.452  0.00  0.00     0.039 H 
ATOM     36  H12 1R6 d   1      64.754  52.159  12.136  0.00  0.00     0.039 H 
BRANCH  34  37
ATOM     37  C27 1R6 d   1      63.302  52.761  10.665  0.00  0.00    -0.073 C 
ATOM     38  H13 1R6 d   1      63.520  53.832  10.788  0.00  0.00     0.028 H 
ATOM     39  H14 1R6 d   1      62.443  52.487  11.295  0.00  0.00     0.028 H 
ATOM     40  H15 1R6 d   1      63.065  52.554   9.611  0.00  0.00     0.028 H 
ENDBRANCH  34  37
ENDBRANCH  29  34
ENDBRANCH   6   9
ENDBRANCH   3   6
ENDBRANCH   1   3
BRANCH   1  41
ATOM     41  O2  1R6 d   1      66.662  50.384   7.044  0.00  0.00    -0.392 OA
ATOM     42  H23 1R6 d   1      67.192  51.016   6.574  0.00  0.00     0.210 HD
ENDBRANCH   1  41
BRANCH   1  43
ATOM     43  C12 1R6 d   1      68.622  49.041   7.246  0.00  0.00     0.042 C 
ATOM     44  C11 1R6 d   1      69.445  50.148   6.554  0.00  0.00    -0.020 C 
ATOM     45  C9  1R6 d   1      70.962  49.904   6.678  0.00  0.00    -0.056 A 
ATOM     46  H25 1R6 d   1      69.202  51.115   7.019  0.00  0.00     0.043 H 
ATOM     47  H26 1R6 d   1      69.176  50.176   5.488  0.00  0.00     0.043 H 
ATOM     48  C10 1R6 d   1      71.692  49.416   5.600  0.00  0.00    -0.071 A 
ATOM     49  C8  1R6 d   1      71.611  50.170   7.880  0.00  0.00    -0.077 A 
ATOM     50  C5  1R6 d   1      73.069  49.192   5.704  0.00  0.00    -0.058 A 
ATOM     51  H27 1R6 d   1      71.186  49.206   4.665  0.00  0.00     0.085 H 
ATOM     52  C6  1R6 d   1      73.713  49.448   6.911  0.00  0.00    -0.077 A 
ATOM     53  C13 1R6 d   1      73.853  48.641   4.507  0.00  0.00    -0.041 C 
ATOM     54  C7  1R6 d   1      72.986  49.948   7.989  0.00  0.00    -0.082 A 
ATOM     55  H30 1R6 d   1      74.776  49.259   7.012  0.00  0.00     0.084 H 
ATOM     56  H29 1R6 d   1      73.492  50.167   8.922  0.00  0.00     0.083 H 
ATOM     57  C14 1R6 d   1      74.188  47.151   4.692  0.00  0.00    -0.060 C 
ATOM     58  H31 1R6 d   1      74.790  49.208   4.401  0.00  0.00     0.040 H 
ATOM     59  H32 1R6 d   1      73.247  48.761   3.597  0.00  0.00     0.040 H 
ATOM     60  C15 1R6 d   1      73.050  46.229   4.254  0.00  0.00    -0.049 C 
ATOM     61  H33 1R6 d   1      74.399  46.968   5.756  0.00  0.00     0.033 H 
ATOM     62  H34 1R6 d   1      75.081  46.915   4.095  0.00  0.00     0.033 H 
ATOM     63  C34 1R6 d   1      73.101  44.883   5.015  0.00  0.00     0.002 C 
ATOM     64  H35 1R6 d   1      73.139  46.035   3.175  0.00  0.00     0.035 H 
ATOM     65  H36 1R6 d   1      72.088  46.722   4.460  0.00  0.00     0.035 H 
ATOM     66  N3  1R6 d   1      71.878  44.690   5.843  0.00  0.00    -0.324 N 
ATOM     67  H37 1R6 d   1      73.984  44.874   5.671  0.00  0.00     0.065 H 
ATOM     68  H38 1R6 d   1      73.176  44.061   4.287  0.00  0.00     0.065 H 
ATOM     69  C33 1R6 d   1      71.306  45.784   6.486  0.00  0.00    -0.002 A 
ATOM     70  C32 1R6 d   1      71.273  43.409   5.995  0.00  0.00     0.247 A 
ATOM     71  C29 1R6 d   1      70.170  45.618   7.267  0.00  0.00     0.047 A 
ATOM     72  H39 1R6 d   1      71.750  46.772   6.376  0.00  0.00     0.113 H 
ATOM     73  C30 1R6 d   1      69.562  44.367   7.404  0.00  0.00    -0.061 A 
ATOM     74  C28 1R6 d   1      69.554  46.852   7.887  0.00  0.00     0.253 C 
ATOM     75  C31 1R6 d   1      70.125  43.257   6.776  0.00  0.00    -0.016 A 
ATOM     76  H41 1R6 d   1      68.655  44.260   7.997  0.00  0.00     0.085 H 
ATOM     77  H40 1R6 d   1      69.671  42.274   6.894  0.00  0.00     0.092 H 
ATOM     78  O3  1R6 d   1      69.305  46.953   9.084  0.00  0.00    -0.268 OA
ATOM     79  N1  1R6 d   1      69.219  47.742   6.947  0.00  0.00    -0.349 N 
ATOM     80  H42 1R6 d   1      69.386  47.506   5.990  0.00  0.00     0.163 HD
ATOM     81  O4  1R6 d   1      71.744  42.417   5.439  0.00  0.00    -0.268 OA
ATOM     82  H28 1R6 d   1      71.052  50.548   8.728  0.00  0.00     0.084 H 
ATOM     83  H24 1R6 d   1      68.651  49.207   8.333  0.00  0.00     0.077 H 
ENDBRANCH   1  43
TORSDOF 7
