REMARK  5 active torsions:
REMARK  status: ('A' for Active; 'I' for Inactive)
REMARK    1  A    between atoms: C6_3  and  C7_4 
REMARK    2  A    between atoms: C7_4  and  N8_13 
REMARK    3  A    between atoms: S20_22  and  C3_12 
REMARK       I    between atoms: N8_13  and  C9_14 
REMARK       I    between atoms: C9_14  and  N11_16 
REMARK    4  A    between atoms: S20_22  and  C23_25 
REMARK    5  A    between atoms: N26_27  and  C29_29 
ROOT
ATOM      1  S20 1R7 d   1      13.691   4.221  -1.829  0.00  0.00     0.179 S 
ATOM      2  O21 1R7 d   1      13.306   3.219  -0.893  0.00  0.00    -0.222 OA
ATOM      3  O22 1R7 d   1      12.703   4.979  -2.509  0.00  0.00    -0.222 OA
ENDROOT
BRANCH   1   4
ATOM      4  C3  1R7 d   1      14.648   5.355  -0.869  0.00  0.00     0.059 A 
ATOM      5  C4  1R7 d   1      15.555   4.844   0.043  0.00  0.00    -0.061 A 
ATOM      6  C5  1R7 d   1      16.321   5.696   0.809  0.00  0.00    -0.074 A 
ATOM      7  H1  1R7 d   1      15.663   3.771   0.155  0.00  0.00     0.085 H 
ATOM      8  C6  1R7 d   1      16.186   7.069   0.684  0.00  0.00    -0.040 A 
ATOM      9  H2  1R7 d   1      17.035   5.288   1.515  0.00  0.00     0.084 H 
ATOM     10  C1  1R7 d   1      15.290   7.592  -0.239  0.00  0.00    -0.074 A 
ATOM     11  C2  1R7 d   1      14.519   6.734  -1.008  0.00  0.00    -0.061 A 
ATOM     12  H11 1R7 d   1      15.194   8.665  -0.358  0.00  0.00     0.084 H 
ATOM     13  H12 1R7 d   1      13.811   7.139  -1.722  0.00  0.00     0.085 H 
BRANCH   8  14
ATOM     14  C7  1R7 d   1      17.069   7.966   1.519  0.00  0.00     0.021 C 
ATOM     15  H3  1R7 d   1      17.098   8.953   1.034  0.00  0.00     0.071 H 
ATOM     16  H4  1R7 d   1      18.079   7.530   1.525  0.00  0.00     0.071 H 
BRANCH  14  17
ATOM     17  N8  1R7 d   1      16.661   8.164   2.908  0.00  0.00    -0.338 N 
ATOM     18  C9  1R7 d   1      15.648   9.007   3.144  0.00  0.00     0.326 C 
ATOM     19  O10 1R7 d   1      15.113   9.544   2.203  0.00  0.00    -0.246 OA
ATOM     20  N11 1R7 d   1      15.240   9.251   4.391  0.00  0.00    -0.284 N 
ATOM     21  C12 1R7 d   1      15.808   8.662   5.611  0.00  0.00    -0.000 A 
ATOM     22  C19 1R7 d   1      14.148  10.144   4.798  0.00  0.00     0.001 A 
ATOM     23  C13 1R7 d   1      14.981   9.133   6.764  0.00  0.00    -0.006 A 
ATOM     24  H14 1R7 d   1      16.673   8.003   5.666  0.00  0.00     0.113 H 
ATOM     25  C14 1R7 d   1      15.045   8.856   8.124  0.00  0.00    -0.054 A 
ATOM     26  C18 1R7 d   1      14.005   9.995   6.289  0.00  0.00     0.009 A 
ATOM     27  C15 1R7 d   1      14.124   9.454   8.964  0.00  0.00     0.003 A 
ATOM     28  H15 1R7 d   1      15.800   8.186   8.518  0.00  0.00     0.087 H 
ATOM     29  N16 1R7 d   1      13.206  10.269   8.480  0.00  0.00    -0.272 NA
ATOM     30  H5  1R7 d   1      14.156   9.252  10.028  0.00  0.00     0.114 H 
ATOM     31  C17 1R7 d   1      13.127  10.553   7.192  0.00  0.00     0.014 A 
ATOM     32  H6  1R7 d   1      12.361  11.235   6.841  0.00  0.00     0.116 H 
ATOM     33  H16 1R7 d   1      13.557  10.788   4.148  0.00  0.00     0.113 H 
ATOM     34  H13 1R7 d   1      17.122   7.687   3.656  0.00  0.00     0.164 HD
ENDBRANCH  14  17
ENDBRANCH   8  14
ENDBRANCH   1   4
BRANCH   1  35
ATOM     35  C23 1R7 d   1      14.834   3.519  -3.048  0.00  0.00     0.052 C 
ATOM     36  C24 1R7 d   1      15.230   4.602  -4.046  0.00  0.00    -0.026 C 
ATOM     37  C25 1R7 d   1      16.144   4.003  -5.123  0.00  0.00     0.085 C 
ATOM     38  H7  1R7 d   1      15.764   5.407  -3.520  0.00  0.00     0.037 H 
ATOM     39  H8  1R7 d   1      14.325   5.011  -4.520  0.00  0.00     0.037 H 
ATOM     40  N26 1R7 d   1      15.456   2.915  -5.835  0.00  0.00    -0.067 N 
ATOM     41  H18 1R7 d   1      17.053   3.606  -4.647  0.00  0.00     0.076 H 
ATOM     42  H19 1R7 d   1      16.420   4.789  -5.842  0.00  0.00     0.076 H 
ATOM     43  C27 1R7 d   1      15.086   1.840  -4.889  0.00  0.00     0.085 C 
ATOM     44  H20 1R7 d   1      14.610   3.286  -6.238  0.00  0.00     0.280 HD
ATOM     45  C28 1R7 d   1      14.145   2.381  -3.801  0.00  0.00    -0.026 C 
ATOM     46  H21 1R7 d   1      14.579   1.033  -5.438  0.00  0.00     0.076 H 
ATOM     47  H22 1R7 d   1      15.997   1.445  -4.416  0.00  0.00     0.076 H 
ATOM     48  H9  1R7 d   1      13.223   2.756  -4.268  0.00  0.00     0.037 H 
ATOM     49  H10 1R7 d   1      13.897   1.573  -3.097  0.00  0.00     0.037 H 
ATOM     50  H17 1R7 d   1      15.730   3.137  -2.538  0.00  0.00     0.064 H 
BRANCH  40  51
ATOM     51  C29 1R7 d   1      16.295   2.387  -6.931  0.00  0.00     0.107 C 
ATOM     52  C30 1R7 d   1      15.556   1.273  -7.681  0.00  0.00    -0.018 C 
ATOM     53  C31 1R7 d   1      16.406   0.788  -8.866  0.00  0.00     0.021 C 
ATOM     54  H24 1R7 d   1      14.596   1.659  -8.055  0.00  0.00     0.039 H 
ATOM     55  H25 1R7 d   1      15.371   0.432  -6.996  0.00  0.00     0.039 H 
ATOM     56  O32 1R7 d   1      16.725   1.886  -9.730  0.00  0.00    -0.391 OA
ATOM     57  H26 1R7 d   1      15.842   0.032  -9.432  0.00  0.00     0.074 H 
ATOM     58  H27 1R7 d   1      17.337   0.342  -8.486  0.00  0.00     0.074 H 
ATOM     59  C33 1R7 d   1      17.471   2.917  -9.084  0.00  0.00     0.021 C 
ATOM     60  C34 1R7 d   1      16.637   3.495  -7.933  0.00  0.00    -0.018 C 
ATOM     61  H28 1R7 d   1      17.702   3.713  -9.807  0.00  0.00     0.074 H 
ATOM     62  H29 1R7 d   1      18.408   2.500  -8.686  0.00  0.00     0.074 H 
ATOM     63  H30 1R7 d   1      17.213   4.282  -7.424  0.00  0.00     0.039 H 
ATOM     64  H31 1R7 d   1      15.707   3.923  -8.335  0.00  0.00     0.039 H 
ATOM     65  H23 1R7 d   1      17.225   1.984  -6.504  0.00  0.00     0.084 H 
ENDBRANCH  40  51
ENDBRANCH   1  35
TORSDOF 5
