REMARK  11 active torsions:
REMARK  status: ('A' for Active; 'I' for Inactive)
REMARK    1  A    between atoms: C1_1  and  C2_3 
REMARK       I    between atoms: N5_14  and  C1_1 
REMARK    2  A    between atoms: C2_3  and  C3_4 
REMARK    3  A    between atoms: C3_4  and  C4_5 
REMARK    4  A    between atoms: C4_5  and  C5_6 
REMARK    5  A    between atoms: C5_6  and  C6_7 
REMARK    6  A    between atoms: C6_7  and  C7_8 
REMARK    7  A    between atoms: C7_8  and  C8_9 
REMARK    8  A    between atoms: C8_9  and  C9_10 
REMARK    9  A    between atoms: C9_10  and  CA_11 
REMARK   10  A    between atoms: CA_11  and  CB_12 
REMARK   11  A    between atoms: CB_12  and  C01_26 
ROOT
ATOM      1  C3  RHL d   1      35.164  44.926 111.570  0.00  0.00    -0.057 C 
ATOM      2  H3  RHL d   1      34.867  44.966 112.628  0.00  0.00     0.033 H 
ATOM      3  H4  RHL d   1      35.908  45.710 111.369  0.00  0.00     0.033 H 
ENDROOT
BRANCH   1   4
ATOM      4  C2  RHL d   1      33.943  45.168 110.703  0.00  0.00     0.021 C 
ATOM      5  H1  RHL d   1      34.121  46.032 110.047  0.00  0.00     0.047 H 
ATOM      6  H2  RHL d   1      33.743  44.277 110.090  0.00  0.00     0.047 H 
BRANCH   4   7
ATOM      7  C1  RHL d   1      32.755  45.446 111.598  0.00  0.00     0.367 C 
ATOM      8  O1  RHL d   1      32.849  45.192 112.782  0.00  0.00    -0.262 OA
ATOM      9  N5  RHL d   1      31.543  45.988 111.088  0.00  0.00     0.267 N 
ATOM     10  C15 RHL d   1      30.437  46.240 111.935  0.00  0.00     0.280 A 
ATOM     11  C16 RHL d   1      31.354  46.308 109.722  0.00  0.00     0.280 A 
ATOM     12 RH1  RHL d   1      31.811  48.503 111.107  0.00  0.00     0.000 Rh
ATOM     13  N4  RHL d   1      30.101  47.527 112.229  0.00  0.00    -0.234 N 
ATOM     14  C14 RHL d   1      29.684  45.188 112.427  0.00  0.00    -0.027 A 
ATOM     15  C11 RHL d   1      29.028  47.783 113.027  0.00  0.00     0.004 A 
ATOM     16  C12 RHL d   1      28.278  46.731 113.531  0.00  0.00    -0.066 A 
ATOM     17  H21 RHL d   1      28.761  48.806 113.268  0.00  0.00     0.114 H 
ATOM     18  C13 RHL d   1      28.610  45.441 113.230  0.00  0.00    -0.078 A 
ATOM     19  H22 RHL d   1      27.424  46.934 114.167  0.00  0.00     0.085 H 
ATOM     20  H23 RHL d   1      28.023  44.621 113.627  0.00  0.00     0.083 H 
ATOM     21  H24 RHL d   1      29.947  44.167 112.175  0.00  0.00     0.089 H 
ATOM     22  N6  RHL d   1      31.580  47.581 109.297  0.00  0.00    -0.234 N 
ATOM     23  C17 RHL d   1      30.896  45.345 108.838  0.00  0.00    -0.027 A 
ATOM     24  C20 RHL d   1      31.377  47.904 107.991  0.00  0.00     0.004 A 
ATOM     25  C19 RHL d   1      30.930  46.939 107.100  0.00  0.00    -0.066 A 
ATOM     26  H28 RHL d   1      31.564  48.915 107.647  0.00  0.00     0.114 H 
ATOM     27  C18 RHL d   1      30.694  45.664 107.528  0.00  0.00    -0.078 A 
ATOM     28  H27 RHL d   1      30.767  47.198 106.060  0.00  0.00     0.085 H 
ATOM     29  H26 RHL d   1      30.348  44.910 106.830  0.00  0.00     0.083 H 
ATOM     30  H25 RHL d   1      30.698  44.338 109.188  0.00  0.00     0.089 H 
ENDBRANCH   4   7
ENDBRANCH   1   4
BRANCH   1  31
ATOM     31  C4  RHL d   1      35.779  43.577 111.281  0.00  0.00    -0.065 C 
ATOM     32  H5  RHL d   1      35.194  43.071 110.499  0.00  0.00     0.033 H 
ATOM     33  H6  RHL d   1      35.770  42.969 112.198  0.00  0.00     0.033 H 
BRANCH  31  34
ATOM     34  C5  RHL d   1      37.203  43.747 110.809  0.00  0.00    -0.065 C 
ATOM     35  H7  RHL d   1      37.698  44.517 111.418  0.00  0.00     0.033 H 
ATOM     36  H8  RHL d   1      37.201  44.059 109.754  0.00  0.00     0.033 H 
BRANCH  34  37
ATOM     37  C6  RHL d   1      37.960  42.443 110.942  0.00  0.00    -0.065 C 
ATOM     38  H9  RHL d   1      37.346  41.613 110.562  0.00  0.00     0.033 H 
ATOM     39  H10 RHL d   1      38.209  42.261 111.998  0.00  0.00     0.033 H 
BRANCH  37  40
ATOM     40  C7  RHL d   1      39.226  42.559 110.128  0.00  0.00    -0.065 C 
ATOM     41  H11 RHL d   1      39.768  43.464 110.441  0.00  0.00     0.033 H 
ATOM     42  H12 RHL d   1      38.958  42.641 109.064  0.00  0.00     0.033 H 
BRANCH  40  43
ATOM     43  C8  RHL d   1      40.128  41.361 110.313  0.00  0.00    -0.065 C 
ATOM     44  H13 RHL d   1      39.594  40.435 110.054  0.00  0.00     0.033 H 
ATOM     45  H14 RHL d   1      40.479  41.303 111.354  0.00  0.00     0.033 H 
BRANCH  43  46
ATOM     46  C9  RHL d   1      41.288  41.576 109.379  0.00  0.00    -0.065 C 
ATOM     47  H15 RHL d   1      41.781  42.526 109.633  0.00  0.00     0.033 H 
ATOM     48  H16 RHL d   1      40.912  41.622 108.346  0.00  0.00     0.033 H 
BRANCH  46  49
ATOM     49  CA  RHL d   1      42.291  40.461 109.486  0.00  0.00    -0.065 C 
ATOM     50  H17 RHL d   1      42.079  39.686 108.734  0.00  0.00     0.033 H 
ATOM     51  H18 RHL d   1      42.258  40.016 110.491  0.00  0.00     0.033 H 
BRANCH  49  52
ATOM     52  CB  RHL d   1      43.647  41.074 109.233  0.00  0.00    -0.069 C 
ATOM     53  H19 RHL d   1      44.188  41.170 110.186  0.00  0.00     0.032 H 
ATOM     54  H20 RHL d   1      43.520  42.069 108.782  0.00  0.00     0.032 H 
BRANCH  52  55
ATOM     55  C01 RHL d   1      44.434  40.196 108.296  0.00  0.00    -0.077 C 
ATOM     56  H29 RHL d   1      45.421  40.646 108.114  0.00  0.00     0.027 H 
ATOM     57  H30 RHL d   1      43.894  40.100 107.343  0.00  0.00     0.027 H 
ATOM     58  H31 RHL d   1      44.562  39.201 108.747  0.00  0.00     0.027 H 
ENDBRANCH  52  55
ENDBRANCH  49  52
ENDBRANCH  46  49
ENDBRANCH  43  46
ENDBRANCH  40  43
ENDBRANCH  37  40
ENDBRANCH  34  37
ENDBRANCH  31  34
ENDBRANCH   1  31
TORSDOF 11
