REMARK  6 active torsions:
REMARK  status: ('A' for Active; 'I' for Inactive)
REMARK    1  A    between atoms: OAD_1  and  CAT_2 
REMARK    2  A    between atoms: CAP_3  and  OAC_4 
REMARK    3  A    between atoms: CAQ_6  and  CAN_7 
REMARK    4  A    between atoms: CAS_11  and  OAM_12 
REMARK    5  A    between atoms: OAM_12  and  CAO_13 
REMARK    6  A    between atoms: CAR_18  and  NAU_19 
ROOT
ATOM      1  CAT KIJ d   1     -28.730 -18.088  54.112  0.00  0.00     0.133 A 
ATOM      2  CAP KIJ d   1     -29.264 -19.381  53.909  0.00  0.00     0.102 A 
ATOM      3  CAJ KIJ d   1     -29.678 -20.159  54.978  0.00  0.00    -0.032 A 
ATOM      4  CAQ KIJ d   1     -29.574 -19.640  56.256  0.00  0.00     0.046 A 
ATOM      5  CAL KIJ d   1     -29.059 -18.365  56.484  0.00  0.00    -0.031 A 
ATOM      6  CAS KIJ d   1     -28.651 -17.558  55.424  0.00  0.00     0.113 A 
ATOM      7  H   KIJ d   1     -30.075 -21.154  54.816  0.00  0.00     0.089 H 
ATOM      8  H   KIJ d   1     -28.975 -17.996  57.500  0.00  0.00     0.089 H 
ENDROOT
BRANCH   6   9
ATOM      9  OAM KIJ d   1     -28.096 -16.301  55.652  0.00  0.00    -0.308 OA
BRANCH   9  10
ATOM     10  CAO KIJ d   1     -28.712 -15.056  55.796  0.00  0.00     0.078 A 
ATOM     11  CAK KIJ d   1     -28.934 -14.426  57.040  0.00  0.00    -0.018 A 
ATOM     12  CAR KIJ d   1     -29.511 -13.144  57.147  0.00  0.00     0.105 A 
ATOM     13  H   KIJ d   1     -28.650 -14.948  57.947  0.00  0.00     0.091 H 
ATOM     14  CAI KIJ d   1     -29.848 -12.480  55.984  0.00  0.00    -0.051 A 
ATOM     15  CAG KIJ d   1     -29.610 -13.083  54.756  0.00  0.00    -0.078 A 
ATOM     16  H   KIJ d   1     -30.296 -11.494  56.029  0.00  0.00     0.087 H 
ATOM     17  CAH KIJ d   1     -29.037 -14.348  54.654  0.00  0.00    -0.050 A 
ATOM     18  H   KIJ d   1     -29.878 -12.553  53.849  0.00  0.00     0.083 H 
ATOM     19  H   KIJ d   1     -28.846 -14.778  53.678  0.00  0.00     0.087 H 
BRANCH  12  20
ATOM     20  NAU KIJ d   1     -29.798 -12.535  58.321  0.00  0.00    -0.116 N 
ATOM     21  OAF KIJ d   1     -30.359 -11.032  58.368  0.00  0.00    -0.532 OA
ATOM     22  OAE KIJ d   1     -29.742 -13.263  59.592  0.00  0.00    -0.532 OA
ENDBRANCH  12  20
ENDBRANCH   9  10
ENDBRANCH   6   9
BRANCH   1  23
ATOM     23  OAD KIJ d   1     -28.299 -17.343  53.030  0.00  0.00    -0.356 OA
ATOM     24  H   KIJ d   1     -29.026 -17.202  52.434  0.00  0.00     0.218 HD
ENDBRANCH   1  23
BRANCH   2  25
ATOM     25  OAC KIJ d   1     -29.363 -19.873  52.648  0.00  0.00    -0.358 OA
ATOM     26  H   KIJ d   1     -28.499 -19.912  52.256  0.00  0.00     0.217 HD
ENDBRANCH   2  25
BRANCH   4  27
ATOM     27  CAN KIJ d   1     -29.994 -20.388  57.330  0.00  0.00     0.209 C 
ATOM     28  OAB KIJ d   1     -29.323 -20.385  58.375  0.00  0.00    -0.644 OA
ATOM     29  OAA KIJ d   1     -31.041 -21.059  57.268  0.00  0.00    -0.644 OA
ENDBRANCH   4  27
TORSDOF 6
