REMARK  3 active torsions:
REMARK  status: ('A' for Active; 'I' for Inactive)
REMARK    1  A    between atoms: C7_7  and  C6_8 
REMARK    2  A    between atoms: C_12  and  O_13 
REMARK    3  A    between atoms: C1_18  and  O1_19 
ROOT
ATOM      1  C6  1R5 d   1      10.771  21.618 -13.961  0.00  0.00    -0.024 A 
ATOM      2  C5  1R5 d   1      10.251  20.780 -12.977  0.00  0.00    -0.044 A 
ATOM      3  C4  1R5 d   1      10.189  21.255 -11.638  0.00  0.00     0.070 A 
ATOM      4  N   1R5 d   1       9.682  20.423 -10.680  0.00  0.00    -0.222 NA
ATOM      5  C   1R5 d   1       9.589  20.816  -9.434  0.00  0.00     0.196 A 
ATOM      6  C13 1R5 d   1      11.245  22.899 -13.645  0.00  0.00    -0.071 A 
ATOM      7  C14 1R5 d   1      11.186  23.362 -12.338  0.00  0.00    -0.070 A 
ATOM      8  C3  1R5 d   1      10.645  22.514 -11.326  0.00  0.00    -0.004 A 
ATOM      9  C2  1R5 d   1      10.595  22.990  -9.968  0.00  0.00    -0.035 A 
ATOM     10  C1  1R5 d   1      10.042  22.084  -9.036  0.00  0.00     0.119 A 
ATOM     11  H5  1R5 d   1       9.900  19.785 -13.227  0.00  0.00     0.088 H 
ATOM     12  H7  1R5 d   1      11.659  23.530 -14.424  0.00  0.00     0.084 H 
ATOM     13  H8  1R5 d   1      11.546  24.354 -12.089  0.00  0.00     0.084 H 
ATOM     14  H9  1R5 d   1      10.955  23.971  -9.682  0.00  0.00     0.089 H 
ENDROOT
BRANCH   1  15
ATOM     15  C7  1R5 d   1      10.861  21.167 -15.395  0.00  0.00    -0.026 A 
ATOM     16  C8  1R5 d   1      11.139  19.847 -15.716  0.00  0.00    -0.069 A 
ATOM     17  C9  1R5 d   1      11.222  19.481 -17.058  0.00  0.00    -0.045 A 
ATOM     18  H2  1R5 d   1      11.290  19.111 -14.935  0.00  0.00     0.085 H 
ATOM     19  C10 1R5 d   1      11.043  20.437 -18.045  0.00  0.00     0.116 A 
ATOM     20  H1  1R5 d   1      11.426  18.451 -17.329  0.00  0.00     0.088 H 
ATOM     21  F   1R5 d   1      11.136  20.105 -19.342  0.00  0.00    -0.206 F 
ATOM     22  C11 1R5 d   1      10.780  21.750 -17.711  0.00  0.00    -0.045 A 
ATOM     23  C12 1R5 d   1      10.691  22.119 -16.386  0.00  0.00    -0.069 A 
ATOM     24  H3  1R5 d   1      10.643  22.491 -18.491  0.00  0.00     0.088 H 
ATOM     25  H4  1R5 d   1      10.489  23.150 -16.121  0.00  0.00     0.085 H 
ENDBRANCH   1  15
BRANCH   5  26
ATOM     26  O   1R5 d   1       9.060  19.967  -8.467  0.00  0.00    -0.343 OA
ATOM     27  H6  1R5 d   1       9.066  20.406  -7.625  0.00  0.00     0.219 HD
ENDBRANCH   5  26
BRANCH  10  28
ATOM     28  O1  1R5 d   1       9.952  22.444  -7.695  0.00  0.00    -0.357 OA
ATOM     29  H10 1R5 d   1       9.561  21.732  -7.203  0.00  0.00     0.218 HD
ENDBRANCH  10  28
TORSDOF 3
