REMARK  6 active torsions:
REMARK  status: ('A' for Active; 'I' for Inactive)
REMARK    1  A    between atoms: C2_2  and  C9_9 
REMARK    2  A    between atoms: C5_5  and  C7_7 
REMARK    3  A    between atoms: C6_6  and  N8_8 
REMARK       I    between atoms: N8_8  and  C15_15 
REMARK       I    between atoms: C9_9  and  N10_10 
REMARK    4  A    between atoms: N10_10  and  C12_12 
REMARK    5  A    between atoms: C15_15  and  C16_16 
REMARK    6  A    between atoms: C19_19  and  C22_22 
ROOT
ATOM      1  C1  1M8 d   1       1.935  -2.288  -4.567  0.00  0.00    -0.041 A 
ATOM      2  C2  1M8 d   1       2.563  -1.386  -5.423  0.00  0.00     0.034 A 
ATOM      3  C3  1M8 d   1       1.894  -0.977  -6.574  0.00  0.00    -0.067 A 
ATOM      4  C4  1M8 d   1       0.630  -1.465  -6.862  0.00  0.00    -0.074 A 
ATOM      5  C5  1M8 d   1      -0.011  -2.384  -6.028  0.00  0.00    -0.035 A 
ATOM      6  C6  1M8 d   1       0.675  -2.797  -4.874  0.00  0.00     0.042 A 
ATOM      7  H1  1M8 d   1       2.431  -2.597  -3.654  0.00  0.00     0.088 H 
ATOM      8  H2  1M8 d   1       2.366  -0.272  -7.249  0.00  0.00     0.085 H 
ATOM      9  H3  1M8 d   1       0.125  -1.125  -7.759  0.00  0.00     0.084 H 
ENDROOT
BRANCH   6  10
ATOM     10  N8  1M8 d   1       0.078  -3.740  -4.007  0.00  0.00    -0.322 N 
ATOM     11  C15 1M8 d   1      -0.534  -3.401  -2.864  0.00  0.00     0.263 C 
ATOM     12  O21 1M8 d   1      -0.592  -2.244  -2.424  0.00  0.00    -0.267 OA
ATOM     13  H7  1M8 d   1       0.114  -4.707  -4.259  0.00  0.00     0.169 HD
BRANCH  11  14
ATOM     14  C16 1M8 d   1      -1.045  -4.523  -2.060  0.00  0.00     0.073 A 
ATOM     15  C17 1M8 d   1      -0.878  -5.899  -2.065  0.00  0.00    -0.060 A 
ATOM     16  C18 1M8 d   1      -1.521  -6.538  -0.990  0.00  0.00    -0.064 A 
ATOM     17  H14 1M8 d   1      -0.307  -6.431  -2.824  0.00  0.00     0.085 H 
ATOM     18  C19 1M8 d   1      -2.167  -5.657  -0.139  0.00  0.00     0.017 A 
ATOM     19  H15 1M8 d   1      -1.512  -7.617  -0.842  0.00  0.00     0.085 H 
ATOM     20  S20 1M8 d   1      -1.961  -4.024  -0.683  0.00  0.00    -0.084 SA
BRANCH  18  21
ATOM     21  C22 1M8 d   1      -2.939  -5.915   1.091  0.00  0.00     0.003 A 
ATOM     22  C23 1M8 d   1      -4.241  -5.422   1.195  0.00  0.00    -0.070 A 
ATOM     23  C24 1M8 d   1      -4.989  -5.643   2.344  0.00  0.00    -0.082 A 
ATOM     24  H16 1M8 d   1      -4.671  -4.862   0.372  0.00  0.00     0.084 H 
ATOM     25  C25 1M8 d   1      -4.456  -6.358   3.397  0.00  0.00    -0.081 A 
ATOM     26  H17 1M8 d   1      -5.997  -5.252   2.414  0.00  0.00     0.083 H 
ATOM     27  C26 1M8 d   1      -3.160  -6.841   3.325  0.00  0.00    -0.061 A 
ATOM     28  H18 1M8 d   1      -5.053  -6.542   4.283  0.00  0.00     0.083 H 
ATOM     29  C27 1M8 d   1      -2.412  -6.608   2.179  0.00  0.00     0.045 A 
ATOM     30  H19 1M8 d   1      -2.735  -7.395   4.154  0.00  0.00     0.086 H 
ATOM     31 CL1  1M8 d   1      -0.776  -7.162   2.147  0.00  0.00    -0.083 Cl
ENDBRANCH  18  21
ENDBRANCH  11  14
ENDBRANCH   6  10
BRANCH   5  32
ATOM     32  C7  1M8 d   1      -1.364  -2.950  -6.392  0.00  0.00    -0.049 C 
ATOM     33  H4  1M8 d   1      -1.714  -2.489  -7.327  0.00  0.00     0.033 H 
ATOM     34  H5  1M8 d   1      -2.081  -2.734  -5.586  0.00  0.00     0.033 H 
ATOM     35  H6  1M8 d   1      -1.282  -4.038  -6.528  0.00  0.00     0.033 H 
ENDBRANCH   5  32
BRANCH   2  36
ATOM     36  C9  1M8 d   1       3.948  -0.980  -5.012  0.00  0.00     0.252 C 
ATOM     37  N10 1M8 d   1       4.485   0.104  -5.611  0.00  0.00    -0.352 N 
ATOM     38  H8  1M8 d   1       3.940   0.598  -6.289  0.00  0.00     0.163 HD
ATOM     39  O11 1M8 d   1       4.556  -1.622  -4.152  0.00  0.00    -0.268 OA
BRANCH  37  40
ATOM     40  C12 1M8 d   1       5.835   0.586  -5.307  0.00  0.00     0.012 A 
ATOM     41  C13 1M8 d   1       6.982  -0.327  -5.576  0.00  0.00    -0.044 A 
ATOM     42  C14 1M8 d   1       6.760   0.871  -6.440  0.00  0.00    -0.044 A 
ATOM     43  H10 1M8 d   1       6.801  -1.335  -5.976  0.00  0.00     0.036 H 
ATOM     44  H11 1M8 d   1       7.837  -0.355  -4.884  0.00  0.00     0.036 H 
ATOM     45  H12 1M8 d   1       7.451   1.725  -6.385  0.00  0.00     0.036 H 
ATOM     46  H13 1M8 d   1       6.415   0.745  -7.477  0.00  0.00     0.036 H 
ATOM     47  H9  1M8 d   1       5.823   1.230  -4.415  0.00  0.00     0.072 H 
ENDBRANCH  37  40
ENDBRANCH   2  36
TORSDOF 6
