REMARK  7 active torsions:
REMARK  status: ('A' for Active; 'I' for Inactive)
REMARK    1  A    between atoms: C2_2  and  C3_3 
REMARK       I    between atoms: C3_3  and  N5_5 
REMARK    2  A    between atoms: C8_8  and  N10_10 
REMARK    3  A    between atoms: N10_10  and  C11_11 
REMARK    4  A    between atoms: C13_13  and  C14_14 
REMARK    5  A    between atoms: C14_14  and  N15_15 
REMARK    6  A    between atoms: C22_22  and  N23_23 
REMARK    7  A    between atoms: N23_23  and  C24_24 
ROOT
ATOM      1  C11 G5K d   1       7.398  10.022   1.785  0.00  0.00     0.725 A 
ATOM      2  N12 G5K d   1       6.154  10.115   2.270  0.00  0.00    -0.066 NA
ATOM      3  C13 G5K d   1       5.300   9.217   1.789  0.00  0.00     0.083 A 
ATOM      4  C21 G5K d   1       5.736   8.270   0.874  0.00  0.00    -0.012 A 
ATOM      5  C22 G5K d   1       7.047   8.254   0.451  0.00  0.00     0.150 A 
ATOM      6  N33 G5K d   1       7.928   9.146   0.893  0.00  0.00    -0.045 NA
ATOM      7  H23 G5K d   1       5.038   7.535   0.488  0.00  0.00     0.092 H 
ENDROOT
BRANCH   1   8
ATOM      8  N10 G5K d   1       8.231  10.945   2.246  0.00  0.00    -0.216 N 
ATOM      9  H11 G5K d   1       7.851  11.704   2.830  0.00  0.00     0.178 HD
BRANCH   8  10
ATOM     10  C8  G5K d   1       9.625  10.933   1.970  0.00  0.00     0.043 C 
ATOM     11  C7  G5K d   1      10.004  11.664   0.728  0.00  0.00    -0.029 C 
ATOM     12  C6  G5K d   1      11.468  11.911   0.980  0.00  0.00    -0.000 C 
ATOM     13  H6  G5K d   1       9.846  11.047  -0.169  0.00  0.00     0.038 H 
ATOM     14  H7  G5K d   1       9.446  12.607   0.627  0.00  0.00     0.038 H 
ATOM     15  N5  G5K d   1      11.591  11.861   2.420  0.00  0.00    -0.347 N 
ATOM     16  H4  G5K d   1      12.083  11.130   0.508  0.00  0.00     0.064 H 
ATOM     17  H5  G5K d   1      11.769  12.897   0.596  0.00  0.00     0.064 H 
ATOM     18  C3  G5K d   1      12.759  11.971   3.127  0.00  0.00     0.242 C 
ATOM     19  C9  G5K d   1      10.345  11.664   3.046  0.00  0.00     0.017 C 
ATOM     20  O4  G5K d   1      13.837  12.143   2.580  0.00  0.00    -0.268 OA
ATOM     21  H9  G5K d   1       9.855  12.618   3.289  0.00  0.00     0.067 H 
ATOM     22  H10 G5K d   1      10.439  11.057   3.959  0.00  0.00     0.067 H 
ATOM     23  H8  G5K d   1       9.966   9.889   1.909  0.00  0.00     0.075 H 
BRANCH  18  24
ATOM     24  C2  G5K d   1      12.659  11.879   4.603  0.00  0.00    -0.026 C 
ATOM     25  C1  G5K d   1      13.810  11.990   5.261  0.00  0.00    -0.116 C 
ATOM     26  H1  G5K d   1      13.823  11.933   6.348  0.00  0.00     0.067 H 
ATOM     27  H2  G5K d   1      14.739  12.138   4.712  0.00  0.00     0.067 H 
ATOM     28  H3  G5K d   1      11.709  11.731   5.114  0.00  0.00     0.090 H 
ENDBRANCH  18  24
ENDBRANCH   8  10
ENDBRANCH   1   8
BRANCH   3  29
ATOM     29  C14 G5K d   1       3.858   9.249   2.241  0.00  0.00     0.123 C 
ATOM     30  H12 G5K d   1       3.409   8.270   2.019  0.00  0.00     0.085 H 
ATOM     31  H13 G5K d   1       3.337  10.030   1.667  0.00  0.00     0.085 H 
BRANCH  29  32
ATOM     32  N15 G5K d   1       3.665   9.523   3.650  0.00  0.00    -0.062 N 
ATOM     33  C16 G5K d   1       4.266   8.464   4.489  0.00  0.00     0.103 C 
ATOM     34  C17 G5K d   1       3.734   8.462   5.925  0.00  0.00     0.042 C 
ATOM     35  H15 G5K d   1       5.355   8.617   4.519  0.00  0.00     0.079 H 
ATOM     36  H16 G5K d   1       4.045   7.488   4.032  0.00  0.00     0.079 H 
ATOM     37  O18 G5K d   1       2.301   8.425   5.961  0.00  0.00    -0.388 OA
ATOM     38  H17 G5K d   1       4.080   9.374   6.434  0.00  0.00     0.076 H 
ATOM     39  H18 G5K d   1       4.126   7.578   6.449  0.00  0.00     0.076 H 
ATOM     40  C19 G5K d   1       1.836   9.616   5.300  0.00  0.00     0.042 C 
ATOM     41  C20 G5K d   1       2.207   9.566   3.824  0.00  0.00     0.103 C 
ATOM     42  H19 G5K d   1       2.303  10.497   5.764  0.00  0.00     0.076 H 
ATOM     43  H20 G5K d   1       0.743   9.685   5.399  0.00  0.00     0.076 H 
ATOM     44  H21 G5K d   1       1.764   8.666   3.372  0.00  0.00     0.079 H 
ATOM     45  H22 G5K d   1       1.811  10.461   3.323  0.00  0.00     0.079 H 
ATOM     46  H14 G5K d   1       4.075  10.411   3.894  0.00  0.00     0.280 HD
ENDBRANCH  29  32
ENDBRANCH   3  29
BRANCH   5  47
ATOM     47  N23 G5K d   1       7.531   7.287  -0.499  0.00  0.00    -0.319 N 
ATOM     48  H24 G5K d   1       6.869   6.524  -0.703  0.00  0.00     0.169 HD
BRANCH  47  49
ATOM     49  C24 G5K d   1       8.683   7.204  -1.161  0.00  0.00     0.175 A 
ATOM     50  N25 G5K d   1       8.973   6.238  -2.000  0.00  0.00    -0.222 NA
ATOM     51  C26 G5K d   1      10.241   6.453  -2.493  0.00  0.00     0.095 A 
ATOM     52  C27 G5K d   1      10.952   5.676  -3.383  0.00  0.00    -0.051 A 
ATOM     53  C31 G5K d   1      10.885   7.582  -2.018  0.00  0.00     0.129 A 
ATOM     54  C28 G5K d   1      12.237   6.095  -3.733  0.00  0.00    -0.064 A 
ATOM     55  H25 G5K d   1      10.527   4.769  -3.798  0.00  0.00     0.087 H 
ATOM     56  C29 G5K d   1      12.801   7.237  -3.223  0.00  0.00     0.004 A 
ATOM     57  H26 G5K d   1      12.809   5.497  -4.433  0.00  0.00     0.085 H 
ATOM     58  N30 G5K d   1      12.117   7.982  -2.357  0.00  0.00    -0.251 NA
ATOM     59  H27 G5K d   1      13.800   7.532  -3.524  0.00  0.00     0.114 H 
ATOM     60  S32 G5K d   1       9.891   8.424  -0.911  0.00  0.00    -0.030 SA
ENDBRANCH  47  49
ENDBRANCH   5  47
TORSDOF 7
