REMARK  6 active torsions:
REMARK  status: ('A' for Active; 'I' for Inactive)
REMARK    1  A    between atoms: C1_1  and  C7_7 
REMARK    2  A    between atoms: N26_26  and  C2_2 
REMARK    3  A    between atoms: C4_4  and  C8_8 
REMARK       I    between atoms: C8_8  and  N9_9 
REMARK    4  A    between atoms: N9_9  and  C11_11 
REMARK    5  A    between atoms: C14_14  and  C15_15 
REMARK       I    between atoms: C14_14  and  N26_26 
REMARK    6  A    between atoms: C18_18  and  C20_20 
ROOT
ATOM      1  C1  1R9 d   1      38.866   2.711  32.603  0.00  0.00    -0.035 A 
ATOM      2  C2  1R9 d   1      37.541   3.154  32.834  0.00  0.00     0.042 A 
ATOM      3  C3  1R9 d   1      36.480   2.637  32.091  0.00  0.00    -0.041 A 
ATOM      4  C4  1R9 d   1      36.695   1.638  31.145  0.00  0.00     0.034 A 
ATOM      5  C5  1R9 d   1      37.992   1.172  30.936  0.00  0.00    -0.067 A 
ATOM      6  C6  1R9 d   1      39.052   1.707  31.648  0.00  0.00    -0.074 A 
ATOM      7  H1  1R9 d   1      35.477   3.017  32.252  0.00  0.00     0.088 H 
ATOM      8  H2  1R9 d   1      38.172   0.386  30.212  0.00  0.00     0.085 H 
ATOM      9  H3  1R9 d   1      40.053   1.337  31.460  0.00  0.00     0.084 H 
ENDROOT
BRANCH   2  10
ATOM     10  N26 1R9 d   1      37.263   4.046  33.902  0.00  0.00    -0.322 N 
ATOM     11  C14 1R9 d   1      36.661   3.722  35.075  0.00  0.00     0.264 C 
ATOM     12  O27 1R9 d   1      36.281   2.582  35.352  0.00  0.00    -0.267 OA
ATOM     13  H16 1R9 d   1      37.535   5.000  33.779  0.00  0.00     0.169 HD
BRANCH  11  14
ATOM     14  C15 1R9 d   1      36.417   4.848  36.008  0.00  0.00     0.092 A 
ATOM     15  C16 1R9 d   1      36.625   6.195  35.959  0.00  0.00     0.025 A 
ATOM     16  N17 1R9 d   1      36.251   6.912  37.065  0.00  0.00    -0.251 NA
ATOM     17  H11 1R9 d   1      37.065   6.676  35.087  0.00  0.00     0.117 H 
ATOM     18  C18 1R9 d   1      35.735   6.109  38.001  0.00  0.00     0.110 A 
ATOM     19  S19 1R9 d   1      35.689   4.430  37.528  0.00  0.00    -0.063 SA
BRANCH  18  20
ATOM     20  C20 1R9 d   1      35.281   6.595  39.311  0.00  0.00     0.021 A 
ATOM     21  C21 1R9 d   1      36.221   7.006  40.259  0.00  0.00    -0.069 A 
ATOM     22  C22 1R9 d   1      35.823   7.384  41.535  0.00  0.00    -0.082 A 
ATOM     23  H12 1R9 d   1      37.272   7.030  39.996  0.00  0.00     0.085 H 
ATOM     24  C23 1R9 d   1      34.488   7.359  41.883  0.00  0.00    -0.081 A 
ATOM     25  H13 1R9 d   1      36.564   7.700  42.260  0.00  0.00     0.083 H 
ATOM     26  C24 1R9 d   1      33.534   6.966  40.959  0.00  0.00    -0.061 A 
ATOM     27  H14 1R9 d   1      34.185   7.648  42.883  0.00  0.00     0.083 H 
ATOM     28  C25 1R9 d   1      33.935   6.601  39.678  0.00  0.00     0.047 A 
ATOM     29  H15 1R9 d   1      32.485   6.943  41.231  0.00  0.00     0.086 H 
ATOM     30 CL1  1R9 d   1      32.706   6.204  38.523  0.00  0.00    -0.083 Cl
ENDBRANCH  18  20
ENDBRANCH  11  14
ENDBRANCH   2  10
BRANCH   1  31
ATOM     31  C7  1R9 d   1      40.049   3.330  33.308  0.00  0.00    -0.049 C 
ATOM     32  H4  1R9 d   1      39.695   4.094  34.016  0.00  0.00     0.033 H 
ATOM     33  H5  1R9 d   1      40.714   3.797  32.567  0.00  0.00     0.033 H 
ATOM     34  H6  1R9 d   1      40.599   2.550  33.855  0.00  0.00     0.033 H 
ENDBRANCH   1  31
BRANCH   4  35
ATOM     35  C8  1R9 d   1      35.497   1.161  30.385  0.00  0.00     0.252 C 
ATOM     36  N9  1R9 d   1      35.700   0.174  29.494  0.00  0.00    -0.346 N 
ATOM     37  H7  1R9 d   1      36.636  -0.143  29.342  0.00  0.00     0.163 HD
ATOM     38  O10 1R9 d   1      34.398   1.685  30.556  0.00  0.00    -0.268 OA
BRANCH  36  39
ATOM     39  C11 1R9 d   1      34.621  -0.460  28.736  0.00  0.00     0.045 A 
ATOM     40  C12 1R9 d   1      34.892  -0.859  27.346  0.00  0.00    -0.079 A 
ATOM     41  C13 1R9 d   1      34.007   0.286  27.627  0.00  0.00    -0.079 A 
ATOM     42  H9  1R9 d   1      35.385  -1.518  26.633  0.00  0.00     0.080 H 
ATOM     43  H10 1R9 d   1      33.367   1.093  27.273  0.00  0.00     0.080 H 
ATOM     44  H8  1R9 d   1      34.008  -1.092  29.395  0.00  0.00     0.085 H 
ENDBRANCH  36  39
ENDBRANCH   4  35
TORSDOF 6
