REMARK  8 active torsions:
REMARK  status: ('A' for Active; 'I' for Inactive)
REMARK    1  A    between atoms: C1_1  and  C7_28 
REMARK    2  A    between atoms: N10_2  and  C11_3 
REMARK       I    between atoms: C8_29  and  N10_2 
REMARK       I    between atoms: N14_6  and  C16_7 
REMARK    3  A    between atoms: C2_11  and  N14_6 
REMARK    4  A    between atoms: C16_7  and  C18_9 
REMARK       I    between atoms: N24_16  and  C27_19 
REMARK    5  A    between atoms: C27_19  and  O29_21 
REMARK    6  A    between atoms: O29_21  and  C30_23 
REMARK    7  A    between atoms: C30_23  and  C31_24 
REMARK    8  A    between atoms: C4_25  and  C8_29 
ROOT
ATOM      1  N14 1RA d   1      -0.042  -5.397  -4.388  0.00  0.00    -0.322 N 
ATOM      2  C16 1RA d   1      -0.569  -5.157  -3.163  0.00  0.00     0.256 C 
ATOM      3  O17 1RA d   1      -0.748  -4.022  -2.721  0.00  0.00    -0.267 OA
ATOM      4  H5  1RA d   1      -0.085  -6.335  -4.733  0.00  0.00     0.169 HD
ENDROOT
BRANCH   2   5
ATOM      5  C18 1RA d   1      -0.873  -6.367  -2.334  0.00  0.00     0.034 A 
ATOM      6  C19 1RA d   1      -1.722  -6.201  -1.240  0.00  0.00    -0.041 A 
ATOM      7  C23 1RA d   1      -1.983  -7.271  -0.386  0.00  0.00     0.055 A 
ATOM      8  H6  1RA d   1      -2.180  -5.237  -1.053  0.00  0.00     0.088 H 
ATOM      9  C22 1RA d   1      -1.400  -8.531  -0.623  0.00  0.00    -0.007 A 
ATOM     10  N24 1RA d   1      -2.741  -7.371   0.793  0.00  0.00    -0.268 N 
ATOM     11  C20 1RA d   1      -0.555  -8.685  -1.730  0.00  0.00    -0.070 A 
ATOM     12  C26 1RA d   1      -1.826  -9.397   0.439  0.00  0.00    -0.055 A 
ATOM     13  C21 1RA d   1      -0.294  -7.617  -2.572  0.00  0.00    -0.067 A 
ATOM     14  H7  1RA d   1      -0.101  -9.649  -1.929  0.00  0.00     0.084 H 
ATOM     15  H8  1RA d   1       0.365  -7.751  -3.422  0.00  0.00     0.085 H 
ATOM     16  C25 1RA d   1      -2.621  -8.674   1.264  0.00  0.00    -0.009 A 
ATOM     17  H10 1RA d   1      -1.559 -10.446   0.560  0.00  0.00     0.087 H 
ATOM     18  H9  1RA d   1      -3.097  -9.057   2.165  0.00  0.00     0.112 H 
ATOM     19  C27 1RA d   1      -3.544  -6.382   1.435  0.00  0.00     0.371 C 
ATOM     20  O28 1RA d   1      -4.113  -6.578   2.478  0.00  0.00    -0.238 OA
BRANCH  19  21
ATOM     21  O29 1RA d   1      -3.586  -5.228   0.760  0.00  0.00    -0.304 OA
BRANCH  21  22
ATOM     22  C30 1RA d   1      -4.235  -4.101   1.425  0.00  0.00     0.027 C 
ATOM     23  H12 1RA d   1      -3.865  -3.999   2.456  0.00  0.00     0.074 H 
ATOM     24  H13 1RA d   1      -5.326  -4.241   1.440  0.00  0.00     0.074 H 
BRANCH  22  25
ATOM     25  C31 1RA d   1      -3.886  -2.926   0.643  0.00  0.00    -0.056 C 
ATOM     26  H14 1RA d   1      -4.347  -2.035   1.094  0.00  0.00     0.030 H 
ATOM     27  H15 1RA d   1      -4.254  -3.048  -0.386  0.00  0.00     0.030 H 
ATOM     28  H16 1RA d   1      -2.793  -2.806   0.630  0.00  0.00     0.030 H 
ENDBRANCH  22  25
ENDBRANCH  21  22
ENDBRANCH  19  21
ENDBRANCH   2   5
BRANCH   1  29
ATOM     29  C2  1RA d   1       0.564  -4.425  -5.216  0.00  0.00     0.042 A 
ATOM     30  C1  1RA d   1       0.002  -4.113  -6.474  0.00  0.00    -0.035 A 
ATOM     31  C6  1RA d   1       0.632  -3.125  -7.236  0.00  0.00    -0.074 A 
ATOM     32  C5  1RA d   1       1.762  -2.466  -6.782  0.00  0.00    -0.067 A 
ATOM     33  H18 1RA d   1       0.226  -2.868  -8.207  0.00  0.00     0.084 H 
ATOM     34  C4  1RA d   1       2.313  -2.792  -5.543  0.00  0.00     0.034 A 
ATOM     35  H17 1RA d   1       2.220  -1.695  -7.391  0.00  0.00     0.085 H 
ATOM     36  C3  1RA d   1       1.696  -3.762  -4.758  0.00  0.00    -0.041 A 
ATOM     37  H11 1RA d   1       2.102  -4.002  -3.782  0.00  0.00     0.088 H 
BRANCH  30  38
ATOM     38  C7  1RA d   1      -1.252  -4.783  -6.968  0.00  0.00    -0.049 C 
ATOM     39  H19 1RA d   1      -1.587  -5.525  -6.228  0.00  0.00     0.033 H 
ATOM     40  H20 1RA d   1      -1.046  -5.286  -7.924  0.00  0.00     0.033 H 
ATOM     41  H21 1RA d   1      -2.039  -4.028  -7.113  0.00  0.00     0.033 H 
ENDBRANCH  30  38
BRANCH  34  42
ATOM     42  C8  1RA d   1       3.591  -2.251  -4.993  0.00  0.00     0.252 C 
ATOM     43  N10 1RA d   1       4.097  -1.162  -5.596  0.00  0.00    -0.346 N 
ATOM     44  H1  1RA d   1       3.625  -0.798  -6.399  0.00  0.00     0.163 HD
ATOM     45  O9  1RA d   1       4.123  -2.779  -4.020  0.00  0.00    -0.268 OA
BRANCH  43  46
ATOM     46  C11 1RA d   1       5.306  -0.485  -5.131  0.00  0.00     0.045 A 
ATOM     47  C12 1RA d   1       6.186   0.143  -6.132  0.00  0.00    -0.079 A 
ATOM     48  C13 1RA d   1       6.603  -1.096  -5.447  0.00  0.00    -0.079 A 
ATOM     49  H3  1RA d   1       6.384   0.938  -6.850  0.00  0.00     0.080 H 
ATOM     50  H4  1RA d   1       7.336  -1.886  -5.290  0.00  0.00     0.080 H 
ATOM     51  H2  1RA d   1       5.130  -0.006  -4.157  0.00  0.00     0.085 H 
ENDBRANCH  43  46
ENDBRANCH  34  42
ENDBRANCH   1  29
TORSDOF 8
