REMARK  11 active torsions:
REMARK  status: ('A' for Active; 'I' for Inactive)
REMARK    1  A    between atoms: C28_1  and  O27_2 
REMARK    2  A    between atoms: O27_2  and  C26_3 
REMARK    3  A    between atoms: C21_12  and  C20_13 
REMARK    4  A    between atoms: C20_13  and  N11_14 
REMARK    5  A    between atoms: C7_17  and  N6_19 
REMARK       I    between atoms: N6_19  and  C5_20 
REMARK    6  A    between atoms: C5_20  and  C3_22 
REMARK    7  A    between atoms: C3_22  and  C4_23 
REMARK    8  A    between atoms: C3_22  and  N2_24 
REMARK    9  A    between atoms: N2_24  and  C1_25 
REMARK       I    between atoms: N14_32  and  C29_33 
REMARK   10  A    between atoms: C29_33  and  C31_35 
REMARK   11  A    between atoms: C34_38  and  N41_39 
ROOT
ATOM      1  N11 1RH d   1      28.503  34.429  11.149  0.00  0.00    -0.310 N 
ATOM      2  C9  1RH d   1      27.880  35.615  10.944  0.00  0.00     0.249 C 
ATOM      3  O10 1RH d   1      26.750  35.847  11.461  0.00  0.00    -0.271 OA
ATOM      4  C7  1RH d   1      28.472  36.576  10.052  0.00  0.00     0.105 C 
ATOM      5  C15 1RH d   1      29.661  37.268  10.612  0.00  0.00     0.030 C 
ATOM      6  C12 1RH d   1      29.733  34.186  10.609  0.00  0.00     0.064 A 
ATOM      7  C16 1RH d   1      29.980  32.962   9.953  0.00  0.00    -0.055 A 
ATOM      8  C18 1RH d   1      31.246  32.713   9.382  0.00  0.00    -0.081 A 
ATOM      9  C17 1RH d   1      32.252  33.669   9.445  0.00  0.00    -0.081 A 
ATOM     10  C19 1RH d   1      32.016  34.881  10.060  0.00  0.00    -0.055 A 
ATOM     11  C13 1RH d   1      30.746  35.109  10.670  0.00  0.00     0.064 A 
ATOM     12  N14 1RH d   1      30.643  36.339  11.179  0.00  0.00    -0.309 N 
ATOM     13  C29 1RH d   1      31.483  36.906  12.071  0.00  0.00     0.258 C 
ATOM     14  O30 1RH d   1      31.313  38.088  12.377  0.00  0.00    -0.267 OA
ATOM     15  H12 1RH d   1      28.809  36.029   9.160  0.00  0.00     0.090 H 
ATOM     16  H13 1RH d   1      29.328  37.954  11.405  0.00  0.00     0.069 H 
ATOM     17  H14 1RH d   1      30.144  37.843   9.808  0.00  0.00     0.069 H 
ATOM     18  H25 1RH d   1      29.198  32.214   9.888  0.00  0.00     0.087 H 
ATOM     19  H26 1RH d   1      31.436  31.766   8.889  0.00  0.00     0.083 H 
ATOM     20  H27 1RH d   1      33.223  33.462   9.011  0.00  0.00     0.083 H 
ATOM     21  H28 1RH d   1      32.782  35.647  10.080  0.00  0.00     0.087 H 
ENDROOT
BRANCH   1  22
ATOM     22  C20 1RH d   1      27.799  33.353  11.982  0.00  0.00     0.030 C 
ATOM     23  H10 1RH d   1      26.923  33.807  12.469  0.00  0.00     0.072 H 
ATOM     24  H11 1RH d   1      27.468  32.550  11.306  0.00  0.00     0.072 H 
BRANCH  22  25
ATOM     25  C21 1RH d   1      28.616  32.790  12.974  0.00  0.00     0.005 A 
ATOM     26  C26 1RH d   1      29.116  31.485  12.785  0.00  0.00     0.077 A 
ATOM     27  C25 1RH d   1      29.909  30.853  13.751  0.00  0.00    -0.049 A 
ATOM     28  C24 1RH d   1      30.227  31.510  14.931  0.00  0.00    -0.070 A 
ATOM     29  H4  1RH d   1      30.275  29.848  13.576  0.00  0.00     0.087 H 
ATOM     30  C23 1RH d   1      29.735  32.802  15.162  0.00  0.00    -0.025 A 
ATOM     31  H5  1RH d   1      30.854  31.026  15.671  0.00  0.00     0.085 H 
ATOM     32  C37 1RH d   1      30.050  33.461  16.341  0.00  0.00    -0.072 A 
ATOM     33  C22 1RH d   1      28.935  33.418  14.170  0.00  0.00    -0.015 A 
ATOM     34  C38 1RH d   1      29.561  34.746  16.642  0.00  0.00    -0.082 A 
ATOM     35  H6  1RH d   1      30.697  32.968  17.058  0.00  0.00     0.084 H 
ATOM     36  C39 1RH d   1      28.758  35.311  15.686  0.00  0.00    -0.082 A 
ATOM     37  H7  1RH d   1      29.803  35.255  17.568  0.00  0.00     0.083 H 
ATOM     38  C40 1RH d   1      28.464  34.705  14.475  0.00  0.00    -0.072 A 
ATOM     39  H8  1RH d   1      28.329  36.286  15.888  0.00  0.00     0.083 H 
ATOM     40  H9  1RH d   1      27.858  35.235  13.749  0.00  0.00     0.084 H 
BRANCH  26  41
ATOM     41  O27 1RH d   1      28.759  30.901  11.622  0.00  0.00    -0.355 OA
BRANCH  41  42
ATOM     42  C28 1RH d   1      28.779  29.448  11.638  0.00  0.00     0.010 C 
ATOM     43  H1  1RH d   1      28.475  29.066  10.652  0.00  0.00     0.066 H 
ATOM     44  H2  1RH d   1      28.081  29.080  12.405  0.00  0.00     0.066 H 
ATOM     45  H3  1RH d   1      29.796  29.098  11.869  0.00  0.00     0.066 H 
ENDBRANCH  41  42
ENDBRANCH  26  41
ENDBRANCH  22  25
ENDBRANCH   1  22
BRANCH   4  46
ATOM     46  N6  1RH d   1      27.466  37.531   9.634  0.00  0.00    -0.344 N 
ATOM     47  C5  1RH d   1      26.675  37.417   8.581  0.00  0.00     0.248 C 
ATOM     48  O8  1RH d   1      26.632  36.474   7.769  0.00  0.00    -0.271 OA
ATOM     49  H15 1RH d   1      27.360  38.353  10.194  0.00  0.00     0.163 HD
BRANCH  47  50
ATOM     50  C3  1RH d   1      25.647  38.528   8.479  0.00  0.00     0.174 C 
ATOM     51  H16 1RH d   1      26.091  39.504   8.724  0.00  0.00     0.098 H 
BRANCH  50  52
ATOM     52  C4  1RH d   1      24.486  38.147   9.507  0.00  0.00    -0.041 C 
ATOM     53  H17 1RH d   1      23.704  38.920   9.480  0.00  0.00     0.030 H 
ATOM     54  H18 1RH d   1      24.902  38.082  10.523  0.00  0.00     0.030 H 
ATOM     55  H19 1RH d   1      24.052  37.176   9.226  0.00  0.00     0.030 H 
ENDBRANCH  50  52
BRANCH  50  56
ATOM     56  N2  1RH d   1      25.095  38.541   7.132  0.00  0.00    -0.067 N 
ATOM     57  H20 1RH d   1      24.285  39.141   7.129  0.00  0.00     0.277 HD
ATOM     58  H21 1RH d   1      24.818  37.601   6.895  0.00  0.00     0.277 HD
BRANCH  56  59
ATOM     59  C1  1RH d   1      26.052  39.033   6.073  0.00  0.00     0.066 C 
ATOM     60  H22 1RH d   1      25.556  39.010   5.091  0.00  0.00     0.067 H 
ATOM     61  H23 1RH d   1      26.940  38.384   6.051  0.00  0.00     0.067 H 
ATOM     62  H24 1RH d   1      26.358  40.064   6.305  0.00  0.00     0.067 H 
ENDBRANCH  56  59
ENDBRANCH  50  56
ENDBRANCH  47  50
ENDBRANCH   4  46
BRANCH  13  63
ATOM     63  C31 1RH d   1      32.410  36.205  12.849  0.00  0.00     0.032 A 
ATOM     64  C32 1RH d   1      33.612  36.833  13.170  0.00  0.00    -0.066 A 
ATOM     65  C33 1RH d   1      34.524  36.182  13.998  0.00  0.00    -0.057 A 
ATOM     66  H29 1RH d   1      33.835  37.819  12.779  0.00  0.00     0.085 H 
ATOM     67  C34 1RH d   1      34.228  34.938  14.523  0.00  0.00     0.025 A 
ATOM     68  H30 1RH d   1      35.471  36.654  14.232  0.00  0.00     0.086 H 
ATOM     69  C35 1RH d   1      33.022  34.326  14.210  0.00  0.00    -0.057 A 
ATOM     70  C36 1RH d   1      32.130  34.956  13.384  0.00  0.00    -0.066 A 
ATOM     71  H33 1RH d   1      32.787  33.350  14.619  0.00  0.00     0.086 H 
ATOM     72  H34 1RH d   1      31.191  34.471  13.144  0.00  0.00     0.085 H 
BRANCH  67  73
ATOM     73  N41 1RH d   1      35.112  34.325  15.309  0.00  0.00    -0.399 N 
ATOM     74  H31 1RH d   1      34.896  33.398  15.702  0.00  0.00     0.156 HD
ATOM     75  H32 1RH d   1      36.012  34.778  15.523  0.00  0.00     0.156 HD
ENDBRANCH  67  73
ENDBRANCH  13  63
TORSDOF 11
