REMARK  10 active torsions:
REMARK  status: ('A' for Active; 'I' for Inactive)
REMARK    1  A    between atoms: C29_1  and  O28_2 
REMARK    2  A    between atoms: O28_2  and  C27_3 
REMARK    3  A    between atoms: C35_8  and  C38_9 
REMARK    4  A    between atoms: C15_15  and  C14_16 
REMARK    5  A    between atoms: C14_16  and  N13_17 
REMARK    6  A    between atoms: C7_33  and  N6_34 
REMARK       I    between atoms: N6_34  and  C5_35 
REMARK    7  A    between atoms: C5_35  and  C3_37 
REMARK    8  A    between atoms: C3_37  and  C4_38 
REMARK    9  A    between atoms: C3_37  and  N1_39 
REMARK   10  A    between atoms: N1_39  and  C2_40 
ROOT
ATOM      1  N13 1RK d   1      28.294  33.162  11.047  0.00  0.00    -0.309 N 
ATOM      2  C16 1RK d   1      27.932  34.497  11.052  0.00  0.00     0.250 C 
ATOM      3  O17 1RK d   1      27.002  34.904  11.804  0.00  0.00    -0.271 OA
ATOM      4  C12 1RK d   1      29.451  32.756  10.347  0.00  0.00     0.071 A 
ATOM      5  C21 1RK d   1      29.459  31.599   9.554  0.00  0.00    -0.054 A 
ATOM      6  C19 1RK d   1      30.621  31.230   8.818  0.00  0.00    -0.081 A 
ATOM      7  C20 1RK d   1      31.771  32.022   8.898  0.00  0.00    -0.080 A 
ATOM      8  C18 1RK d   1      31.809  33.169   9.716  0.00  0.00    -0.048 A 
ATOM      9  C11 1RK d   1      30.615  33.536  10.415  0.00  0.00     0.097 A 
ATOM     10  O10 1RK d   1      30.742  34.684  11.200  0.00  0.00    -0.335 OA
ATOM     11  C9  1RK d   1      30.062  35.877  10.773  0.00  0.00     0.101 C 
ATOM     12  C22 1RK d   1      30.834  36.497   9.621  0.00  0.00    -0.013 C 
ATOM     13  C23 1RK d   1      32.034  37.280  10.171  0.00  0.00     0.022 C 
ATOM     14  O24 1RK d   1      31.832  38.025  11.349  0.00  0.00    -0.391 OA
ATOM     15  C25 1RK d   1      31.390  37.231  12.399  0.00  0.00     0.022 C 
ATOM     16  C26 1RK d   1      29.969  36.783  11.991  0.00  0.00    -0.013 C 
ATOM     17  C7  1RK d   1      28.635  35.481  10.201  0.00  0.00     0.120 C 
ATOM     18  H11 1RK d   1      28.571  30.979   9.501  0.00  0.00     0.087 H 
ATOM     19  H12 1RK d   1      30.614  30.340   8.199  0.00  0.00     0.083 H 
ATOM     20  H13 1RK d   1      32.647  31.749   8.321  0.00  0.00     0.083 H 
ATOM     21  H14 1RK d   1      32.715  33.756   9.813  0.00  0.00     0.087 H 
ATOM     22  H15 1RK d   1      30.175  37.179   9.064  0.00  0.00     0.040 H 
ATOM     23  H16 1RK d   1      31.192  35.702   8.950  0.00  0.00     0.040 H 
ATOM     24  H17 1RK d   1      32.359  37.981   9.388  0.00  0.00     0.074 H 
ATOM     25  H18 1RK d   1      32.838  36.556  10.371  0.00  0.00     0.074 H 
ATOM     26  H19 1RK d   1      31.359  37.809  13.334  0.00  0.00     0.074 H 
ATOM     27  H20 1RK d   1      32.048  36.359  12.528  0.00  0.00     0.074 H 
ATOM     28  H21 1RK d   1      29.503  36.235  12.823  0.00  0.00     0.040 H 
ATOM     29  H22 1RK d   1      29.360  37.666  11.747  0.00  0.00     0.040 H 
ATOM     30  H23 1RK d   1      28.840  34.971   9.248  0.00  0.00     0.092 H 
ENDROOT
BRANCH   1  31
ATOM     31  C14 1RK d   1      27.489  32.120  11.814  0.00  0.00     0.030 C 
ATOM     32  H9  1RK d   1      26.768  32.637  12.464  0.00  0.00     0.072 H 
ATOM     33  H10 1RK d   1      26.947  31.489  11.094  0.00  0.00     0.072 H 
BRANCH  31  34
ATOM     34  C15 1RK d   1      28.317  31.292  12.616  0.00  0.00     0.005 A 
ATOM     35  C27 1RK d   1      28.505  29.900  12.272  0.00  0.00     0.077 A 
ATOM     36  C30 1RK d   1      29.310  29.085  13.090  0.00  0.00    -0.049 A 
ATOM     37  C31 1RK d   1      29.897  29.591  14.248  0.00  0.00    -0.070 A 
ATOM     38  H4  1RK d   1      29.476  28.049  12.815  0.00  0.00     0.087 H 
ATOM     39  C32 1RK d   1      29.708  30.965  14.583  0.00  0.00    -0.024 A 
ATOM     40  H5  1RK d   1      30.491  28.948  14.887  0.00  0.00     0.085 H 
ATOM     41  C34 1RK d   1      30.289  31.511  15.738  0.00  0.00    -0.056 A 
ATOM     42  C33 1RK d   1      28.913  31.804  13.771  0.00  0.00    -0.015 A 
ATOM     43  C35 1RK d   1      30.126  32.871  16.120  0.00  0.00     0.041 A 
ATOM     44  H6  1RK d   1      30.890  30.866  16.368  0.00  0.00     0.086 H 
ATOM     45  C36 1RK d   1      29.322  33.702  15.321  0.00  0.00    -0.066 A 
ATOM     46  C37 1RK d   1      28.761  33.170  14.164  0.00  0.00    -0.070 A 
ATOM     47  H7  1RK d   1      29.143  34.734  15.600  0.00  0.00     0.085 H 
ATOM     48  H8  1RK d   1      28.178  33.826  13.527  0.00  0.00     0.084 H 
BRANCH  35  49
ATOM     49  O28 1RK d   1      27.859  29.448  11.116  0.00  0.00    -0.355 OA
BRANCH  49  50
ATOM     50  C29 1RK d   1      27.844  28.045  10.776  0.00  0.00     0.010 C 
ATOM     51  H1  1RK d   1      27.289  27.901   9.837  0.00  0.00     0.066 H 
ATOM     52  H2  1RK d   1      27.355  27.478  11.582  0.00  0.00     0.066 H 
ATOM     53  H3  1RK d   1      28.877  27.687  10.650  0.00  0.00     0.066 H 
ENDBRANCH  49  50
ENDBRANCH  35  49
BRANCH  43  54
ATOM     54  C38 1RK d   1      30.732  33.409  17.267  0.00  0.00     0.209 C 
ATOM     55  O40 1RK d   1      30.387  34.534  17.729  0.00  0.00    -0.644 OA
ATOM     56  O39 1RK d   1      31.611  32.767  17.871  0.00  0.00    -0.644 OA
ENDBRANCH  43  54
ENDBRANCH  31  34
ENDBRANCH   1  31
BRANCH  17  57
ATOM     57  N6  1RK d   1      27.728  36.614   9.859  0.00  0.00    -0.343 N 
ATOM     58  C5  1RK d   1      26.894  36.569   8.808  0.00  0.00     0.248 C 
ATOM     59  O8  1RK d   1      26.814  35.621   8.013  0.00  0.00    -0.271 OA
ATOM     60  H24 1RK d   1      27.741  37.434  10.431  0.00  0.00     0.163 HD
BRANCH  58  61
ATOM     61  C3  1RK d   1      25.859  37.730   8.782  0.00  0.00     0.174 C 
ATOM     62  H25 1RK d   1      26.353  38.661   9.097  0.00  0.00     0.098 H 
BRANCH  61  63
ATOM     63  C4  1RK d   1      24.683  37.385   9.806  0.00  0.00    -0.041 C 
ATOM     64  H26 1RK d   1      23.941  38.197   9.800  0.00  0.00     0.030 H 
ATOM     65  H27 1RK d   1      25.099  37.276  10.819  0.00  0.00     0.030 H 
ATOM     66  H28 1RK d   1      24.199  36.444   9.505  0.00  0.00     0.030 H 
ENDBRANCH  61  63
BRANCH  61  67
ATOM     67  N1  1RK d   1      25.323  37.914   7.442  0.00  0.00    -0.067 N 
ATOM     68  H29 1RK d   1      24.588  38.603   7.492  0.00  0.00     0.277 HD
ATOM     69  H30 1RK d   1      24.938  37.034   7.136  0.00  0.00     0.277 HD
BRANCH  67  70
ATOM     70  C2  1RK d   1      26.322  38.371   6.408  0.00  0.00     0.066 C 
ATOM     71  H31 1RK d   1      25.820  38.479   5.436  0.00  0.00     0.067 H 
ATOM     72  H32 1RK d   1      27.128  37.627   6.323  0.00  0.00     0.067 H 
ATOM     73  H33 1RK d   1      26.747  39.339   6.711  0.00  0.00     0.067 H 
ENDBRANCH  67  70
ENDBRANCH  61  67
ENDBRANCH  58  61
ENDBRANCH  17  57
TORSDOF 10
