REMARK  5 active torsions:
REMARK  status: ('A' for Active; 'I' for Inactive)
REMARK       I    between atoms: N01_1  and  C01_2 
REMARK    1  A    between atoms: C01_2  and  C02_4 
REMARK    2  A    between atoms: C05_5  and  N02_6 
REMARK       I    between atoms: N02_6  and  C06_7 
REMARK    3  A    between atoms: C06_7  and  C07_9 
REMARK    4  A    between atoms: C07_9  and  S01_10 
REMARK    5  A    between atoms: S01_10  and  C08_11 
ROOT
ATOM      1  N02 1RV d   1      30.453   2.136  19.910  0.00  0.00    -0.320 N 
ATOM      2  C06 1RV d   1      31.794   2.572  19.679  0.00  0.00     0.232 C 
ATOM      3  O02 1RV d   1      32.474   2.070  18.808  0.00  0.00    -0.272 OA
ATOM      4  H3  1RV d   1      29.909   2.552  20.639  0.00  0.00     0.169 HD
ENDROOT
BRANCH   1   5
ATOM      5  C05 1RV d   1      29.889   1.101  19.095  0.00  0.00     0.092 A 
ATOM      6  C02 1RV d   1      30.088  -0.305  19.161  0.00  0.00     0.066 A 
ATOM      7  C03 1RV d   1      29.348  -1.018  18.136  0.00  0.00    -0.059 A 
ATOM      8  C04 1RV d   1      28.585  -0.199  17.282  0.00  0.00    -0.042 A 
ATOM      9  H9  1RV d   1      29.380  -2.102  18.035  0.00  0.00     0.086 H 
ATOM     10  S02 1RV d   1      28.840   1.370  17.804  0.00  0.00    -0.083 SA
ATOM     11  H8  1RV d   1      27.958  -0.521  16.452  0.00  0.00     0.095 H 
BRANCH   6  12
ATOM     12  C01 1RV d   1      30.977  -1.006  20.180  0.00  0.00     0.252 C 
ATOM     13  N01 1RV d   1      30.475  -2.092  20.951  0.00  0.00    -0.366 N 
ATOM     14  H1  1RV d   1      29.529  -2.394  20.833  0.00  0.00     0.159 HD
ATOM     15  H2  1RV d   1      31.068  -2.553  21.610  0.00  0.00     0.159 HD
ATOM     16  O01 1RV d   1      32.130  -0.650  20.334  0.00  0.00    -0.268 OA
ENDBRANCH   6  12
ENDBRANCH   1   5
BRANCH   2  17
ATOM     17  C07 1RV d   1      32.430   3.680  20.478  0.00  0.00     0.058 C 
ATOM     18  H4  1RV d   1      33.135   3.268  21.215  0.00  0.00     0.064 H 
ATOM     19  H5  1RV d   1      31.661   4.271  20.997  0.00  0.00     0.064 H 
BRANCH  17  20
ATOM     20  S01 1RV d   1      33.288   4.684  19.290  0.00  0.00    -0.079 SA
BRANCH  20  21
ATOM     21  C08 1RV d   1      32.113   5.422  18.166  0.00  0.00     0.208 A 
ATOM     22  N03 1RV d   1      30.782   5.250  18.166  0.00  0.00    -0.146 NA
ATOM     23  N04 1RV d   1      30.242   5.964  17.176  0.00  0.00    -0.269 N 
ATOM     24  C09 1RV d   1      31.219   6.603  16.528  0.00  0.00     0.083 A 
ATOM     25  H6  1RV d   1      29.238   6.014  16.950  0.00  0.00     0.190 HD
ATOM     26  N05 1RV d   1      32.386   6.270  17.140  0.00  0.00    -0.215 NA
ATOM     27  H7  1RV d   1      31.103   7.265  15.671  0.00  0.00     0.145 H 
ENDBRANCH  20  21
ENDBRANCH  17  20
ENDBRANCH   2  17
TORSDOF 5
