REMARK  11 active torsions:
REMARK  status: ('A' for Active; 'I' for Inactive)
REMARK    1  A    between atoms: PG_1  and  S1G_2 
REMARK    2  A    between atoms: O3B_8  and  PG_1 
REMARK    3  A    between atoms: PB_5  and  O3B_8 
REMARK    4  A    between atoms: O3A_12  and  PB_5 
REMARK    5  A    between atoms: PA_9  and  O3A_12 
REMARK    6  A    between atoms: PA_9  and  O5'_13 
REMARK    7  A    between atoms: O5'_13  and  C5'_14 
REMARK    8  A    between atoms: C5'_14  and  C4'_15 
REMARK    9  A    between atoms: C3'_17  and  O3'_18 
REMARK   10  A    between atoms: C2'_19  and  O2'_20 
REMARK   11  A    between atoms: C1'_21  and  N9_22 
ROOT
ATOM      1  C4' AGS d   1       0.631  49.162  -6.995  0.00  0.00     0.089 C 
ATOM      2  O4' AGS d   1      -0.551  48.774  -6.286  0.00  0.00    -0.353 OA
ATOM      3  C3' AGS d   1       0.947  50.593  -6.594  0.00  0.00     0.091 C 
ATOM      4  C2' AGS d   1      -0.401  51.134  -6.183  0.00  0.00     0.105 C 
ATOM      5  C1' AGS d   1      -1.180  49.912  -5.695  0.00  0.00     0.139 C 
ATOM      6  H4  AGS d   1       0.441  49.121  -8.078  0.00  0.00     0.090 H 
ATOM      7  H5  AGS d   1       1.652  50.620  -5.750  0.00  0.00     0.091 H 
ATOM      8  H7  AGS d   1      -0.308  51.890  -5.389  0.00  0.00     0.093 H 
ATOM      9  H9  AGS d   1      -2.234  49.975  -6.004  0.00  0.00     0.122 H 
ENDROOT
BRANCH   1  10
ATOM     10  C5' AGS d   1       1.782  48.223  -6.667  0.00  0.00     0.058 C 
ATOM     11  H2  AGS d   1       1.431  47.181  -6.715  0.00  0.00     0.079 H 
ATOM     12  H3  AGS d   1       2.595  48.370  -7.394  0.00  0.00     0.079 H 
BRANCH  10  13
ATOM     13  O5' AGS d   1       2.260  48.504  -5.356  0.00  0.00    -0.287 OA
BRANCH  13  14
ATOM     14  PA  AGS d   1       3.809  48.298  -4.986  0.00  0.00     0.417 P 
ATOM     15  O1A AGS d   1       4.182  49.323  -3.951  0.00  0.00    -0.624 OA
ATOM     16  O2A AGS d   1       4.624  48.182  -6.252  0.00  0.00    -0.624 OA
BRANCH  14  17
ATOM     17  O3A AGS d   1       3.764  46.864  -4.281  0.00  0.00    -0.180 OA
BRANCH  17  18
ATOM     18  PB  AGS d   1       4.999  46.275  -3.452  0.00  0.00     0.426 P 
ATOM     19  O1B AGS d   1       6.248  47.050  -3.738  0.00  0.00    -0.624 OA
ATOM     20  O2B AGS d   1       4.500  46.142  -2.043  0.00  0.00    -0.624 OA
BRANCH  18  21
ATOM     21  O3B AGS d   1       5.061  44.839  -4.136  0.00  0.00    -0.195 OA
BRANCH  21  22
ATOM     22  PG  AGS d   1       6.341  43.901  -4.178  0.00  0.00     0.322 P 
ATOM     23  O2G AGS d   1       7.622  44.620  -4.831  0.00  0.00    -0.638 OA
ATOM     24  O3G AGS d   1       6.669  43.343  -2.856  0.00  0.00    -0.638 OA
BRANCH  22  25
ATOM     25  S1G AGS d   1       5.798  42.355  -5.420  0.00  0.00    -0.054 SA
ATOM     26  H1  AGS d   1       4.994  41.883  -5.036  0.00  0.00     0.114 HD
ENDBRANCH  22  25
ENDBRANCH  21  22
ENDBRANCH  18  21
ENDBRANCH  17  18
ENDBRANCH  14  17
ENDBRANCH  13  14
ENDBRANCH  10  13
ENDBRANCH   1  10
BRANCH   3  27
ATOM     27  O3' AGS d   1       1.503  51.318  -7.697  0.00  0.00    -0.390 OA
ATOM     28  H6  AGS d   1       0.879  51.330  -8.413  0.00  0.00     0.210 HD
ENDBRANCH   3  27
BRANCH   5  29
ATOM     29  N9  AGS d   1      -1.090  49.829  -4.211  0.00  0.00    -0.294 N 
ATOM     30  C8  AGS d   1      -0.453  48.872  -3.502  0.00  0.00     0.071 A 
ATOM     31  N7  AGS d   1      -0.549  49.093  -2.165  0.00  0.00    -0.236 NA
ATOM     32  H10 AGS d   1       0.072  48.028  -3.947  0.00  0.00     0.144 H 
ATOM     33  C5  AGS d   1      -1.257  50.220  -1.996  0.00  0.00     0.149 A 
ATOM     34  C6  AGS d   1      -1.720  51.024  -0.843  0.00  0.00     0.155 A 
ATOM     35  C4  AGS d   1      -1.612  50.702  -3.340  0.00  0.00     0.167 A 
ATOM     36  N6  AGS d   1      -1.438  50.650   0.424  0.00  0.00    -0.382 N 
ATOM     37  N1  AGS d   1      -2.430  52.145  -1.093  0.00  0.00    -0.222 NA
ATOM     38  H11 AGS d   1      -1.768  51.221   1.215  0.00  0.00     0.157 HD
ATOM     39  H12 AGS d   1      -0.893  49.794   0.599  0.00  0.00     0.157 HD
ATOM     40  C2  AGS d   1      -2.724  52.535  -2.348  0.00  0.00     0.091 A 
ATOM     41  N3  AGS d   1      -2.334  51.849  -3.441  0.00  0.00    -0.222 NA
ATOM     42  H13 AGS d   1      -3.301  53.442  -2.486  0.00  0.00     0.146 H 
ENDBRANCH   5  29
BRANCH   4  43
ATOM     43  O2' AGS d   1      -1.033  51.693  -7.334  0.00  0.00    -0.388 OA
ATOM     44  H8  AGS d   1      -0.493  52.394  -7.681  0.00  0.00     0.210 HD
ENDBRANCH   4  43
TORSDOF 11
