REMARK  3 active torsions:
REMARK  status: ('A' for Active; 'I' for Inactive)
REMARK    1  A    between atoms: C1_4  and  C_1 
REMARK    2  A    between atoms: O2_7  and  P_3 
REMARK    3  A    between atoms: C8_16  and  O2_7 
ROOT
ATOM      1  O   KLV d   1      15.195  -7.521 -11.537  0.00  0.00    -0.260 OA
ATOM      2  C1  KLV d   1      12.639  -5.057 -11.168  0.00  0.00    -0.043 A 
ATOM      3  O1  KLV d   1      15.377  -5.362 -10.850  0.00  0.00    -0.275 OA
ATOM      4  C2  KLV d   1      13.264  -6.217 -11.444  0.00  0.00    -0.004 A 
ATOM      5  C3  KLV d   1      14.683  -6.458 -11.285  0.00  0.00     0.288 A 
ATOM      6  C4  KLV d   1      14.812  -4.138 -10.533  0.00  0.00     0.092 A 
ATOM      7  C5  KLV d   1      13.437  -3.950 -10.684  0.00  0.00     0.004 A 
ATOM      8  C6  KLV d   1      12.945  -2.684 -10.349  0.00  0.00    -0.067 A 
ATOM      9  C7  KLV d   1      13.815  -1.702  -9.899  0.00  0.00    -0.049 A 
ATOM     10  C8  KLV d   1      15.169  -1.971  -9.772  0.00  0.00     0.085 A 
ATOM     11  C9  KLV d   1      15.716  -3.192 -10.093  0.00  0.00    -0.017 A 
ATOM     12  H4  KLV d   1      12.654  -7.039 -11.816  0.00  0.00     0.093 H 
ATOM     13  H5  KLV d   1      11.886  -2.471 -10.441  0.00  0.00     0.085 H 
ATOM     14  H6  KLV d   1      13.434  -0.719  -9.645  0.00  0.00     0.087 H 
ATOM     15  H7  KLV d   1      16.777  -3.396 -10.007  0.00  0.00     0.092 H 
ENDROOT
BRANCH  10  16
ATOM     16  O2  KLV d   1      16.124  -1.043  -9.329  0.00  0.00    -0.240 OA
BRANCH  16  17
ATOM     17  P   KLV d   1      15.884   0.471  -8.858  0.00  0.00     0.427 P 
ATOM     18  O3  KLV d   1      14.979   0.408  -7.666  0.00  0.00    -0.617 OA
ATOM     19  O4  KLV d   1      15.259   1.213 -10.053  0.00  0.00    -0.617 OA
ATOM     20  O5  KLV d   1      17.271   0.963  -8.394  0.00  0.00    -0.617 OA
ENDBRANCH  16  17
ENDBRANCH  10  16
BRANCH   2  21
ATOM     21  C   KLV d   1      11.165  -4.888 -11.343  0.00  0.00    -0.050 C 
ATOM     22  H1  KLV d   1      10.730  -5.827 -11.716  0.00  0.00     0.033 H 
ATOM     23  H2  KLV d   1      10.972  -4.082 -12.066  0.00  0.00     0.033 H 
ATOM     24  H3  KLV d   1      10.708  -4.631 -10.376  0.00  0.00     0.033 H 
ENDBRANCH   2  21
TORSDOF 3
