REMARK WARNING: 32 MAX_TORS EXCEEDED!!!
REMARK  40 active torsions:
REMARK  status: ('A' for Active; 'I' for Inactive)
REMARK    1  A    between atoms: N_1  and  CA_2 
REMARK    2  A    between atoms: CA_2  and  C_3 
REMARK       I    between atoms: C_3  and  N_5 
REMARK    3  A    between atoms: N_5  and  CA_6 
REMARK    4  A    between atoms: CA_6  and  C_7 
REMARK    5  A    between atoms: CA_6  and  CB_9 
REMARK       I    between atoms: C_7  and  N_11 
REMARK    6  A    between atoms: CB_9  and  OG_10 
REMARK    7  A    between atoms: N_11  and  CA_12 
REMARK    8  A    between atoms: CA_12  and  C_13 
REMARK    9  A    between atoms: CA_12  and  CB_15 
REMARK       I    between atoms: C_13  and  N_23 
REMARK   10  A    between atoms: CB_15  and  CG_16 
REMARK   11  A    between atoms: CZ_21  and  OH_22 
REMARK   12  A    between atoms: N_23  and  CA_24 
REMARK   13  A    between atoms: CA_24  and  C_25 
REMARK       I    between atoms: C_25  and  N_27 
REMARK   14  A    between atoms: N_27  and  CA_28 
REMARK   15  A    between atoms: CA_28  and  C_29 
REMARK   16  A    between atoms: CA_28  and  CB_31 
REMARK       I    between atoms: C_29  and  N_37 
REMARK   17  A    between atoms: CB_31  and  CG_32 
REMARK   18  A    between atoms: N_37  and  CA_38 
REMARK   19  A    between atoms: CA_38  and  C_39 
REMARK   20  A    between atoms: CA_38  and  CB_41 
REMARK       I    between atoms: C_39  and  N_45 
REMARK   21  A    between atoms: CB_41  and  CG_42 
REMARK   22  A    between atoms: CG_42  and  CD1_43 
REMARK   23  A    between atoms: CG_42  and  CD2_44 
REMARK   24  A    between atoms: N_45  and  CA_46 
REMARK   25  A    between atoms: CA_46  and  C_47 
REMARK   26  A    between atoms: CA_46  and  CB_49 
REMARK       I    between atoms: C_47  and  N_51 
REMARK   27  A    between atoms: CB_49  and  OG_50 
REMARK   28  A    between atoms: N_51  and  CA_52 
REMARK   29  A    between atoms: CA_52  and  C_53 
REMARK   30  A    between atoms: CA_52  and  CB_55 
REMARK       I    between atoms: C_53  and  N_59 
REMARK   31  A    between atoms: CB_55  and  CG1_56 
REMARK   32  A    between atoms: CB_55  and  CG2_57 
REMARK   33  A    between atoms: CG1_56  and  CD1_58 
REMARK   34  A    between atoms: N_59  and  CA_60 
REMARK   35  A    between atoms: CA_60  and  C_61 
REMARK       I    between atoms: C_61  and  N_63 
REMARK   36  A    between atoms: N_63  and  CA_64 
REMARK   37  A    between atoms: CA_64  and  C_65 
REMARK   38  A    between atoms: CA_64  and  CB_67 
REMARK   39  A    between atoms: CB_67  and  OG1_68 
REMARK   40  A    between atoms: CB_67  and  CG2_69 
ROOT
ATOM      1  CA  LEU d   1     -25.132  17.295  11.104  0.00  0.00     0.089 C 
ATOM      2  H31 LEU d   1     -24.721  18.078  11.758  0.00  0.00     0.087 H 
ENDROOT
BRANCH   1   3
ATOM      3  N   LEU d   1     -24.453  16.048  11.472  0.00  0.00    -0.346 N 
ATOM      4  C   HIS d   1     -23.877  15.918  12.665  0.00  0.00     0.241 C 
ATOM      5  O   HIS d   1     -24.098  16.681  13.610  0.00  0.00    -0.271 OA
ATOM      6  H30 LEU d   1     -24.422  15.289  10.821  0.00  0.00     0.163 HD
BRANCH   4   7
ATOM      7  CA  HIS d   1     -22.875  14.780  12.803  0.00  0.00     0.094 C 
ATOM      8  H24 HIS d   1     -23.011  14.061  11.982  0.00  0.00     0.088 H 
BRANCH   7   9
ATOM      9  N   HIS d   1     -21.563  15.409  12.721  0.00  0.00    -0.346 N 
ATOM     10  C   GLY d   1     -20.736  15.188  11.706  0.00  0.00     0.236 C 
ATOM     11  O   GLY d   1     -20.991  14.420  10.782  0.00  0.00    -0.272 OA
ATOM     12  H23 HIS d   1     -21.276  16.027  13.453  0.00  0.00     0.163 HD
BRANCH  10  13
ATOM     13  CA  GLY d   1     -19.421  15.931  11.747  0.00  0.00     0.069 C 
ATOM     14  H21 GLY d   1     -19.451  16.751  11.014  0.00  0.00     0.078 H 
ATOM     15  H22 GLY d   1     -19.276  16.346  12.755  0.00  0.00     0.078 H 
BRANCH  13  16
ATOM     16  N   GLY d   1     -18.303  15.055  11.431  0.00  0.00    -0.351 N 
ATOM     17  C   TYR d   1     -17.482  14.606  12.377  0.00  0.00     0.241 C 
ATOM     18  O   TYR d   1     -17.532  14.977  13.557  0.00  0.00    -0.271 OA
ATOM     19  H20 GLY d   1     -18.148  14.784  10.481  0.00  0.00     0.163 HD
BRANCH  17  20
ATOM     20  CA  TYR d   1     -16.444  13.600  11.931  0.00  0.00     0.093 C 
ATOM     21  H12 TYR d   1     -16.294  13.685  10.845  0.00  0.00     0.088 H 
BRANCH  20  22
ATOM     22  N   TYR d   1     -15.197  13.841  12.613  0.00  0.00    -0.346 N 
ATOM     23  C   SER d   1     -14.033  13.816  11.977  0.00  0.00     0.243 C 
ATOM     24  O   SER d   1     -13.926  13.735  10.754  0.00  0.00    -0.271 OA
ATOM     25  H11 TYR d   1     -15.210  14.033  13.594  0.00  0.00     0.163 HD
BRANCH  23  26
ATOM     26  CA  SER d   1     -12.811  13.915  12.866  0.00  0.00     0.109 C 
ATOM     27  H7  SER d   1     -12.928  13.197  13.691  0.00  0.00     0.090 H 
BRANCH  26  28
ATOM     28  N   SER d   1     -11.592  13.574  12.142  0.00  0.00    -0.344 N 
ATOM     29  C   GLY d   1     -11.258  12.316  11.859  0.00  0.00     0.243 C 
ATOM     30  O   GLY d   1     -11.929  11.339  12.211  0.00  0.00    -0.272 OA
ATOM     31  H6  SER d   1     -10.985  14.312  11.847  0.00  0.00     0.163 HD
BRANCH  29  32
ATOM     32  CA  GLY d   1      -9.986  12.140  11.050  0.00  0.00     0.152 C 
ATOM     33  H4  GLY d   1     -10.242  12.229   9.984  0.00  0.00     0.090 H 
ATOM     34  H5  GLY d   1      -9.289  12.944  11.328  0.00  0.00     0.090 H 
BRANCH  32  35
ATOM     35  N   GLY d   1      -9.294  10.832  11.255  0.00  0.00    -0.071 N 
ATOM     36  H1  GLY d   1      -8.464  10.798  10.684  0.00  0.00     0.274 HD
ATOM     37  H2  GLY d   1      -9.912  10.080  10.994  0.00  0.00     0.274 HD
ATOM     38  H3  GLY d   1      -9.039  10.735  12.225  0.00  0.00     0.274 HD
ENDBRANCH  32  35
ENDBRANCH  29  32
ENDBRANCH  26  28
BRANCH  26  39
ATOM     39  CB  SER d   1     -12.715  15.318  13.461  0.00  0.00     0.044 C 
ATOM     40  H8  SER d   1     -13.678  15.585  13.921  0.00  0.00     0.077 H 
ATOM     41  H9  SER d   1     -12.478  16.037  12.663  0.00  0.00     0.077 H 
BRANCH  39  42
ATOM     42  OG  SER d   1     -11.705  15.357  14.438  0.00  0.00    -0.398 OA
ATOM     43  H10 SER d   1     -11.910  14.737  15.128  0.00  0.00     0.209 HD
ENDBRANCH  39  42
ENDBRANCH  26  39
ENDBRANCH  23  26
ENDBRANCH  20  22
BRANCH  20  44
ATOM     44  CB  TYR d   1     -16.916  12.200  12.277  0.00  0.00    -0.014 C 
ATOM     45  H13 TYR d   1     -17.437  12.240  13.245  0.00  0.00     0.043 H 
ATOM     46  H14 TYR d   1     -16.034  11.549  12.363  0.00  0.00     0.043 H 
BRANCH  44  47
ATOM     47  CG  TYR d   1     -17.842  11.604  11.270  0.00  0.00    -0.056 A 
ATOM     48  CD1 TYR d   1     -17.349  10.976  10.137  0.00  0.00    -0.074 A 
ATOM     49  CE1 TYR d   1     -18.212  10.412   9.198  0.00  0.00    -0.051 A 
ATOM     50  H15 TYR d   1     -16.278  10.922   9.979  0.00  0.00     0.084 H 
ATOM     51  CZ  TYR d   1     -19.581  10.480   9.403  0.00  0.00     0.065 A 
ATOM     52  H17 TYR d   1     -17.815   9.924   8.315  0.00  0.00     0.087 H 
ATOM     53  CE2 TYR d   1     -20.092  11.091  10.532  0.00  0.00    -0.051 A 
ATOM     54  CD2 TYR d   1     -19.223  11.650  11.459  0.00  0.00    -0.074 A 
ATOM     55  H18 TYR d   1     -21.163  11.133  10.693  0.00  0.00     0.087 H 
ATOM     56  H16 TYR d   1     -19.624  12.130  12.344  0.00  0.00     0.084 H 
BRANCH  51  57
ATOM     57  OH  TYR d   1     -20.437   9.924   8.482  0.00  0.00    -0.361 OA
ATOM     58  H19 TYR d   1     -21.014  10.597   8.141  0.00  0.00     0.217 HD
ENDBRANCH  51  57
ENDBRANCH  44  47
ENDBRANCH  20  44
ENDBRANCH  17  20
ENDBRANCH  13  16
ENDBRANCH  10  13
ENDBRANCH   7   9
BRANCH   7  59
ATOM     59  CB  HIS d   1     -23.001  14.043  14.140  0.00  0.00     0.004 C 
ATOM     60  H25 HIS d   1     -23.935  13.462  14.131  0.00  0.00     0.046 H 
ATOM     61  H26 HIS d   1     -23.041  14.789  14.947  0.00  0.00     0.046 H 
BRANCH  59  62
ATOM     62  CG  HIS d   1     -21.859  13.105  14.415  0.00  0.00     0.053 A 
ATOM     63  ND1 HIS d   1     -21.870  11.783  14.025  0.00  0.00    -0.247 NA
ATOM     64  CE1 HIS d   1     -20.739  11.207  14.392  0.00  0.00     0.064 A 
ATOM     65  NE2 HIS d   1     -19.984  12.112  14.992  0.00  0.00    -0.359 N 
ATOM     66  H28 HIS d   1     -20.473  10.164  14.228  0.00  0.00     0.143 H 
ATOM     67  CD2 HIS d   1     -20.665  13.306  15.023  0.00  0.00     0.002 A 
ATOM     68  H29 HIS d   1     -19.041  11.949  15.373  0.00  0.00     0.166 HD
ATOM     69  H27 HIS d   1     -20.310  14.240  15.456  0.00  0.00     0.114 H 
ENDBRANCH  59  62
ENDBRANCH   7  59
ENDBRANCH   4   7
ENDBRANCH   1   3
BRANCH   1  70
ATOM     70  C   LEU d   1     -26.634  17.286  11.333  0.00  0.00     0.241 C 
ATOM     71  O   LEU d   1     -27.335  16.392  10.867  0.00  0.00    -0.271 OA
ATOM     72  N   SER d   1     -27.100  18.299  12.068  0.00  0.00    -0.344 N 
ATOM     73  H41 SER d   1     -26.439  18.933  12.469  0.00  0.00     0.163 HD
BRANCH  72  74
ATOM     74  CA  SER d   1     -28.529  18.537  12.323  0.00  0.00     0.109 C 
ATOM     75  H42 SER d   1     -28.595  19.251  13.157  0.00  0.00     0.090 H 
BRANCH  74  76
ATOM     76  C   SER d   1     -29.283  17.282  12.751  0.00  0.00     0.243 C 
ATOM     77  O   SER d   1     -30.314  16.916  12.173  0.00  0.00    -0.271 OA
ATOM     78  N   ILE d   1     -28.767  16.646  13.798  0.00  0.00    -0.346 N 
ATOM     79  H46 ILE d   1     -28.044  17.088  14.328  0.00  0.00     0.163 HD
BRANCH  78  80
ATOM     80  CA  ILE d   1     -29.227  15.322  14.194  0.00  0.00     0.092 C 
ATOM     81  H47 ILE d   1     -29.499  14.782  13.275  0.00  0.00     0.088 H 
BRANCH  80  82
ATOM     82  C   ILE d   1     -30.474  15.374  15.078  0.00  0.00     0.241 C 
ATOM     83  O   ILE d   1     -31.004  14.333  15.480  0.00  0.00    -0.271 OA
ATOM     84  N   GLY d   1     -30.925  16.590  15.379  0.00  0.00    -0.351 N 
ATOM     85  H57 GLY d   1     -30.382  17.384  15.106  0.00  0.00     0.163 HD
BRANCH  84  86
ATOM     86  CA  GLY d   1     -32.179  16.812  16.091  0.00  0.00     0.069 C 
ATOM     87  H58 GLY d   1     -32.159  17.813  16.546  0.00  0.00     0.078 H 
ATOM     88  H59 GLY d   1     -32.281  16.052  16.880  0.00  0.00     0.078 H 
BRANCH  86  89
ATOM     89  C   GLY d   1     -33.375  16.718  15.158  0.00  0.00     0.236 C 
ATOM     90  O   GLY d   1     -34.503  16.516  15.610  0.00  0.00    -0.272 OA
ATOM     91  N   THR d   1     -33.130  16.880  13.855  0.00  0.00    -0.343 N 
ATOM     92  H60 THR d   1     -32.209  17.140  13.566  0.00  0.00     0.163 HD
BRANCH  91  93
ATOM     93  CA  THR d   1     -34.167  16.689  12.832  0.00  0.00     0.120 C 
ATOM     94  H61 THR d   1     -35.109  16.477  13.360  0.00  0.00     0.093 H 
BRANCH  93  95
ATOM     95  C   THR d   1     -33.853  15.482  11.941  0.00  0.00     0.199 C 
ATOM     96  O   THR d   1     -32.667  15.087  11.785  0.00  0.00    -0.646 OA
ATOM     97  O   THR d   1     -34.792  14.877  11.358  0.00  0.00    -0.646 OA
ENDBRANCH  93  95
BRANCH  93  98
ATOM     98  CB  THR d   1     -34.398  17.964  11.967  0.00  0.00     0.061 C 
ATOM     99  H62 THR d   1     -34.391  18.840  12.632  0.00  0.00     0.086 H 
BRANCH  98 100
ATOM    100  OG1 THR d   1     -35.677  17.883  11.320  0.00  0.00    -0.393 OA
ATOM    101  H63 THR d   1     -35.700  17.114  10.762  0.00  0.00     0.210 HD
ENDBRANCH  98 100
BRANCH  98 102
ATOM    102  CG2 THR d   1     -33.298  18.148  10.913  0.00  0.00    -0.050 C 
ATOM    103  H64 THR d   1     -33.500  19.057  10.327  0.00  0.00     0.031 H 
ATOM    104  H65 THR d   1     -33.282  17.276  10.243  0.00  0.00     0.031 H 
ATOM    105  H66 THR d   1     -32.323  18.244  11.413  0.00  0.00     0.031 H 
ENDBRANCH  98 102
ENDBRANCH  93  98
ENDBRANCH  91  93
ENDBRANCH  86  89
ENDBRANCH  84  86
ENDBRANCH  80  82
BRANCH  80 106
ATOM    106  CB  ILE d   1     -28.101  14.527  14.887  0.00  0.00    -0.030 C 
ATOM    107  H48 ILE d   1     -28.469  13.514  15.105  0.00  0.00     0.043 H 
BRANCH 106 108
ATOM    108  CG1 ILE d   1     -27.710  15.200  16.205  0.00  0.00    -0.063 C 
ATOM    109  H49 ILE d   1     -28.631  15.481  16.737  0.00  0.00     0.033 H 
ATOM    110  H50 ILE d   1     -27.130  16.105  15.973  0.00  0.00     0.033 H 
BRANCH 108 111
ATOM    111  CD1 ILE d   1     -26.874  14.318  17.126  0.00  0.00    -0.076 C 
ATOM    112  H54 ILE d   1     -26.636  14.871  18.046  0.00  0.00     0.027 H 
ATOM    113  H55 ILE d   1     -25.941  14.036  16.616  0.00  0.00     0.027 H 
ATOM    114  H56 ILE d   1     -27.442  13.411  17.380  0.00  0.00     0.027 H 
ENDBRANCH 108 111
ENDBRANCH 106 108
BRANCH 106 115
ATOM    115  CG2 ILE d   1     -26.884  14.418  13.966  0.00  0.00    -0.071 C 
ATOM    116  H51 ILE d   1     -27.179  13.933  13.024  0.00  0.00     0.028 H 
ATOM    117  H52 ILE d   1     -26.104  13.818  14.458  0.00  0.00     0.028 H 
ATOM    118  H53 ILE d   1     -26.494  15.424  13.754  0.00  0.00     0.028 H 
ENDBRANCH 106 115
ENDBRANCH  80 106
ENDBRANCH  78  80
ENDBRANCH  74  76
BRANCH  74 119
ATOM    119  CB  SER d   1     -29.184  19.189  11.106  0.00  0.00     0.044 C 
ATOM    120  H43 SER d   1     -30.269  19.261  11.272  0.00  0.00     0.077 H 
ATOM    121  H44 SER d   1     -28.989  18.574  10.215  0.00  0.00     0.077 H 
BRANCH 119 122
ATOM    122  OG  SER d   1     -28.654  20.490  10.902  0.00  0.00    -0.398 OA
ATOM    123  H45 SER d   1     -27.717  20.430  10.757  0.00  0.00     0.209 HD
ENDBRANCH 119 122
ENDBRANCH  74 119
ENDBRANCH  72  74
ENDBRANCH   1  70
BRANCH   1 124
ATOM    124  CB  LEU d   1     -24.810  17.696   9.663  0.00  0.00    -0.035 C 
ATOM    125  H32 LEU d   1     -25.244  18.690   9.483  0.00  0.00     0.037 H 
ATOM    126  H33 LEU d   1     -25.283  16.962   8.994  0.00  0.00     0.037 H 
BRANCH 124 127
ATOM    127  CG  LEU d   1     -23.320  17.762   9.312  0.00  0.00    -0.059 C 
ATOM    128  H34 LEU d   1     -22.897  16.751   9.402  0.00  0.00     0.038 H 
BRANCH 127 129
ATOM    129  CD1 LEU d   1     -23.178  18.208   7.874  0.00  0.00    -0.073 C 
ATOM    130  H35 LEU d   1     -22.111  18.259   7.610  0.00  0.00     0.028 H 
ATOM    131  H36 LEU d   1     -23.634  19.201   7.751  0.00  0.00     0.028 H 
ATOM    132  H37 LEU d   1     -23.685  17.488   7.215  0.00  0.00     0.028 H 
ENDBRANCH 127 129
BRANCH 127 133
ATOM    133  CD2 LEU d   1     -22.561  18.671  10.274  0.00  0.00    -0.073 C 
ATOM    134  H38 LEU d   1     -22.694  18.308  11.304  0.00  0.00     0.028 H 
ATOM    135  H39 LEU d   1     -22.951  19.697  10.194  0.00  0.00     0.028 H 
ATOM    136  H40 LEU d   1     -21.491  18.664  10.018  0.00  0.00     0.028 H 
ENDBRANCH 127 133
ENDBRANCH 124 127
ENDBRANCH   1 124
TORSDOF 40
