REMARK  21 active torsions:
REMARK  status: ('A' for Active; 'I' for Inactive)
REMARK    1  A    between atoms: C1_1  and  O1_48 
REMARK    2  A    between atoms: C43_43  and  C3_3 
REMARK    3  A    between atoms: C4_4  and  O12_59 
REMARK    4  A    between atoms: C7_7  and  C14_14 
REMARK    5  A    between atoms: C8_8  and  O2_49 
REMARK    6  A    between atoms: C12_12  and  C13_13 
REMARK    7  A    between atoms: C16_16  and  C30_30 
REMARK    8  A    between atoms: C20_20  and  C31_31 
REMARK    9  A    between atoms: C21_21  and  O10_57 
REMARK   10  A    between atoms: C22_22  and  C32_32 
REMARK   11  A    between atoms: C23_23  and  O9_56 
REMARK   12  A    between atoms: C24_24  and  C33_33 
REMARK   13  A    between atoms: C25_25  and  O7_54 
REMARK   14  A    between atoms: C26_26  and  C34_34 
REMARK   15  A    between atoms: C27_27  and  O6_53 
REMARK   16  A    between atoms: C35_35  and  C36_36 
REMARK   17  A    between atoms: O7_54  and  C35_35 
REMARK   18  A    between atoms: O6_53  and  C37_37 
REMARK   19  A    between atoms: N4_47  and  C38_38 
REMARK   20  A    between atoms: N2_45  and  C43_43 
REMARK   21  A    between atoms: N2_45  and  N3_46 
ROOT
ATOM      1  C1  RFP d   1    -113.157  26.442   8.414  0.00  0.00     0.107 A 
ATOM      2  C2  RFP d   1    -112.011  26.161   7.656  0.00  0.00     0.080 A 
ATOM      3  C3  RFP d   1    -110.722  26.331   8.132  0.00  0.00     0.033 A 
ATOM      4  C4  RFP d   1    -110.506  26.807   9.411  0.00  0.00     0.088 A 
ATOM      5  C5  RFP d   1    -111.505  27.578  11.558  0.00  0.00     0.064 A 
ATOM      6  C6  RFP d   1    -112.688  27.842  12.294  0.00  0.00     0.096 A 
ATOM      7  C7  RFP d   1    -113.990  27.689  11.884  0.00  0.00     0.007 A 
ATOM      8  C8  RFP d   1    -114.150  27.206  10.561  0.00  0.00     0.088 A 
ATOM      9  C9  RFP d   1    -112.959  26.919   9.752  0.00  0.00     0.047 A 
ATOM     10  C10 RFP d   1    -111.595  27.097  10.234  0.00  0.00     0.030 A 
ATOM     11  C11 RFP d   1    -110.470  27.903  12.458  0.00  0.00     0.225 C 
ATOM     12  C12 RFP d   1    -110.831  28.572  13.588  0.00  0.00     0.233 C 
ATOM     13  C15 RFP d   1    -113.137  25.874   5.311  0.00  0.00     0.226 C 
ATOM     14  C16 RFP d   1    -112.844  25.298   3.934  0.00  0.00     0.020 C 
ATOM     15  C17 RFP d   1    -112.047  26.186   3.185  0.00  0.00    -0.054 C 
ATOM     16  C18 RFP d   1    -112.285  27.715   3.318  0.00  0.00    -0.064 C 
ATOM     17  C19 RFP d   1    -111.558  28.595   2.481  0.00  0.00    -0.060 C 
ATOM     18  C20 RFP d   1    -110.801  29.821   2.966  0.00  0.00    -0.032 C 
ATOM     19  C21 RFP d   1    -110.960  30.058   4.461  0.00  0.00     0.044 C 
ATOM     20  C22 RFP d   1    -109.987  31.038   5.056  0.00  0.00    -0.007 C 
ATOM     21  C23 RFP d   1    -110.634  31.602   6.296  0.00  0.00     0.046 C 
ATOM     22  C24 RFP d   1    -109.698  31.722   7.468  0.00  0.00    -0.006 C 
ATOM     23  C25 RFP d   1    -110.304  32.743   8.434  0.00  0.00     0.059 C 
ATOM     24  C26 RFP d   1    -110.819  32.073   9.695  0.00  0.00    -0.006 C 
ATOM     25  C27 RFP d   1    -110.391  32.807  10.959  0.00  0.00     0.045 C 
ATOM     26  C28 RFP d   1    -110.782  32.065  12.219  0.00  0.00    -0.021 C 
ATOM     27  C29 RFP d   1    -110.767  30.663  12.256  0.00  0.00     0.026 C 
ATOM     28  N1  RFP d   1    -112.026  25.672   6.271  0.00  0.00    -0.324 N 
ATOM     29  O3  RFP d   1    -112.232  28.355  13.707  0.00  0.00    -0.305 OA
ATOM     30  O4  RFP d   1    -109.300  27.597  12.243  0.00  0.00    -0.286 OA
ATOM     31  O5  RFP d   1    -110.539  29.960  13.457  0.00  0.00    -0.348 OA
ATOM     32  O11 RFP d   1    -114.176  26.463   5.583  0.00  0.00    -0.273 OA
ATOM     33  H7  RFP d   1    -113.806  25.266   3.401  0.00  0.00     0.054 H 
ATOM     34  H8  RFP d   1    -112.190  25.930   2.125  0.00  0.00     0.034 H 
ATOM     35  H9  RFP d   1    -111.001  25.998   3.470  0.00  0.00     0.034 H 
ATOM     36  H10 RFP d   1    -112.050  27.989   4.357  0.00  0.00     0.033 H 
ATOM     37  H11 RFP d   1    -113.353  27.894   3.124  0.00  0.00     0.033 H 
ATOM     38  H12 RFP d   1    -112.284  28.969   1.744  0.00  0.00     0.033 H 
ATOM     39  H13 RFP d   1    -110.810  27.968   1.973  0.00  0.00     0.033 H 
ATOM     40  H14 RFP d   1    -111.207  30.710   2.461  0.00  0.00     0.043 H 
ATOM     41  H15 RFP d   1    -110.807  29.093   4.967  0.00  0.00     0.084 H 
ATOM     42  H16 RFP d   1    -109.070  30.495   5.329  0.00  0.00     0.047 H 
ATOM     43  H17 RFP d   1    -111.013  32.608   6.061  0.00  0.00     0.084 H 
ATOM     44  H18 RFP d   1    -109.666  30.746   7.974  0.00  0.00     0.047 H 
ATOM     45  H19 RFP d   1    -111.179  33.191   7.941  0.00  0.00     0.085 H 
ATOM     46  H20 RFP d   1    -110.374  31.068   9.737  0.00  0.00     0.047 H 
ATOM     47  H21 RFP d   1    -109.292  32.853  10.942  0.00  0.00     0.084 H 
ATOM     48  H22 RFP d   1    -111.809  32.375  12.461  0.00  0.00     0.040 H 
ATOM     49  H23 RFP d   1    -110.100  32.408  13.011  0.00  0.00     0.040 H 
ATOM     50  H24 RFP d   1    -109.982  30.342  11.555  0.00  0.00     0.074 H 
ATOM     51  H25 RFP d   1    -111.748  30.332  11.884  0.00  0.00     0.074 H 
ATOM     52  H60 RFP d   1    -111.226  25.164   5.952  0.00  0.00     0.169 HD
ENDROOT
BRANCH   3  53
ATOM     53  C43 RFP d   1    -109.681  25.378   7.537  0.00  0.00     0.138 C 
ATOM     54  H58 RFP d   1    -110.209  24.478   7.189  0.00  0.00     0.086 H 
ATOM     55  H59 RFP d   1    -108.978  25.104   8.338  0.00  0.00     0.086 H 
BRANCH  53  56
ATOM     56  N2  RFP d   1    -108.969  25.855   6.515  0.00  0.00     0.084 N 
ATOM     57  H61 RFP d   1    -108.848  26.841   6.686  0.00  0.00     0.313 HD
ATOM     58  H62 RFP d   1    -109.531  25.724   5.689  0.00  0.00     0.313 HD
BRANCH  56  59
ATOM     59  N3  RFP d   1    -107.707  25.348   6.219  0.00  0.00     0.085 N 
ATOM     60  C40 RFP d   1    -107.023  26.324   7.009  0.00  0.00     0.133 C 
ATOM     61  C39 RFP d   1    -105.608  25.944   7.314  0.00  0.00     0.107 C 
ATOM     62  H52 RFP d   1    -107.019  27.278   6.461  0.00  0.00     0.082 H 
ATOM     63  H53 RFP d   1    -107.565  26.448   7.958  0.00  0.00     0.082 H 
ATOM     64  N4  RFP d   1    -104.908  25.526   6.130  0.00  0.00    -0.072 N 
ATOM     65  H50 RFP d   1    -105.608  25.117   8.040  0.00  0.00     0.078 H 
ATOM     66  H51 RFP d   1    -105.090  26.812   7.748  0.00  0.00     0.078 H 
ATOM     67  C42 RFP d   1    -105.613  24.435   5.497  0.00  0.00     0.107 C 
ATOM     68  H64 RFP d   1    -105.082  26.290   5.496  0.00  0.00     0.279 HD
ATOM     69  C41 RFP d   1    -107.033  24.785   5.072  0.00  0.00     0.133 C 
ATOM     70  H56 RFP d   1    -105.049  24.130   4.603  0.00  0.00     0.078 H 
ATOM     71  H57 RFP d   1    -105.660  23.595   6.206  0.00  0.00     0.078 H 
ATOM     72  H54 RFP d   1    -107.558  23.879   4.736  0.00  0.00     0.082 H 
ATOM     73  H55 RFP d   1    -107.009  25.519   4.253  0.00  0.00     0.082 H 
ATOM     74  H63 RFP d   1    -107.702  24.511   6.780  0.00  0.00     0.315 HD
BRANCH  64  75
ATOM     75  C38 RFP d   1    -103.419  25.516   6.144  0.00  0.00     0.066 C 
ATOM     76  H47 RFP d   1    -103.051  26.414   6.662  0.00  0.00     0.068 H 
ATOM     77  H48 RFP d   1    -103.043  25.509   5.110  0.00  0.00     0.068 H 
ATOM     78  H49 RFP d   1    -103.063  24.618   6.670  0.00  0.00     0.068 H 
ENDBRANCH  64  75
ENDBRANCH  56  59
ENDBRANCH  53  56
ENDBRANCH   3  53
BRANCH   4  79
ATOM     79  O12 RFP d   1    -109.225  26.965   9.848  0.00  0.00    -0.359 OA
ATOM     80  H69 RFP d   1    -109.080  26.411  10.606  0.00  0.00     0.217 HD
ENDBRANCH   4  79
BRANCH   1  81
ATOM     81  O1  RFP d   1    -114.399  26.241   7.909  0.00  0.00    -0.357 OA
ATOM     82  H65 RFP d   1    -114.329  25.926   7.016  0.00  0.00     0.217 HD
ENDBRANCH   1  81
BRANCH   8  83
ATOM     83  O2  RFP d   1    -115.417  27.003   9.983  0.00  0.00    -0.359 OA
ATOM     84  H66 RFP d   1    -115.507  26.091   9.732  0.00  0.00     0.217 HD
ENDBRANCH   8  83
BRANCH  14  85
ATOM     85  C30 RFP d   1    -112.409  23.845   4.037  0.00  0.00    -0.065 C 
ATOM     86  H26 RFP d   1    -113.132  23.288   4.651  0.00  0.00     0.028 H 
ATOM     87  H27 RFP d   1    -111.415  23.792   4.504  0.00  0.00     0.028 H 
ATOM     88  H28 RFP d   1    -112.365  23.403   3.031  0.00  0.00     0.028 H 
ENDBRANCH  14  85
BRANCH   7  89
ATOM     89  C14 RFP d   1    -115.184  27.995  12.750  0.00  0.00    -0.046 C 
ATOM     90  H4  RFP d   1    -114.842  28.355  13.732  0.00  0.00     0.033 H 
ATOM     91  H5  RFP d   1    -115.784  27.083  12.883  0.00  0.00     0.033 H 
ATOM     92  H6  RFP d   1    -115.797  28.771  12.268  0.00  0.00     0.033 H 
ENDBRANCH   7  89
BRANCH  12  93
ATOM     93  C13 RFP d   1    -110.087  27.908  14.724  0.00  0.00    -0.017 C 
ATOM     94  H1  RFP d   1    -110.340  28.409  15.670  0.00  0.00     0.035 H 
ATOM     95  H2  RFP d   1    -109.004  27.984  14.547  0.00  0.00     0.035 H 
ATOM     96  H3  RFP d   1    -110.376  26.848  14.781  0.00  0.00     0.035 H 
ENDBRANCH  12  93
BRANCH  18  97
ATOM     97  C31 RFP d   1    -109.399  29.618   2.495  0.00  0.00    -0.071 C 
ATOM     98  H29 RFP d   1    -109.397  29.456   1.407  0.00  0.00     0.028 H 
ATOM     99  H30 RFP d   1    -108.967  28.739   2.997  0.00  0.00     0.028 H 
ATOM    100  H31 RFP d   1    -108.799  30.509   2.734  0.00  0.00     0.028 H 
ENDBRANCH  18  97
BRANCH  19 101
ATOM    101  O10 RFP d   1    -112.257  30.491   4.713  0.00  0.00    -0.395 OA
ATOM    102  H68 RFP d   1    -112.394  30.547   5.651  0.00  0.00     0.210 HD
ENDBRANCH  19 101
BRANCH  25 103
ATOM    103  O6  RFP d   1    -110.853  34.120  10.985  0.00  0.00    -0.390 OA
BRANCH 103 104
ATOM    104  C37 RFP d   1    -111.959  34.556  11.723  0.00  0.00     0.004 C 
ATOM    105  H44 RFP d   1    -112.103  35.635  11.564  0.00  0.00     0.066 H 
ATOM    106  H45 RFP d   1    -111.786  34.363  12.792  0.00  0.00     0.066 H 
ATOM    107  H46 RFP d   1    -112.857  34.013  11.393  0.00  0.00     0.066 H 
ENDBRANCH 103 104
ENDBRANCH  25 103
BRANCH  20 108
ATOM    108  C32 RFP d   1    -109.603  32.184   4.153  0.00  0.00    -0.068 C 
ATOM    109  H32 RFP d   1    -109.129  31.790   3.242  0.00  0.00     0.028 H 
ATOM    110  H33 RFP d   1    -108.897  32.844   4.678  0.00  0.00     0.028 H 
ATOM    111  H34 RFP d   1    -110.504  32.754   3.881  0.00  0.00     0.028 H 
ENDBRANCH  20 108
BRANCH  24 112
ATOM    112  C34 RFP d   1    -112.317  31.905   9.632  0.00  0.00    -0.068 C 
ATOM    113  H38 RFP d   1    -112.588  31.372   8.708  0.00  0.00     0.028 H 
ATOM    114  H39 RFP d   1    -112.798  32.894   9.639  0.00  0.00     0.028 H 
ATOM    115  H40 RFP d   1    -112.658  31.326  10.503  0.00  0.00     0.028 H 
ENDBRANCH  24 112
BRANCH  21 116
ATOM    116  O9  RFP d   1    -111.703  30.780   6.632  0.00  0.00    -0.395 OA
ATOM    117  H67 RFP d   1    -112.291  30.707   5.889  0.00  0.00     0.210 HD
ENDBRANCH  21 116
BRANCH  23 118
ATOM    118  O7  RFP d   1    -109.379  33.773   8.635  0.00  0.00    -0.315 OA
BRANCH 118 119
ATOM    119  C35 RFP d   1    -109.206  34.833   7.707  0.00  0.00     0.255 C 
ATOM    120  O8  RFP d   1    -110.049  35.039   6.848  0.00  0.00    -0.266 OA
BRANCH 119 121
ATOM    121  C36 RFP d   1    -107.849  35.396   7.419  0.00  0.00     0.004 C 
ATOM    122  H41 RFP d   1    -107.937  36.203   6.677  0.00  0.00     0.041 H 
ATOM    123  H42 RFP d   1    -107.199  34.602   7.022  0.00  0.00     0.041 H 
ATOM    124  H43 RFP d   1    -107.414  35.797   8.346  0.00  0.00     0.041 H 
ENDBRANCH 119 121
ENDBRANCH 118 119
ENDBRANCH  23 118
BRANCH  22 125
ATOM    125  C33 RFP d   1    -108.263  32.073   7.090  0.00  0.00    -0.068 C 
ATOM    126  H35 RFP d   1    -107.870  31.314   6.397  0.00  0.00     0.028 H 
ATOM    127  H36 RFP d   1    -107.641  32.099   7.997  0.00  0.00     0.028 H 
ATOM    128  H37 RFP d   1    -108.243  33.059   6.604  0.00  0.00     0.028 H 
ENDBRANCH  22 125
TORSDOF 21
