REMARK  23 active torsions:
REMARK  status: ('A' for Active; 'I' for Inactive)
REMARK    1  A    between atoms: C7_7  and  C14_14 
REMARK    2  A    between atoms: C8_8  and  O2_44 
REMARK    3  A    between atoms: C12_12  and  C13_13 
REMARK    4  A    between atoms: C16_16  and  C30_30 
REMARK    5  A    between atoms: C20_20  and  C31_31 
REMARK    6  A    between atoms: C21_21  and  O10_52 
REMARK    7  A    between atoms: C22_22  and  C32_32 
REMARK    8  A    between atoms: C23_23  and  O9_51 
REMARK    9  A    between atoms: C24_24  and  C33_33 
REMARK   10  A    between atoms: O7_49  and  C25_25 
REMARK   11  A    between atoms: C26_26  and  C34_34 
REMARK   12  A    between atoms: C27_27  and  O6_48 
REMARK   13  A    between atoms: C35_35  and  C36_36 
REMARK   14  A    between atoms: C35_35  and  O7_49 
REMARK   15  A    between atoms: O6_48  and  C37_37 
REMARK   16  A    between atoms: C06_57  and  O_58 
REMARK   17  A    between atoms: O_58  and  C07_59 
REMARK   18  A    between atoms: C07_59  and  C08_60 
REMARK   19  A    between atoms: C08_60  and  N_61 
REMARK   20  A    between atoms: N_61  and  C09_62 
REMARK   21  A    between atoms: N_61  and  C39_64 
REMARK   22  A    between atoms: C09_62  and  C38_63 
REMARK   23  A    between atoms: C39_64  and  C_65 
ROOT
ATOM      1  C1  1RL d   1    -113.393  26.649   9.232  0.00  0.00     0.215 A 
ATOM      2  C2  1RL d   1    -112.223  26.325   8.465  0.00  0.00     0.123 A 
ATOM      3  C3  1RL d   1    -110.956  26.710   8.898  0.00  0.00     0.136 A 
ATOM      4  C4  1RL d   1    -110.761  27.421  10.099  0.00  0.00     0.106 A 
ATOM      5  C5  1RL d   1    -111.968  28.524  12.271  0.00  0.00     0.063 C 
ATOM      6  C6  1RL d   1    -113.068  28.843  12.869  0.00  0.00     0.096 C 
ATOM      7  C7  1RL d   1    -114.538  28.512  12.388  0.00  0.00     0.007 C 
ATOM      8  C8  1RL d   1    -114.426  27.680  11.219  0.00  0.00     0.089 C 
ATOM      9  C9  1RL d   1    -113.245  27.403  10.510  0.00  0.00     0.064 A 
ATOM     10  C10 1RL d   1    -111.980  27.777  10.946  0.00  0.00     0.029 A 
ATOM     11  C11 1RL d   1    -111.026  28.966  13.007  0.00  0.00     0.225 C 
ATOM     12  C12 1RL d   1    -111.313  29.704  14.080  0.00  0.00     0.233 C 
ATOM     13  C15 1RL d   1    -112.746  26.384   6.044  0.00  0.00     0.226 C 
ATOM     14  C16 1RL d   1    -112.965  25.698   4.657  0.00  0.00     0.020 C 
ATOM     15  C17 1RL d   1    -113.509  26.552   3.499  0.00  0.00    -0.054 C 
ATOM     16  C18 1RL d   1    -112.527  27.425   2.714  0.00  0.00    -0.064 C 
ATOM     17  C19 1RL d   1    -111.177  27.723   3.378  0.00  0.00    -0.060 C 
ATOM     18  C20 1RL d   1    -110.728  29.167   3.140  0.00  0.00    -0.032 C 
ATOM     19  C21 1RL d   1    -111.011  30.041   4.391  0.00  0.00     0.044 C 
ATOM     20  C22 1RL d   1    -109.953  31.115   4.752  0.00  0.00    -0.007 C 
ATOM     21  C23 1RL d   1    -110.491  31.964   5.933  0.00  0.00     0.046 C 
ATOM     22  C24 1RL d   1    -109.734  31.763   7.276  0.00  0.00    -0.006 C 
ATOM     23  C25 1RL d   1    -110.207  32.830   8.281  0.00  0.00     0.059 C 
ATOM     24  C26 1RL d   1    -110.607  32.167   9.607  0.00  0.00    -0.006 C 
ATOM     25  C27 1RL d   1    -110.545  33.216  10.734  0.00  0.00     0.045 C 
ATOM     26  C28 1RL d   1    -111.091  32.719  12.058  0.00  0.00    -0.021 C 
ATOM     27  C29 1RL d   1    -110.872  31.392  12.399  0.00  0.00     0.026 C 
ATOM     28  N1  1RL d   1    -112.380  25.599   7.230  0.00  0.00    -0.321 N 
ATOM     29  O01 1RL d   1    -109.884  26.332   8.052  0.00  0.00    -0.303 OA
ATOM     30  C01 1RL d   1    -108.582  26.701   8.455  0.00  0.00     0.107 A 
ATOM     31  C02 1RL d   1    -108.372  27.406   9.639  0.00  0.00     0.124 A 
ATOM     32  N3  1RL d   1    -109.458  27.749  10.428  0.00  0.00    -0.240 NA
ATOM     33  O1  1RL d   1    -114.484  26.296   8.813  0.00  0.00    -0.285 OA
ATOM     34  O3  1RL d   1    -112.814  29.626  14.243  0.00  0.00    -0.305 OA
ATOM     35  O4  1RL d   1    -109.864  28.730  12.775  0.00  0.00    -0.286 OA
ATOM     36  O5  1RL d   1    -111.109  31.021  13.765  0.00  0.00    -0.348 OA
ATOM     37  O11 1RL d   1    -112.859  27.588   6.167  0.00  0.00    -0.273 OA
ATOM     38  C03 1RL d   1    -107.559  26.312   7.595  0.00  0.00    -0.048 A 
ATOM     39  C04 1RL d   1    -106.242  26.633   7.914  0.00  0.00    -0.077 A 
ATOM     40  C05 1RL d   1    -105.964  27.342   9.091  0.00  0.00    -0.048 A 
ATOM     41  C06 1RL d   1    -107.004  27.727   9.951  0.00  0.00     0.100 A 
ATOM     42  H7  1RL d   1    -113.941  25.256   4.908  0.00  0.00     0.054 H 
ATOM     43  H8  1RL d   1    -114.274  27.221   3.920  0.00  0.00     0.034 H 
ATOM     44  H9  1RL d   1    -113.979  25.864   2.780  0.00  0.00     0.034 H 
ATOM     45  H10 1RL d   1    -113.021  28.388   2.520  0.00  0.00     0.033 H 
ATOM     46  H11 1RL d   1    -112.323  26.919   1.759  0.00  0.00     0.033 H 
ATOM     47  H12 1RL d   1    -110.419  27.042   2.963  0.00  0.00     0.033 H 
ATOM     48  H13 1RL d   1    -111.269  27.553   4.461  0.00  0.00     0.033 H 
ATOM     49  H14 1RL d   1    -111.306  29.590   2.305  0.00  0.00     0.043 H 
ATOM     50  H15 1RL d   1    -111.087  29.360   5.251  0.00  0.00     0.084 H 
ATOM     51  H16 1RL d   1    -109.034  30.602   5.072  0.00  0.00     0.047 H 
ATOM     52  H17 1RL d   1    -110.420  33.026   5.654  0.00  0.00     0.084 H 
ATOM     53  H18 1RL d   1    -109.988  30.766   7.666  0.00  0.00     0.047 H 
ATOM     54  H19 1RL d   1    -111.096  33.323   7.861  0.00  0.00     0.085 H 
ATOM     55  H20 1RL d   1    -109.927  31.335   9.841  0.00  0.00     0.047 H 
ATOM     56  H21 1RL d   1    -109.495  33.516  10.866  0.00  0.00     0.084 H 
ATOM     57  H22 1RL d   1    -112.180  32.877  12.042  0.00  0.00     0.040 H 
ATOM     58  H23 1RL d   1    -110.642  33.338  12.849  0.00  0.00     0.040 H 
ATOM     59  H24 1RL d   1    -109.822  31.160  12.170  0.00  0.00     0.074 H 
ATOM     60  H25 1RL d   1    -111.530  30.775  11.769  0.00  0.00     0.074 H 
ATOM     61  H47 1RL d   1    -112.246  24.609   7.183  0.00  0.00     0.169 HD
ATOM     62  H51 1RL d   1    -107.785  25.765   6.687  0.00  0.00     0.087 H 
ATOM     63  H52 1RL d   1    -105.435  26.336   7.255  0.00  0.00     0.083 H 
ATOM     64  H53 1RL d   1    -104.939  27.594   9.338  0.00  0.00     0.087 H 
ENDROOT
BRANCH  41  65
ATOM     65  O   1RL d   1    -106.726  28.462  11.167  0.00  0.00    -0.347 OA
BRANCH  65  66
ATOM     66  C07 1RL d   1    -105.331  28.731  11.530  0.00  0.00     0.049 C 
ATOM     67  H54 1RL d   1    -104.929  29.523  10.881  0.00  0.00     0.077 H 
ATOM     68  H55 1RL d   1    -104.735  27.815  11.403  0.00  0.00     0.077 H 
BRANCH  66  69
ATOM     69  C08 1RL d   1    -105.266  29.183  12.985  0.00  0.00     0.103 C 
ATOM     70  H56 1RL d   1    -105.952  30.030  13.130  0.00  0.00     0.079 H 
ATOM     71  H57 1RL d   1    -104.239  29.499  13.219  0.00  0.00     0.079 H 
BRANCH  69  72
ATOM     72  N   1RL d   1    -105.652  28.088  13.891  0.00  0.00    -0.070 N 
ATOM     73  H58 1RL d   1    -105.305  27.215  13.525  0.00  0.00     0.279 HD
BRANCH  72  74
ATOM     74  C09 1RL d   1    -105.060  28.343  15.183  0.00  0.00     0.080 C 
ATOM     75  H59 1RL d   1    -105.527  29.238  15.620  0.00  0.00     0.075 H 
ATOM     76  H60 1RL d   1    -103.982  28.518  15.054  0.00  0.00     0.075 H 
BRANCH  74  77
ATOM     77  C38 1RL d   1    -105.263  27.156  16.137  0.00  0.00    -0.053 C 
ATOM     78  H61 1RL d   1    -104.801  27.384  17.109  0.00  0.00     0.029 H 
ATOM     79  H62 1RL d   1    -104.794  26.258  15.710  0.00  0.00     0.029 H 
ATOM     80  H63 1RL d   1    -106.339  26.977  16.276  0.00  0.00     0.029 H 
ENDBRANCH  74  77
ENDBRANCH  72  74
BRANCH  72  81
ATOM     81  C39 1RL d   1    -107.086  28.003  14.032  0.00  0.00     0.080 C 
ATOM     82  H64 1RL d   1    -107.561  28.788  13.425  0.00  0.00     0.075 H 
ATOM     83  H65 1RL d   1    -107.359  28.141  15.088  0.00  0.00     0.075 H 
BRANCH  81  84
ATOM     84  C   1RL d   1    -107.567  26.625  13.555  0.00  0.00    -0.053 C 
ATOM     85  H66 1RL d   1    -108.660  26.561  13.663  0.00  0.00     0.029 H 
ATOM     86  H67 1RL d   1    -107.092  25.840  14.162  0.00  0.00     0.029 H 
ATOM     87  H68 1RL d   1    -107.294  26.487  12.498  0.00  0.00     0.029 H 
ENDBRANCH  81  84
ENDBRANCH  72  81
ENDBRANCH  69  72
ENDBRANCH  66  69
ENDBRANCH  65  66
ENDBRANCH  41  65
BRANCH   8  88
ATOM     88  O2  1RL d   1    -115.646  27.168  10.694  0.00  0.00    -0.359 OA
ATOM     89  H48 1RL d   1    -115.788  27.521   9.823  0.00  0.00     0.217 HD
ENDBRANCH   8  88
BRANCH   7  90
ATOM     90  C14 1RL d   1    -115.763  28.556  13.299  0.00  0.00    -0.046 C 
ATOM     91  H4  1RL d   1    -115.587  29.272  14.115  0.00  0.00     0.033 H 
ATOM     92  H5  1RL d   1    -115.942  27.556  13.721  0.00  0.00     0.033 H 
ATOM     93  H6  1RL d   1    -116.641  28.872  12.717  0.00  0.00     0.033 H 
ENDBRANCH   7  90
BRANCH  12  94
ATOM     94  C13 1RL d   1    -110.489  29.517  15.369  0.00  0.00    -0.017 C 
ATOM     95  H1  1RL d   1    -110.861  30.202  16.145  0.00  0.00     0.035 H 
ATOM     96  H2  1RL d   1    -109.431  29.737  15.163  0.00  0.00     0.035 H 
ATOM     97  H3  1RL d   1    -110.587  28.479  15.719  0.00  0.00     0.035 H 
ENDBRANCH  12  94
BRANCH  14  98
ATOM     98  C30 1RL d   1    -112.271  24.355   4.422  0.00  0.00    -0.065 C 
ATOM     99  H26 1RL d   1    -111.967  23.925   5.388  0.00  0.00     0.028 H 
ATOM    100  H27 1RL d   1    -111.382  24.507   3.792  0.00  0.00     0.028 H 
ATOM    101  H28 1RL d   1    -112.965  23.667   3.917  0.00  0.00     0.028 H 
ENDBRANCH  14  98
BRANCH  25 102
ATOM    102  O6  1RL d   1    -111.320  34.335  10.411  0.00  0.00    -0.390 OA
BRANCH 102 103
ATOM    103  C37 1RL d   1    -110.962  35.489  11.160  0.00  0.00     0.004 C 
ATOM    104  H44 1RL d   1    -111.603  36.332  10.863  0.00  0.00     0.066 H 
ATOM    105  H45 1RL d   1    -109.910  35.742  10.964  0.00  0.00     0.066 H 
ATOM    106  H46 1RL d   1    -111.096  35.286  12.233  0.00  0.00     0.066 H 
ENDBRANCH 102 103
ENDBRANCH  25 102
BRANCH  18 107
ATOM    107  C31 1RL d   1    -109.277  29.107   2.728  0.00  0.00    -0.071 C 
ATOM    108  H29 1RL d   1    -109.175  28.469   1.838  0.00  0.00     0.028 H 
ATOM    109  H30 1RL d   1    -108.679  28.688   3.551  0.00  0.00     0.028 H 
ATOM    110  H31 1RL d   1    -108.920  30.121   2.495  0.00  0.00     0.028 H 
ENDBRANCH  18 107
BRANCH  24 111
ATOM    111  C34 1RL d   1    -111.979  31.662   9.430  0.00  0.00    -0.068 C 
ATOM    112  H38 1RL d   1    -111.994  30.917   8.621  0.00  0.00     0.028 H 
ATOM    113  H39 1RL d   1    -112.647  32.497   9.171  0.00  0.00     0.028 H 
ATOM    114  H40 1RL d   1    -112.321  31.195  10.365  0.00  0.00     0.028 H 
ENDBRANCH  24 111
BRANCH  19 115
ATOM    115  O10 1RL d   1    -112.237  30.676   4.211  0.00  0.00    -0.395 OA
ATOM    116  H50 1RL d   1    -112.484  31.119   5.014  0.00  0.00     0.210 HD
ENDBRANCH  19 115
BRANCH  23 117
ATOM    117  O7  1RL d   1    -109.219  33.821   8.492  0.00  0.00    -0.315 OA
BRANCH 117 118
ATOM    118  C35 1RL d   1    -109.218  34.980   7.656  0.00  0.00     0.255 C 
ATOM    119  O8  1RL d   1    -110.258  35.529   7.382  0.00  0.00    -0.266 OA
BRANCH 118 120
ATOM    120  C36 1RL d   1    -107.890  35.735   7.428  0.00  0.00     0.004 C 
ATOM    121  H41 1RL d   1    -108.066  36.595   6.765  0.00  0.00     0.041 H 
ATOM    122  H42 1RL d   1    -107.158  35.058   6.963  0.00  0.00     0.041 H 
ATOM    123  H43 1RL d   1    -107.499  36.090   8.393  0.00  0.00     0.041 H 
ENDBRANCH 118 120
ENDBRANCH 117 118
ENDBRANCH  23 117
BRANCH  20 124
ATOM    124  C32 1RL d   1    -109.607  32.011   3.588  0.00  0.00    -0.068 C 
ATOM    125  H32 1RL d   1    -109.227  31.401   2.756  0.00  0.00     0.028 H 
ATOM    126  H33 1RL d   1    -108.835  32.732   3.897  0.00  0.00     0.028 H 
ATOM    127  H34 1RL d   1    -110.507  32.554   3.263  0.00  0.00     0.028 H 
ENDBRANCH  20 124
BRANCH  22 128
ATOM    128  C33 1RL d   1    -108.229  31.843   7.136  0.00  0.00    -0.068 C 
ATOM    129  H35 1RL d   1    -107.886  31.082   6.419  0.00  0.00     0.028 H 
ATOM    130  H36 1RL d   1    -107.760  31.662   8.114  0.00  0.00     0.028 H 
ATOM    131  H37 1RL d   1    -107.947  32.842   6.773  0.00  0.00     0.028 H 
ENDBRANCH  22 128
BRANCH  21 132
ATOM    132  O9  1RL d   1    -111.822  31.623   6.133  0.00  0.00    -0.395 OA
ATOM    133  H49 1RL d   1    -112.303  31.739   5.322  0.00  0.00     0.210 HD
ENDBRANCH  21 132
TORSDOF 23
