REMARK  24 active torsions:
REMARK  status: ('A' for Active; 'I' for Inactive)
REMARK    1  A    between atoms: C7_7  and  C14_14 
REMARK    2  A    between atoms: C8_8  and  O2_44 
REMARK    3  A    between atoms: C12_12  and  C13_13 
REMARK    4  A    between atoms: C16_16  and  C30_30 
REMARK    5  A    between atoms: C20_20  and  C31_31 
REMARK    6  A    between atoms: C21_21  and  O10_52 
REMARK    7  A    between atoms: C22_22  and  C32_32 
REMARK    8  A    between atoms: C23_23  and  O9_51 
REMARK    9  A    between atoms: C24_24  and  C33_33 
REMARK   10  A    between atoms: C25_25  and  O7_49 
REMARK   11  A    between atoms: C26_26  and  C34_34 
REMARK   12  A    between atoms: C27_27  and  O6_48 
REMARK   13  A    between atoms: C35_35  and  C36_36 
REMARK   14  A    between atoms: O7_49  and  C35_35 
REMARK   15  A    between atoms: O6_48  and  C37_37 
REMARK   16  A    between atoms: O_58  and  C06_57 
REMARK   17  A    between atoms: C07_59  and  O_58 
REMARK   18  A    between atoms: C08_60  and  C07_59 
REMARK   19  A    between atoms: C09_61  and  C08_60 
REMARK   20  A    between atoms: C38_62  and  C09_61 
REMARK   21  A    between atoms: N02_68  and  C38_62 
REMARK   22  A    between atoms: C39_64  and  N01_63 
REMARK   23  A    between atoms: C40_65  and  C39_64 
REMARK   24  A    between atoms: N_74  and  C40_65 
ROOT
ATOM      1  C1  1RM d   1    -113.905  26.570   8.720  0.00  0.00     0.215 A 
ATOM      2  C2  1RM d   1    -112.654  26.321   7.961  0.00  0.00     0.123 A 
ATOM      3  C3  1RM d   1    -111.435  26.693   8.490  0.00  0.00     0.136 A 
ATOM      4  C4  1RM d   1    -111.363  27.359   9.850  0.00  0.00     0.106 A 
ATOM      5  C5  1RM d   1    -112.768  28.221  11.899  0.00  0.00     0.063 A 
ATOM      6  C6  1RM d   1    -113.993  28.408  12.519  0.00  0.00     0.096 A 
ATOM      7  C7  1RM d   1    -115.248  28.019  11.964  0.00  0.00     0.007 A 
ATOM      8  C8  1RM d   1    -115.141  27.415  10.698  0.00  0.00     0.089 A 
ATOM      9  C9  1RM d   1    -113.865  27.224  10.057  0.00  0.00     0.064 A 
ATOM     10  C10 1RM d   1    -112.624  27.620  10.631  0.00  0.00     0.029 A 
ATOM     11  C11 1RM d   1    -111.902  28.763  12.868  0.00  0.00     0.225 C 
ATOM     12  C12 1RM d   1    -112.535  29.589  13.785  0.00  0.00     0.233 C 
ATOM     13  C15 1RM d   1    -113.272  26.419   5.531  0.00  0.00     0.226 C 
ATOM     14  C16 1RM d   1    -113.387  25.768   4.186  0.00  0.00     0.020 C 
ATOM     15  C17 1RM d   1    -113.743  26.575   3.120  0.00  0.00    -0.054 C 
ATOM     16  C18 1RM d   1    -112.641  27.299   2.404  0.00  0.00    -0.064 C 
ATOM     17  C19 1RM d   1    -111.630  27.873   3.198  0.00  0.00    -0.060 C 
ATOM     18  C20 1RM d   1    -111.152  29.294   2.973  0.00  0.00    -0.032 C 
ATOM     19  C21 1RM d   1    -111.460  30.067   4.238  0.00  0.00     0.044 C 
ATOM     20  C22 1RM d   1    -110.462  31.143   4.668  0.00  0.00    -0.007 C 
ATOM     21  C23 1RM d   1    -111.047  31.924   5.845  0.00  0.00     0.046 C 
ATOM     22  C24 1RM d   1    -110.273  31.899   7.145  0.00  0.00    -0.006 C 
ATOM     23  C25 1RM d   1    -110.855  32.949   8.104  0.00  0.00     0.059 C 
ATOM     24  C26 1RM d   1    -111.481  32.367   9.371  0.00  0.00    -0.006 C 
ATOM     25  C27 1RM d   1    -111.265  33.262  10.582  0.00  0.00     0.045 C 
ATOM     26  C28 1RM d   1    -111.958  32.733  11.820  0.00  0.00    -0.021 C 
ATOM     27  C29 1RM d   1    -112.003  31.364  12.109  0.00  0.00     0.026 C 
ATOM     28  N1  1RM d   1    -112.754  25.673   6.664  0.00  0.00    -0.321 N 
ATOM     29  O01 1RM d   1    -110.258  26.445   7.755  0.00  0.00    -0.303 OA
ATOM     30  C01 1RM d   1    -109.054  26.839   8.332  0.00  0.00     0.107 A 
ATOM     31  C02 1RM d   1    -109.002  27.455   9.589  0.00  0.00     0.124 A 
ATOM     32  N3  1RM d   1    -110.208  27.700  10.327  0.00  0.00    -0.240 NA
ATOM     33  O1  1RM d   1    -114.980  26.235   8.237  0.00  0.00    -0.285 OA
ATOM     34  O3  1RM d   1    -113.886  29.082  13.878  0.00  0.00    -0.305 OA
ATOM     35  O4  1RM d   1    -110.707  28.539  12.932  0.00  0.00    -0.286 OA
ATOM     36  O5  1RM d   1    -112.544  30.933  13.362  0.00  0.00    -0.348 OA
ATOM     37  O11 1RM d   1    -113.609  27.588   5.678  0.00  0.00    -0.273 OA
ATOM     38  C03 1RM d   1    -107.895  26.582   7.578  0.00  0.00    -0.048 A 
ATOM     39  C04 1RM d   1    -106.670  26.944   8.085  0.00  0.00    -0.077 A 
ATOM     40  C05 1RM d   1    -106.577  27.562   9.338  0.00  0.00    -0.048 A 
ATOM     41  C06 1RM d   1    -107.738  27.818  10.092  0.00  0.00     0.100 A 
ATOM     42  H7  1RM d   1    -114.371  25.302   4.343  0.00  0.00     0.054 H 
ATOM     43  H8  1RM d   1    -114.444  27.333   3.500  0.00  0.00     0.034 H 
ATOM     44  H9  1RM d   1    -114.255  25.940   2.382  0.00  0.00     0.034 H 
ATOM     45  H10 1RM d   1    -113.102  28.108   1.818  0.00  0.00     0.033 H 
ATOM     46  H11 1RM d   1    -112.160  26.581   1.723  0.00  0.00     0.033 H 
ATOM     47  H12 1RM d   1    -110.746  27.228   3.087  0.00  0.00     0.033 H 
ATOM     48  H13 1RM d   1    -111.989  27.828   4.237  0.00  0.00     0.033 H 
ATOM     49  H14 1RM d   1    -111.712  29.758   2.148  0.00  0.00     0.043 H 
ATOM     50  H15 1RM d   1    -111.510  29.333   5.056  0.00  0.00     0.084 H 
ATOM     51  H16 1RM d   1    -109.527  30.655   4.980  0.00  0.00     0.047 H 
ATOM     52  H17 1RM d   1    -111.104  32.977   5.530  0.00  0.00     0.084 H 
ATOM     53  H18 1RM d   1    -110.385  30.907   7.608  0.00  0.00     0.047 H 
ATOM     54  H19 1RM d   1    -111.660  33.468   7.563  0.00  0.00     0.085 H 
ATOM     55  H20 1RM d   1    -111.013  31.392   9.573  0.00  0.00     0.047 H 
ATOM     56  H21 1RM d   1    -110.185  33.320  10.783  0.00  0.00     0.084 H 
ATOM     57  H22 1RM d   1    -113.003  33.071  11.758  0.00  0.00     0.040 H 
ATOM     58  H23 1RM d   1    -111.468  33.215  12.679  0.00  0.00     0.040 H 
ATOM     59  H24 1RM d   1    -110.969  30.991  12.060  0.00  0.00     0.074 H 
ATOM     60  H25 1RM d   1    -112.603  30.888  11.319  0.00  0.00     0.074 H 
ATOM     61  H47 1RM d   1    -112.468  24.721   6.553  0.00  0.00     0.169 HD
ATOM     62  H51 1RM d   1    -107.967  26.104   6.608  0.00  0.00     0.087 H 
ATOM     63  H52 1RM d   1    -105.771  26.750   7.512  0.00  0.00     0.083 H 
ATOM     64  H53 1RM d   1    -105.606  27.845   9.729  0.00  0.00     0.087 H 
ENDROOT
BRANCH  41  65
ATOM     65  O   1RM d   1    -107.646  28.449  11.359  0.00  0.00    -0.349 OA
BRANCH  65  66
ATOM     66  C07 1RM d   1    -106.690  29.461  11.580  0.00  0.00     0.026 C 
ATOM     67  H54 1RM d   1    -106.569  30.049  10.658  0.00  0.00     0.075 H 
ATOM     68  H55 1RM d   1    -105.730  28.997  11.848  0.00  0.00     0.075 H 
BRANCH  66  69
ATOM     69  C08 1RM d   1    -107.135  30.403  12.727  0.00  0.00    -0.043 C 
ATOM     70  H56 1RM d   1    -108.234  30.453  12.748  0.00  0.00     0.036 H 
ATOM     71  H57 1RM d   1    -106.726  31.408  12.548  0.00  0.00     0.036 H 
BRANCH  69  72
ATOM     72  C09 1RM d   1    -106.623  29.881  14.090  0.00  0.00    -0.040 C 
ATOM     73  H58 1RM d   1    -106.765  30.658  14.855  0.00  0.00     0.035 H 
ATOM     74  H59 1RM d   1    -105.553  29.638  14.009  0.00  0.00     0.035 H 
BRANCH  72  75
ATOM     75  C38 1RM d   1    -107.399  28.626  14.492  0.00  0.00     0.084 C 
ATOM     76  H60 1RM d   1    -107.594  28.021  13.595  0.00  0.00     0.076 H 
ATOM     77  H61 1RM d   1    -108.355  28.924  14.948  0.00  0.00     0.076 H 
BRANCH  75  78
ATOM     78  N02 1RM d   1    -106.635  27.821  15.459  0.00  0.00    -0.068 N 
ATOM     79  C42 1RM d   1    -106.464  26.375  15.390  0.00  0.00     0.106 C 
ATOM     80  C41 1RM d   1    -105.281  25.851  16.196  0.00  0.00     0.106 C 
ATOM     81  H69 1RM d   1    -107.380  25.900  15.771  0.00  0.00     0.078 H 
ATOM     82  H70 1RM d   1    -106.316  26.094  14.337  0.00  0.00     0.078 H 
ATOM     83  N01 1RM d   1    -104.643  26.819  17.061  0.00  0.00    -0.066 N 
ATOM     84  H67 1RM d   1    -105.638  25.020  16.822  0.00  0.00     0.078 H 
ATOM     85  H68 1RM d   1    -104.526  25.479  15.488  0.00  0.00     0.078 H 
ATOM     86  C44 1RM d   1    -105.504  27.801  17.674  0.00  0.00     0.106 C 
ATOM     87  H62 1RM d   1    -104.522  26.231  17.871  0.00  0.00     0.280 HD
ATOM     88  C43 1RM d   1    -106.753  28.195  16.885  0.00  0.00     0.106 C 
ATOM     89  H74 1RM d   1    -104.910  28.712  17.837  0.00  0.00     0.078 H 
ATOM     90  H75 1RM d   1    -105.833  27.399  18.644  0.00  0.00     0.078 H 
ATOM     91  H72 1RM d   1    -107.625  27.683  17.318  0.00  0.00     0.078 H 
ATOM     92  H73 1RM d   1    -106.893  29.284  16.958  0.00  0.00     0.078 H 
ATOM     93  H71 1RM d   1    -105.705  28.133  15.229  0.00  0.00     0.280 HD
BRANCH  83  94
ATOM     94  C39 1RM d   1    -103.215  27.094  16.814  0.00  0.00     0.099 C 
ATOM     95  H63 1RM d   1    -102.631  26.181  17.004  0.00  0.00     0.078 H 
ATOM     96  H64 1RM d   1    -102.877  27.893  17.489  0.00  0.00     0.078 H 
BRANCH  94  97
ATOM     97  C40 1RM d   1    -103.005  27.536  15.361  0.00  0.00     0.023 C 
ATOM     98  H65 1RM d   1    -102.257  28.343  15.346  0.00  0.00     0.067 H 
ATOM     99  H66 1RM d   1    -103.961  27.915  14.970  0.00  0.00     0.067 H 
BRANCH  97 100
ATOM    100  N   1RM d   1    -102.539  26.452  14.485  0.00  0.00    -0.348 N 
ATOM    101  C46 1RM d   1    -102.950  26.242  13.202  0.00  0.00    -0.003 A 
ATOM    102  C45 1RM d   1    -102.279  25.136  12.708  0.00  0.00     0.018 A 
ATOM    103  H77 1RM d   1    -103.680  26.841  12.659  0.00  0.00     0.113 H 
ATOM    104  N03 1RM d   1    -101.467  24.676  13.678  0.00  0.00    -0.255 NA
ATOM    105  H76 1RM d   1    -102.389  24.713  11.711  0.00  0.00     0.117 H 
ATOM    106  C   1RM d   1    -101.616  25.492  14.783  0.00  0.00     0.065 A 
ATOM    107  H78 1RM d   1    -101.088  25.387  15.729  0.00  0.00     0.143 H 
ENDBRANCH  97 100
ENDBRANCH  94  97
ENDBRANCH  83  94
ENDBRANCH  75  78
ENDBRANCH  72  75
ENDBRANCH  69  72
ENDBRANCH  66  69
ENDBRANCH  65  66
ENDBRANCH  41  65
BRANCH   8 108
ATOM    108  O2  1RM d   1    -116.269  26.996  10.055  0.00  0.00    -0.359 OA
ATOM    109  H48 1RM d   1    -116.215  26.060   9.901  0.00  0.00     0.217 HD
ENDBRANCH   8 108
BRANCH   7 110
ATOM    110  C14 1RM d   1    -116.603  28.245  12.691  0.00  0.00    -0.046 C 
ATOM    111  H4  1RM d   1    -116.422  28.732  13.661  0.00  0.00     0.033 H 
ATOM    112  H5  1RM d   1    -117.098  27.276  12.854  0.00  0.00     0.033 H 
ATOM    113  H6  1RM d   1    -117.248  28.887  12.073  0.00  0.00     0.033 H 
ENDBRANCH   7 110
BRANCH  12 114
ATOM    114  C13 1RM d   1    -111.867  29.461  15.145  0.00  0.00    -0.017 C 
ATOM    115  H1  1RM d   1    -112.374  30.119  15.866  0.00  0.00     0.035 H 
ATOM    116  H2  1RM d   1    -110.810  29.753  15.063  0.00  0.00     0.035 H 
ATOM    117  H3  1RM d   1    -111.934  28.419  15.490  0.00  0.00     0.035 H 
ENDBRANCH  12 114
BRANCH  14 118
ATOM    118  C30 1RM d   1    -112.636  24.511   3.913  0.00  0.00    -0.065 C 
ATOM    119  H26 1RM d   1    -112.433  23.992   4.861  0.00  0.00     0.028 H 
ATOM    120  H27 1RM d   1    -111.684  24.753   3.417  0.00  0.00     0.028 H 
ATOM    121  H28 1RM d   1    -113.235  23.860   3.259  0.00  0.00     0.028 H 
ENDBRANCH  14 118
BRANCH  25 122
ATOM    122  O6  1RM d   1    -111.742  34.524  10.316  0.00  0.00    -0.390 OA
BRANCH 122 123
ATOM    123  C37 1RM d   1    -111.706  35.532  11.267  0.00  0.00     0.004 C 
ATOM    124  H44 1RM d   1    -112.136  36.452  10.843  0.00  0.00     0.066 H 
ATOM    125  H45 1RM d   1    -110.664  35.718  11.565  0.00  0.00     0.066 H 
ATOM    126  H46 1RM d   1    -112.290  35.226  12.148  0.00  0.00     0.066 H 
ENDBRANCH 122 123
ENDBRANCH  25 122
BRANCH  18 127
ATOM    127  C31 1RM d   1    -109.726  29.187   2.561  0.00  0.00    -0.071 C 
ATOM    128  H29 1RM d   1    -109.656  28.602   1.632  0.00  0.00     0.028 H 
ATOM    129  H30 1RM d   1    -109.152  28.686   3.354  0.00  0.00     0.028 H 
ATOM    130  H31 1RM d   1    -109.317  30.194   2.392  0.00  0.00     0.028 H 
ENDBRANCH  18 127
BRANCH  24 131
ATOM    131  C34 1RM d   1    -112.957  32.162   9.148  0.00  0.00    -0.068 C 
ATOM    132  H38 1RM d   1    -113.109  31.515   8.272  0.00  0.00     0.028 H 
ATOM    133  H39 1RM d   1    -113.440  33.135   8.973  0.00  0.00     0.028 H 
ATOM    134  H40 1RM d   1    -113.400  31.687  10.036  0.00  0.00     0.028 H 
ENDBRANCH  24 131
BRANCH  19 135
ATOM    135  O10 1RM d   1    -112.694  30.652   4.097  0.00  0.00    -0.395 OA
ATOM    136  H50 1RM d   1    -112.960  31.030   4.927  0.00  0.00     0.210 HD
ENDBRANCH  19 135
BRANCH  23 137
ATOM    137  O7  1RM d   1    -109.890  33.880   8.408  0.00  0.00    -0.315 OA
BRANCH 137 138
ATOM    138  C35 1RM d   1    -109.743  35.058   7.693  0.00  0.00     0.255 C 
ATOM    139  O8  1RM d   1    -110.706  35.630   7.199  0.00  0.00    -0.266 OA
BRANCH 138 140
ATOM    140  C36 1RM d   1    -108.378  35.704   7.619  0.00  0.00     0.004 C 
ATOM    141  H41 1RM d   1    -108.439  36.623   7.018  0.00  0.00     0.041 H 
ATOM    142  H42 1RM d   1    -107.667  35.007   7.152  0.00  0.00     0.041 H 
ATOM    143  H43 1RM d   1    -108.034  35.952   8.634  0.00  0.00     0.041 H 
ENDBRANCH 138 140
ENDBRANCH 137 138
ENDBRANCH  23 137
BRANCH  20 144
ATOM    144  C32 1RM d   1    -110.164  32.091   3.576  0.00  0.00    -0.068 C 
ATOM    145  H32 1RM d   1    -109.742  31.544   2.720  0.00  0.00     0.028 H 
ATOM    146  H33 1RM d   1    -109.438  32.839   3.928  0.00  0.00     0.028 H 
ATOM    147  H34 1RM d   1    -111.091  32.597   3.267  0.00  0.00     0.028 H 
ENDBRANCH  20 144
BRANCH  22 148
ATOM    148  C33 1RM d   1    -108.811  32.128   6.864  0.00  0.00    -0.068 C 
ATOM    149  H35 1RM d   1    -108.444  31.353   6.175  0.00  0.00     0.028 H 
ATOM    150  H36 1RM d   1    -108.245  32.080   7.806  0.00  0.00     0.028 H 
ATOM    151  H37 1RM d   1    -108.677  33.119   6.406  0.00  0.00     0.028 H 
ENDBRANCH  22 148
BRANCH  21 152
ATOM    152  O9  1RM d   1    -112.320  31.471   6.081  0.00  0.00    -0.395 OA
ATOM    153  H49 1RM d   1    -112.815  31.483   5.270  0.00  0.00     0.210 HD
ENDBRANCH  21 152
TORSDOF 24
