REMARK  7 active torsions:
REMARK  status: ('A' for Active; 'I' for Inactive)
REMARK    1  A    between atoms: C1_9  and  C7_10 
REMARK    2  A    between atoms: C7_10  and  C8_11 
REMARK    3  A    between atoms: C7_10  and  O9_12 
REMARK    4  A    between atoms: O9_12  and  C13_13 
REMARK    5  A    between atoms: C21_17  and  C23_23 
REMARK    6  A    between atoms: C14_21  and  N22_22 
REMARK    7  A    between atoms: N26_25  and  C28_28 
ROOT
ATOM      1  C13 1RU d   1       6.623  -4.764  22.249  0.00  0.00     0.149 A 
ATOM      2  C18 1RU d   1       5.690  -3.899  22.825  0.00  0.00     0.124 A 
ATOM      3  O19 1RU d   1       5.279  -2.820  22.406  0.00  0.00    -0.318 OA
ATOM      4  C20 1RU d   1       4.437  -2.342  23.169  0.00  0.00     0.031 A 
ATOM      5  C21 1RU d   1       4.252  -3.143  24.282  0.00  0.00     0.014 A 
ATOM      6  C17 1RU d   1       5.080  -4.197  24.024  0.00  0.00     0.031 A 
ATOM      7  C16 1RU d   1       5.357  -5.353  24.715  0.00  0.00     0.018 A 
ATOM      8  N15 1RU d   1       6.280  -6.227  24.162  0.00  0.00    -0.240 NA
ATOM      9  C14 1RU d   1       6.909  -5.942  22.944  0.00  0.00     0.157 A 
ATOM     10  H   1RU d   1       3.906  -1.408  22.990  0.00  0.00     0.124 H 
ATOM     11  H   1RU d   1       4.871  -5.573  25.659  0.00  0.00     0.116 H 
ENDROOT
BRANCH   5  12
ATOM     12  C23 1RU d   1       3.379  -2.864  25.467  0.00  0.00     0.013 A 
ATOM     13  C27 1RU d   1       3.351  -3.454  26.711  0.00  0.00     0.011 A 
ATOM     14  N26 1RU d   1       2.382  -2.842  27.426  0.00  0.00    -0.276 N 
ATOM     15  H   1RU d   1       3.992  -4.264  27.055  0.00  0.00     0.115 H 
ATOM     16  N25 1RU d   1       1.828  -1.933  26.740  0.00  0.00    -0.184 NA
ATOM     17  C24 1RU d   1       2.398  -1.903  25.522  0.00  0.00     0.034 A 
ATOM     18  H   1RU d   1       2.127  -1.228  24.712  0.00  0.00     0.118 H 
BRANCH  14  19
ATOM     19  C28 1RU d   1       2.009  -3.165  28.824  0.00  0.00     0.037 C 
ATOM     20  C33 1RU d   1       2.655  -2.174  29.809  0.00  0.00    -0.022 C 
ATOM     21  C32 1RU d   1       2.183  -2.421  31.253  0.00  0.00     0.084 C 
ATOM     22  H   1RU d   1       2.383  -1.150  29.515  0.00  0.00     0.038 H 
ATOM     23  H   1RU d   1       3.748  -2.289  29.766  0.00  0.00     0.038 H 
ATOM     24  N31 1RU d   1       0.714  -2.400  31.339  0.00  0.00    -0.075 N 
ATOM     25  H   1RU d   1       2.593  -1.635  31.905  0.00  0.00     0.075 H 
ATOM     26  H   1RU d   1       2.549  -3.403  31.588  0.00  0.00     0.075 H 
ATOM     27  C30 1RU d   1       0.053  -3.367  30.451  0.00  0.00     0.084 C 
ATOM     28  H   1RU d   1       0.395  -1.475  31.096  0.00  0.00     0.277 HD
ATOM     29  H   1RU d   1       0.448  -2.608  32.289  0.00  0.00     0.277 HD
ATOM     30  C29 1RU d   1       0.473  -3.120  28.996  0.00  0.00    -0.022 C 
ATOM     31  H   1RU d   1      -1.038  -3.255  30.539  0.00  0.00     0.075 H 
ATOM     32  H   1RU d   1       0.342  -4.387  30.745  0.00  0.00     0.075 H 
ATOM     33  H   1RU d   1       0.021  -3.894  28.359  0.00  0.00     0.038 H 
ATOM     34  H   1RU d   1       0.109  -2.130  28.684  0.00  0.00     0.038 H 
ATOM     35  H   1RU d   1       2.365  -4.180  29.056  0.00  0.00     0.076 H 
ENDBRANCH  14  19
ENDBRANCH   5  12
BRANCH   1  36
ATOM     36  O9  1RU d   1       7.265  -4.522  21.050  0.00  0.00    -0.335 OA
BRANCH  36  37
ATOM     37  C7  1RU d   1       7.238  -3.303  20.286  0.00  0.00     0.070 C 
ATOM     38  H   1RU d   1       6.196  -2.956  20.224  0.00  0.00     0.091 H 
BRANCH  37  39
ATOM     39  C1  1RU d   1       8.082  -2.213  20.936  0.00  0.00     0.017 A 
ATOM     40  C2  1RU d   1       7.593  -0.913  21.066  0.00  0.00     0.044 A 
ATOM     41  C4  1RU d   1       8.371   0.077  21.653  0.00  0.00    -0.058 A 
ATOM     42 CL2  1RU d   1       6.019  -0.508  20.516  0.00  0.00    -0.084 Cl
ATOM     43  C6  1RU d   1       9.650  -0.218  22.105  0.00  0.00    -0.042 A 
ATOM     44  H   1RU d   1       7.979   1.082  21.758  0.00  0.00     0.086 H 
ATOM     45  C5  1RU d   1      10.149  -1.504  21.970  0.00  0.00     0.138 A 
ATOM     46  H   1RU d   1      10.257   0.555  22.562  0.00  0.00     0.088 H 
ATOM     47  F12 1RU d   1      11.371  -1.807  22.392  0.00  0.00    -0.204 F 
ATOM     48  C3  1RU d   1       9.371  -2.493  21.392  0.00  0.00     0.083 A 
ATOM     49 CL1  1RU d   1      10.053  -4.064  21.268  0.00  0.00    -0.080 Cl
ENDBRANCH  37  39
BRANCH  37  50
ATOM     50  C8  1RU d   1       7.772  -3.538  18.868  0.00  0.00    -0.048 C 
ATOM     51  H   1RU d   1       7.177  -4.323  18.378  0.00  0.00     0.031 H 
ATOM     52  H   1RU d   1       8.824  -3.854  18.920  0.00  0.00     0.031 H 
ATOM     53  H   1RU d   1       7.698  -2.606  18.289  0.00  0.00     0.031 H 
ENDBRANCH  37  50
ENDBRANCH  36  37
ENDBRANCH   1  36
BRANCH   9  54
ATOM     54  N22 1RU d   1       7.841  -6.865  22.429  0.00  0.00    -0.382 N 
ATOM     55  H   1RU d   1       8.047  -7.731  22.946  0.00  0.00     0.157 HD
ATOM     56  H   1RU d   1       8.316  -6.673  21.535  0.00  0.00     0.157 HD
ENDBRANCH   9  54
TORSDOF 7
