REMARK  5 active torsions:
REMARK  status: ('A' for Active; 'I' for Inactive)
REMARK    1  A    between atoms: C2_2  and  N7_7 
REMARK    2  A    between atoms: C4_4  and  N8_8 
REMARK    3  A    between atoms: N5_5  and  C11_11 
REMARK    4  A    between atoms: C6_6  and  C9_9 
REMARK    5  A    between atoms: C6_6  and  C10_10 
ROOT
ATOM      1  N1  1CY d   1       3.200 -16.310  -1.333  0.00  0.00    -0.199 N 
ATOM      2  C2  1CY d   1       3.198 -15.026  -0.898  0.00  0.00     0.688 A 
ATOM      3  N3  1CY d   1       2.640 -14.686   0.278  0.00  0.00    -0.023 N 
ATOM      4  C4  1CY d   1       2.034 -15.607   1.060  0.00  0.00     0.695 A 
ATOM      5  N5  1CY d   1       1.984 -16.955   0.675  0.00  0.00    -0.156 N 
ATOM      6  C6  1CY d   1       2.523 -17.375  -0.615  0.00  0.00     0.137 A 
ATOM      7  H1  1CY d   1       3.700 -16.538  -2.204  0.00  0.00     0.180 HD
ATOM      8  H2  1CY d   1       2.675 -13.705   0.589  0.00  0.00     0.203 HD
ENDROOT
BRANCH   5   9
ATOM      9  C11 1CY d   1       1.378 -17.872   1.559  0.00  0.00     0.054 A 
ATOM     10  C12 1CY d   1       2.250 -18.565   2.408  0.00  0.00    -0.055 A 
ATOM     11  C13 1CY d   1       1.775 -19.489   3.330  0.00  0.00    -0.060 A 
ATOM     12  H13 1CY d   1       3.316 -18.377   2.344  0.00  0.00     0.087 H 
ATOM     13  C14 1CY d   1       0.402 -19.681   3.400  0.00  0.00     0.034 A 
ATOM     14  H14 1CY d   1       2.452 -20.041   3.972  0.00  0.00     0.086 H 
ATOM     15  C15 1CY d   1      -0.472 -18.993   2.569  0.00  0.00    -0.060 A 
ATOM     16 CL17 1CY d   1      -0.245 -20.851   4.575  0.00  0.00    -0.084 Cl
ATOM     17  C16 1CY d   1       0.013 -18.073   1.655  0.00  0.00    -0.055 A 
ATOM     18  H15 1CY d   1      -1.538 -19.177   2.636  0.00  0.00     0.086 H 
ATOM     19  H16 1CY d   1      -0.669 -17.517   1.022  0.00  0.00     0.087 H 
ENDBRANCH   5   9
BRANCH   4  20
ATOM     20  N8  1CY d   1       1.479 -15.241   2.237  0.00  0.00    -0.234 N 
ATOM     21  H5  1CY d   1       1.507 -14.255   2.535  0.00  0.00     0.174 HD
ATOM     22  H6  1CY d   1       1.028 -15.948   2.836  0.00  0.00     0.174 HD
ENDBRANCH   4  20
BRANCH   6  23
ATOM     23  C9  1CY d   1       3.310 -18.685  -0.613  0.00  0.00    -0.035 C 
ATOM     24  H7  1CY d   1       3.666 -18.901  -1.631  0.00  0.00     0.033 H 
ATOM     25  H8  1CY d   1       2.659 -19.503  -0.271  0.00  0.00     0.033 H 
ATOM     26  H9  1CY d   1       4.172 -18.594   0.065  0.00  0.00     0.033 H 
ENDBRANCH   6  23
BRANCH   6  27
ATOM     27  C10 1CY d   1       1.257 -17.581  -1.430  0.00  0.00    -0.035 C 
ATOM     28  H10 1CY d   1       1.524 -17.906  -2.446  0.00  0.00     0.033 H 
ATOM     29  H11 1CY d   1       0.697 -16.636  -1.483  0.00  0.00     0.033 H 
ATOM     30  H12 1CY d   1       0.634 -18.350  -0.951  0.00  0.00     0.033 H 
ENDBRANCH   6  27
BRANCH   2  31
ATOM     31  N7  1CY d   1       3.778 -14.069  -1.644  0.00  0.00    -0.234 N 
ATOM     32  H3  1CY d   1       4.210 -14.311  -2.547  0.00  0.00     0.174 HD
ATOM     33  H4  1CY d   1       3.790 -13.094  -1.312  0.00  0.00     0.174 HD
ENDBRANCH   2  31
TORSDOF 5
