REMARK  9 active torsions:
REMARK  status: ('A' for Active; 'I' for Inactive)
REMARK    1  A    between atoms: C1_1  and  O2_2 
REMARK    2  A    between atoms: O2_2  and  C3_3 
REMARK    3  A    between atoms: C8_8  and  O9_9 
REMARK    4  A    between atoms: C11_11  and  C30_30 
REMARK    5  A    between atoms: C13_13  and  N14_14 
REMARK    6  A    between atoms: N14_14  and  C15_15 
REMARK    7  A    between atoms: C18_18  and  N21_21 
REMARK       I    between atoms: N21_21  and  C22_22 
REMARK    8  A    between atoms: C22_22  and  C24_24 
REMARK    9  A    between atoms: C30_30  and  C31_31 
ROOT
ATOM      1  C3  1S8 d   1      42.512  59.776  21.153  0.00  0.00     0.102 A 
ATOM      2  C4  1S8 d   1      43.139  58.861  20.322  0.00  0.00    -0.032 A 
ATOM      3  C5  1S8 d   1      42.927  58.904  18.951  0.00  0.00     0.042 A 
ATOM      4  C6  1S8 d   1      42.089  59.865  18.399  0.00  0.00     0.075 A 
ATOM      5  C7  1S8 d   1      41.481  60.774  19.242  0.00  0.00    -0.019 A 
ATOM      6  C8  1S8 d   1      41.692  60.733  20.602  0.00  0.00     0.101 A 
ATOM      7  N10 1S8 d   1      41.861  59.934  17.080  0.00  0.00    -0.232 NA
ATOM      8  C11 1S8 d   1      42.475  59.032  16.308  0.00  0.00     0.133 A 
ATOM      9  N12 1S8 d   1      43.296  58.077  16.752  0.00  0.00    -0.215 NA
ATOM     10  C13 1S8 d   1      43.525  58.011  18.074  0.00  0.00     0.142 A 
ATOM     11  H   1S8 d   1      43.797  58.110  20.744  0.00  0.00     0.089 H 
ATOM     12  H   1S8 d   1      40.827  61.532  18.826  0.00  0.00     0.091 H 
ENDROOT
BRANCH  10  13
ATOM     13  N14 1S8 d   1      44.397  57.005  18.548  0.00  0.00    -0.340 N 
ATOM     14  H   1S8 d   1      44.451  56.831  19.562  0.00  0.00     0.167 HD
BRANCH  13  15
ATOM     15  C15 1S8 d   1      45.198  56.229  17.679  0.00  0.00     0.033 A 
ATOM     16  C16 1S8 d   1      45.408  54.898  17.955  0.00  0.00    -0.055 A 
ATOM     17  C17 1S8 d   1      46.173  54.110  17.122  0.00  0.00    -0.055 A 
ATOM     18  H   1S8 d   1      44.964  54.461  18.843  0.00  0.00     0.087 H 
ATOM     19  C18 1S8 d   1      46.747  54.646  15.992  0.00  0.00     0.035 A 
ATOM     20  H   1S8 d   1      46.323  53.063  17.358  0.00  0.00     0.087 H 
ATOM     21  C19 1S8 d   1      46.554  55.980  15.705  0.00  0.00    -0.055 A 
ATOM     22  C20 1S8 d   1      45.783  56.756  16.545  0.00  0.00    -0.055 A 
ATOM     23  H   1S8 d   1      47.006  56.418  14.822  0.00  0.00     0.087 H 
ATOM     24  H   1S8 d   1      45.633  57.803  16.309  0.00  0.00     0.087 H 
BRANCH  19  25
ATOM     25  N21 1S8 d   1      47.529  53.833  15.146  0.00  0.00    -0.323 N 
ATOM     26  C22 1S8 d   1      47.077  53.514  13.879  0.00  0.00     0.256 C 
ATOM     27  O23 1S8 d   1      46.195  54.098  13.262  0.00  0.00    -0.267 OA
ATOM     28  H   1S8 d   1      48.412  53.487  15.463  0.00  0.00     0.169 HD
BRANCH  26  29
ATOM     29  C24 1S8 d   1      47.738  52.361  13.245  0.00  0.00     0.032 A 
ATOM     30  C25 1S8 d   1      48.218  52.491  11.958  0.00  0.00    -0.068 A 
ATOM     31  C26 1S8 d   1      48.831  51.413  11.358  0.00  0.00    -0.082 A 
ATOM     32  H   1S8 d   1      48.114  53.430  11.426  0.00  0.00     0.085 H 
ATOM     33  C27 1S8 d   1      48.961  50.221  12.043  0.00  0.00    -0.083 A 
ATOM     34  H   1S8 d   1      49.212  51.501  10.347  0.00  0.00     0.083 H 
ATOM     35  C28 1S8 d   1      48.477  50.099  13.328  0.00  0.00    -0.082 A 
ATOM     36  H   1S8 d   1      49.446  49.376  11.568  0.00  0.00     0.083 H 
ATOM     37  C29 1S8 d   1      47.859  51.174  13.933  0.00  0.00    -0.068 A 
ATOM     38  H   1S8 d   1      48.582  49.161  13.861  0.00  0.00     0.083 H 
ATOM     39  H   1S8 d   1      47.472  51.085  14.942  0.00  0.00     0.085 H 
ENDBRANCH  26  29
ENDBRANCH  19  25
ENDBRANCH  13  15
ENDBRANCH  10  13
BRANCH   8  40
ATOM     40  C30 1S8 d   1      42.199  59.126  14.837  0.00  0.00     0.016 C 
ATOM     41  H   1S8 d   1      42.256  60.189  14.558  0.00  0.00     0.051 H 
ATOM     42  H   1S8 d   1      41.176  58.757  14.669  0.00  0.00     0.051 H 
BRANCH  40  43
ATOM     43  C31 1S8 d   1      43.104  58.372  13.915  0.00  0.00    -0.051 A 
ATOM     44  C32 1S8 d   1      44.365  58.848  13.617  0.00  0.00    -0.076 A 
ATOM     45  C33 1S8 d   1      45.198  58.154  12.763  0.00  0.00    -0.082 A 
ATOM     46  H   1S8 d   1      44.705  59.778  14.059  0.00  0.00     0.084 H 
ATOM     47  C34 1S8 d   1      44.769  56.975  12.194  0.00  0.00    -0.083 A 
ATOM     48  H   1S8 d   1      46.188  58.536  12.540  0.00  0.00     0.083 H 
ATOM     49  C35 1S8 d   1      43.507  56.498  12.484  0.00  0.00    -0.082 A 
ATOM     50  H   1S8 d   1      45.419  56.425  11.523  0.00  0.00     0.083 H 
ATOM     51  C36 1S8 d   1      42.675  57.194  13.339  0.00  0.00    -0.076 A 
ATOM     52  H   1S8 d   1      43.166  55.571  12.038  0.00  0.00     0.083 H 
ATOM     53  H   1S8 d   1      41.684  56.814  13.558  0.00  0.00     0.084 H 
ENDBRANCH  40  43
ENDBRANCH   8  40
BRANCH   1  54
ATOM     54  O2  1S8 d   1      42.659  59.819  22.538  0.00  0.00    -0.353 OA
BRANCH  54  55
ATOM     55  C1  1S8 d   1      42.719  58.499  23.066  0.00  0.00     0.010 C 
ATOM     56  H   1S8 d   1      42.835  58.546  24.159  0.00  0.00     0.066 H 
ATOM     57  H   1S8 d   1      43.577  57.968  22.629  0.00  0.00     0.066 H 
ATOM     58  H   1S8 d   1      41.791  57.963  22.819  0.00  0.00     0.066 H 
ENDBRANCH  54  55
ENDBRANCH   1  54
BRANCH   6  59
ATOM     59  O9  1S8 d   1      41.076  61.656  21.424  0.00  0.00    -0.358 OA
ATOM     60  H   1S8 d   1      40.133  61.579  21.335  0.00  0.00     0.217 HD
ENDBRANCH   6  59
TORSDOF 9
