REMARK  9 active torsions:
REMARK  status: ('A' for Active; 'I' for Inactive)
REMARK    1  A    between atoms: C1_1  and  O2_2 
REMARK    2  A    between atoms: O2_2  and  C3_3 
REMARK    3  A    between atoms: C8_8  and  O9_9 
REMARK    4  A    between atoms: O9_9  and  C10_10 
REMARK    5  A    between atoms: C10_10  and  C11_11 
REMARK    6  A    between atoms: C17_17  and  N18_18 
REMARK    7  A    between atoms: N18_18  and  C19_19 
REMARK    8  A    between atoms: C22_22  and  N25_25 
REMARK       I    between atoms: N25_25  and  C26_26 
REMARK    9  A    between atoms: C26_26  and  C28_28 
ROOT
ATOM      1  N18 1S9 d   1     -10.081  88.262 127.035  0.00  0.00    -0.340 N 
ATOM      2  H   1S9 d   1      -9.931  88.171 128.050  0.00  0.00     0.167 HD
ENDROOT
BRANCH   1   3
ATOM      3  C17 1S9 d   1     -11.016  89.211 126.573  0.00  0.00     0.142 A 
ATOM      4  C5  1S9 d   1     -11.648  90.044 127.477  0.00  0.00     0.042 A 
ATOM      5  C4  1S9 d   1     -11.383  89.966 128.831  0.00  0.00    -0.032 A 
ATOM      6  C6  1S9 d   1     -12.558  90.965 126.986  0.00  0.00     0.075 A 
ATOM      7  C3  1S9 d   1     -12.033  90.809 129.709  0.00  0.00     0.102 A 
ATOM      8  H   1S9 d   1     -10.665  89.244 129.203  0.00  0.00     0.089 H 
ATOM      9  C8  1S9 d   1     -12.934  91.729 129.229  0.00  0.00     0.105 A 
ATOM     10  C7  1S9 d   1     -13.193  91.799 127.878  0.00  0.00    -0.019 A 
ATOM     11  H   1S9 d   1     -13.910  92.524 127.511  0.00  0.00     0.091 H 
ATOM     12  N14 1S9 d   1     -12.830  91.062 125.681  0.00  0.00    -0.241 NA
ATOM     13  C15 1S9 d   1     -12.167  90.213 124.895  0.00  0.00     0.089 A 
ATOM     14  N16 1S9 d   1     -11.276  89.292 125.264  0.00  0.00    -0.224 NA
ATOM     15  H   1S9 d   1     -12.377  90.279 123.834  0.00  0.00     0.146 H 
BRANCH   7  16
ATOM     16  O2  1S9 d   1     -11.795  90.767 131.073  0.00  0.00    -0.353 OA
BRANCH  16  17
ATOM     17  C1  1S9 d   1     -12.030  89.429 131.492  0.00  0.00     0.010 C 
ATOM     18  H   1S9 d   1     -11.852  89.347 132.575  0.00  0.00     0.066 H 
ATOM     19  H   1S9 d   1     -11.348  88.752 130.956  0.00  0.00     0.066 H 
ATOM     20  H   1S9 d   1     -13.071  89.153 131.269  0.00  0.00     0.066 H 
ENDBRANCH  16  17
ENDBRANCH   7  16
BRANCH   9  21
ATOM     21  O9  1S9 d   1     -13.575  92.568 130.124  0.00  0.00    -0.338 OA
BRANCH  21  22
ATOM     22  C10 1S9 d   1     -13.571  93.869 129.547  0.00  0.00     0.106 C 
ATOM     23  H   1S9 d   1     -12.931  93.884 128.653  0.00  0.00     0.091 H 
ATOM     24  H   1S9 d   1     -13.201  94.605 130.276  0.00  0.00     0.091 H 
BRANCH  22  25
ATOM     25  C11 1S9 d   1     -15.002  94.186 129.168  0.00  0.00     0.198 C 
ATOM     26  O12 1S9 d   1     -15.844  93.281 129.430  0.00  0.00    -0.646 OA
ATOM     27  O13 1S9 d   1     -15.161  95.316 128.634  0.00  0.00    -0.646 OA
ENDBRANCH  22  25
ENDBRANCH  21  22
ENDBRANCH   9  21
ENDBRANCH   1   3
BRANCH   1  28
ATOM     28  C19 1S9 d   1      -9.343  87.433 126.165  0.00  0.00     0.033 A 
ATOM     29  C20 1S9 d   1      -9.106  86.118 126.504  0.00  0.00    -0.055 A 
ATOM     30  C21 1S9 d   1      -8.389  85.289 125.668  0.00  0.00    -0.055 A 
ATOM     31  H   1S9 d   1      -9.489  85.730 127.441  0.00  0.00     0.087 H 
ATOM     32  C22 1S9 d   1      -7.899  85.773 124.476  0.00  0.00     0.035 A 
ATOM     33  H   1S9 d   1      -8.211  84.257 125.949  0.00  0.00     0.087 H 
ATOM     34  C23 1S9 d   1      -8.121  87.087 124.125  0.00  0.00    -0.055 A 
ATOM     35  C24 1S9 d   1      -8.839  87.906 124.970  0.00  0.00    -0.055 A 
ATOM     36  H   1S9 d   1      -7.733  87.474 123.190  0.00  0.00     0.087 H 
ATOM     37  H   1S9 d   1      -9.011  88.939 124.691  0.00  0.00     0.087 H 
BRANCH  32  38
ATOM     38  N25 1S9 d   1      -7.168  84.928 123.624  0.00  0.00    -0.323 N 
ATOM     39  C26 1S9 d   1      -7.661  84.584 122.383  0.00  0.00     0.256 C 
ATOM     40  O27 1S9 d   1      -8.625  85.073 121.810  0.00  0.00    -0.267 OA
ATOM     41  H   1S9 d   1      -6.282  84.573 123.921  0.00  0.00     0.169 HD
BRANCH  39  42
ATOM     42  C28 1S9 d   1      -6.912  83.518 121.713  0.00  0.00     0.032 A 
ATOM     43  C29 1S9 d   1      -6.423  83.750 120.447  0.00  0.00    -0.068 A 
ATOM     44  C30 1S9 d   1      -5.720  82.755 119.806  0.00  0.00    -0.082 A 
ATOM     45  H   1S9 d   1      -6.590  84.704 119.961  0.00  0.00     0.085 H 
ATOM     46  C31 1S9 d   1      -5.517  81.545 120.434  0.00  0.00    -0.083 A 
ATOM     47  H   1S9 d   1      -5.327  82.923 118.810  0.00  0.00     0.083 H 
ATOM     48  C32 1S9 d   1      -6.013  81.323 121.701  0.00  0.00    -0.082 A 
ATOM     49  H   1S9 d   1      -4.963  80.762 119.928  0.00  0.00     0.083 H 
ATOM     50  C33 1S9 d   1      -6.718  82.313 122.350  0.00  0.00    -0.068 A 
ATOM     51  H   1S9 d   1      -5.848  80.368 122.187  0.00  0.00     0.083 H 
ATOM     52  H   1S9 d   1      -7.113  82.146 123.345  0.00  0.00     0.085 H 
ENDBRANCH  39  42
ENDBRANCH  32  38
ENDBRANCH   1  28
TORSDOF 9
