REMARK  8 active torsions:
REMARK  status: ('A' for Active; 'I' for Inactive)
REMARK    1  A    between atoms: O3A_8  and  PB_1 
REMARK    2  A    between atoms: PA_5  and  O3A_8 
REMARK    3  A    between atoms: PA_5  and  O5'_9 
REMARK    4  A    between atoms: O5'_9  and  C5'_10 
REMARK    5  A    between atoms: C5'_10  and  C4'_11 
REMARK    6  A    between atoms: C3'_13  and  O3'_14 
REMARK    7  A    between atoms: C2'_15  and  O2'_16 
REMARK    8  A    between atoms: C1'_17  and  N9_18 
ROOT
ATOM      1  C4' ADP d   1      80.517  26.720  62.368  0.00  0.00     0.089 C 
ATOM      2  O4' ADP d   1      81.464  25.731  62.741  0.00  0.00    -0.353 OA
ATOM      3  C3' ADP d   1      81.276  27.888  61.769  0.00  0.00     0.091 C 
ATOM      4  C2' ADP d   1      82.622  27.325  61.401  0.00  0.00     0.105 C 
ATOM      5  C1' ADP d   1      82.671  25.948  62.030  0.00  0.00     0.139 C 
ATOM      6  H3  ADP d   1      79.959  27.051  63.256  0.00  0.00     0.090 H 
ATOM      7  H4  ADP d   1      80.758  28.264  60.874  0.00  0.00     0.091 H 
ATOM      8  H6  ADP d   1      82.716  27.243  60.308  0.00  0.00     0.093 H 
ATOM      9  H8  ADP d   1      83.532  25.892  62.713  0.00  0.00     0.122 H 
ENDROOT
BRANCH   5  10
ATOM     10  N9  ADP d   1      82.770  24.882  61.022  0.00  0.00    -0.294 N 
ATOM     11  C8  ADP d   1      81.813  23.996  60.711  0.00  0.00     0.071 A 
ATOM     12  N7  ADP d   1      82.233  23.135  59.759  0.00  0.00    -0.236 NA
ATOM     13  H9  ADP d   1      80.824  23.974  61.167  0.00  0.00     0.144 H 
ATOM     14  C5  ADP d   1      83.486  23.466  59.467  0.00  0.00     0.149 A 
ATOM     15  C6  ADP d   1      84.514  22.966  58.550  0.00  0.00     0.155 A 
ATOM     16  C4  ADP d   1      83.833  24.615  60.295  0.00  0.00     0.167 A 
ATOM     17  N6  ADP d   1      84.269  21.912  57.752  0.00  0.00    -0.382 N 
ATOM     18  N1  ADP d   1      85.707  23.586  58.538  0.00  0.00    -0.222 NA
ATOM     19  H10 ADP d   1      85.000  21.570  57.112  0.00  0.00     0.157 HD
ATOM     20  H11 ADP d   1      83.351  21.447  57.781  0.00  0.00     0.157 HD
ATOM     21  C2  ADP d   1      85.964  24.641  59.331  0.00  0.00     0.091 A 
ATOM     22  N3  ADP d   1      85.060  25.151  60.182  0.00  0.00    -0.222 NA
ATOM     23  H12 ADP d   1      86.945  25.100  59.281  0.00  0.00     0.146 H 
ENDBRANCH   5  10
BRANCH   4  24
ATOM     24  O2' ADP d   1      83.656  28.167  61.895  0.00  0.00    -0.388 OA
ATOM     25  H7  ADP d   1      83.590  28.226  62.841  0.00  0.00     0.210 HD
ENDBRANCH   4  24
BRANCH   1  26
ATOM     26  C5' ADP d   1      79.542  26.173  61.334  0.00  0.00     0.058 C 
ATOM     27  H1  ADP d   1      80.066  26.004  60.382  0.00  0.00     0.079 H 
ATOM     28  H2  ADP d   1      79.115  25.224  61.691  0.00  0.00     0.079 H 
BRANCH  26  29
ATOM     29  O5' ADP d   1      78.509  27.123  61.150  0.00  0.00    -0.287 OA
BRANCH  29  30
ATOM     30  PA  ADP d   1      77.711  27.155  59.771  0.00  0.00     0.418 P 
ATOM     31  O1A ADP d   1      78.696  27.729  58.798  0.00  0.00    -0.624 OA
ATOM     32  O2A ADP d   1      76.389  27.852  60.055  0.00  0.00    -0.624 OA
BRANCH  30  33
ATOM     33  O3A ADP d   1      77.489  25.587  59.470  0.00  0.00    -0.173 OA
BRANCH  33  34
ATOM     34  PB  ADP d   1      76.069  25.054  58.912  0.00  0.00     0.431 P 
ATOM     35  O1B ADP d   1      75.535  26.121  57.981  0.00  0.00    -0.616 OA
ATOM     36  O2B ADP d   1      76.436  23.734  58.265  0.00  0.00    -0.616 OA
ATOM     37  O3B ADP d   1      75.191  24.928  60.129  0.00  0.00    -0.616 OA
ENDBRANCH  33  34
ENDBRANCH  30  33
ENDBRANCH  29  30
ENDBRANCH  26  29
ENDBRANCH   1  26
BRANCH   3  38
ATOM     38  O3' ADP d   1      81.414  28.945  62.710  0.00  0.00    -0.390 OA
ATOM     39  H5  ADP d   1      81.892  29.663  62.311  0.00  0.00     0.210 HD
ENDBRANCH   3  38
TORSDOF 8
