REMARK  30 active torsions:
REMARK  status: ('A' for Active; 'I' for Inactive)
REMARK    1  A    between atoms: C2_2  and  C1_1 
REMARK    2  A    between atoms: O3_54  and  C2_2 
REMARK    3  A    between atoms: C4_4  and  O4_15 
REMARK    4  A    between atoms: C5_5  and  N5_12 
REMARK    5  A    between atoms: C6_6  and  C7_7 
REMARK    6  A    between atoms: C7_7  and  C8_8 
REMARK    7  A    between atoms: C7_7  and  O7_17 
REMARK    8  A    between atoms: C8_8  and  C9_9 
REMARK    9  A    between atoms: C8_8  and  O8_18 
REMARK   10  A    between atoms: C9_9  and  O9_19 
REMARK   11  A    between atoms: C10_10  and  C11_11 
REMARK       I    between atoms: N5_12  and  C10_10 
REMARK   12  A    between atoms: C1_21  and  O1_27 
REMARK   13  A    between atoms: C2_22  and  O2_28 
REMARK   14  A    between atoms: O3_29  and  C3_23 
REMARK   15  A    between atoms: C4_24  and  O4_30 
REMARK   16  A    between atoms: C5_25  and  C6_26 
REMARK   17  A    between atoms: C6_26  and  O6_32 
REMARK   18  A    between atoms: C1_33  and  O3_29 
REMARK   19  A    between atoms: C2_34  and  N2_41 
REMARK   20  A    between atoms: C3_35  and  O3_42 
REMARK   21  A    between atoms: O4_43  and  C4_36 
REMARK   22  A    between atoms: C5_37  and  C6_38 
REMARK   23  A    between atoms: C6_38  and  O6_45 
REMARK   24  A    between atoms: C7_39  and  C8_40 
REMARK       I    between atoms: N2_41  and  C7_39 
REMARK   25  A    between atoms: C1_47  and  O4_43 
REMARK   26  A    between atoms: C2_48  and  O2_53 
REMARK   27  A    between atoms: C3_49  and  O3_54 
REMARK   28  A    between atoms: C4_50  and  O4_55 
REMARK   29  A    between atoms: C5_51  and  C6_52 
REMARK   30  A    between atoms: C6_52  and  O6_57 
ROOT
ATOM      1  H42 SIA d   1      32.956 -28.378  36.364  0.00  0.00     0.133 H 
ATOM      2  H43 SIA d   1      31.765 -29.906  38.699  0.00  0.00     0.094 H 
ATOM      3  H44 SIA d   1      32.426 -31.274  36.101  0.00  0.00     0.091 H 
ATOM      4  H45 SIA d   1      30.217 -31.245  35.278  0.00  0.00     0.091 H 
ATOM      5  H46 SIA d   1      31.575 -29.209  34.837  0.00  0.00     0.090 H 
ATOM      6  C1  GAL d   1      32.185 -28.489  37.140  0.00  0.00     0.159 C 
ATOM      7  C2  GAL d   1      32.281 -29.899  37.728  0.00  0.00     0.110 C 
ATOM      8  C3  GAL d   1      31.668 -30.987  36.844  0.00  0.00     0.099 C 
ATOM      9  C4  GAL d   1      30.429 -30.530  36.086  0.00  0.00     0.090 C 
ATOM     10  C5  GAL d   1      30.684 -29.159  35.480  0.00  0.00     0.089 C 
ATOM     11  O5  GAL d   1      30.925 -28.266  36.543  0.00  0.00    -0.348 OA
ENDROOT
BRANCH   6  12
ATOM     12  O4  NAG d   1      32.445 -27.532  38.189  0.00  0.00    -0.348 OA
BRANCH  12  13
ATOM     13  C4  NAG d   1      33.240 -26.446  37.747  0.00  0.00     0.095 C 
ATOM     14  C3  NAG d   1      32.357 -25.360  37.129  0.00  0.00     0.087 C 
ATOM     15  C2  NAG d   1      32.990 -23.965  37.097  0.00  0.00     0.087 C 
ATOM     16  H31 SIA d   1      31.433 -25.303  37.723  0.00  0.00     0.090 H 
ATOM     17  C1  NAG d   1      33.938 -23.656  38.260  0.00  0.00     0.154 C 
ATOM     18  H30 SIA d   1      33.581 -23.893  36.172  0.00  0.00     0.084 H 
ATOM     19  O5  NAG d   1      34.747 -24.771  38.566  0.00  0.00    -0.349 OA
ATOM     20  H29 SIA d   1      33.328 -23.421  39.145  0.00  0.00     0.132 H 
ATOM     21  C5  NAG d   1      34.015 -25.911  38.943  0.00  0.00     0.089 C 
ATOM     22  H33 SIA d   1      33.302 -25.640  39.736  0.00  0.00     0.090 H 
ATOM     23  H32 SIA d   1      33.950 -26.800  36.985  0.00  0.00     0.091 H 
BRANCH  14  24
ATOM     24  O3  NAG d   1      32.031 -25.706  35.799  0.00  0.00    -0.391 OA
ATOM     25  H40 SIA d   1      31.563 -26.532  35.794  0.00  0.00     0.210 HD
ENDBRANCH  14  24
BRANCH  15  26
ATOM     26  N2  NAG d   1      31.924 -22.980  37.036  0.00  0.00    -0.349 N 
ATOM     27  C7  NAG d   1      31.503 -22.481  35.875  0.00  0.00     0.214 C 
ATOM     28  O7  NAG d   1      32.225 -21.816  35.133  0.00  0.00    -0.274 OA
ATOM     29  H39 SIA d   1      31.497 -22.669  37.885  0.00  0.00     0.163 HD
BRANCH  27  30
ATOM     30  C8  NAG d   1      30.079 -22.766  35.496  0.00  0.00    -0.003 C 
ATOM     31  H36 SIA d   1      29.859 -22.302  34.523  0.00  0.00     0.040 H 
ATOM     32  H37 SIA d   1      29.406 -22.352  36.261  0.00  0.00     0.040 H 
ATOM     33  H38 SIA d   1      29.929 -23.853  35.426  0.00  0.00     0.040 H 
ENDBRANCH  27  30
ENDBRANCH  15  26
BRANCH  17  34
ATOM     34  O3  GAL d   1      34.762 -22.508  37.960  0.00  0.00    -0.348 OA
BRANCH  34  35
ATOM     35  C3  GAL d   1      34.561 -21.480  38.911  0.00  0.00     0.098 C 
ATOM     36  C2  GAL d   1      33.660 -20.380  38.350  0.00  0.00     0.110 C 
ATOM     37  C1  GAL d   1      33.685 -19.132  39.228  0.00  0.00     0.156 C 
ATOM     38  H19 SIA d   1      34.012 -20.115  37.342  0.00  0.00     0.094 H 
ATOM     39  O5  GAL d   1      35.016 -18.717  39.445  0.00  0.00    -0.349 OA
ATOM     40  H18 SIA d   1      33.213 -19.360  40.195  0.00  0.00     0.133 H 
ATOM     41  C5  GAL d   1      35.747 -19.670  40.183  0.00  0.00     0.089 C 
ATOM     42  C4  GAL d   1      35.918 -20.924  39.333  0.00  0.00     0.090 C 
ATOM     43  H22 SIA d   1      35.188 -19.930  41.094  0.00  0.00     0.090 H 
ATOM     44  H21 SIA d   1      36.448 -21.686  39.923  0.00  0.00     0.091 H 
ATOM     45  H20 SIA d   1      34.068 -21.910  39.795  0.00  0.00     0.091 H 
BRANCH  36  46
ATOM     46  O2  GAL d   1      32.332 -20.845  38.273  0.00  0.00    -0.388 OA
ATOM     47  H26 SIA d   1      31.777 -20.158  37.924  0.00  0.00     0.210 HD
ENDBRANCH  36  46
BRANCH  37  48
ATOM     48  O1  GAL d   1      32.974 -18.093  38.591  0.00  0.00    -0.369 OA
ATOM     49  H25 SIA d   1      32.982 -17.320  39.144  0.00  0.00     0.212 HD
ENDBRANCH  37  48
BRANCH  41  50
ATOM     50  C6  GAL d   1      37.093 -19.081  40.586  0.00  0.00     0.043 C 
ATOM     51  H23 SIA d   1      37.689 -18.877  39.684  0.00  0.00     0.078 H 
ATOM     52  H24 SIA d   1      37.630 -19.797  41.226  0.00  0.00     0.078 H 
BRANCH  50  53
ATOM     53  O6  GAL d   1      36.886 -17.879  41.295  0.00  0.00    -0.398 OA
ATOM     54  H28 SIA d   1      36.422 -17.262  40.741  0.00  0.00     0.209 HD
ENDBRANCH  50  53
ENDBRANCH  41  50
BRANCH  42  55
ATOM     55  O4  GAL d   1      36.678 -20.615  38.186  0.00  0.00    -0.390 OA
ATOM     56  H27 SIA d   1      36.784 -21.397  37.657  0.00  0.00     0.210 HD
ENDBRANCH  42  55
ENDBRANCH  34  35
ENDBRANCH  17  34
BRANCH  21  57
ATOM     57  C6  NAG d   1      34.983 -26.956  39.481  0.00  0.00     0.043 C 
ATOM     58  H34 SIA d   1      35.518 -27.428  38.643  0.00  0.00     0.078 H 
ATOM     59  H35 SIA d   1      34.424 -27.723  40.038  0.00  0.00     0.078 H 
BRANCH  57  60
ATOM     60  O6  NAG d   1      35.910 -26.332  40.340  0.00  0.00    -0.398 OA
ATOM     61  H41 SIA d   1      36.391 -25.670  39.858  0.00  0.00     0.209 HD
ENDBRANCH  57  60
ENDBRANCH  21  57
ENDBRANCH  12  13
ENDBRANCH   6  12
BRANCH   7  62
ATOM     62  O2  GAL d   1      33.643 -30.215  37.912  0.00  0.00    -0.388 OA
ATOM     63  H49 SIA d   1      33.716 -31.064  38.333  0.00  0.00     0.210 HD
ENDBRANCH   7  62
BRANCH   8  64
ATOM     64  O3  GAL d   1      31.352 -32.127  37.619  0.00  0.00    -0.336 OA
BRANCH  64  65
ATOM     65  C2  SIA d   1      32.153 -33.183  37.078  0.00  0.00     0.259 C 
ATOM     66  C3  SIA d   1      31.417 -34.217  37.947  0.00  0.00     0.024 C 
ATOM     67  C4  SIA d   1      31.892 -35.628  37.873  0.00  0.00     0.063 C 
ATOM     68  H1  SIA d   1      30.358 -34.208  37.648  0.00  0.00     0.045 H 
ATOM     69  H2  SIA d   1      31.505 -33.892  38.994  0.00  0.00     0.045 H 
ATOM     70  C5  SIA d   1      33.280 -35.810  38.175  0.00  0.00     0.064 C 
ATOM     71  H3  SIA d   1      31.756 -35.946  36.829  0.00  0.00     0.086 H 
ATOM     72  C6  SIA d   1      34.002 -34.768  37.361  0.00  0.00     0.091 C 
ATOM     73  H4  SIA d   1      33.464 -35.623  39.243  0.00  0.00     0.080 H 
ATOM     74  O6  SIA d   1      33.395 -33.459  37.669  0.00  0.00    -0.336 OA
ATOM     75  H5  SIA d   1      33.827 -34.997  36.300  0.00  0.00     0.090 H 
BRANCH  65  76
ATOM     76  C1  SIA d   1      31.677 -33.790  35.810  0.00  0.00     0.239 C 
ATOM     77  O1A SIA d   1      30.470 -34.055  35.649  0.00  0.00    -0.644 OA
ATOM     78  O1B SIA d   1      32.467 -34.001  34.849  0.00  0.00    -0.644 OA
ENDBRANCH  65  76
BRANCH  67  79
ATOM     79  O4  SIA d   1      31.078 -36.498  38.695  0.00  0.00    -0.393 OA
ATOM     80  H14 SIA d   1      30.161 -36.366  38.483  0.00  0.00     0.210 HD
ENDBRANCH  67  79
BRANCH  70  81
ATOM     81  N5  SIA d   1      33.670 -37.207  37.874  0.00  0.00    -0.352 N 
ATOM     82  C10 SIA d   1      34.805 -37.870  38.526  0.00  0.00     0.214 C 
ATOM     83  O10 SIA d   1      35.496 -37.288  39.358  0.00  0.00    -0.274 OA
ATOM     84  H13 SIA d   1      33.138 -37.719  37.199  0.00  0.00     0.163 HD
BRANCH  82  85
ATOM     85  C11 SIA d   1      35.147 -39.321  38.159  0.00  0.00    -0.003 C 
ATOM     86  H10 SIA d   1      36.020 -39.651  38.742  0.00  0.00     0.040 H 
ATOM     87  H11 SIA d   1      35.378 -39.383  37.085  0.00  0.00     0.040 H 
ATOM     88  H12 SIA d   1      34.288 -39.969  38.387  0.00  0.00     0.040 H 
ENDBRANCH  82  85
ENDBRANCH  70  81
BRANCH  72  89
ATOM     89  C7  SIA d   1      35.469 -34.701  37.556  0.00  0.00     0.089 C 
ATOM     90  H6  SIA d   1      35.900 -35.674  37.278  0.00  0.00     0.091 H 
BRANCH  89  91
ATOM     91  C8  SIA d   1      36.016 -33.634  36.613  0.00  0.00     0.083 C 
ATOM     92  H7  SIA d   1      35.794 -32.648  37.046  0.00  0.00     0.090 H 
BRANCH  91  93
ATOM     93  C9  SIA d   1      37.505 -33.759  36.494  0.00  0.00     0.043 C 
ATOM     94  H8  SIA d   1      37.714 -34.458  35.671  0.00  0.00     0.078 H 
ATOM     95  H9  SIA d   1      37.879 -34.182  37.438  0.00  0.00     0.078 H 
BRANCH  93  96
ATOM     96  O9  SIA d   1      38.218 -32.598  36.246  0.00  0.00    -0.398 OA
ATOM     97  H17 SIA d   1      38.070 -31.980  36.952  0.00  0.00     0.209 HD
ENDBRANCH  93  96
ENDBRANCH  91  93
BRANCH  91  98
ATOM     98  O8  SIA d   1      35.384 -33.707  35.375  0.00  0.00    -0.391 OA
ATOM     99  H16 SIA d   1      34.445 -33.624  35.495  0.00  0.00     0.210 HD
ENDBRANCH  91  98
ENDBRANCH  89  91
BRANCH  89 100
ATOM    100  O7  SIA d   1      35.841 -34.433  38.886  0.00  0.00    -0.390 OA
ATOM    101  H15 SIA d   1      35.490 -35.109  39.454  0.00  0.00     0.210 HD
ENDBRANCH  89 100
ENDBRANCH  72  89
ENDBRANCH  64  65
ENDBRANCH   8  64
BRANCH  10 102
ATOM    102  C6  GAL d   1      29.505 -28.686  34.638  0.00  0.00     0.043 C 
ATOM    103  H47 SIA d   1      28.694 -28.347  35.300  0.00  0.00     0.078 H 
ATOM    104  H48 SIA d   1      29.145 -29.516  34.012  0.00  0.00     0.078 H 
BRANCH 102 105
ATOM    105  O6  GAL d   1      29.917 -27.618  33.813  0.00  0.00    -0.398 OA
ATOM    106  H51 SIA d   1      30.617 -27.912  33.242  0.00  0.00     0.209 HD
ENDBRANCH 102 105
ENDBRANCH  10 102
BRANCH   9 107
ATOM    107  O4  GAL d   1      29.322 -30.485  36.958  0.00  0.00    -0.390 OA
ATOM    108  H50 SIA d   1      29.176 -31.348  37.328  0.00  0.00     0.210 HD
ENDBRANCH   9 107
TORSDOF 30
