REMARK  17 active torsions:
REMARK  status: ('A' for Active; 'I' for Inactive)
REMARK    1  A    between atoms: C2_2  and  C1_1 
REMARK    2  A    between atoms: O6_32  and  C2_2 
REMARK    3  A    between atoms: C4_4  and  O4_15 
REMARK    4  A    between atoms: C5_5  and  N5_12 
REMARK    5  A    between atoms: C6_6  and  C7_7 
REMARK    6  A    between atoms: C7_7  and  C8_8 
REMARK    7  A    between atoms: C7_7  and  O7_17 
REMARK    8  A    between atoms: C8_8  and  C9_9 
REMARK    9  A    between atoms: C8_8  and  O8_18 
REMARK   10  A    between atoms: C9_9  and  O9_19 
REMARK   11  A    between atoms: C10_10  and  C11_11 
REMARK       I    between atoms: N5_12  and  C10_10 
REMARK   12  A    between atoms: C1_21  and  O1_27 
REMARK   13  A    between atoms: C2_22  and  O2_28 
REMARK   14  A    between atoms: C3_23  and  O3_29 
REMARK   15  A    between atoms: C4_24  and  O4_30 
REMARK   16  A    between atoms: C6_26  and  C5_25 
REMARK   17  A    between atoms: C6_26  and  O6_32 
ROOT
ATOM      1  C2  SIA d   1     -26.438   0.862 -12.484  0.00  0.00     0.258 C 
ATOM      2  C3  SIA d   1     -27.059  -0.132 -11.688  0.00  0.00     0.024 C 
ATOM      3  C4  SIA d   1     -26.666  -1.507 -11.766  0.00  0.00     0.063 C 
ATOM      4  C5  SIA d   1     -25.230  -1.751 -11.454  0.00  0.00     0.064 C 
ATOM      5  C6  SIA d   1     -24.406  -0.813 -12.262  0.00  0.00     0.091 C 
ATOM      6  O6  SIA d   1     -25.085   0.548 -12.011  0.00  0.00    -0.336 OA
ATOM      7  H1  SIA d   1     -28.131  -0.101 -11.934  0.00  0.00     0.045 H 
ATOM      8  H2  SIA d   1     -26.914   0.173 -10.641  0.00  0.00     0.045 H 
ATOM      9  H3  SIA d   1     -26.811  -1.809 -12.814  0.00  0.00     0.086 H 
ATOM     10  H4  SIA d   1     -25.044  -1.569 -10.385  0.00  0.00     0.080 H 
ATOM     11  H5  SIA d   1     -24.474  -1.093 -13.324  0.00  0.00     0.090 H 
ENDROOT
BRANCH   1  12
ATOM     12  C1  SIA d   1     -27.038   0.263 -13.738  0.00  0.00     0.239 C 
ATOM     13  O1A SIA d   1     -26.243  -0.112 -14.686  0.00  0.00    -0.644 OA
ATOM     14  O1B SIA d   1     -28.287   0.154 -13.893  0.00  0.00    -0.644 OA
ENDBRANCH   1  12
BRANCH   1  15
ATOM     15  O6  GAL d   1     -27.207   1.863 -11.791  0.00  0.00    -0.344 OA
BRANCH  15  16
ATOM     16  C6  GAL d   1     -26.466   3.063 -11.961  0.00  0.00     0.050 C 
ATOM     17  H23 SIA d   1     -25.842   3.236 -11.072  0.00  0.00     0.078 H 
ATOM     18  H24 SIA d   1     -25.822   2.972 -12.848  0.00  0.00     0.078 H 
BRANCH  16  19
ATOM     19  C5  GAL d   1     -27.427   4.248 -12.148  0.00  0.00     0.089 C 
ATOM     20  C4  GAL d   1     -26.852   5.284 -13.115  0.00  0.00     0.090 C 
ATOM     21  C3  GAL d   1     -27.619   6.597 -12.996  0.00  0.00     0.092 C 
ATOM     22  H21 SIA d   1     -26.952   4.908 -14.144  0.00  0.00     0.091 H 
ATOM     23  C2  GAL d   1     -27.810   7.002 -11.538  0.00  0.00     0.110 C 
ATOM     24  H20 SIA d   1     -28.608   6.467 -13.459  0.00  0.00     0.091 H 
ATOM     25  C1  GAL d   1     -28.468   5.901 -10.727  0.00  0.00     0.156 C 
ATOM     26  H19 SIA d   1     -26.827   7.232 -11.101  0.00  0.00     0.094 H 
ATOM     27  O5  GAL d   1     -27.624   4.788 -10.852  0.00  0.00    -0.349 OA
ATOM     28  H18 SIA d   1     -29.480   5.683 -11.098  0.00  0.00     0.133 H 
ATOM     29  H22 SIA d   1     -28.386   3.889 -12.549  0.00  0.00     0.090 H 
BRANCH  20  30
ATOM     30  O4  GAL d   1     -25.484   5.481 -12.830  0.00  0.00    -0.390 OA
ATOM     31  H28 SIA d   1     -25.126   6.124 -13.430  0.00  0.00     0.210 HD
ENDBRANCH  20  30
BRANCH  21  32
ATOM     32  O3  GAL d   1     -26.931   7.620 -13.668  0.00  0.00    -0.390 OA
ATOM     33  H27 SIA d   1     -26.069   7.726 -13.283  0.00  0.00     0.210 HD
ENDBRANCH  21  32
BRANCH  23  34
ATOM     34  O2  GAL d   1     -28.636   8.149 -11.479  0.00  0.00    -0.388 OA
ATOM     35  H26 SIA d   1     -28.757   8.404 -10.572  0.00  0.00     0.210 HD
ENDBRANCH  23  34
BRANCH  25  36
ATOM     36  O1  GAL d   1     -28.505   6.281  -9.363  0.00  0.00    -0.369 OA
ATOM     37  H25 SIA d   1     -27.628   6.503  -9.073  0.00  0.00     0.212 HD
ENDBRANCH  25  36
ENDBRANCH  16  19
ENDBRANCH  15  16
ENDBRANCH   1  15
BRANCH   3  38
ATOM     38  O4  SIA d   1     -27.517  -2.348 -10.969  0.00  0.00    -0.393 OA
ATOM     39  H14 SIA d   1     -28.425  -2.174 -11.186  0.00  0.00     0.210 HD
ENDBRANCH   3  38
BRANCH   5  40
ATOM     40  C7  SIA d   1     -23.044  -0.723 -11.922  0.00  0.00     0.089 C 
ATOM     41  H6  SIA d   1     -22.549  -1.681 -12.138  0.00  0.00     0.091 H 
BRANCH  40  42
ATOM     42  C8  SIA d   1     -22.412   0.409 -12.780  0.00  0.00     0.083 C 
ATOM     43  H7  SIA d   1     -22.713   1.364 -12.325  0.00  0.00     0.090 H 
BRANCH  42  44
ATOM     44  C9  SIA d   1     -20.879   0.354 -12.775  0.00  0.00     0.043 C 
ATOM     45  H8  SIA d   1     -20.571  -0.366 -13.547  0.00  0.00     0.078 H 
ATOM     46  H9  SIA d   1     -20.564  -0.012 -11.786  0.00  0.00     0.078 H 
BRANCH  44  47
ATOM     47  O9  SIA d   1     -20.202   1.537 -13.016  0.00  0.00    -0.398 OA
ATOM     48  H17 SIA d   1     -20.435   2.175 -12.352  0.00  0.00     0.209 HD
ENDBRANCH  44  47
ENDBRANCH  42  44
BRANCH  42  49
ATOM     49  O8  SIA d   1     -22.871   0.408 -14.096  0.00  0.00    -0.391 OA
ATOM     50  H16 SIA d   1     -23.820   0.442 -14.099  0.00  0.00     0.210 HD
ENDBRANCH  42  49
ENDBRANCH  40  42
BRANCH  40  51
ATOM     51  O7  SIA d   1     -22.868  -0.407 -10.575  0.00  0.00    -0.390 OA
ATOM     52  H15 SIA d   1     -23.250  -1.091 -10.038  0.00  0.00     0.210 HD
ENDBRANCH  40  51
ENDBRANCH   5  40
BRANCH   4  53
ATOM     53  N5  SIA d   1     -24.915  -3.154 -11.769  0.00  0.00    -0.352 N 
ATOM     54  C10 SIA d   1     -23.837  -3.913 -11.080  0.00  0.00     0.214 C 
ATOM     55  O10 SIA d   1     -23.128  -3.375 -10.197  0.00  0.00    -0.274 OA
ATOM     56  H13 SIA d   1     -25.449  -3.617 -12.477  0.00  0.00     0.163 HD
BRANCH  54  57
ATOM     57  C11 SIA d   1     -23.586  -5.361 -11.462  0.00  0.00    -0.003 C 
ATOM     58  H10 SIA d   1     -22.760  -5.762 -10.857  0.00  0.00     0.040 H 
ATOM     59  H11 SIA d   1     -23.321  -5.418 -12.528  0.00  0.00     0.040 H 
ATOM     60  H12 SIA d   1     -24.495  -5.952 -11.278  0.00  0.00     0.040 H 
ENDBRANCH  54  57
ENDBRANCH   4  53
TORSDOF 17
