REMARK  8 active torsions:
REMARK  status: ('A' for Active; 'I' for Inactive)
REMARK    1  A    between atoms: C3_3  and  C3'_4 
REMARK    2  A    between atoms: C3'_4  and  O20_5 
REMARK    3  A    between atoms: O20_5  and  C21_6 
REMARK    4  A    between atoms: C21_6  and  C23_8 
REMARK    5  A    between atoms: C4_9  and  C4'_10 
REMARK    6  A    between atoms: C7_15  and  N10_18 
REMARK       I    between atoms: N10_18  and  C11_19 
REMARK    7  A    between atoms: C11_19  and  C13_21 
REMARK    8  A    between atoms: C13_21  and  C14_22 
ROOT
ATOM      1  S1  CLS d   1     -12.701   2.728 -10.443  0.00  0.00    -0.136 SA
ATOM      2  C2  CLS d   1     -11.971   4.347 -10.683  0.00  0.00     0.004 C 
ATOM      3  C3  CLS d   1     -12.938   5.421 -11.118  0.00  0.00    -0.013 C 
ATOM      4  C4  CLS d   1     -14.248   5.401 -10.883  0.00  0.00     0.121 C 
ATOM      5  N5  CLS d   1     -14.757   4.355 -10.071  0.00  0.00    -0.293 N 
ATOM      6  C6  CLS d   1     -13.977   3.344  -9.353  0.00  0.00     0.092 C 
ATOM      7  C7  CLS d   1     -15.312   2.539  -9.178  0.00  0.00     0.118 C 
ATOM      8  C8  CLS d   1     -15.975   3.844  -9.706  0.00  0.00     0.251 C 
ATOM      9  O9  CLS d   1     -17.087   4.299  -9.830  0.00  0.00    -0.271 OA
ATOM     10  H1  CLS d   1     -11.189   4.259 -11.452  0.00  0.00     0.056 H 
ATOM     11  H2  CLS d   1     -11.516   4.661  -9.732  0.00  0.00     0.056 H 
ATOM     12  H8  CLS d   1     -13.529   3.662  -8.400  0.00  0.00     0.094 H 
ATOM     13  H9  CLS d   1     -15.517   2.297  -8.125  0.00  0.00     0.092 H 
ENDROOT
BRANCH   7  14
ATOM     14  N10 CLS d   1     -15.701   1.372  -9.980  0.00  0.00    -0.345 N 
ATOM     15  C11 CLS d   1     -15.325   0.073  -9.838  0.00  0.00     0.223 C 
ATOM     16  O12 CLS d   1     -14.454  -0.303  -9.048  0.00  0.00    -0.273 OA
ATOM     17  H10 CLS d   1     -16.329   1.558 -10.735  0.00  0.00     0.163 HD
BRANCH  15  18
ATOM     18  C13 CLS d   1     -16.156  -0.927 -10.652  0.00  0.00     0.039 C 
ATOM     19  H11 CLS d   1     -17.093  -0.421 -10.929  0.00  0.00     0.055 H 
ATOM     20  H12 CLS d   1     -16.380  -1.777  -9.991  0.00  0.00     0.055 H 
BRANCH  18  21
ATOM     21  C14 CLS d   1     -15.557  -1.499 -11.934  0.00  0.00    -0.009 A 
ATOM     22  C15 CLS d   1     -16.124  -2.477 -12.790  0.00  0.00    -0.069 A 
ATOM     23  C16 CLS d   1     -15.268  -2.786 -13.891  0.00  0.00    -0.076 A 
ATOM     24  H13 CLS d   1     -17.097  -2.938 -12.627  0.00  0.00     0.085 H 
ATOM     25  C17 CLS d   1     -14.126  -2.093 -13.821  0.00  0.00    -0.045 A 
ATOM     26  H14 CLS d   1     -15.513  -3.493 -14.683  0.00  0.00     0.084 H 
ATOM     27  S19 CLS d   1     -14.027  -1.050 -12.475  0.00  0.00    -0.106 SA
ATOM     28  H15 CLS d   1     -13.330  -2.187 -14.558  0.00  0.00     0.095 H 
ENDBRANCH  18  21
ENDBRANCH  15  18
ENDBRANCH   7  14
BRANCH   4  29
ATOM     29  C4' CLS d   1     -15.262   6.371 -11.444  0.00  0.00     0.227 C 
ATOM     30  O4A CLS d   1     -15.219   7.559 -11.096  0.00  0.00    -0.643 OA
ATOM     31  O4B CLS d   1     -16.146   5.918 -12.216  0.00  0.00    -0.643 OA
ENDBRANCH   4  29
BRANCH   3  32
ATOM     32  C3' CLS d   1     -12.307   6.567 -11.832  0.00  0.00     0.052 C 
ATOM     33  H3  CLS d   1     -13.077   7.278 -12.167  0.00  0.00     0.082 H 
ATOM     34  H4  CLS d   1     -11.736   6.207 -12.701  0.00  0.00     0.082 H 
BRANCH  32  35
ATOM     35  O20 CLS d   1     -11.382   7.228 -10.835  0.00  0.00    -0.317 OA
BRANCH  35  36
ATOM     36  C21 CLS d   1     -10.961   8.586 -11.084  0.00  0.00     0.255 C 
ATOM     37  O22 CLS d   1     -11.264   9.174 -12.096  0.00  0.00    -0.266 OA
BRANCH  36  38
ATOM     38  C23 CLS d   1     -10.140   9.141  -9.969  0.00  0.00     0.004 C 
ATOM     39  H5  CLS d   1      -9.847  10.174 -10.209  0.00  0.00     0.041 H 
ATOM     40  H6  CLS d   1      -9.238   8.525  -9.836  0.00  0.00     0.041 H 
ATOM     41  H7  CLS d   1     -10.730   9.133  -9.040  0.00  0.00     0.041 H 
ENDBRANCH  36  38
ENDBRANCH  35  36
ENDBRANCH  32  35
ENDBRANCH   3  32
TORSDOF 8
