REMARK  8 active torsions:
REMARK  status: ('A' for Active; 'I' for Inactive)
REMARK    1  A    between atoms: C24_2  and  C20_4 
REMARK    2  A    between atoms: C20_4  and  C16_5 
REMARK    3  A    between atoms: C16_5  and  C12_6 
REMARK    4  A    between atoms: C12_6  and  S8_7 
REMARK    5  A    between atoms: S8_7  and  C3_8 
REMARK    6  A    between atoms: N1_16  and  C4_17 
REMARK    7  A    between atoms: C4_17  and  C9_18 
REMARK    8  A    between atoms: C18_25  and  C23_27 
ROOT
ATOM      1  C3  KPK d   1      24.613  -9.479 -13.960  0.00  0.00     0.170 A 
ATOM      2  N7  KPK d   1      25.728  -9.768 -14.663  0.00  0.00    -0.222 NA
ATOM      3  C5  KPK d   1      26.747  -9.368 -13.878  0.00  0.00     0.086 A 
ATOM      4  C10 KPK d   1      28.128  -9.383 -14.040  0.00  0.00    -0.053 A 
ATOM      5  C15 KPK d   1      28.934  -8.860 -13.027  0.00  0.00    -0.081 A 
ATOM      6  C11 KPK d   1      28.365  -8.329 -11.853  0.00  0.00    -0.081 A 
ATOM      7  C6  KPK d   1      26.976  -8.298 -11.651  0.00  0.00    -0.055 A 
ATOM      8  C2  KPK d   1      26.130  -8.804 -12.640  0.00  0.00     0.065 A 
ATOM      9  N1  KPK d   1      24.792  -8.913 -12.768  0.00  0.00    -0.320 N 
ATOM     10  H7  KPK d   1      28.572  -9.794 -14.939  0.00  0.00     0.087 H 
ATOM     11  H8  KPK d   1      30.012  -8.863 -13.146  0.00  0.00     0.083 H 
ATOM     12  H9  KPK d   1      29.018  -7.933 -11.084  0.00  0.00     0.083 H 
ATOM     13  H10 KPK d   1      26.565  -7.886 -10.737  0.00  0.00     0.087 H 
ENDROOT
BRANCH   9  14
ATOM     14  C4  KPK d   1      23.758  -8.481 -11.829  0.00  0.00     0.027 C 
ATOM     15  H11 KPK d   1      22.869  -8.172 -12.398  0.00  0.00     0.072 H 
ATOM     16  H12 KPK d   1      24.138  -7.626 -11.251  0.00  0.00     0.072 H 
BRANCH  14  17
ATOM     17  C9  KPK d   1      23.369  -9.573 -10.878  0.00  0.00    -0.021 A 
ATOM     18  C14 KPK d   1      23.813 -10.894 -11.021  0.00  0.00    -0.036 A 
ATOM     19  S19 KPK d   1      23.160 -11.867  -9.733  0.00  0.00    -0.101 SA
ATOM     20  H13 KPK d   1      24.465 -11.256 -11.814  0.00  0.00     0.096 H 
ATOM     21  C17 KPK d   1      22.326 -10.646  -8.963  0.00  0.00     0.016 A 
ATOM     22  C21 KPK d   1      21.553 -10.801  -7.812  0.00  0.00    -0.066 A 
ATOM     23  C13 KPK d   1      22.485  -9.352  -9.665  0.00  0.00    -0.005 A 
ATOM     24  C25 KPK d   1      20.921  -9.682  -7.284  0.00  0.00    -0.081 A 
ATOM     25  H14 KPK d   1      21.448 -11.771  -7.341  0.00  0.00     0.085 H 
ATOM     26  C22 KPK d   1      21.034  -8.416  -7.895  0.00  0.00    -0.076 A 
ATOM     27  H15 KPK d   1      20.328  -9.784  -6.382  0.00  0.00     0.083 H 
ATOM     28  C18 KPK d   1      21.776  -8.180  -9.058  0.00  0.00    -0.050 A 
ATOM     29  H16 KPK d   1      20.518  -7.579  -7.439  0.00  0.00     0.084 H 
BRANCH  28  30
ATOM     30  C23 KPK d   1      21.835  -6.784  -9.646  0.00  0.00    -0.050 C 
ATOM     31  H17 KPK d   1      21.238  -6.099  -9.026  0.00  0.00     0.033 H 
ATOM     32  H18 KPK d   1      21.430  -6.800 -10.669  0.00  0.00     0.033 H 
ATOM     33  H19 KPK d   1      22.880  -6.440  -9.670  0.00  0.00     0.033 H 
ENDBRANCH  28  30
ENDBRANCH  14  17
ENDBRANCH   9  14
BRANCH   1  34
ATOM     34  S8  KPK d   1      23.019  -9.852 -14.583  0.00  0.00    -0.092 SA
BRANCH  34  35
ATOM     35  C12 KPK d   1      22.855  -9.506 -16.316  0.00  0.00    -0.015 C 
ATOM     36  H5  KPK d   1      23.218 -10.373 -16.887  0.00  0.00     0.049 H 
ATOM     37  H6  KPK d   1      21.793  -9.336 -16.544  0.00  0.00     0.049 H 
BRANCH  35  38
ATOM     38  C16 KPK d   1      23.656  -8.267 -16.737  0.00  0.00    -0.048 C 
ATOM     39  H3  KPK d   1      24.626  -8.287 -16.220  0.00  0.00     0.034 H 
ATOM     40  H4  KPK d   1      23.819  -8.311 -17.824  0.00  0.00     0.034 H 
BRANCH  38  41
ATOM     41  C20 KPK d   1      22.956  -6.943 -16.404  0.00  0.00     0.016 C 
ATOM     42  H1  KPK d   1      23.438  -6.125 -16.959  0.00  0.00     0.049 H 
ATOM     43  H2  KPK d   1      21.896  -7.007 -16.691  0.00  0.00     0.049 H 
BRANCH  41  44
ATOM     44  C24 KPK d   1      23.059  -6.675 -14.930  0.00  0.00     0.172 C 
ATOM     45  O27 KPK d   1      24.222  -6.426 -14.545  0.00  0.00    -0.648 OA
ATOM     46  O26 KPK d   1      22.023  -6.735 -14.209  0.00  0.00    -0.648 OA
ENDBRANCH  41  44
ENDBRANCH  38  41
ENDBRANCH  35  38
ENDBRANCH  34  35
ENDBRANCH   1  34
TORSDOF 8
