REMARK  10 active torsions:
REMARK  status: ('A' for Active; 'I' for Inactive)
REMARK    1  A    between atoms: N3B_8  and  PG_1 
REMARK    2  A    between atoms: PB_5  and  N3B_8 
REMARK    3  A    between atoms: O3A_12  and  PB_5 
REMARK    4  A    between atoms: PA_9  and  O3A_12 
REMARK    5  A    between atoms: PA_9  and  O5'_13 
REMARK    6  A    between atoms: O5'_13  and  C5'_14 
REMARK    7  A    between atoms: C5'_14  and  C4'_15 
REMARK    8  A    between atoms: C3'_17  and  O3'_18 
REMARK    9  A    between atoms: C2'_19  and  O2'_20 
REMARK   10  A    between atoms: C1'_21  and  N9_22 
ROOT
ATOM      1  C4' ANP d   1     -38.168  32.212   5.703  0.00  0.00     0.089 C 
ATOM      2  O4' ANP d   1     -37.814  32.693   7.001  0.00  0.00    -0.353 OA
ATOM      3  C3' ANP d   1     -39.676  32.016   5.753  0.00  0.00     0.091 C 
ATOM      4  C2' ANP d   1     -39.908  31.632   7.201  0.00  0.00     0.105 C 
ATOM      5  C1' ANP d   1     -38.840  32.385   7.956  0.00  0.00     0.139 C 
ATOM      6  H   ANP d   1     -37.681  31.243   5.516  0.00  0.00     0.090 H 
ATOM      7  H   ANP d   1     -40.196  32.959   5.529  0.00  0.00     0.091 H 
ATOM      8  H   ANP d   1     -40.921  31.911   7.527  0.00  0.00     0.093 H 
ATOM      9  H   ANP d   1     -38.430  31.733   8.742  0.00  0.00     0.122 H 
ENDROOT
BRANCH   1  10
ATOM     10  C5' ANP d   1     -37.713  33.188   4.631  0.00  0.00     0.058 C 
ATOM     11  H   ANP d   1     -36.740  33.609   4.923  0.00  0.00     0.079 H 
ATOM     12  H   ANP d   1     -37.608  32.647   3.679  0.00  0.00     0.079 H 
BRANCH  10  13
ATOM     13  O5' ANP d   1     -38.645  34.256   4.456  0.00  0.00    -0.287 OA
BRANCH  13  14
ATOM     14  PA  ANP d   1     -38.567  35.198   3.146  0.00  0.00     0.417 P 
ATOM     15  O1A ANP d   1     -38.921  36.506   3.767  0.00  0.00    -0.624 OA
ATOM     16  O2A ANP d   1     -37.309  34.984   2.323  0.00  0.00    -0.624 OA
BRANCH  14  17
ATOM     17  O3A ANP d   1     -39.720  34.817   2.104  0.00  0.00    -0.186 OA
BRANCH  17  18
ATOM     18  PB  ANP d   1     -41.167  34.265   2.505  0.00  0.00     0.379 P 
ATOM     19  O1B ANP d   1     -41.051  32.784   2.620  0.00  0.00    -0.629 OA
ATOM     20  O2B ANP d   1     -41.680  35.041   3.706  0.00  0.00    -0.629 OA
BRANCH  18  21
ATOM     21  N3B ANP d   1     -41.983  34.571   1.129  0.00  0.00    -0.218 N 
ATOM     22  H   ANP d   1     -42.407  33.790   0.670  0.00  0.00     0.179 HD
BRANCH  21  23
ATOM     23  PG  ANP d   1     -42.176  36.043   0.423  0.00  0.00     0.381 P 
ATOM     24  O1G ANP d   1     -41.108  36.118  -0.653  0.00  0.00    -0.622 OA
ATOM     25  O2G ANP d   1     -42.126  37.084   1.518  0.00  0.00    -0.622 OA
ATOM     26  O3G ANP d   1     -43.565  35.979  -0.178  0.00  0.00    -0.622 OA
ENDBRANCH  21  23
ENDBRANCH  18  21
ENDBRANCH  17  18
ENDBRANCH  14  17
ENDBRANCH  13  14
ENDBRANCH  10  13
ENDBRANCH   1  10
BRANCH   3  27
ATOM     27  O3' ANP d   1     -40.103  31.033   4.798  0.00  0.00    -0.390 OA
ATOM     28  H   ANP d   1     -39.862  31.317   3.924  0.00  0.00     0.210 HD
ENDBRANCH   3  27
BRANCH   5  29
ATOM     29  N9  ANP d   1     -39.334  33.626   8.596  0.00  0.00    -0.294 N 
ATOM     30  C8  ANP d   1     -39.306  34.858   8.047  0.00  0.00     0.071 A 
ATOM     31  N7  ANP d   1     -39.795  35.770   8.935  0.00  0.00    -0.236 NA
ATOM     32  H   ANP d   1     -38.947  35.089   7.045  0.00  0.00     0.144 H 
ATOM     33  C5  ANP d   1     -40.128  35.117  10.052  0.00  0.00     0.149 A 
ATOM     34  C6  ANP d   1     -40.684  35.479  11.357  0.00  0.00     0.155 A 
ATOM     35  C4  ANP d   1     -39.826  33.713   9.829  0.00  0.00     0.167 A 
ATOM     36  N6  ANP d   1     -40.987  36.766  11.562  0.00  0.00    -0.382 N 
ATOM     37  N1  ANP d   1     -40.916  34.523  12.302  0.00  0.00    -0.222 NA
ATOM     38  H   ANP d   1     -41.380  37.065  12.466  0.00  0.00     0.157 HD
ATOM     39  H   ANP d   1     -40.827  37.458  10.816  0.00  0.00     0.157 HD
ATOM     40  C2  ANP d   1     -40.610  33.244  12.020  0.00  0.00     0.091 A 
ATOM     41  N3  ANP d   1     -40.080  32.853  10.831  0.00  0.00    -0.222 NA
ATOM     42  H   ANP d   1     -40.795  32.490  12.776  0.00  0.00     0.146 H 
ENDBRANCH   5  29
BRANCH   4  43
ATOM     43  O2' ANP d   1     -39.672  30.243   7.431  0.00  0.00    -0.388 OA
ATOM     44  H   ANP d   1     -40.260  29.729   6.890  0.00  0.00     0.210 HD
ENDBRANCH   4  43
TORSDOF 10
