REMARK  9 active torsions:
REMARK  status: ('A' for Active; 'I' for Inactive)
REMARK    1  A    between atoms: C3_1  and  N1_14 
REMARK    2  A    between atoms: N8_19  and  C4_2 
REMARK    3  A    between atoms: C7_3  and  N13_6 
REMARK    4  A    between atoms: N13_6  and  C14_16 
REMARK    5  A    between atoms: C15_7  and  C16_8 
REMARK    6  A    between atoms: C15_7  and  C18_10 
REMARK    7  A    between atoms: N1_14  and  C15_7 
REMARK    8  A    between atoms: C16_8  and  C17_9 
REMARK    9  A    between atoms: C18_10  and  C19_11 
ROOT
ATOM      1  C15 1S1 d   1     -43.818  91.801 115.667  0.00  0.00     0.135 C 
ATOM      2  N21 1S1 d   1     -42.990  93.826 114.223  0.00  0.00    -0.195 NA
ATOM      3  C20 1S1 d   1     -43.356  92.937 114.866  0.00  0.00     0.091 C 
ENDROOT
BRANCH   1   4
ATOM      4  C16 1S1 d   1     -44.977  92.272 116.563  0.00  0.00    -0.032 C 
ATOM      5  H3  1S1 d   1     -44.595  93.074 117.212  0.00  0.00     0.037 H 
ATOM      6  H4  1S1 d   1     -45.291  91.418 117.182  0.00  0.00     0.037 H 
BRANCH   4   7
ATOM      7  C17 1S1 d   1     -46.214  92.805 115.842  0.00  0.00    -0.073 C 
ATOM      8  H5  1S1 d   1     -46.968  93.109 116.583  0.00  0.00     0.027 H 
ATOM      9  H6  1S1 d   1     -46.630  92.017 115.197  0.00  0.00     0.027 H 
ATOM     10  H7  1S1 d   1     -45.934  93.673 115.227  0.00  0.00     0.027 H 
ENDBRANCH   4   7
ENDBRANCH   1   4
BRANCH   1  11
ATOM     11  C18 1S1 d   1     -44.240  90.689 114.666  0.00  0.00    -0.032 C 
ATOM     12  H8  1S1 d   1     -43.361  90.388 114.078  0.00  0.00     0.037 H 
ATOM     13  H9  1S1 d   1     -45.012  91.090 113.993  0.00  0.00     0.037 H 
BRANCH  11  14
ATOM     14  C19 1S1 d   1     -44.802  89.456 115.386  0.00  0.00    -0.073 C 
ATOM     15  H10 1S1 d   1     -45.087  88.696 114.644  0.00  0.00     0.027 H 
ATOM     16  H11 1S1 d   1     -45.686  89.745 115.973  0.00  0.00     0.027 H 
ATOM     17  H12 1S1 d   1     -44.035  89.043 116.058  0.00  0.00     0.027 H 
ENDBRANCH  11  14
ENDBRANCH   1  11
BRANCH   1  18
ATOM     18  N1  1S1 d   1     -42.765  91.297 116.576  0.00  0.00    -0.199 N 
ATOM     19  H13 1S1 d   1     -42.997  91.247 117.578  0.00  0.00     0.179 HD
BRANCH  18  20
ATOM     20  C3  1S1 d   1     -41.499  90.887 116.204  0.00  0.00     0.755 A 
ATOM     21  N5  1S1 d   1     -40.665  90.257 117.071  0.00  0.00     0.131 NA
ATOM     22  C7  1S1 d   1     -39.446  89.818 116.626  0.00  0.00     0.753 A 
ATOM     23  N6  1S1 d   1     -39.016  90.105 115.359  0.00  0.00     0.133 NA
ATOM     24  C4  1S1 d   1     -39.860  90.743 114.509  0.00  0.00     0.782 A 
ATOM     25  N2  1S1 d   1     -41.090  91.161 114.932  0.00  0.00     0.133 NA
BRANCH  22  26
ATOM     26  N13 1S1 d   1     -38.605  89.144 117.475  0.00  0.00    -0.226 N 
ATOM     27  H2  1S1 d   1     -38.902  89.002 118.451  0.00  0.00     0.177 HD
BRANCH  26  28
ATOM     28  C14 1S1 d   1     -37.307  88.618 117.057  0.00  0.00    -0.005 C 
ATOM     29  H14 1S1 d   1     -36.821  88.121 117.909  0.00  0.00     0.057 H 
ATOM     30  H15 1S1 d   1     -36.673  89.445 116.704  0.00  0.00     0.057 H 
ATOM     31  H16 1S1 d   1     -37.450  87.893 116.243  0.00  0.00     0.057 H 
ENDBRANCH  26  28
ENDBRANCH  22  26
BRANCH  24  32
ATOM     32  N8  1S1 d   1     -39.421  91.100 113.186  0.00  0.00    -0.051 N 
ATOM     33  N11 1S1 d   1     -38.361  90.711 112.646  0.00  0.00    -0.145 NA
ATOM     34  C12 1S1 d   1     -38.297  91.350 111.497  0.00  0.00     0.108 A 
ATOM     35  N10 1S1 d   1     -39.333  92.190 111.324  0.00  0.00    -0.233 NA
ATOM     36  H1  1S1 d   1     -37.497  91.214 110.770  0.00  0.00     0.149 H 
ATOM     37  C9  1S1 d   1     -40.044  92.030 112.442  0.00  0.00     0.107 A 
ATOM     38  H17 1S1 d   1     -40.961  92.556 112.704  0.00  0.00     0.147 H 
ENDBRANCH  24  32
ENDBRANCH  18  20
ENDBRANCH   1  18
TORSDOF 9
