REMARK  6 active torsions:
REMARK  status: ('A' for Active; 'I' for Inactive)
REMARK    1  A    between atoms: C5_5  and  C7_7 
REMARK       I    between atoms: C7_7  and  N9_9 
REMARK    2  A    between atoms: N9_9  and  C10_10 
REMARK    3  A    between atoms: C13_13  and  N16_16 
REMARK       I    between atoms: N16_16  and  C17_17 
REMARK    4  A    between atoms: C17_17  and  C19_19 
REMARK    5  A    between atoms: C22_22  and  O28_28 
REMARK    6  A    between atoms: C23_23  and  N25_25 
ROOT
ATOM      1  C10 1SE d   1      -7.900  22.813  69.710  0.00  0.00     0.035 A 
ATOM      2  C11 1SE d   1      -8.285  24.077  69.301  0.00  0.00    -0.055 A 
ATOM      3  C12 1SE d   1      -8.959  24.895  70.185  0.00  0.00    -0.055 A 
ATOM      4  C13 1SE d   1      -9.248  24.483  71.475  0.00  0.00     0.035 A 
ATOM      5  C14 1SE d   1      -8.815  23.243  71.893  0.00  0.00    -0.055 A 
ATOM      6  C15 1SE d   1      -8.152  22.410  71.011  0.00  0.00    -0.055 A 
ATOM      7  H   1SE d   1      -8.060  24.421  68.298  0.00  0.00     0.087 H 
ATOM      8  H   1SE d   1      -9.269  25.882  69.862  0.00  0.00     0.087 H 
ATOM      9  H   1SE d   1      -8.994  22.921  72.912  0.00  0.00     0.087 H 
ATOM     10  H   1SE d   1      -7.826  21.430  71.341  0.00  0.00     0.087 H 
ENDROOT
BRANCH   4  11
ATOM     11  N16 1SE d   1      -9.953  25.308  72.375  0.00  0.00    -0.323 N 
ATOM     12  C17 1SE d   1     -10.906  26.249  72.001  0.00  0.00     0.256 C 
ATOM     13  O18 1SE d   1     -11.238  26.496  70.853  0.00  0.00    -0.267 OA
ATOM     14  H   1SE d   1      -9.754  25.210  73.350  0.00  0.00     0.169 HD
BRANCH  12  15
ATOM     15  C19 1SE d   1     -11.524  27.046  73.085  0.00  0.00     0.034 A 
ATOM     16  C20 1SE d   1     -12.334  28.128  72.765  0.00  0.00    -0.065 A 
ATOM     17  C21 1SE d   1     -12.929  28.873  73.764  0.00  0.00    -0.048 A 
ATOM     18  H   1SE d   1     -12.500  28.389  71.726  0.00  0.00     0.085 H 
ATOM     19  C22 1SE d   1     -12.684  28.537  75.081  0.00  0.00     0.098 A 
ATOM     20  H   1SE d   1     -13.577  29.707  73.519  0.00  0.00     0.087 H 
ATOM     21  C23 1SE d   1     -11.874  27.463  75.399  0.00  0.00     0.136 A 
ATOM     22  C24 1SE d   1     -11.293  26.707  74.401  0.00  0.00    -0.033 A 
ATOM     23  H   1SE d   1     -10.664  25.859  74.648  0.00  0.00     0.089 H 
BRANCH  19  24
ATOM     24  O28 1SE d   1     -13.293  29.270  76.069  0.00  0.00    -0.358 OA
ATOM     25  H   1SE d   1     -13.808  29.964  75.675  0.00  0.00     0.217 HD
ENDBRANCH  19  24
BRANCH  21  26
ATOM     26  N25 1SE d   1     -11.624  27.056  76.777  0.00  0.00    -0.113 N 
ATOM     27  O26 1SE d   1     -12.545  27.106  77.587  0.00  0.00    -0.532 OA
ATOM     28  O27 1SE d   1     -10.500  26.643  77.064  0.00  0.00    -0.532 OA
ENDBRANCH  21  26
ENDBRANCH  12  15
ENDBRANCH   4  11
BRANCH   1  29
ATOM     29  N9  1SE d   1      -7.215  22.006  68.777  0.00  0.00    -0.322 N 
ATOM     30  C7  1SE d   1      -7.371  20.632  68.694  0.00  0.00     0.274 C 
ATOM     31  O8  1SE d   1      -7.971  19.909  69.490  0.00  0.00    -0.266 OA
ATOM     32  H   1SE d   1      -6.583  22.450  68.142  0.00  0.00     0.169 HD
BRANCH  30  33
ATOM     33  C5  1SE d   1      -6.691  20.029  67.528  0.00  0.00     0.124 A 
ATOM     34  N4  1SE d   1      -6.379  18.725  67.641  0.00  0.00    -0.256 NA
ATOM     35  C3  1SE d   1      -5.763  18.175  66.585  0.00  0.00     0.003 A 
ATOM     36  C2  1SE d   1      -5.463  18.869  65.432  0.00  0.00    -0.066 A 
ATOM     37  H   1SE d   1      -5.486  17.128  66.641  0.00  0.00     0.114 H 
ATOM     38  C1  1SE d   1      -5.805  20.205  65.349  0.00  0.00    -0.079 A 
ATOM     39  H   1SE d   1      -4.967  18.375  64.605  0.00  0.00     0.085 H 
ATOM     40  C6  1SE d   1      -6.434  20.810  66.420  0.00  0.00    -0.050 A 
ATOM     41  H   1SE d   1      -5.582  20.773  64.453  0.00  0.00     0.083 H 
ATOM     42  H   1SE d   1      -6.715  21.857  66.391  0.00  0.00     0.087 H 
ENDBRANCH  30  33
ENDBRANCH   1  29
TORSDOF 6
