REMARK  2 active torsions:
REMARK  status: ('A' for Active; 'I' for Inactive)
REMARK    1  A    between atoms: C3_3  and  N10_10 
REMARK    2  A    between atoms: C5_5  and  N7_7 
ROOT
ATOM      1  C1  1SF d   1      83.735  35.437  35.366  0.00  0.00    -0.079 A 
ATOM      2  C2  1SF d   1      85.050  35.155  35.670  0.00  0.00    -0.057 A 
ATOM      3  C3  1SF d   1      85.924  34.717  34.697  0.00  0.00     0.041 A 
ATOM      4  C4  1SF d   1      85.485  34.557  33.399  0.00  0.00    -0.025 A 
ATOM      5  C5  1SF d   1      84.169  34.851  33.115  0.00  0.00     0.105 A 
ATOM      6  C6  1SF d   1      83.283  35.289  34.074  0.00  0.00    -0.051 A 
ATOM      7  H   1SF d   1      83.058  35.775  36.143  0.00  0.00     0.083 H 
ATOM      8  H   1SF d   1      85.402  35.279  36.688  0.00  0.00     0.086 H 
ATOM      9  H   1SF d   1      86.157  34.209  32.623  0.00  0.00     0.090 H 
ATOM     10  H   1SF d   1      82.254  35.512  33.818  0.00  0.00     0.087 H 
ENDROOT
BRANCH   3  11
ATOM     11  N10 1SF d   1      87.258  34.430  35.053  0.00  0.00    -0.299 N 
ATOM     12  C11 1SF d   1      87.436  33.311  35.943  0.00  0.00     0.012 C 
ATOM     13  C12 1SF d   1      88.638  33.549  36.819  0.00  0.00     0.025 C 
ATOM     14  H   1SF d   1      87.588  32.395  35.353  0.00  0.00     0.065 H 
ATOM     15  H   1SF d   1      86.541  33.198  36.572  0.00  0.00     0.065 H 
ATOM     16  C13 1SF d   1      89.831  33.815  35.952  0.00  0.00     0.227 C 
ATOM     17  H   1SF d   1      88.824  32.660  37.439  0.00  0.00     0.049 H 
ATOM     18  H   1SF d   1      88.454  34.417  37.469  0.00  0.00     0.049 H 
ATOM     19  O14 1SF d   1      90.938  33.399  36.261  0.00  0.00    -0.273 OA
ATOM     20  N15 1SF d   1      89.573  34.560  34.818  0.00  0.00    -0.279 N 
ATOM     21  C16 1SF d   1      88.332  34.925  34.330  0.00  0.00     0.329 C 
ATOM     22  H   1SF d   1      90.368  34.868  34.295  0.00  0.00     0.173 HD
ATOM     23  O17 1SF d   1      88.223  35.629  33.335  0.00  0.00    -0.246 OA
ENDBRANCH   3  11
BRANCH   5  24
ATOM     24  N7  1SF d   1      83.671  34.703  31.774  0.00  0.00    -0.116 N 
ATOM     25  O8  1SF d   1      84.317  34.015  30.977  0.00  0.00    -0.532 OA
ATOM     26  O9  1SF d   1      82.613  35.289  31.528  0.00  0.00    -0.532 OA
ENDBRANCH   5  24
TORSDOF 2
