REMARK  7 active torsions:
REMARK  status: ('A' for Active; 'I' for Inactive)
REMARK    1  A    between atoms: C1_1  and  O2_2 
REMARK    2  A    between atoms: O2_2  and  C3_3 
REMARK    3  A    between atoms: C5_5  and  C27_27 
REMARK    4  A    between atoms: C7_7  and  C9_9 
REMARK       I    between atoms: C9_9  and  N11_11 
REMARK    5  A    between atoms: N11_11  and  C12_12 
REMARK    6  A    between atoms: C15_15  and  N18_18 
REMARK       I    between atoms: N18_18  and  C19_19 
REMARK    7  A    between atoms: C19_19  and  C21_21 
ROOT
ATOM      1  C9  1SG d   1      42.913  57.692  17.980  0.00  0.00     0.256 C 
ATOM      2  O10 1SG d   1      42.505  57.837  16.837  0.00  0.00    -0.267 OA
ATOM      3  N11 1SG d   1      43.912  56.823  18.373  0.00  0.00    -0.323 N 
ATOM      4  H   1SG d   1      44.163  56.815  19.341  0.00  0.00     0.169 HD
ENDROOT
BRANCH   1   5
ATOM      5  C7  1SG d   1      42.279  58.506  19.035  0.00  0.00     0.035 A 
ATOM      6  C6  1SG d   1      41.507  59.579  18.618  0.00  0.00    -0.057 A 
ATOM      7  C5  1SG d   1      40.854  60.367  19.545  0.00  0.00    -0.015 A 
ATOM      8  H   1SG d   1      41.416  59.800  17.561  0.00  0.00     0.086 H 
ATOM      9  C4  1SG d   1      40.970  60.058  20.887  0.00  0.00    -0.040 A 
ATOM     10  C3  1SG d   1      41.756  59.013  21.314  0.00  0.00     0.070 A 
ATOM     11  H   1SG d   1      40.431  60.651  21.617  0.00  0.00     0.089 H 
ATOM     12  C8  1SG d   1      42.427  58.223  20.385  0.00  0.00    -0.035 A 
ATOM     13  H   1SG d   1      43.054  57.401  20.711  0.00  0.00     0.089 H 
BRANCH   7  14
ATOM     14  C27 1SG d   1      39.972  61.454  19.146  0.00  0.00     0.058 A 
ATOM     15  C28 1SG d   1      39.189  61.283  18.076  0.00  0.00    -0.002 A 
ATOM     16  N29 1SG d   1      38.265  62.186  17.643  0.00  0.00    -0.318 N 
ATOM     17  H   1SG d   1      39.297  60.358  17.511  0.00  0.00     0.113 H 
ATOM     18  C30 1SG d   1      38.008  63.345  18.321  0.00  0.00     0.327 A 
ATOM     19  H   1SG d   1      37.759  61.995  16.802  0.00  0.00     0.170 HD
ATOM     20  O31 1SG d   1      37.154  64.137  17.950  0.00  0.00    -0.247 OA
ATOM     21  N32 1SG d   1      38.787  63.537  19.456  0.00  0.00    -0.275 N 
ATOM     22  C33 1SG d   1      39.774  62.706  19.932  0.00  0.00     0.261 A 
ATOM     23  H   1SG d   1      38.611  64.368  19.983  0.00  0.00     0.173 HD
ATOM     24  O34 1SG d   1      40.445  62.962  20.924  0.00  0.00    -0.267 OA
ENDBRANCH   7  14
BRANCH  10  25
ATOM     25  O2  1SG d   1      41.817  58.870  22.701  0.00  0.00    -0.356 OA
BRANCH  25  26
ATOM     26  C1  1SG d   1      41.920  57.517  23.097  0.00  0.00     0.010 C 
ATOM     27  H   1SG d   1      41.965  57.459  24.195  0.00  0.00     0.066 H 
ATOM     28  H   1SG d   1      42.833  57.078  22.669  0.00  0.00     0.066 H 
ATOM     29  H   1SG d   1      41.042  56.961  22.736  0.00  0.00     0.066 H 
ENDBRANCH  25  26
ENDBRANCH  10  25
ENDBRANCH   1   5
BRANCH   3  30
ATOM     30  C12 1SG d   1      44.603  55.948  17.514  0.00  0.00     0.035 A 
ATOM     31  C13 1SG d   1      44.805  54.651  17.934  0.00  0.00    -0.055 A 
ATOM     32  C14 1SG d   1      45.490  53.765  17.130  0.00  0.00    -0.055 A 
ATOM     33  H   1SG d   1      44.425  54.328  18.896  0.00  0.00     0.087 H 
ATOM     34  C15 1SG d   1      45.966  54.157  15.892  0.00  0.00     0.035 A 
ATOM     35  H   1SG d   1      45.657  52.750  17.472  0.00  0.00     0.087 H 
ATOM     36  C16 1SG d   1      45.784  55.461  15.473  0.00  0.00    -0.055 A 
ATOM     37  C17 1SG d   1      45.108  56.351  16.287  0.00  0.00    -0.055 A 
ATOM     38  H   1SG d   1      46.169  55.784  14.512  0.00  0.00     0.087 H 
ATOM     39  H   1SG d   1      44.971  57.376  15.962  0.00  0.00     0.087 H 
BRANCH  34  40
ATOM     40  N18 1SG d   1      46.691  53.288  15.046  0.00  0.00    -0.322 N 
ATOM     41  C19 1SG d   1      46.522  51.917  14.914  0.00  0.00     0.274 C 
ATOM     42  O20 1SG d   1      45.905  51.162  15.663  0.00  0.00    -0.266 OA
ATOM     43  H   1SG d   1      47.403  53.706  14.482  0.00  0.00     0.169 HD
BRANCH  41  44
ATOM     44  C21 1SG d   1      47.197  51.365  13.715  0.00  0.00     0.124 A 
ATOM     45  C22 1SG d   1      47.494  52.206  12.660  0.00  0.00    -0.050 A 
ATOM     46  C23 1SG d   1      48.119  51.653  11.559  0.00  0.00    -0.079 A 
ATOM     47  H   1SG d   1      47.246  53.261  12.695  0.00  0.00     0.087 H 
ATOM     48  C24 1SG d   1      48.418  50.303  11.550  0.00  0.00    -0.066 A 
ATOM     49  H   1SG d   1      48.373  52.274  10.707  0.00  0.00     0.083 H 
ATOM     50  C25 1SG d   1      48.078  49.549  12.655  0.00  0.00     0.003 A 
ATOM     51  H   1SG d   1      48.907  49.848  10.696  0.00  0.00     0.085 H 
ATOM     52  N26 1SG d   1      47.470  50.049  13.742  0.00  0.00    -0.256 NA
ATOM     53  H   1SG d   1      48.316  48.492  12.644  0.00  0.00     0.114 H 
ENDBRANCH  41  44
ENDBRANCH  34  40
ENDBRANCH   3  30
TORSDOF 7
