REMARK  11 active torsions:
REMARK  status: ('A' for Active; 'I' for Inactive)
REMARK    1  A    between atoms: N03_10  and  C20_17 
REMARK       I    between atoms: C21_22  and  N03_10 
REMARK    2  A    between atoms: N04_11  and  CA_23 
REMARK       I    between atoms: C06_25  and  N04_11 
REMARK       I    between atoms: N01_12  and  C06_25 
REMARK    3  A    between atoms: N_13  and  C15_34 
REMARK    4  A    between atoms: C20_17  and  C17_14 
REMARK    5  A    between atoms: C19_15  and  C02_19 
REMARK    6  A    between atoms: C19_15  and  C03_20 
REMARK    7  A    between atoms: C18_16  and  C04_21 
REMARK    8  A    between atoms: C20_17  and  C01_18 
REMARK    9  A    between atoms: CA_23  and  C21_22 
REMARK   10  A    between atoms: CA_23  and  C05_24 
REMARK   11  A    between atoms: C15_34  and  C_36 
ROOT
ATOM      1  CA  JPP d   1      -1.567   8.152  23.008  0.00  0.00     0.116 C 
ATOM      2  H15 JPP d   1      -1.434   8.062  21.920  0.00  0.00     0.095 H 
ENDROOT
BRANCH   1   3
ATOM      3  N04 JPP d   1      -0.234   8.254  23.624  0.00  0.00    -0.325 N 
ATOM      4  C06 JPP d   1       0.826   8.839  22.850  0.00  0.00     0.326 C 
ATOM      5  O04 JPP d   1       0.559   9.257  21.746  0.00  0.00    -0.247 OA
ATOM      6  N01 JPP d   1       2.196   8.874  23.421  0.00  0.00    -0.260 N 
ATOM      7  C09 JPP d   1       3.204   9.513  22.619  0.00  0.00     0.022 C 
ATOM      8  C11 JPP d   1       2.377   8.318  24.648  0.00  0.00     0.319 C 
ATOM      9  C10 JPP d   1       4.589   8.804  22.927  0.00  0.00     0.013 C 
ATOM     10  H18 JPP d   1       3.265  10.581  22.875  0.00  0.00     0.067 H 
ATOM     11  H19 JPP d   1       2.958   9.405  21.552  0.00  0.00     0.067 H 
ATOM     12  N   JPP d   1       4.770   8.696  24.436  0.00  0.00    -0.343 N 
ATOM     13  H20 JPP d   1       4.594   7.798  22.483  0.00  0.00     0.066 H 
ATOM     14  H21 JPP d   1       5.410   9.398  22.499  0.00  0.00     0.066 H 
ATOM     15  C14 JPP d   1       3.655   8.407  25.256  0.00  0.00     0.312 C 
ATOM     16  O   JPP d   1       3.786   8.329  26.467  0.00  0.00    -0.262 OA
ATOM     17  O05 JPP d   1       1.439   7.823  25.254  0.00  0.00    -0.262 OA
ATOM     18  H4  JPP d   1      -0.071   7.926  24.554  0.00  0.00     0.165 HD
BRANCH  12  19
ATOM     19  C15 JPP d   1       6.123   8.843  24.928  0.00  0.00    -0.005 C 
ATOM     20  H24 JPP d   1       6.103   9.054  26.007  0.00  0.00     0.063 H 
ATOM     21  H25 JPP d   1       6.620   9.671  24.402  0.00  0.00     0.063 H 
BRANCH  19  22
ATOM     22  C   JPP d   1       6.863   7.579  24.680  0.00  0.00    -0.061 C 
ATOM     23  H27 JPP d   1       7.894   7.679  25.050  0.00  0.00     0.029 H 
ATOM     24  H28 JPP d   1       6.880   7.370  23.600  0.00  0.00     0.029 H 
ATOM     25  H29 JPP d   1       6.363   6.752  25.206  0.00  0.00     0.029 H 
ENDBRANCH  19  22
ENDBRANCH  12  19
ENDBRANCH   1   3
BRANCH   1  26
ATOM     26  C21 JPP d   1      -2.074   6.856  23.518  0.00  0.00     0.245 C 
ATOM     27  O06 JPP d   1      -1.870   6.522  24.672  0.00  0.00    -0.271 OA
ATOM     28  N03 JPP d   1      -2.775   5.980  22.653  0.00  0.00    -0.345 N 
ATOM     29  H3  JPP d   1      -2.945   6.244  21.703  0.00  0.00     0.163 HD
BRANCH  28  30
ATOM     30  C20 JPP d   1      -3.248   4.693  23.150  0.00  0.00     0.099 C 
ATOM     31  H7  JPP d   1      -2.584   4.386  23.972  0.00  0.00     0.088 H 
BRANCH  30  32
ATOM     32  C17 JPP d   1      -4.669   4.557  23.665  0.00  0.00     0.173 C 
ATOM     33  S   JPP d   1      -5.446   6.028  24.319  0.00  0.00    -0.122 SA
ATOM     34  C19 JPP d   1      -6.758   6.093  23.097  0.00  0.00     0.041 C 
ATOM     35  C18 JPP d   1      -6.178   5.205  21.969  0.00  0.00     0.201 C 
ATOM     36  N02 JPP d   1      -5.597   4.094  22.633  0.00  0.00    -0.044 N 
ATOM     37  H6  JPP d   1      -5.390   5.768  21.447  0.00  0.00     0.104 H 
ATOM     38  H1  JPP d   1      -6.325   3.543  23.061  0.00  0.00     0.279 HD
ATOM     39  H2  JPP d   1      -5.098   3.529  21.964  0.00  0.00     0.279 HD
ATOM     40  H5  JPP d   1      -4.633   3.809  24.471  0.00  0.00     0.105 H 
BRANCH  34  41
ATOM     41  C02 JPP d   1      -8.044   5.495  23.634  0.00  0.00    -0.058 C 
ATOM     42  H9  JPP d   1      -8.825   5.551  22.861  0.00  0.00     0.029 H 
ATOM     43  H10 JPP d   1      -8.367   6.057  24.523  0.00  0.00     0.029 H 
ATOM     44  H11 JPP d   1      -7.873   4.443  23.907  0.00  0.00     0.029 H 
ENDBRANCH  34  41
BRANCH  34  45
ATOM     45  C03 JPP d   1      -6.993   7.533  22.629  0.00  0.00    -0.058 C 
ATOM     46  H12 JPP d   1      -7.800   7.548  21.882  0.00  0.00     0.029 H 
ATOM     47  H13 JPP d   1      -6.070   7.928  22.180  0.00  0.00     0.029 H 
ATOM     48  H14 JPP d   1      -7.278   8.156  23.489  0.00  0.00     0.029 H 
ENDBRANCH  34  45
BRANCH  35  49
ATOM     49  C04 JPP d   1      -7.171   4.783  20.952  0.00  0.00     0.206 C 
ATOM     50  O02 JPP d   1      -7.628   3.596  20.911  0.00  0.00    -0.646 OA
ATOM     51  O03 JPP d   1      -7.563   5.633  20.102  0.00  0.00    -0.646 OA
ENDBRANCH  35  49
ENDBRANCH  30  32
BRANCH  30  52
ATOM     52  C01 JPP d   1      -3.059   3.781  21.967  0.00  0.00     0.112 C 
ATOM     53  O01 JPP d   1      -2.781   4.270  20.868  0.00  0.00    -0.305 OA
ATOM     54  H8  JPP d   1      -3.166   2.703  22.079  0.00  0.00     0.146 H 
ENDBRANCH  30  52
ENDBRANCH  28  30
ENDBRANCH   1  26
BRANCH   1  55
ATOM     55  C05 JPP d   1      -2.472   9.337  23.209  0.00  0.00    -0.026 A 
ATOM     56  C07 JPP d   1      -3.672   9.443  22.337  0.00  0.00    -0.074 A 
ATOM     57  C12 JPP d   1      -4.545  10.502  22.465  0.00  0.00    -0.082 A 
ATOM     58  H16 JPP d   1      -3.862   8.679  21.592  0.00  0.00     0.084 H 
ATOM     59  C16 JPP d   1      -4.294  11.571  23.486  0.00  0.00    -0.083 A 
ATOM     60  H22 JPP d   1      -5.417  10.562  21.824  0.00  0.00     0.083 H 
ATOM     61  C13 JPP d   1      -3.185  11.476  24.288  0.00  0.00    -0.082 A 
ATOM     62  H26 JPP d   1      -4.978  12.406  23.589  0.00  0.00     0.083 H 
ATOM     63  C08 JPP d   1      -2.236  10.316  24.150  0.00  0.00    -0.074 A 
ATOM     64  H23 JPP d   1      -2.990  12.244  25.028  0.00  0.00     0.083 H 
ATOM     65  H17 JPP d   1      -1.365  10.250  24.792  0.00  0.00     0.084 H 
ENDBRANCH   1  55
TORSDOF 11
