REMARK  11 active torsions:
REMARK  status: ('A' for Active; 'I' for Inactive)
REMARK    1  A    between atoms: N03_10  and  C20_17 
REMARK       I    between atoms: C21_22  and  N03_10 
REMARK    2  A    between atoms: N04_11  and  CA_23 
REMARK       I    between atoms: C06_25  and  N04_11 
REMARK       I    between atoms: N01_12  and  C06_25 
REMARK    3  A    between atoms: N_13  and  C15_34 
REMARK    4  A    between atoms: C20_17  and  C17_14 
REMARK    5  A    between atoms: C19_15  and  C02_19 
REMARK    6  A    between atoms: C19_15  and  C03_20 
REMARK    7  A    between atoms: C18_16  and  C04_21 
REMARK    8  A    between atoms: C20_17  and  C01_18 
REMARK    9  A    between atoms: CA_23  and  C21_22 
REMARK   10  A    between atoms: CA_23  and  C05_24 
REMARK   11  A    between atoms: C15_34  and  C_36 
ROOT
ATOM      1  CA  VPP d   1      -1.821   8.396  22.893  0.00  0.00     0.116 C 
ATOM      2  H14 VPP d   1      -1.685   8.171  21.825  0.00  0.00     0.095 H 
ENDROOT
BRANCH   1   3
ATOM      3  N04 VPP d   1      -0.517   8.377  23.515  0.00  0.00    -0.325 N 
ATOM      4  C06 VPP d   1       0.582   9.070  22.901  0.00  0.00     0.326 C 
ATOM      5  O04 VPP d   1       0.406   9.686  21.863  0.00  0.00    -0.247 OA
ATOM      6  N01 VPP d   1       1.883   9.026  23.533  0.00  0.00    -0.260 N 
ATOM      7  C09 VPP d   1       3.006   9.764  22.902  0.00  0.00     0.022 C 
ATOM      8  C11 VPP d   1       2.085   8.288  24.746  0.00  0.00     0.319 C 
ATOM      9  C10 VPP d   1       4.387   9.073  23.175  0.00  0.00     0.013 C 
ATOM     10  H17 VPP d   1       3.033  10.786  23.309  0.00  0.00     0.067 H 
ATOM     11  H18 VPP d   1       2.838   9.806  21.816  0.00  0.00     0.067 H 
ATOM     12  N   VPP d   1       4.534   8.640  24.581  0.00  0.00    -0.343 N 
ATOM     13  H19 VPP d   1       4.476   8.191  22.523  0.00  0.00     0.066 H 
ATOM     14  H20 VPP d   1       5.191   9.786  22.939  0.00  0.00     0.066 H 
ATOM     15  C14 VPP d   1       3.400   8.248  25.354  0.00  0.00     0.312 C 
ATOM     16  O   VPP d   1       3.523   7.861  26.511  0.00  0.00    -0.262 OA
ATOM     17  O05 VPP d   1       1.159   7.674  25.271  0.00  0.00    -0.262 OA
ATOM     18  H4  VPP d   1      -0.379   7.882  24.373  0.00  0.00     0.165 HD
BRANCH  12  19
ATOM     19  C15 VPP d   1       5.887   8.606  25.151  0.00  0.00    -0.005 C 
ATOM     20  H23 VPP d   1       5.828   8.634  26.249  0.00  0.00     0.063 H 
ATOM     21  H24 VPP d   1       6.463   9.472  24.792  0.00  0.00     0.063 H 
BRANCH  19  22
ATOM     22  C   VPP d   1       6.560   7.327  24.709  0.00  0.00    -0.061 C 
ATOM     23  H26 VPP d   1       7.577   7.284  25.127  0.00  0.00     0.029 H 
ATOM     24  H27 VPP d   1       6.614   7.302  23.611  0.00  0.00     0.029 H 
ATOM     25  H28 VPP d   1       5.979   6.464  25.067  0.00  0.00     0.029 H 
ENDBRANCH  19  22
ENDBRANCH  12  19
ENDBRANCH   1   3
BRANCH   1  26
ATOM     26  C21 VPP d   1      -2.688   7.344  23.502  0.00  0.00     0.245 C 
ATOM     27  O06 VPP d   1      -2.419   6.896  24.607  0.00  0.00    -0.271 OA
ATOM     28  N03 VPP d   1      -3.836   6.931  22.727  0.00  0.00    -0.342 N 
ATOM     29  H3  VPP d   1      -3.997   7.331  21.825  0.00  0.00     0.163 HD
BRANCH  28  30
ATOM     30  C20 VPP d   1      -4.737   5.959  23.240  0.00  0.00     0.132 C 
ATOM     31  H7  VPP d   1      -4.603   5.886  24.329  0.00  0.00     0.094 H 
BRANCH  30  32
ATOM     32  C17 VPP d   1      -6.144   6.442  22.964  0.00  0.00     0.176 C 
ATOM     33  S   VPP d   1      -7.297   5.636  24.052  0.00  0.00    -0.122 SA
ATOM     34  C19 VPP d   1      -8.641   5.531  22.910  0.00  0.00     0.041 C 
ATOM     35  C18 VPP d   1      -8.107   6.176  21.632  0.00  0.00     0.201 C 
ATOM     36  N02 VPP d   1      -6.622   6.193  21.630  0.00  0.00    -0.044 N 
ATOM     37  H6  VPP d   1      -8.446   7.222  21.648  0.00  0.00     0.104 H 
ATOM     38  H1  VPP d   1      -6.276   5.302  21.310  0.00  0.00     0.279 HD
ATOM     39  H2  VPP d   1      -6.295   6.921  21.014  0.00  0.00     0.279 HD
ATOM     40  H5  VPP d   1      -6.166   7.527  23.145  0.00  0.00     0.105 H 
BRANCH  34  41
ATOM     41  C02 VPP d   1      -9.023   4.110  22.708  0.00  0.00    -0.058 C 
ATOM     42  H8  VPP d   1      -9.860   4.053  21.996  0.00  0.00     0.029 H 
ATOM     43  H9  VPP d   1      -9.329   3.672  23.670  0.00  0.00     0.029 H 
ATOM     44  H10 VPP d   1      -8.163   3.552  22.308  0.00  0.00     0.029 H 
ENDBRANCH  34  41
BRANCH  34  45
ATOM     45  C03 VPP d   1      -9.833   6.352  23.454  0.00  0.00    -0.058 C 
ATOM     46  H11 VPP d   1     -10.674   6.291  22.747  0.00  0.00     0.029 H 
ATOM     47  H12 VPP d   1      -9.530   7.403  23.573  0.00  0.00     0.029 H 
ATOM     48  H13 VPP d   1     -10.143   5.947  24.428  0.00  0.00     0.029 H 
ENDBRANCH  34  45
BRANCH  35  49
ATOM     49  C04 VPP d   1      -8.627   5.578  20.351  0.00  0.00     0.206 C 
ATOM     50  O02 VPP d   1      -7.923   4.789  19.678  0.00  0.00    -0.646 OA
ATOM     51  O03 VPP d   1      -9.791   5.857  19.940  0.00  0.00    -0.646 OA
ENDBRANCH  35  49
ENDBRANCH  30  32
BRANCH  30  52
ATOM     52  C01 VPP d   1      -4.441   4.616  22.650  0.00  0.00     0.199 C 
ATOM     53  O01 VPP d   1      -4.489   3.620  23.416  0.00  0.00    -0.646 OA
ATOM     54  O07 VPP d   1      -4.133   4.472  21.419  0.00  0.00    -0.646 OA
ENDBRANCH  30  52
ENDBRANCH  28  30
ENDBRANCH   1  26
BRANCH   1  55
ATOM     55  C05 VPP d   1      -2.536   9.714  23.002  0.00  0.00    -0.026 A 
ATOM     56  C07 VPP d   1      -3.150  10.247  21.841  0.00  0.00    -0.074 A 
ATOM     57  C12 VPP d   1      -3.838  11.474  21.921  0.00  0.00    -0.082 A 
ATOM     58  H15 VPP d   1      -3.091   9.715  20.899  0.00  0.00     0.084 H 
ATOM     59  C16 VPP d   1      -3.903  12.172  23.135  0.00  0.00    -0.083 A 
ATOM     60  H21 VPP d   1      -4.320  11.880  21.039  0.00  0.00     0.083 H 
ATOM     61  C13 VPP d   1      -3.282  11.636  24.285  0.00  0.00    -0.082 A 
ATOM     62  H25 VPP d   1      -4.428  13.119  23.191  0.00  0.00     0.083 H 
ATOM     63  C08 VPP d   1      -2.604  10.402  24.221  0.00  0.00    -0.074 A 
ATOM     64  H22 VPP d   1      -3.327  12.177  25.223  0.00  0.00     0.083 H 
ATOM     65  H16 VPP d   1      -2.139   9.988  25.108  0.00  0.00     0.084 H 
ENDBRANCH   1  55
TORSDOF 11
