REMARK  11 active torsions:
REMARK  status: ('A' for Active; 'I' for Inactive)
REMARK    1  A    between atoms: N03_10  and  C20_17 
REMARK       I    between atoms: C21_22  and  N03_10 
REMARK    2  A    between atoms: N04_11  and  CA_23 
REMARK       I    between atoms: C06_25  and  N04_11 
REMARK       I    between atoms: N01_12  and  C06_25 
REMARK    3  A    between atoms: N_13  and  C15_34 
REMARK    4  A    between atoms: C20_17  and  C17_14 
REMARK    5  A    between atoms: C19_15  and  C02_19 
REMARK    6  A    between atoms: C19_15  and  C03_20 
REMARK    7  A    between atoms: C18_16  and  C04_21 
REMARK    8  A    between atoms: C20_17  and  C01_18 
REMARK    9  A    between atoms: CA_23  and  C21_22 
REMARK   10  A    between atoms: CA_23  and  C05_24 
REMARK   11  A    between atoms: C15_34  and  C_36 
ROOT
ATOM      1  CA  VPP d   1      -1.453   8.540  23.030  0.00  0.00     0.116 C 
ATOM      2  H14 VPP d   1      -1.298   8.316  21.964  0.00  0.00     0.095 H 
ENDROOT
BRANCH   1   3
ATOM      3  N04 VPP d   1      -0.172   8.493  23.681  0.00  0.00    -0.325 N 
ATOM      4  C06 VPP d   1       0.964   9.153  23.097  0.00  0.00     0.326 C 
ATOM      5  O04 VPP d   1       0.850   9.759  22.048  0.00  0.00    -0.247 OA
ATOM      6  N01 VPP d   1       2.252   9.095  23.753  0.00  0.00    -0.260 N 
ATOM      7  C09 VPP d   1       3.385   9.816  23.117  0.00  0.00     0.022 C 
ATOM      8  C11 VPP d   1       2.448   8.360  24.963  0.00  0.00     0.319 C 
ATOM      9  C10 VPP d   1       4.763   9.183  23.445  0.00  0.00     0.013 C 
ATOM     10  H17 VPP d   1       3.383  10.857  23.473  0.00  0.00     0.067 H 
ATOM     11  H18 VPP d   1       3.243   9.801  22.026  0.00  0.00     0.067 H 
ATOM     12  N   VPP d   1       4.872   8.711  24.838  0.00  0.00    -0.343 N 
ATOM     13  H19 VPP d   1       4.923   8.327  22.773  0.00  0.00     0.066 H 
ATOM     14  H20 VPP d   1       5.544   9.937  23.270  0.00  0.00     0.066 H 
ATOM     15  C14 VPP d   1       3.736   8.298  25.588  0.00  0.00     0.312 C 
ATOM     16  O   VPP d   1       3.825   7.854  26.737  0.00  0.00    -0.262 OA
ATOM     17  O05 VPP d   1       1.530   7.766  25.499  0.00  0.00    -0.262 OA
ATOM     18  H4  VPP d   1      -0.071   7.999  24.544  0.00  0.00     0.165 HD
BRANCH  12  19
ATOM     19  C15 VPP d   1       6.228   8.669  25.410  0.00  0.00    -0.005 C 
ATOM     20  H23 VPP d   1       6.169   8.408  26.477  0.00  0.00     0.063 H 
ATOM     21  H24 VPP d   1       6.705   9.654  25.299  0.00  0.00     0.063 H 
BRANCH  19  22
ATOM     22  C   VPP d   1       7.045   7.625  24.677  0.00  0.00    -0.061 C 
ATOM     23  H26 VPP d   1       8.059   7.590  25.101  0.00  0.00     0.029 H 
ATOM     24  H27 VPP d   1       7.102   7.887  23.610  0.00  0.00     0.029 H 
ATOM     25  H28 VPP d   1       6.567   6.641  24.788  0.00  0.00     0.029 H 
ENDBRANCH  19  22
ENDBRANCH  12  19
ENDBRANCH   1   3
BRANCH   1  26
ATOM     26  C21 VPP d   1      -2.359   7.511  23.624  0.00  0.00     0.245 C 
ATOM     27  O06 VPP d   1      -2.122   7.041  24.721  0.00  0.00    -0.271 OA
ATOM     28  N03 VPP d   1      -3.497   7.112  22.832  0.00  0.00    -0.342 N 
ATOM     29  H3  VPP d   1      -3.627   7.505  21.922  0.00  0.00     0.163 HD
BRANCH  28  30
ATOM     30  C20 VPP d   1      -4.430   6.173  23.325  0.00  0.00     0.132 C 
ATOM     31  H7  VPP d   1      -4.348   6.136  24.421  0.00  0.00     0.094 H 
BRANCH  30  32
ATOM     32  C17 VPP d   1      -5.833   6.640  22.968  0.00  0.00     0.176 C 
ATOM     33  S   VPP d   1      -6.997   5.893  24.093  0.00  0.00    -0.122 SA
ATOM     34  C19 VPP d   1      -8.326   5.635  22.931  0.00  0.00     0.041 C 
ATOM     35  C18 VPP d   1      -7.786   6.334  21.679  0.00  0.00     0.201 C 
ATOM     36  N02 VPP d   1      -6.299   6.282  21.646  0.00  0.00    -0.044 N 
ATOM     37  H6  VPP d   1      -8.075   7.391  21.770  0.00  0.00     0.104 H 
ATOM     38  H1  VPP d   1      -5.990   5.352  21.410  0.00  0.00     0.279 HD
ATOM     39  H2  VPP d   1      -5.945   6.936  20.965  0.00  0.00     0.279 HD
ATOM     40  H5  VPP d   1      -5.861   7.735  23.067  0.00  0.00     0.105 H 
BRANCH  34  41
ATOM     41  C02 VPP d   1      -8.537   4.178  22.714  0.00  0.00    -0.058 C 
ATOM     42  H8  VPP d   1      -9.358   4.029  21.997  0.00  0.00     0.029 H 
ATOM     43  H9  VPP d   1      -8.794   3.698  23.670  0.00  0.00     0.029 H 
ATOM     44  H10 VPP d   1      -7.615   3.729  22.315  0.00  0.00     0.029 H 
ENDBRANCH  34  41
BRANCH  34  45
ATOM     45  C03 VPP d   1      -9.634   6.302  23.411  0.00  0.00    -0.058 C 
ATOM     46  H11 VPP d   1     -10.429   6.123  22.672  0.00  0.00     0.029 H 
ATOM     47  H12 VPP d   1      -9.474   7.385  23.523  0.00  0.00     0.029 H 
ATOM     48  H13 VPP d   1      -9.930   5.873  24.380  0.00  0.00     0.029 H 
ENDBRANCH  34  45
BRANCH  35  49
ATOM     49  C04 VPP d   1      -8.347   5.853  20.368  0.00  0.00     0.206 C 
ATOM     50  O02 VPP d   1      -7.660   5.141  19.592  0.00  0.00    -0.646 OA
ATOM     51  O03 VPP d   1      -9.532   6.175  20.062  0.00  0.00    -0.646 OA
ENDBRANCH  35  49
ENDBRANCH  30  32
BRANCH  30  52
ATOM     52  C01 VPP d   1      -4.126   4.807  22.794  0.00  0.00     0.199 C 
ATOM     53  O01 VPP d   1      -3.809   4.597  21.585  0.00  0.00    -0.646 OA
ATOM     54  O07 VPP d   1      -4.196   3.851  23.626  0.00  0.00    -0.646 OA
ENDBRANCH  30  52
ENDBRANCH  28  30
ENDBRANCH   1  26
BRANCH   1  55
ATOM     55  C05 VPP d   1      -2.154   9.858  23.136  0.00  0.00    -0.026 A 
ATOM     56  C07 VPP d   1      -2.773  10.413  21.994  0.00  0.00    -0.074 A 
ATOM     57  C12 VPP d   1      -3.439  11.652  22.080  0.00  0.00    -0.082 A 
ATOM     58  H15 VPP d   1      -2.736   9.884  21.049  0.00  0.00     0.084 H 
ATOM     59  C16 VPP d   1      -3.484  12.330  23.302  0.00  0.00    -0.083 A 
ATOM     60  H21 VPP d   1      -3.914  12.077  21.203  0.00  0.00     0.083 H 
ATOM     61  C13 VPP d   1      -2.853  11.780  24.437  0.00  0.00    -0.082 A 
ATOM     62  H25 VPP d   1      -4.004  13.278  23.377  0.00  0.00     0.083 H 
ATOM     63  C08 VPP d   1      -2.187  10.546  24.351  0.00  0.00    -0.074 A 
ATOM     64  H22 VPP d   1      -2.882  12.312  25.381  0.00  0.00     0.083 H 
ATOM     65  H16 VPP d   1      -1.700  10.129  25.225  0.00  0.00     0.084 H 
ENDBRANCH   1  55
TORSDOF 11
