REMARK  6 active torsions:
REMARK  status: ('A' for Active; 'I' for Inactive)
REMARK    1  A    between atoms: C12_2  and  N13_18 
REMARK    2  A    between atoms: C15_3  and  C17_4 
REMARK       I    between atoms: N13_18  and  C15_3 
REMARK    3  A    between atoms: C22_7  and  C27_10 
REMARK    4  A    between atoms: C27_10  and  C28_11 
REMARK    5  A    between atoms: C27_10  and  C32_20 
REMARK    6  A    between atoms: C27_10  and  C36_21 
ROOT
ATOM      1  C17 1SX d   1     -24.196  -5.078   7.618  0.00  0.00     0.032 A 
ATOM      2  C18 1SX d   1     -22.971  -4.450   7.803  0.00  0.00    -0.067 A 
ATOM      3  C20 1SX d   1     -22.814  -3.083   7.564  0.00  0.00    -0.075 A 
ATOM      4  C22 1SX d   1     -23.874  -2.282   7.136  0.00  0.00    -0.051 A 
ATOM      5  C23 1SX d   1     -25.105  -2.928   6.944  0.00  0.00    -0.075 A 
ATOM      6  C25 1SX d   1     -25.272  -4.298   7.186  0.00  0.00    -0.067 A 
ATOM      7  H3  1SX d   1     -22.121  -5.032   8.139  0.00  0.00     0.085 H 
ATOM      8  H4  1SX d   1     -21.840  -2.631   7.715  0.00  0.00     0.084 H 
ATOM      9  H5  1SX d   1     -25.953  -2.349   6.598  0.00  0.00     0.084 H 
ATOM     10  H6  1SX d   1     -26.243  -4.756   7.037  0.00  0.00     0.085 H 
ENDROOT
BRANCH   1  11
ATOM     11  C15 1SX d   1     -24.316  -6.561   7.895  0.00  0.00     0.270 C 
ATOM     12  N13 1SX d   1     -23.256  -7.399   7.691  0.00  0.00    -0.152 N 
ATOM     13  H12 1SX d   1     -22.412  -6.989   7.346  0.00  0.00     0.188 HD
ATOM     14  O16 1SX d   1     -25.419  -6.916   8.326  0.00  0.00    -0.267 OA
BRANCH  12  15
ATOM     15  C12 1SX d   1     -23.245  -8.745   7.916  0.00  0.00     0.730 A 
ATOM     16  N8  1SX d   1     -24.239  -9.557   7.714  0.00  0.00    -0.154 N 
ATOM     17  C5  1SX d   1     -25.587  -9.388   7.184  0.00  0.00     0.027 C 
ATOM     18  C9  1SX d   1     -23.830 -10.710   8.080  0.00  0.00     0.205 A 
ATOM     19  C2  1SX d   1     -25.867 -10.835   6.684  0.00  0.00    -0.000 C 
ATOM     20  H10 1SX d   1     -26.297  -9.082   7.966  0.00  0.00     0.067 H 
ATOM     21  H11 1SX d   1     -25.613  -8.660   6.360  0.00  0.00     0.067 H 
ATOM     22  S1  1SX d   1     -25.023 -11.939   7.891  0.00  0.00    -0.088 SA
ATOM     23  H1  1SX d   1     -26.949 -11.035   6.670  0.00  0.00     0.052 H 
ATOM     24  H2  1SX d   1     -25.454 -10.980   5.675  0.00  0.00     0.052 H 
ATOM     25  N10 1SX d   1     -22.630 -10.732   8.499  0.00  0.00    -0.107 NA
ATOM     26  N11 1SX d   1     -22.226  -9.358   8.391  0.00  0.00     0.045 NA
ENDBRANCH  12  15
ENDBRANCH   1  11
BRANCH   4  27
ATOM     27  C27 1SX d   1     -23.708  -0.754   6.857  0.00  0.00    -0.024 C 
BRANCH  27  28
ATOM     28  C28 1SX d   1     -23.055  -0.606   5.457  0.00  0.00    -0.066 C 
ATOM     29  H7  1SX d   1     -22.922   0.461   5.225  0.00  0.00     0.028 H 
ATOM     30  H8  1SX d   1     -23.705  -1.067   4.699  0.00  0.00     0.028 H 
ATOM     31  H9  1SX d   1     -22.076  -1.107   5.455  0.00  0.00     0.028 H 
ENDBRANCH  27  28
BRANCH  27  32
ATOM     32  C32 1SX d   1     -22.796  -0.001   7.876  0.00  0.00    -0.066 C 
ATOM     33  H13 1SX d   1     -23.227  -0.083   8.885  0.00  0.00     0.028 H 
ATOM     34  H14 1SX d   1     -22.727   1.060   7.592  0.00  0.00     0.028 H 
ATOM     35  H15 1SX d   1     -21.791  -0.449   7.869  0.00  0.00     0.028 H 
ENDBRANCH  27  32
BRANCH  27  36
ATOM     36  C36 1SX d   1     -25.095  -0.032   6.867  0.00  0.00    -0.066 C 
ATOM     37  H16 1SX d   1     -25.773  -0.531   6.160  0.00  0.00     0.028 H 
ATOM     38  H17 1SX d   1     -24.964   1.019   6.569  0.00  0.00     0.028 H 
ATOM     39  H18 1SX d   1     -25.524  -0.075   7.879  0.00  0.00     0.028 H 
ENDBRANCH  27  36
ENDBRANCH   4  27
TORSDOF 6
