REMARK  10 active torsions:
REMARK  status: ('A' for Active; 'I' for Inactive)
REMARK    1  A    between atoms: CAA_1  and  CAJ_2 
REMARK    2  A    between atoms: CAJ_2  and  CAT_3 
REMARK    3  A    between atoms: CAT_3  and  CAK_4 
REMARK    4  A    between atoms: CAT_3  and  OAO_6 
REMARK    5  A    between atoms: CAK_4  and  CAB_5 
REMARK    6  A    between atoms: OAO_6  and  CAV_7 
REMARK    7  A    between atoms: CAS_9  and  CAR_10 
REMARK    8  A    between atoms: CAU_14  and  NAM_15 
REMARK       I    between atoms: NAM_15  and  CAQ_16 
REMARK       I    between atoms: CAQ_16  and  NAE_17 
REMARK    9  A    between atoms: CAW_19  and  NAN_20 
REMARK       I    between atoms: NAN_20  and  CAP_21 
REMARK   10  A    between atoms: CAP_21  and  CAC_23 
ROOT
ATOM      1  CAV 1SJ d   1     -24.429 -19.919  -9.499  0.00  0.00     0.077 C 
ATOM      2  CAL 1SJ d   1     -23.770 -20.812  -8.469  0.00  0.00    -0.061 C 
ATOM      3  CAS 1SJ d   1     -22.496 -20.372  -8.037  0.00  0.00     0.019 C 
ATOM      4  CAI 1SJ d   1     -21.995 -19.081  -8.338  0.00  0.00    -0.013 C 
ATOM      5  CAU 1SJ d   1     -22.675 -18.147  -9.146  0.00  0.00     0.052 C 
ATOM      6  CAW 1SJ d   1     -24.184 -18.428  -9.194  0.00  0.00     0.060 C 
ATOM      7  H12 1SJ d   1     -24.026 -20.144 -10.497  0.00  0.00     0.093 H 
ATOM      8  H13 1SJ d   1     -24.238 -21.720  -8.091  0.00  0.00     0.082 H 
ATOM      9  H14 1SJ d   1     -21.021 -19.243  -8.822  0.00  0.00     0.043 H 
ATOM     10  H15 1SJ d   1     -21.844 -18.584  -7.368  0.00  0.00     0.043 H 
ATOM     11  H16 1SJ d   1     -22.280 -18.286 -10.163  0.00  0.00     0.077 H 
ATOM     12  H22 1SJ d   1     -24.652 -18.169  -8.233  0.00  0.00     0.080 H 
ENDROOT
BRANCH   1  13
ATOM     13  OAO 1SJ d   1     -25.795 -20.233  -9.459  0.00  0.00    -0.375 OA
BRANCH  13  14
ATOM     14  CAT 1SJ d   1     -26.261 -20.815 -10.700  0.00  0.00     0.039 C 
ATOM     15  H6  1SJ d   1     -25.834 -20.230 -11.528  0.00  0.00     0.083 H 
BRANCH  14  16
ATOM     16  CAJ 1SJ d   1     -25.788 -22.286 -10.859  0.00  0.00    -0.044 C 
ATOM     17  H4  1SJ d   1     -25.627 -22.498 -11.926  0.00  0.00     0.036 H 
ATOM     18  H5  1SJ d   1     -24.843 -22.420 -10.312  0.00  0.00     0.036 H 
BRANCH  16  19
ATOM     19  CAA 1SJ d   1     -26.848 -23.282 -10.296  0.00  0.00    -0.074 C 
ATOM     20  H1  1SJ d   1     -26.486 -24.313 -10.422  0.00  0.00     0.027 H 
ATOM     21  H2  1SJ d   1     -27.795 -23.157 -10.841  0.00  0.00     0.027 H 
ATOM     22  H3  1SJ d   1     -27.011 -23.079  -9.227  0.00  0.00     0.027 H 
ENDBRANCH  16  19
ENDBRANCH  14  16
BRANCH  14  23
ATOM     23  CAK 1SJ d   1     -27.813 -20.735 -10.800  0.00  0.00    -0.044 C 
ATOM     24  H7  1SJ d   1     -28.244 -21.669 -10.412  0.00  0.00     0.036 H 
ATOM     25  H8  1SJ d   1     -28.097 -20.611 -11.855  0.00  0.00     0.036 H 
BRANCH  23  26
ATOM     26  CAB 1SJ d   1     -28.369 -19.558  -9.994  0.00  0.00    -0.074 C 
ATOM     27  H9  1SJ d   1     -29.465 -19.534 -10.088  0.00  0.00     0.027 H 
ATOM     28  H10 1SJ d   1     -27.947 -18.618 -10.379  0.00  0.00     0.027 H 
ATOM     29  H11 1SJ d   1     -28.095 -19.676  -8.935  0.00  0.00     0.027 H 
ENDBRANCH  23  26
ENDBRANCH  14  23
ENDBRANCH  13  14
ENDBRANCH   1  13
BRANCH   6  30
ATOM     30  NAN 1SJ d   1     -24.729 -17.580 -10.270  0.00  0.00    -0.352 N 
ATOM     31  CAP 1SJ d   1     -25.523 -16.505 -10.090  0.00  0.00     0.214 C 
ATOM     32  OAF 1SJ d   1     -25.891 -16.101  -8.987  0.00  0.00    -0.274 OA
ATOM     33  H23 1SJ d   1     -24.490 -17.822 -11.210  0.00  0.00     0.163 HD
BRANCH  31  34
ATOM     34  CAC 1SJ d   1     -25.960 -15.789 -11.342  0.00  0.00    -0.003 C 
ATOM     35  H24 1SJ d   1     -26.599 -14.935 -11.072  0.00  0.00     0.040 H 
ATOM     36  H25 1SJ d   1     -26.525 -16.482 -11.982  0.00  0.00     0.040 H 
ATOM     37  H26 1SJ d   1     -25.075 -15.427 -11.885  0.00  0.00     0.040 H 
ENDBRANCH  31  34
ENDBRANCH   6  30
BRANCH   3  38
ATOM     38  CAR 1SJ d   1     -21.769 -21.315  -7.281  0.00  0.00     0.205 C 
ATOM     39  OAH 1SJ d   1     -20.722 -21.029  -6.666  0.00  0.00    -0.644 OA
ATOM     40  OAG 1SJ d   1     -22.172 -22.490  -7.209  0.00  0.00    -0.644 OA
ENDBRANCH   3  38
BRANCH   5  41
ATOM     41  NAM 1SJ d   1     -22.484 -16.706  -8.810  0.00  0.00    -0.220 N 
ATOM     42  CAQ 1SJ d   1     -22.345 -15.690  -9.699  0.00  0.00     0.665 C 
ATOM     43  NAE 1SJ d   1     -22.372 -15.923 -11.004  0.00  0.00    -0.235 N 
ATOM     44  NAD 1SJ d   1     -22.178 -14.421  -9.289  0.00  0.00    -0.235 N 
ATOM     45  H18 1SJ d   1     -22.265 -15.143 -11.669  0.00  0.00     0.174 HD
ATOM     46  H19 1SJ d   1     -22.500 -16.884 -11.353  0.00  0.00     0.174 HD
ATOM     47  H20 1SJ d   1     -22.152 -14.204  -8.282  0.00  0.00     0.174 HD
ATOM     48  H21 1SJ d   1     -22.076 -13.665  -9.981  0.00  0.00     0.174 HD
ATOM     49  H17 1SJ d   1     -22.455 -16.459  -7.810  0.00  0.00     0.178 HD
ENDBRANCH   5  41
TORSDOF 10
