REMARK  14 active torsions:
REMARK  status: ('A' for Active; 'I' for Inactive)
REMARK    1  A    between atoms: CAA_1  and  CAK_2 
REMARK    2  A    between atoms: CAK_2  and  CAX_3 
REMARK    3  A    between atoms: CAX_3  and  CAL_4 
REMARK    4  A    between atoms: CAX_3  and  OAS_6 
REMARK    5  A    between atoms: CAL_4  and  CAB_5 
REMARK    6  A    between atoms: OAS_6  and  CAZ_7 
REMARK    7  A    between atoms: CBA_8  and  NAR_9 
REMARK       I    between atoms: NAR_9  and  CAT_10 
REMARK    8  A    between atoms: CAT_10  and  CAC_11 
REMARK    9  A    between atoms: CAV_14  and  CAU_15 
REMARK   10  A    between atoms: CAY_19  and  NBB_20 
REMARK   11  A    between atoms: CAW_24  and  CAN_25 
REMARK   12  A    between atoms: CAN_25  and  CAM_26 
REMARK   13  A    between atoms: CAM_26  and  CAJ_27 
REMARK   14  A    between atoms: CAJ_27  and  OAF_28 
ROOT
ATOM      1  CAZ 1SL d   1     -24.502 -19.977 -39.962  0.00  0.00     0.064 C 
ATOM      2  CBA 1SL d   1     -24.215 -18.479 -39.824  0.00  0.00     0.062 C 
ATOM      3  CAO 1SL d   1     -23.803 -20.726 -38.840  0.00  0.00    -0.009 C 
ATOM      4  CAV 1SL d   1     -22.400 -20.250 -38.519  0.00  0.00     0.019 C 
ATOM      5  CAH 1SL d   1     -21.845 -19.199 -39.226  0.00  0.00    -0.065 C 
ATOM      6  CAY 1SL d   1     -22.722 -18.205 -39.985  0.00  0.00     0.074 C 
ATOM      7  H12 1SL d   1     -24.129 -20.335 -40.933  0.00  0.00     0.087 H 
ATOM      8  H13 1SL d   1     -24.567 -18.120 -38.845  0.00  0.00     0.080 H 
ATOM      9  H18 1SL d   1     -23.745 -21.787 -39.124  0.00  0.00     0.044 H 
ATOM     10  H19 1SL d   1     -24.413 -20.623 -37.931  0.00  0.00     0.044 H 
ATOM     11  H20 1SL d   1     -20.763 -19.078 -39.242  0.00  0.00     0.081 H 
ATOM     12  H21 1SL d   1     -22.491 -18.283 -41.057  0.00  0.00     0.085 H 
ENDROOT
BRANCH   1  13
ATOM     13  OAS 1SL d   1     -25.918 -20.206 -39.878  0.00  0.00    -0.378 OA
BRANCH  13  14
ATOM     14  CAX 1SL d   1     -26.250 -21.524 -39.415  0.00  0.00     0.038 C 
ATOM     15  H6  1SL d   1     -25.335 -22.118 -39.273  0.00  0.00     0.083 H 
BRANCH  14  16
ATOM     16  CAK 1SL d   1     -27.016 -21.410 -38.089  0.00  0.00    -0.044 C 
ATOM     17  H4  1SL d   1     -27.127 -20.344 -37.840  0.00  0.00     0.036 H 
ATOM     18  H5  1SL d   1     -28.011 -21.861 -38.221  0.00  0.00     0.036 H 
BRANCH  16  19
ATOM     19  CAA 1SL d   1     -26.311 -22.115 -36.916  0.00  0.00    -0.074 C 
ATOM     20  H1  1SL d   1     -26.911 -21.994 -36.002  0.00  0.00     0.027 H 
ATOM     21  H2  1SL d   1     -25.317 -21.669 -36.764  0.00  0.00     0.027 H 
ATOM     22  H3  1SL d   1     -26.201 -23.186 -37.144  0.00  0.00     0.027 H 
ENDBRANCH  16  19
ENDBRANCH  14  16
BRANCH  14  23
ATOM     23  CAL 1SL d   1     -27.152 -22.184 -40.452  0.00  0.00    -0.044 C 
ATOM     24  H7  1SL d   1     -27.683 -23.026 -39.984  0.00  0.00     0.036 H 
ATOM     25  H8  1SL d   1     -26.535 -22.556 -41.283  0.00  0.00     0.036 H 
BRANCH  23  26
ATOM     26  CAB 1SL d   1     -28.175 -21.184 -40.995  0.00  0.00    -0.074 C 
ATOM     27  H9  1SL d   1     -28.814 -21.681 -41.740  0.00  0.00     0.027 H 
ATOM     28  H10 1SL d   1     -27.649 -20.341 -41.467  0.00  0.00     0.027 H 
ATOM     29  H11 1SL d   1     -28.798 -20.811 -40.169  0.00  0.00     0.027 H 
ENDBRANCH  23  26
ENDBRANCH  14  23
ENDBRANCH  13  14
ENDBRANCH   1  13
BRANCH   2  30
ATOM     30  NAR 1SL d   1     -24.889 -17.758 -40.913  0.00  0.00    -0.352 N 
ATOM     31  CAT 1SL d   1     -25.480 -16.583 -40.758  0.00  0.00     0.214 C 
ATOM     32  OAD 1SL d   1     -25.598 -16.017 -39.678  0.00  0.00    -0.274 OA
ATOM     33  H14 1SL d   1     -24.902 -18.178 -41.821  0.00  0.00     0.163 HD
BRANCH  31  34
ATOM     34  CAC 1SL d   1     -25.954 -15.935 -42.056  0.00  0.00    -0.003 C 
ATOM     35  H15 1SL d   1     -26.430 -14.969 -41.831  0.00  0.00     0.040 H 
ATOM     36  H16 1SL d   1     -26.681 -16.595 -42.551  0.00  0.00     0.040 H 
ATOM     37  H17 1SL d   1     -25.093 -15.774 -42.721  0.00  0.00     0.040 H 
ENDBRANCH  31  34
ENDBRANCH   2  30
BRANCH   6  38
ATOM     38  NBB 1SL d   1     -22.331 -16.870 -39.520  0.00  0.00    -0.250 N 
ATOM     39  CAI 1SL d   1     -21.535 -16.704 -38.475  0.00  0.00     0.026 A 
ATOM     40  CAW 1SL d   1     -21.380 -15.399 -38.405  0.00  0.00     0.075 A 
ATOM     41  H22 1SL d   1     -21.109 -17.468 -37.826  0.00  0.00     0.117 H 
ATOM     42  NAP 1SL d   1     -22.093 -14.875 -39.412  0.00  0.00    -0.135 NA
ATOM     43  NAQ 1SL d   1     -22.631 -15.789 -40.045  0.00  0.00    -0.065 NA
BRANCH  40  44
ATOM     44  CAN 1SL d   1     -20.524 -14.651 -37.381  0.00  0.00    -0.020 C 
ATOM     45  H23 1SL d   1     -21.193 -14.063 -36.736  0.00  0.00     0.042 H 
ATOM     46  H24 1SL d   1     -19.849 -13.973 -37.924  0.00  0.00     0.042 H 
BRANCH  44  47
ATOM     47  CAM 1SL d   1     -19.676 -15.562 -36.491  0.00  0.00    -0.040 C 
ATOM     48  H25 1SL d   1     -18.943 -16.107 -37.104  0.00  0.00     0.036 H 
ATOM     49  H26 1SL d   1     -20.323 -16.281 -35.967  0.00  0.00     0.036 H 
BRANCH  47  50
ATOM     50  CAJ 1SL d   1     -18.949 -14.676 -35.473  0.00  0.00     0.017 C 
ATOM     51  H27 1SL d   1     -19.691 -14.084 -34.917  0.00  0.00     0.073 H 
ATOM     52  H28 1SL d   1     -18.267 -13.999 -36.008  0.00  0.00     0.073 H 
BRANCH  50  53
ATOM     53  OAF 1SL d   1     -18.198 -15.460 -34.554  0.00  0.00    -0.401 OA
ATOM     54  H29 1SL d   1     -17.759 -14.887 -33.936  0.00  0.00     0.209 HD
ENDBRANCH  50  53
ENDBRANCH  47  50
ENDBRANCH  44  47
ENDBRANCH  40  44
ENDBRANCH   6  38
BRANCH   4  55
ATOM     55  CAU 1SL d   1     -21.498 -21.280 -37.852  0.00  0.00     0.205 C 
ATOM     56  OAG 1SL d   1     -20.398 -20.904 -37.371  0.00  0.00    -0.644 OA
ATOM     57  OAE 1SL d   1     -22.001 -22.421 -37.722  0.00  0.00    -0.644 OA
ENDBRANCH   4  55
TORSDOF 14
