REMARK  14 active torsions:
REMARK  status: ('A' for Active; 'I' for Inactive)
REMARK    1  A    between atoms: CAD_1  and  CBB_2 
REMARK    2  A    between atoms: CBB_2  and  CAE_3 
REMARK    3  A    between atoms: CBB_2  and  OAI_4 
REMARK    4  A    between atoms: CBB_2  and  CAV_5 
REMARK    5  A    between atoms: NBA_9  and  CAX_10 
REMARK    6  A    between atoms: CAZ_11  and  NAQ_12 
REMARK       I    between atoms: NAQ_12  and  CAS_13 
REMARK    7  A    between atoms: CAS_13  and  CAC_15 
REMARK    8  A    between atoms: CAU_17  and  CAT_18 
REMARK    9  A    between atoms: CAY_22  and  OAR_23 
REMARK   10  A    between atoms: OAR_23  and  CAW_24 
REMARK   11  A    between atoms: CAW_24  and  CAM_25 
REMARK   12  A    between atoms: CAW_24  and  CAL_27 
REMARK   13  A    between atoms: CAM_25  and  CAB_26 
REMARK   14  A    between atoms: CAL_27  and  CAA_28 
ROOT
ATOM      1  CAX 1SO d   1     -18.676 -22.919  12.942  0.00  0.00     0.074 C 
ATOM      2  CAZ 1SO d   1     -18.764 -24.425  13.189  0.00  0.00     0.062 C 
ATOM      3  CAJ 1SO d   1     -19.677 -22.472  12.067  0.00  0.00    -0.065 C 
ATOM      4  CAU 1SO d   1     -20.930 -23.093  11.923  0.00  0.00     0.019 C 
ATOM      5  CAN 1SO d   1     -21.238 -24.314  12.520  0.00  0.00    -0.009 C 
ATOM      6  CAY 1SO d   1     -20.237 -24.870  13.488  0.00  0.00     0.064 C 
ATOM      7  H9  1SO d   1     -18.807 -22.393  13.899  0.00  0.00     0.085 H 
ATOM      8  H10 1SO d   1     -18.451 -24.938  12.268  0.00  0.00     0.080 H 
ATOM      9  H15 1SO d   1     -19.471 -21.590  11.462  0.00  0.00     0.081 H 
ATOM     10  H16 1SO d   1     -21.368 -25.053  11.716  0.00  0.00     0.044 H 
ATOM     11  H17 1SO d   1     -22.188 -24.189  13.060  0.00  0.00     0.044 H 
ATOM     12  H18 1SO d   1     -20.483 -24.526  14.503  0.00  0.00     0.087 H 
ENDROOT
BRANCH   1  13
ATOM     13  NBA 1SO d   1     -17.332 -22.651  12.439  0.00  0.00    -0.250 N 
ATOM     14  CAK 1SO d   1     -16.242 -22.509  13.147  0.00  0.00     0.029 A 
ATOM     15  CAV 1SO d   1     -15.374 -22.298  12.220  0.00  0.00     0.109 A 
ATOM     16  H8  1SO d   1     -16.106 -22.556  14.226  0.00  0.00     0.117 H 
ATOM     17  NAO 1SO d   1     -15.978 -22.318  11.060  0.00  0.00    -0.132 NA
ATOM     18  NAP 1SO d   1     -17.102 -22.528  11.260  0.00  0.00    -0.065 NA
BRANCH  15  19
ATOM     19  CBB 1SO d   1     -13.900 -22.051  12.415  0.00  0.00     0.098 C 
BRANCH  19  20
ATOM     20  CAD 1SO d   1     -13.260 -23.417  12.491  0.00  0.00    -0.043 C 
ATOM     21  H1  1SO d   1     -13.450 -23.963  11.555  0.00  0.00     0.032 H 
ATOM     22  H2  1SO d   1     -13.689 -23.976  13.335  0.00  0.00     0.032 H 
ATOM     23  H3  1SO d   1     -12.175 -23.306  12.638  0.00  0.00     0.032 H 
ENDBRANCH  19  20
BRANCH  19  24
ATOM     24  CAE 1SO d   1     -13.381 -21.211  11.248  0.00  0.00    -0.043 C 
ATOM     25  H4  1SO d   1     -13.884 -20.233  11.248  0.00  0.00     0.032 H 
ATOM     26  H5  1SO d   1     -13.590 -21.730  10.301  0.00  0.00     0.032 H 
ATOM     27  H6  1SO d   1     -12.296 -21.066  11.355  0.00  0.00     0.032 H 
ENDBRANCH  19  24
BRANCH  19  28
ATOM     28  OAI 1SO d   1     -13.623 -21.399  13.642  0.00  0.00    -0.384 OA
ATOM     29  H7  1SO d   1     -13.949 -21.928  14.361  0.00  0.00     0.211 HD
ENDBRANCH  19  28
ENDBRANCH  15  19
ENDBRANCH   1  13
BRANCH   2  30
ATOM     30  NAQ 1SO d   1     -17.802 -24.808  14.266  0.00  0.00    -0.352 N 
ATOM     31  CAS 1SO d   1     -16.702 -25.581  14.030  0.00  0.00     0.214 C 
ATOM     32  OAF 1SO d   1     -15.890 -25.920  14.869  0.00  0.00    -0.274 OA
ATOM     33  H11 1SO d   1     -17.971 -24.485  15.197  0.00  0.00     0.163 HD
BRANCH  31  34
ATOM     34  CAC 1SO d   1     -16.493 -26.030  12.599  0.00  0.00    -0.003 C 
ATOM     35  H12 1SO d   1     -15.581 -26.642  12.536  0.00  0.00     0.040 H 
ATOM     36  H13 1SO d   1     -16.388 -25.148  11.950  0.00  0.00     0.040 H 
ATOM     37  H14 1SO d   1     -17.358 -26.626  12.272  0.00  0.00     0.040 H 
ENDBRANCH  31  34
ENDBRANCH   2  30
BRANCH   6  38
ATOM     38  OAR 1SO d   1     -20.448 -26.313  13.405  0.00  0.00    -0.378 OA
BRANCH  38  39
ATOM     39  CAW 1SO d   1     -20.367 -26.972  14.696  0.00  0.00     0.038 C 
ATOM     40  H19 1SO d   1     -19.533 -26.517  15.250  0.00  0.00     0.083 H 
BRANCH  39  41
ATOM     41  CAM 1SO d   1     -20.074 -28.464  14.552  0.00  0.00    -0.044 C 
ATOM     42  H20 1SO d   1     -20.927 -28.945  14.051  0.00  0.00     0.036 H 
ATOM     43  H21 1SO d   1     -19.945 -28.898  15.555  0.00  0.00     0.036 H 
BRANCH  41  44
ATOM     44  CAB 1SO d   1     -18.811 -28.729  13.736  0.00  0.00    -0.074 C 
ATOM     45  H22 1SO d   1     -18.644 -29.814  13.661  0.00  0.00     0.027 H 
ATOM     46  H23 1SO d   1     -17.949 -28.258  14.231  0.00  0.00     0.027 H 
ATOM     47  H24 1SO d   1     -18.930 -28.306  12.728  0.00  0.00     0.027 H 
ENDBRANCH  41  44
ENDBRANCH  39  41
BRANCH  39  48
ATOM     48  CAL 1SO d   1     -21.632 -26.762  15.503  0.00  0.00    -0.044 C 
ATOM     49  H25 1SO d   1     -21.613 -25.756  15.947  0.00  0.00     0.036 H 
ATOM     50  H26 1SO d   1     -21.679 -27.516  16.303  0.00  0.00     0.036 H 
BRANCH  48  51
ATOM     51  CAA 1SO d   1     -22.870 -26.895  14.617  0.00  0.00    -0.074 C 
ATOM     52  H27 1SO d   1     -23.774 -26.739  15.224  0.00  0.00     0.027 H 
ATOM     53  H28 1SO d   1     -22.896 -27.901  14.172  0.00  0.00     0.027 H 
ATOM     54  H29 1SO d   1     -22.831 -26.141  13.817  0.00  0.00     0.027 H 
ENDBRANCH  48  51
ENDBRANCH  39  48
ENDBRANCH  38  39
ENDBRANCH   6  38
BRANCH   4  55
ATOM     55  CAT 1SO d   1     -21.954 -22.500  11.191  0.00  0.00     0.205 C 
ATOM     56  OAH 1SO d   1     -23.093 -22.593  11.635  0.00  0.00    -0.644 OA
ATOM     57  OAG 1SO d   1     -21.753 -21.895  10.119  0.00  0.00    -0.644 OA
ENDBRANCH   4  55
TORSDOF 14
