REMARK  8 active torsions:
REMARK  status: ('A' for Active; 'I' for Inactive)
REMARK    1  A    between atoms: C13_7  and  C27_27 
REMARK    2  A    between atoms: C15_8  and  N30_30 
REMARK    3  A    between atoms: O34_34  and  C17_9 
REMARK    4  A    between atoms: C20_10  and  N31_31 
REMARK    5  A    between atoms: C21_11  and  C25_26 
REMARK       I    between atoms: N31_31  and  C21_11 
REMARK    6  A    between atoms: C22_12  and  C26_14 
REMARK       I    between atoms: N30_30  and  C22_12 
REMARK    7  A    between atoms: C26_14  and  C12_20 
REMARK    8  A    between atoms: C16_22  and  O34_34 
ROOT
ATOM      1  C5  1SU d   1      41.390 -36.903   9.794  0.00  0.00    -0.051 A 
ATOM      2  C6  1SU d   1      42.748 -36.799   9.557  0.00  0.00    -0.046 A 
ATOM      3  C17 1SU d   1      43.582 -37.885   9.706  0.00  0.00     0.098 A 
ATOM      4  C20 1SU d   1      39.386 -39.652  10.817  0.00  0.00     0.174 A 
ATOM      5  C1  1SU d   1      43.939 -40.269  10.242  0.00  0.00     0.103 C 
ATOM      6  C11 1SU d   1      43.094 -39.116  10.087  0.00  0.00     0.098 A 
ATOM      7  C14 1SU d   1      40.873 -38.125  10.190  0.00  0.00     0.078 A 
ATOM      8  C19 1SU d   1      41.741 -39.200  10.328  0.00  0.00     0.060 A 
ATOM      9  N28 1SU d   1      44.588 -41.234  10.322  0.00  0.00    -0.191 NA
ATOM     10  N29 1SU d   1      39.549 -38.390  10.469  0.00  0.00    -0.223 NA
ATOM     11  S39 1SU d   1      40.840 -40.572  10.825  0.00  0.00    -0.048 SA
ATOM     12  H2  1SU d   1      40.741 -36.043   9.672  0.00  0.00     0.087 H 
ATOM     13  H3  1SU d   1      43.164 -35.846   9.249  0.00  0.00     0.087 H 
ENDROOT
BRANCH   3  14
ATOM     14  O34 1SU d   1      44.950 -37.865   9.461  0.00  0.00    -0.309 OA
BRANCH  14  15
ATOM     15  C16 1SU d   1      45.780 -36.759   9.530  0.00  0.00     0.078 A 
ATOM     16  C7  1SU d   1      45.802 -35.975  10.658  0.00  0.00    -0.047 A 
ATOM     17  C8  1SU d   1      46.663 -34.901  10.710  0.00  0.00    -0.041 A 
ATOM     18  H4  1SU d   1      45.151 -36.199  11.495  0.00  0.00     0.087 H 
ATOM     19  C18 1SU d   1      47.492 -34.633   9.638  0.00  0.00     0.143 A 
ATOM     20  H5  1SU d   1      46.690 -34.268  11.590  0.00  0.00     0.088 H 
ATOM     21  C15 1SU d   1      47.473 -35.416   8.509  0.00  0.00     0.076 A 
ATOM     22  F35 1SU d   1      48.344 -33.592   9.655  0.00  0.00    -0.204 F 
ATOM     23  C10 1SU d   1      46.617 -36.496   8.458  0.00  0.00    -0.021 A 
ATOM     24  H6  1SU d   1      46.599 -37.136   7.583  0.00  0.00     0.091 H 
BRANCH  21  25
ATOM     25  N30 1SU d   1      48.362 -35.073   7.469  0.00  0.00    -0.324 N 
ATOM     26  C22 1SU d   1      47.962 -34.861   6.171  0.00  0.00     0.226 C 
ATOM     27  O33 1SU d   1      47.026 -35.396   5.599  0.00  0.00    -0.273 OA
ATOM     28  H17 1SU d   1      49.333 -34.979   7.687  0.00  0.00     0.169 HD
BRANCH  26  29
ATOM     29  C26 1SU d   1      48.813 -33.829   5.522  0.00  0.00     0.033 C 
ATOM     30  H9  1SU d   1      49.732 -33.748   6.121  0.00  0.00     0.054 H 
ATOM     31  H10 1SU d   1      48.259 -32.880   5.570  0.00  0.00     0.054 H 
BRANCH  29  32
ATOM     32  C12 1SU d   1      49.237 -34.016   4.094  0.00  0.00    -0.049 A 
ATOM     33  C3  1SU d   1      50.392 -34.706   3.751  0.00  0.00    -0.076 A 
ATOM     34  C2  1SU d   1      50.763 -34.843   2.430  0.00  0.00    -0.082 A 
ATOM     35  H12 1SU d   1      51.008 -35.141   4.529  0.00  0.00     0.084 H 
ATOM     36  C4  1SU d   1      49.976 -34.265   1.451  0.00  0.00    -0.068 A 
ATOM     37  H11 1SU d   1      51.657 -35.395   2.163  0.00  0.00     0.083 H 
ATOM     38  C13 1SU d   1      48.830 -33.563   1.786  0.00  0.00     0.048 A 
ATOM     39  H1  1SU d   1      50.259 -34.362   0.409  0.00  0.00     0.084 H 
ATOM     40  C9  1SU d   1      48.466 -33.439   3.107  0.00  0.00    -0.062 A 
ATOM     41  H13 1SU d   1      47.572 -32.887   3.372  0.00  0.00     0.085 H 
BRANCH  38  42
ATOM     42  C27 1SU d   1      47.960 -32.914   0.763  0.00  0.00     0.417 C 
ATOM     43  F36 1SU d   1      48.677 -32.432  -0.293  0.00  0.00    -0.166 F 
ATOM     44  F37 1SU d   1      46.980 -33.692   0.242  0.00  0.00    -0.166 F 
ATOM     45  F38 1SU d   1      47.254 -31.887   1.306  0.00  0.00    -0.166 F 
ENDBRANCH  38  42
ENDBRANCH  29  32
ENDBRANCH  26  29
ENDBRANCH  21  25
ENDBRANCH  14  15
ENDBRANCH   3  14
BRANCH   4  46
ATOM     46  N31 1SU d   1      38.176 -40.253  11.164  0.00  0.00    -0.305 N 
ATOM     47  C21 1SU d   1      38.012 -41.611  11.468  0.00  0.00     0.227 C 
ATOM     48  O32 1SU d   1      38.771 -42.551  11.257  0.00  0.00    -0.273 OA
ATOM     49  H18 1SU d   1      37.364 -39.670  11.198  0.00  0.00     0.171 HD
BRANCH  47  50
ATOM     50  C25 1SU d   1      36.729 -41.920  12.132  0.00  0.00     0.024 A 
ATOM     51  C24 1SU d   1      35.446 -41.457  11.505  0.00  0.00    -0.053 A 
ATOM     52  C23 1SU d   1      35.809 -42.912  11.481  0.00  0.00    -0.053 A 
ATOM     53  H7  1SU d   1      34.619 -41.107  12.140  0.00  0.00     0.034 H 
ATOM     54  H8  1SU d   1      35.469 -40.869  10.576  0.00  0.00     0.034 H 
ATOM     55  H14 1SU d   1      36.098 -43.391  10.534  0.00  0.00     0.034 H 
ATOM     56  H15 1SU d   1      35.248 -43.629  12.098  0.00  0.00     0.034 H 
ATOM     57  H16 1SU d   1      36.853 -41.902  13.225  0.00  0.00     0.054 H 
ENDBRANCH  47  50
ENDBRANCH   4  46
TORSDOF 8
