REMARK  7 active torsions:
REMARK  status: ('A' for Active; 'I' for Inactive)
REMARK    1  A    between atoms: C5_5  and  O6_6 
REMARK    2  A    between atoms: O6_6  and  C7_7 
REMARK    3  A    between atoms: C12_12  and  N13_13 
REMARK       I    between atoms: N13_13  and  C14_14 
REMARK    4  A    between atoms: C14_14  and  C16_16 
REMARK    5  A    between atoms: C25_25  and  N26_26 
REMARK       I    between atoms: N26_26  and  C27_27 
REMARK       I    between atoms: C27_27  and  N29_29 
REMARK    6  A    between atoms: N29_29  and  C30_30 
REMARK    7  A    between atoms: C34_34  and  C36_36 
ROOT
ATOM      1  C7  1SW d   1      43.342 -37.300   9.463  0.00  0.00     0.098 A 
ATOM      2  C8  1SW d   1      42.495 -36.196   9.443  0.00  0.00    -0.046 A 
ATOM      3  C9  1SW d   1      41.153 -36.333   9.745  0.00  0.00    -0.051 A 
ATOM      4  C10 1SW d   1      40.580 -37.582  10.090  0.00  0.00     0.078 A 
ATOM      5  N11 1SW d   1      39.300 -37.903  10.425  0.00  0.00    -0.223 NA
ATOM      6  C12 1SW d   1      39.006 -39.136  10.670  0.00  0.00     0.174 A 
ATOM      7  S19 1SW d   1      40.491 -40.071  10.552  0.00  0.00    -0.048 SA
ATOM      8  C20 1SW d   1      41.432 -38.674  10.099  0.00  0.00     0.060 A 
ATOM      9  C21 1SW d   1      42.794 -38.548   9.782  0.00  0.00     0.098 A 
ATOM     10  C22 1SW d   1      43.627 -39.707   9.810  0.00  0.00     0.103 C 
ATOM     11  N23 1SW d   1      44.229 -40.668   9.847  0.00  0.00    -0.191 NA
ATOM     12  H3  1SW d   1      42.891 -35.220   9.188  0.00  0.00     0.087 H 
ATOM     13  H4  1SW d   1      40.518 -35.455   9.717  0.00  0.00     0.087 H 
ENDROOT
BRANCH   1  14
ATOM     14  O6  1SW d   1      44.669 -37.250   9.150  0.00  0.00    -0.309 OA
BRANCH  14  15
ATOM     15  C5  1SW d   1      45.500 -36.184   9.306  0.00  0.00     0.078 A 
ATOM     16  C4  1SW d   1      45.480 -35.432  10.474  0.00  0.00    -0.047 A 
ATOM     17  C3  1SW d   1      46.351 -34.361  10.610  0.00  0.00    -0.041 A 
ATOM     18  H2  1SW d   1      44.790 -35.680  11.272  0.00  0.00     0.087 H 
ATOM     19  C2  1SW d   1      47.246 -34.044   9.594  0.00  0.00     0.143 A 
ATOM     20  H1  1SW d   1      46.334 -33.766  11.516  0.00  0.00     0.088 H 
ATOM     21  F1  1SW d   1      48.097 -33.001   9.715  0.00  0.00    -0.204 F 
ATOM     22  C25 1SW d   1      47.275 -34.786   8.422  0.00  0.00     0.077 A 
ATOM     23  C24 1SW d   1      46.409 -35.873   8.289  0.00  0.00    -0.021 A 
ATOM     24  H11 1SW d   1      46.441 -36.480   7.392  0.00  0.00     0.091 H 
BRANCH  22  25
ATOM     25  N26 1SW d   1      48.226 -34.417   7.450  0.00  0.00    -0.306 N 
ATOM     26  C27 1SW d   1      48.040 -34.198   6.127  0.00  0.00     0.325 C 
ATOM     27  O28 1SW d   1      46.941 -34.295   5.614  0.00  0.00    -0.247 OA
ATOM     28  N29 1SW d   1      49.148 -33.866   5.418  0.00  0.00    -0.309 N 
ATOM     29  H13 1SW d   1      49.992 -33.798   5.951  0.00  0.00     0.170 HD
ATOM     30  H12 1SW d   1      49.162 -34.302   7.781  0.00  0.00     0.171 HD
BRANCH  28  31
ATOM     31  C30 1SW d   1      49.283 -33.603   4.041  0.00  0.00     0.037 A 
ATOM     32  C31 1SW d   1      50.568 -33.713   3.489  0.00  0.00    -0.057 A 
ATOM     33  C32 1SW d   1      50.801 -33.466   2.144  0.00  0.00    -0.080 A 
ATOM     34  H14 1SW d   1      51.397 -33.997   4.127  0.00  0.00     0.086 H 
ATOM     35  C33 1SW d   1      49.733 -33.104   1.333  0.00  0.00    -0.068 A 
ATOM     36  H15 1SW d   1      51.800 -33.554   1.733  0.00  0.00     0.083 H 
ATOM     37  C34 1SW d   1      48.447 -32.994   1.865  0.00  0.00     0.050 A 
ATOM     38  H16 1SW d   1      49.899 -32.906   0.280  0.00  0.00     0.084 H 
ATOM     39  C35 1SW d   1      48.218 -33.245   3.213  0.00  0.00    -0.043 A 
ATOM     40  H17 1SW d   1      47.216 -33.163   3.619  0.00  0.00     0.088 H 
BRANCH  37  41
ATOM     41  C36 1SW d   1      47.290 -32.606   0.975  0.00  0.00     0.417 C 
ATOM     42  F37 1SW d   1      47.770 -32.109  -0.247  0.00  0.00    -0.166 F 
ATOM     43  F38 1SW d   1      46.449 -33.708   0.778  0.00  0.00    -0.166 F 
ATOM     44  F39 1SW d   1      46.530 -31.625   1.606  0.00  0.00    -0.166 F 
ENDBRANCH  37  41
ENDBRANCH  28  31
ENDBRANCH  22  25
ENDBRANCH  14  15
ENDBRANCH   1  14
BRANCH   6  45
ATOM     45  N13 1SW d   1      37.771 -39.626  11.110  0.00  0.00    -0.305 N 
ATOM     46  C14 1SW d   1      37.452 -40.940  11.295  0.00  0.00     0.227 C 
ATOM     47  O15 1SW d   1      38.238 -41.803  10.997  0.00  0.00    -0.273 OA
ATOM     48  H5  1SW d   1      37.058 -38.953  11.306  0.00  0.00     0.171 HD
BRANCH  46  49
ATOM     49  C16 1SW d   1      36.136 -41.393  11.903  0.00  0.00     0.024 A 
ATOM     50  C17 1SW d   1      35.510 -42.714  11.452  0.00  0.00    -0.053 A 
ATOM     51  C18 1SW d   1      34.789 -41.388  11.190  0.00  0.00    -0.053 A 
ATOM     52  H7  1SW d   1      35.113 -43.419  12.198  0.00  0.00     0.034 H 
ATOM     53  H8  1SW d   1      35.952 -43.276  10.616  0.00  0.00     0.034 H 
ATOM     54  H9  1SW d   1      34.711 -40.998  10.165  0.00  0.00     0.034 H 
ATOM     55  H10 1SW d   1      33.873 -41.141  11.747  0.00  0.00     0.034 H 
ATOM     56  H6  1SW d   1      36.151 -41.137  12.973  0.00  0.00     0.054 H 
ENDBRANCH  46  49
ENDBRANCH   6  45
TORSDOF 7
