REMARK  8 active torsions:
REMARK  status: ('A' for Active; 'I' for Inactive)
REMARK    1  A    between atoms: C21_1  and  O23_3 
REMARK       I    between atoms: N20_12  and  C21_1 
REMARK    2  A    between atoms: O23_3  and  C42_4 
REMARK    3  A    between atoms: C18_10  and  N20_12 
REMARK    4  A    between atoms: C2_19  and  C6_23 
REMARK    5  A    between atoms: N7_26  and  S47_27 
REMARK    6  A    between atoms: S47_27  and  C48_30 
REMARK    7  A    between atoms: C13_38  and  O16_40 
REMARK    8  A    between atoms: O16_40  and  C30_41 
REMARK       I    between atoms: C30_41  and  N31_42 
ROOT
ATOM      1  C17 1X3 d   1      50.635  36.639 106.579  0.00  0.00     0.243 C 
ATOM      2  C18 1X3 d   1      50.896  35.697 107.767  0.00  0.00     0.091 C 
ATOM      3  O19 1X3 d   1      49.609  36.442 105.927  0.00  0.00    -0.271 OA
ATOM      4  C24 1X3 d   1      51.118  34.237 107.312  0.00  0.00    -0.038 C 
ATOM      5  C25 1X3 d   1      52.369  34.191 106.400  0.00  0.00    -0.063 C 
ATOM      6  C26 1X3 d   1      52.436  32.835 105.656  0.00  0.00    -0.065 C 
ATOM      7  C27 1X3 d   1      52.168  33.036 104.146  0.00  0.00    -0.065 C 
ATOM      8  C28 1X3 d   1      50.645  33.012 103.909  0.00  0.00    -0.065 C 
ATOM      9  C1  1X3 d   1      48.277  36.665 101.757  0.00  0.00    -0.028 A 
ATOM     10  C2  1X3 d   1      49.771  36.870 101.933  0.00  0.00     0.105 A 
ATOM     11  C3  1X3 d   1      49.104  35.637 102.511  0.00  0.00    -0.019 A 
ATOM     12  N4  1X3 d   1      50.223  37.824 102.908  0.00  0.00    -0.342 N 
ATOM     13  C8  1X3 d   1      49.345  34.240 102.007  0.00  0.00    -0.059 C 
ATOM     14  C29 1X3 d   1      50.209  33.305 102.459  0.00  0.00    -0.065 C 
ATOM     15  N10 1X3 d   1      51.553  37.595 106.226  0.00  0.00    -0.334 N 
ATOM     16  C11 1X3 d   1      51.384  38.490 105.067  0.00  0.00     0.094 C 
ATOM     17  C14 1X3 d   1      51.314  37.711 103.746  0.00  0.00     0.241 C 
ATOM     18  O15 1X3 d   1      52.224  36.909 103.549  0.00  0.00    -0.271 OA
ATOM     19  C12 1X3 d   1      52.568  39.474 105.118  0.00  0.00    -0.011 C 
ATOM     20  C13 1X3 d   1      52.912  39.503 106.612  0.00  0.00     0.067 C 
ATOM     21  C9  1X3 d   1      52.637  38.071 107.095  0.00  0.00     0.023 C 
ATOM     22  H10 1X3 d   1      51.805  36.036 108.285  0.00  0.00     0.087 H 
ATOM     23  H12 1X3 d   1      50.238  33.885 106.753  0.00  0.00     0.036 H 
ATOM     24  H13 1X3 d   1      51.276  33.594 108.191  0.00  0.00     0.036 H 
ATOM     25  H14 1X3 d   1      53.273  34.313 107.015  0.00  0.00     0.033 H 
ATOM     26  H15 1X3 d   1      52.313  35.007 105.665  0.00  0.00     0.033 H 
ATOM     27  H16 1X3 d   1      51.677  32.155 106.072  0.00  0.00     0.033 H 
ATOM     28  H17 1X3 d   1      53.435  32.396 105.792  0.00  0.00     0.033 H 
ATOM     29  H18 1X3 d   1      52.645  32.226 103.574  0.00  0.00     0.033 H 
ATOM     30  H19 1X3 d   1      52.578  34.004 103.823  0.00  0.00     0.033 H 
ATOM     31  H20 1X3 d   1      50.185  33.767 104.563  0.00  0.00     0.033 H 
ATOM     32  H21 1X3 d   1      50.272  32.014 104.183  0.00  0.00     0.033 H 
ATOM     33  H22 1X3 d   1      47.868  36.422 100.765  0.00  0.00     0.038 H 
ATOM     34  H23 1X3 d   1      47.566  37.305 102.300  0.00  0.00     0.038 H 
ATOM     35  H24 1X3 d   1      48.988  35.574 103.603  0.00  0.00     0.044 H 
ATOM     36  H25 1X3 d   1      49.687  38.664 102.988  0.00  0.00     0.163 HD
ATOM     37  H26 1X3 d   1      49.619  34.376 100.950  0.00  0.00     0.033 H 
ATOM     38  H27 1X3 d   1      48.360  33.754 102.071  0.00  0.00     0.033 H 
ATOM     39  H28 1X3 d   1      49.794  32.352 102.099  0.00  0.00     0.033 H 
ATOM     40  H29 1X3 d   1      51.148  33.520 101.928  0.00  0.00     0.033 H 
ATOM     41  H36 1X3 d   1      50.445  39.052 105.177  0.00  0.00     0.088 H 
ATOM     42  H37 1X3 d   1      52.272  40.471 104.759  0.00  0.00     0.040 H 
ATOM     43  H38 1X3 d   1      53.416  39.106 104.522  0.00  0.00     0.040 H 
ATOM     44  H39 1X3 d   1      53.964  39.784 106.769  0.00  0.00     0.086 H 
ATOM     45  H40 1X3 d   1      53.532  37.443 106.980  0.00  0.00     0.068 H 
ATOM     46  H41 1X3 d   1      52.321  38.069 108.148  0.00  0.00     0.068 H 
ENDROOT
BRANCH  20  47
ATOM     47  O16 1X3 d   1      52.053  40.406 107.311  0.00  0.00    -0.297 OA
BRANCH  47  48
ATOM     48  C30 1X3 d   1      52.052  41.702 107.081  0.00  0.00     0.363 C 
ATOM     49  N31 1X3 d   1      51.020  42.312 107.758  0.00  0.00    -0.324 N 
ATOM     50  C33 1X3 d   1      50.942  43.775 107.954  0.00  0.00     0.024 C 
ATOM     51  C37 1X3 d   1      50.231  41.569 108.745  0.00  0.00     0.004 C 
ATOM     52  C34 1X3 d   1      49.674  44.262 108.665  0.00  0.00    -0.034 A 
ATOM     53  H42 1X3 d   1      50.986  44.255 106.966  0.00  0.00     0.071 H 
ATOM     54  H43 1X3 d   1      51.811  44.087 108.552  0.00  0.00     0.071 H 
ATOM     55  C35 1X3 d   1      48.610  43.372 108.937  0.00  0.00    -0.049 A 
ATOM     56  C38 1X3 d   1      49.549  45.612 109.044  0.00  0.00    -0.075 A 
ATOM     57  C36 1X3 d   1      48.770  41.934 108.520  0.00  0.00    -0.025 C 
ATOM     58  C41 1X3 d   1      47.432  43.784 109.598  0.00  0.00    -0.076 A 
ATOM     59  H44 1X3 d   1      48.510  41.817 107.458  0.00  0.00     0.042 H 
ATOM     60  H45 1X3 d   1      48.121  41.289 109.130  0.00  0.00     0.042 H 
ATOM     61  C40 1X3 d   1      47.320  45.133 109.978  0.00  0.00    -0.082 A 
ATOM     62  H51 1X3 d   1      46.636  43.079 109.807  0.00  0.00     0.084 H 
ATOM     63  C39 1X3 d   1      48.371  46.035 109.699  0.00  0.00    -0.082 A 
ATOM     64  H50 1X3 d   1      46.427  45.481 110.485  0.00  0.00     0.083 H 
ATOM     65  H49 1X3 d   1      48.271  47.073 109.994  0.00  0.00     0.083 H 
ATOM     66  H48 1X3 d   1      50.346  46.317 108.836  0.00  0.00     0.084 H 
ATOM     67  H46 1X3 d   1      50.538  41.852 109.763  0.00  0.00     0.065 H 
ATOM     68  H47 1X3 d   1      50.375  40.487 108.606  0.00  0.00     0.065 H 
ATOM     69  O32 1X3 d   1      53.034  42.322 106.671  0.00  0.00    -0.238 OA
ENDBRANCH  47  48
ENDBRANCH  20  47
BRANCH   2  70
ATOM     70  N20 1X3 d   1      49.766  35.772 108.699  0.00  0.00    -0.324 N 
ATOM     71  C21 1X3 d   1      49.608  36.815 109.581  0.00  0.00     0.361 C 
ATOM     72  O22 1X3 d   1      50.515  37.595 109.887  0.00  0.00    -0.238 OA
ATOM     73  H11 1X3 d   1      49.086  35.038 108.693  0.00  0.00     0.165 HD
BRANCH  71  74
ATOM     74  O23 1X3 d   1      48.416  36.815 110.135  0.00  0.00    -0.299 OA
BRANCH  74  75
ATOM     75  C42 1X3 d   1      48.140  37.714 111.203  0.00  0.00     0.050 C 
ATOM     76  C46 1X3 d   1      46.927  37.231 112.002  0.00  0.00    -0.040 C 
ATOM     77  C45 1X3 d   1      45.735  37.792 111.216  0.00  0.00    -0.063 C 
ATOM     78  H2  1X3 d   1      46.946  37.631 113.026  0.00  0.00     0.036 H 
ATOM     79  H3  1X3 d   1      46.892  36.132 112.038  0.00  0.00     0.036 H 
ATOM     80  C44 1X3 d   1      46.243  38.981 110.387  0.00  0.00    -0.063 C 
ATOM     81  H4  1X3 d   1      44.952  38.127 111.912  0.00  0.00     0.033 H 
ATOM     82  H5  1X3 d   1      45.327  37.017 110.550  0.00  0.00     0.033 H 
ATOM     83  C43 1X3 d   1      47.754  39.089 110.646  0.00  0.00    -0.040 C 
ATOM     84  H6  1X3 d   1      45.738  39.906 110.702  0.00  0.00     0.033 H 
ATOM     85  H7  1X3 d   1      46.054  38.806 109.318  0.00  0.00     0.033 H 
ATOM     86  H8  1X3 d   1      48.296  39.297 109.712  0.00  0.00     0.036 H 
ATOM     87  H9  1X3 d   1      47.968  39.881 111.379  0.00  0.00     0.036 H 
ATOM     88  H1  1X3 d   1      49.022  37.796 111.855  0.00  0.00     0.084 H 
ENDBRANCH  74  75
ENDBRANCH  71  74
ENDBRANCH   2  70
BRANCH  10  89
ATOM     89  C6  1X3 d   1      50.688  36.809 100.730  0.00  0.00     0.193 C 
ATOM     90  O5  1X3 d   1      50.420  35.962  99.755  0.00  0.00    -0.174 OA
ATOM     91  N7  1X3 d   1      51.637  37.734 100.625  0.00  0.00    -0.263 N 
ATOM     92  H30 1X3 d   1      51.809  38.375 101.373  0.00  0.00     0.180 HD
BRANCH  91  93
ATOM     93  S47 1X3 d   1      52.547  37.805  99.204  0.00  0.00     0.236 S 
ATOM     94  O49 1X3 d   1      53.185  36.505  98.970  0.00  0.00    -0.205 OA
ATOM     95  O50 1X3 d   1      51.679  38.353  98.144  0.00  0.00    -0.205 OA
BRANCH  93  96
ATOM     96  C48 1X3 d   1      53.842  39.073  99.567  0.00  0.00     0.063 A 
ATOM     97  C52 1X3 d   1      54.622  39.472  98.332  0.00  0.00    -0.046 A 
ATOM     98  C51 1X3 d   1      53.558  40.396  98.882  0.00  0.00    -0.046 A 
ATOM     99  H32 1X3 d   1      54.454  38.944  97.382  0.00  0.00     0.035 H 
ATOM    100  H33 1X3 d   1      55.684  39.745  98.417  0.00  0.00     0.035 H 
ATOM    101  H34 1X3 d   1      53.847  41.340  99.368  0.00  0.00     0.035 H 
ATOM    102  H35 1X3 d   1      52.616  40.540  98.332  0.00  0.00     0.035 H 
ATOM    103  H31 1X3 d   1      54.287  38.986 100.569  0.00  0.00     0.066 H 
ENDBRANCH  93  96
ENDBRANCH  91  93
ENDBRANCH  10  89
TORSDOF 8
