REMARK  23 active torsions:
REMARK  status: ('A' for Active; 'I' for Inactive)
REMARK    1  A    between atoms: C_1  and  CH3_3 
REMARK       I    between atoms: C_1  and  N_4 
REMARK    2  A    between atoms: N_4  and  CA_5 
REMARK    3  A    between atoms: CA_5  and  C_6 
REMARK    4  A    between atoms: CA_5  and  CB_8 
REMARK       I    between atoms: C_6  and  N_12 
REMARK    5  A    between atoms: CB_8  and  CG1_9 
REMARK    6  A    between atoms: CB_8  and  CG2_10 
REMARK    7  A    between atoms: CG1_9  and  CD1_11 
REMARK    8  A    between atoms: N_12  and  CA_13 
REMARK    9  A    between atoms: CA_13  and  C_14 
REMARK   10  A    between atoms: CA_13  and  CB_16 
REMARK       I    between atoms: C_14  and  N_18 
REMARK   11  A    between atoms: CB_16  and  OG_17 
REMARK   12  A    between atoms: N_18  and  CA_19 
REMARK   13  A    between atoms: CB_22  and  CG2_24 
REMARK   14  A    between atoms: CA_26  and  CB_29 
REMARK   15  A    between atoms: CB_29  and  CG_30 
REMARK   16  A    between atoms: CG_30  and  CD_31 
REMARK   17  A    between atoms: CD_31  and  NE_32 
REMARK       I    between atoms: NE_32  and  CZ_33 
REMARK       I    between atoms: CZ_33  and  NH1_34 
REMARK   18  A    between atoms: CA_46  and  CB_49 
REMARK   19  A    between atoms: CB_49  and  CG_50 
REMARK   20  A    between atoms: CZ_55  and  OH_56 
REMARK   21  A    between atoms: CA_78  and  CB_81 
REMARK   22  A    between atoms: CB_81  and  CG_82 
REMARK   23  A    between atoms: CA_100  and  C_101 
ROOT
ATOM      1  N   SER d   1      34.663  -8.267  75.743  0.00  0.00    -0.344 N 
ATOM      2  CA  SER d   1      34.405  -9.031  76.930  0.00  0.00     0.110 C 
ATOM      3  C   SER d   1      33.601  -8.233  77.914  0.00  0.00     0.243 C 
ATOM      4  O   SER d   1      33.427  -6.975  77.681  0.00  0.00    -0.271 OA
ATOM      5  CB  SER d   1      35.731  -9.478  77.569  0.00  0.00     0.056 C 
ATOM      6  OG  SER d   1      36.412  -8.278  77.958  0.00  0.00    -0.319 OA
ATOM      7  H   SER d   1      34.502  -7.281  75.793  0.00  0.00     0.163 HD
ATOM      8  H   SER d   1      33.829  -9.926  76.652  0.00  0.00     0.090 H 
ATOM      9  H   SER d   1      36.335 -10.040  76.841  0.00  0.00     0.079 H 
ATOM     10  H   SER d   1      35.537 -10.108  78.449  0.00  0.00     0.079 H 
ATOM     11  CA  THR d   1      29.416 -12.787  80.098  0.00  0.00     0.114 C 
ATOM     12  C   THR d   1      29.948 -12.697  78.670  0.00  0.00     0.243 C 
ATOM     13  O   THR d   1      31.165 -12.671  78.379  0.00  0.00    -0.271 OA
ATOM     14  CB  THR d   1      28.890 -11.438  80.627  0.00  0.00     0.072 C 
ATOM     15  OG1 THR d   1      29.983 -10.608  81.068  0.00  0.00    -0.314 OA
ATOM     16  H   THR d   1      28.570 -13.489  80.089  0.00  0.00     0.091 H 
ATOM     17  H   THR d   1      28.335 -10.933  79.823  0.00  0.00     0.087 H 
ATOM     18  N   ARG d   1      29.050 -12.628  77.714  0.00  0.00    -0.346 N 
ATOM     19  CA  ARG d   1      29.336 -12.762  76.288  0.00  0.00     0.089 C 
ATOM     20  C   ARG d   1      29.179 -11.460  75.465  0.00  0.00     0.241 C 
ATOM     21  O   ARG d   1      28.900 -11.492  74.269  0.00  0.00    -0.271 OA
ATOM     22  H   ARG d   1      28.099 -12.472  77.983  0.00  0.00     0.163 HD
ATOM     23  H   ARG d   1      30.406 -13.011  76.225  0.00  0.00     0.087 H 
ATOM     24  N   LYS d   1      29.464 -10.328  76.134  0.00  0.00    -0.346 N 
ATOM     25  CA  LYS d   1      29.569  -9.052  75.398  0.00  0.00     0.089 C 
ATOM     26  C   LYS d   1      30.930  -8.949  74.718  0.00  0.00     0.241 C 
ATOM     27  O   LYS d   1      31.889  -9.612  75.152  0.00  0.00    -0.271 OA
ATOM     28  CB  LYS d   1      29.336  -7.946  76.404  0.00  0.00    -0.038 C 
ATOM     29  CG  LYS d   1      29.489  -6.520  75.859  0.00  0.00    -0.061 C 
ATOM     30  CD  LYS d   1      28.856  -5.468  76.777  0.00  0.00    -0.050 C 
ATOM     31  CE  LYS d   1      29.396  -4.060  76.519  0.00  0.00    -0.005 C 
ATOM     32  NZ  LYS d   1      30.800  -3.945  76.878  0.00  0.00    -0.361 N 
ATOM     33  H   LYS d   1      29.604 -10.351  77.124  0.00  0.00     0.163 HD
ATOM     34  H   LYS d   1      28.788  -9.006  74.624  0.00  0.00     0.087 H 
ATOM     35  H   LYS d   1      30.057  -8.075  77.224  0.00  0.00     0.036 H 
ATOM     36  H   LYS d   1      28.313  -8.052  76.795  0.00  0.00     0.036 H 
ATOM     37  H   LYS d   1      29.004  -6.465  74.873  0.00  0.00     0.033 H 
ATOM     38  H   LYS d   1      30.561  -6.296  75.753  0.00  0.00     0.033 H 
ATOM     39  H   LYS d   1      29.066  -5.740  77.822  0.00  0.00     0.035 H 
ATOM     40  H   LYS d   1      27.769  -5.464  76.611  0.00  0.00     0.035 H 
ATOM     41  H   LYS d   1      28.816  -3.341  77.117  0.00  0.00     0.064 H 
ATOM     42  H   LYS d   1      29.282  -3.825  75.451  0.00  0.00     0.064 H 
ATOM     43  H   LYS d   1      31.054  -4.365  77.749  0.00  0.00     0.162 HD
ATOM     44  N   TYR d   1      31.006  -8.195  73.651  0.00  0.00    -0.346 N 
ATOM     45  CA  TYR d   1      32.252  -7.950  72.921  0.00  0.00     0.093 C 
ATOM     46  C   TYR d   1      32.907  -6.628  73.421  0.00  0.00     0.243 C 
ATOM     47  O   TYR d   1      32.191  -5.647  73.579  0.00  0.00    -0.271 OA
ATOM     48  H   TYR d   1      30.169  -7.763  73.316  0.00  0.00     0.163 HD
ATOM     49  H   TYR d   1      32.941  -8.787  73.106  0.00  0.00     0.088 H 
ATOM     50  N   PRO d   1      34.251  -6.622  73.607  0.00  0.00    -0.337 N 
ATOM     51  CA  PRO d   1      35.152  -7.748  73.443  0.00  0.00     0.091 C 
ATOM     52  C   PRO d   1      35.089  -8.742  74.601  0.00  0.00     0.241 C 
ATOM     53  O   PRO d   1      35.464  -9.916  74.429  0.00  0.00    -0.271 OA
ATOM     54  CB  PRO d   1      36.545  -7.097  73.374  0.00  0.00    -0.036 C 
ATOM     55  CG  PRO d   1      36.348  -5.758  73.877  0.00  0.00    -0.048 C 
ATOM     56  CD  PRO d   1      34.934  -5.319  73.778  0.00  0.00    -0.001 C 
ATOM     57  H   PRO d   1      34.925  -8.279  72.507  0.00  0.00     0.087 H 
ATOM     58  H   PRO d   1      36.911  -7.072  72.337  0.00  0.00     0.036 H 
ATOM     59  H   PRO d   1      37.262  -7.646  74.002  0.00  0.00     0.036 H 
ATOM     60  H   PRO d   1      36.974  -5.066  73.295  0.00  0.00     0.035 H 
ATOM     61  H   PRO d   1      36.654  -5.729  74.933  0.00  0.00     0.035 H 
ATOM     62  H   PRO d   1      34.604  -4.806  74.694  0.00  0.00     0.064 H 
ATOM     63  H   PRO d   1      34.774  -4.661  72.911  0.00  0.00     0.064 H 
ATOM     64  N   ASP d   1      33.082  -8.785  78.982  0.00  0.00    -0.345 N 
ATOM     65  CA  ASP d   1      32.339  -8.017  79.967  0.00  0.00     0.098 C 
ATOM     66  C   ASP d   1      33.321  -7.107  80.739  0.00  0.00     0.241 C 
ATOM     67  O   ASP d   1      33.104  -5.917  80.905  0.00  0.00    -0.271 OA
ATOM     68  CB  ASP d   1      31.543  -8.928  80.894  0.00  0.00     0.043 C 
ATOM     69  CG  ASP d   1      30.479  -9.767  80.161  0.00  0.00     0.261 C 
ATOM     70  OD1 ASP d   1      30.244  -9.638  78.998  0.00  0.00    -0.265 OA
ATOM     71  H   ASP d   1      33.201  -9.768  79.125  0.00  0.00     0.163 HD
ATOM     72  H   ASP d   1      31.622  -7.374  79.435  0.00  0.00     0.088 H 
ATOM     73  H   ASP d   1      31.038  -8.305  81.646  0.00  0.00     0.051 H 
ATOM     74  H   ASP d   1      32.243  -9.613  81.395  0.00  0.00     0.051 H 
ATOM     75  N   TRP d   1      34.448  -7.639  81.147  0.00  0.00    -0.346 N 
ATOM     76  CA  TRP d   1      35.428  -6.891  81.946  0.00  0.00     0.093 C 
ATOM     77  C   TRP d   1      36.101  -5.793  81.105  0.00  0.00     0.241 C 
ATOM     78  O   TRP d   1      36.618  -4.785  81.711  0.00  0.00    -0.271 OA
ATOM     79  H   TRP d   1      34.648  -8.589  80.905  0.00  0.00     0.163 HD
ATOM     80  H   TRP d   1      34.901  -6.393  82.773  0.00  0.00     0.088 H 
ATOM     81  N   GLU d   1      36.243  -5.965  79.817  0.00  0.00    -0.346 N 
ATOM     82  CA  GLU d   1      37.020  -5.027  78.985  0.00  0.00     0.090 C 
ATOM     83  C   GLU d   1      36.417  -3.671  78.764  0.00  0.00     0.241 C 
ATOM     84  O   GLU d   1      37.125  -2.743  78.337  0.00  0.00    -0.271 OA
ATOM     85  CB  GLU d   1      37.293  -5.576  77.627  0.00  0.00    -0.029 C 
ATOM     86  CG  GLU d   1      38.173  -6.755  77.597  0.00  0.00     0.018 C 
ATOM     87  CD  GLU d   1      37.521  -8.037  77.224  0.00  0.00     0.258 C 
ATOM     88  OE2 GLU d   1      38.029  -8.832  76.464  0.00  0.00    -0.265 OA
ATOM     89  N   GLU d   1      35.124  -3.527  79.096  0.00  0.00    -0.345 N 
ATOM     90  CA  GLU d   1      34.434  -2.272  78.918  0.00  0.00     0.096 C 
ATOM     91  CB  GLU d   1      33.009  -2.554  78.386  0.00  0.00    -0.029 C 
ATOM     92  CG  GLU d   1      33.143  -3.204  76.948  0.00  0.00     0.011 C 
ATOM     93  CD  GLU d   1      31.845  -3.334  76.184  0.00  0.00     0.217 C 
ATOM     94  OE2 GLU d   1      31.570  -2.831  75.080  0.00  0.00    -0.274 OA
ATOM     95  H   GLU d   1      35.812  -6.756  79.383  0.00  0.00     0.163 HD
ATOM     96  H   GLU d   1      37.981  -4.881  79.500  0.00  0.00     0.087 H 
ATOM     97  H   GLU d   1      37.764  -4.784  77.027  0.00  0.00     0.037 H 
ATOM     98  H   GLU d   1      36.331  -5.857  77.173  0.00  0.00     0.037 H 
ATOM     99  H   GLU d   1      38.609  -6.877  78.600  0.00  0.00     0.048 H 
ATOM    100  H   GLU d   1      38.975  -6.560  76.870  0.00  0.00     0.048 H 
ATOM    101  H   GLU d   1      34.627  -4.308  79.475  0.00  0.00     0.163 HD
ATOM    102  H   GLU d   1      34.958  -1.686  78.148  0.00  0.00     0.089 H 
ATOM    103  H   GLU d   1      32.443  -1.613  78.319  0.00  0.00     0.037 H 
ATOM    104  H   GLU d   1      32.489  -3.248  79.062  0.00  0.00     0.037 H 
ATOM    105  H   GLU d   1      33.572  -4.210  77.067  0.00  0.00     0.047 H 
ATOM    106  H   GLU d   1      33.828  -2.581  76.354  0.00  0.00     0.047 H 
ENDROOT
BRANCH  11 107
ATOM    107  N   THR d   1      30.418 -13.317  80.982  0.00  0.00    -0.344 N 
ATOM    108  C   SER d   1      30.848 -14.566  80.840  0.00  0.00     0.243 C 
ATOM    109  O   SER d   1      30.365 -15.344  80.024  0.00  0.00    -0.271 OA
ATOM    110  H   THR d   1      30.794 -12.742  81.709  0.00  0.00     0.163 HD
BRANCH 108 111
ATOM    111  CA  SER d   1      31.937 -15.043  81.821  0.00  0.00     0.109 C 
ATOM    112  H   SER d   1      32.306 -14.183  82.399  0.00  0.00     0.090 H 
BRANCH 111 113
ATOM    113  N   SER d   1      31.373 -16.000  82.722  0.00  0.00    -0.344 N 
ATOM    114  C   ILE d   1      31.443 -15.851  84.040  0.00  0.00     0.241 C 
ATOM    115  O   ILE d   1      32.026 -14.907  84.578  0.00  0.00    -0.271 OA
ATOM    116  H   SER d   1      30.912 -16.805  82.349  0.00  0.00     0.163 HD
BRANCH 114 117
ATOM    117  CA  ILE d   1      30.696 -16.835  84.878  0.00  0.00     0.092 C 
ATOM    118  H   ILE d   1      30.103 -17.460  84.194  0.00  0.00     0.088 H 
BRANCH 117 119
ATOM    119  N   ILE d   1      31.605 -17.757  85.593  0.00  0.00    -0.348 N 
ATOM    120  C   ACE d   1      32.072 -18.854  85.011  0.00  0.00     0.214 C 
ATOM    121  O   ACE d   1      31.839 -19.111  83.862  0.00  0.00    -0.274 OA
ATOM    122  H   ILE d   1      31.873 -17.549  86.534  0.00  0.00     0.163 HD
BRANCH 120 123
ATOM    123  CH3 ACE d   1      32.951 -19.790  85.795  0.00  0.00    -0.003 C 
ATOM    124  H   ACE d   1      33.064 -19.413  86.822  0.00  0.00     0.040 H 
ATOM    125  H   ACE d   1      33.940 -19.852  85.317  0.00  0.00     0.040 H 
ATOM    126  H   ACE d   1      32.492 -20.790  85.820  0.00  0.00     0.040 H 
ENDBRANCH 120 123
ENDBRANCH 117 119
BRANCH 117 127
ATOM    127  CB  ILE d   1      29.689 -16.087  85.774  0.00  0.00    -0.030 C 
ATOM    128  H   ILE d   1      30.257 -15.494  86.506  0.00  0.00     0.043 H 
BRANCH 127 129
ATOM    129  CG1 ILE d   1      28.784 -17.078  86.544  0.00  0.00    -0.063 C 
ATOM    130  H   ILE d   1      29.429 -17.815  87.044  0.00  0.00     0.033 H 
ATOM    131  H   ILE d   1      28.138 -17.591  85.816  0.00  0.00     0.033 H 
BRANCH 129 132
ATOM    132  CD1 ILE d   1      27.895 -16.433  87.596  0.00  0.00    -0.076 C 
ATOM    133  H   ILE d   1      27.290 -17.208  88.090  0.00  0.00     0.027 H 
ATOM    134  H   ILE d   1      27.230 -15.700  87.115  0.00  0.00     0.027 H 
ATOM    135  H   ILE d   1      28.521 -15.925  88.344  0.00  0.00     0.027 H 
ENDBRANCH 129 132
ENDBRANCH 127 129
BRANCH 127 136
ATOM    136  CG2 ILE d   1      28.820 -15.137  84.953  0.00  0.00    -0.071 C 
ATOM    137  H   ILE d   1      29.463 -14.432  84.406  0.00  0.00     0.028 H 
ATOM    138  H   ILE d   1      28.152 -14.578  85.625  0.00  0.00     0.028 H 
ATOM    139  H   ILE d   1      28.218 -15.716  84.237  0.00  0.00     0.028 H 
ENDBRANCH 127 136
ENDBRANCH 117 127
ENDBRANCH 114 117
ENDBRANCH 111 113
BRANCH 111 140
ATOM    140  CB  SER d   1      33.075 -15.633  81.055  0.00  0.00     0.044 C 
ATOM    141  H   SER d   1      32.718 -16.518  80.509  0.00  0.00     0.077 H 
ATOM    142  H   SER d   1      33.865 -15.931  81.760  0.00  0.00     0.077 H 
BRANCH 140 143
ATOM    143  OG  SER d   1      33.559 -14.797  80.219  0.00  0.00    -0.398 OA
ATOM    144  H   SER d   1      34.279 -15.201  79.749  0.00  0.00     0.209 HD
ENDBRANCH 140 143
ENDBRANCH 111 140
ENDBRANCH 108 111
ENDBRANCH  11 107
BRANCH  14 145
ATOM    145  CG2 THR d   1      27.994 -11.621  81.828  0.00  0.00    -0.049 C 
ATOM    146  H   THR d   1      27.640 -10.639  82.175  0.00  0.00     0.031 H 
ATOM    147  H   THR d   1      28.558 -12.113  82.634  0.00  0.00     0.031 H 
ATOM    148  H   THR d   1      27.131 -12.244  81.550  0.00  0.00     0.031 H 
ENDBRANCH  14 145
BRANCH  19 149
ATOM    149  CB  ARG d   1      28.601 -13.952  75.695  0.00  0.00    -0.036 C 
ATOM    150  H   ARG d   1      28.688 -13.930  74.599  0.00  0.00     0.036 H 
ATOM    151  H   ARG d   1      27.539 -13.909  75.980  0.00  0.00     0.036 H 
BRANCH 149 152
ATOM    152  CG  ARG d   1      29.218 -15.228  76.227  0.00  0.00    -0.048 C 
ATOM    153  H   ARG d   1      29.261 -15.147  77.323  0.00  0.00     0.035 H 
ATOM    154  H   ARG d   1      30.239 -15.298  75.825  0.00  0.00     0.035 H 
BRANCH 152 155
ATOM    155  CD  ARG d   1      28.492 -16.536  75.885  0.00  0.00     0.009 C 
ATOM    156  H   ARG d   1      28.328 -16.600  74.799  0.00  0.00     0.064 H 
ATOM    157  H   ARG d   1      27.523 -16.573  76.405  0.00  0.00     0.064 H 
BRANCH 155 158
ATOM    158  NE  ARG d   1      29.352 -17.668  76.335  0.00  0.00    -0.227 N 
ATOM    159  CZ  ARG d   1      29.068 -18.945  76.023  0.00  0.00     0.665 C 
ATOM    160  NH1 ARG d   1      27.928 -19.274  75.426  0.00  0.00    -0.235 N 
ATOM    161  NH2 ARG d   1      29.910 -19.888  76.429  0.00  0.00    -0.235 N 
ATOM    162  H   ARG d   1      27.732 -20.259  75.197  0.00  0.00     0.174 HD
ATOM    163  H   ARG d   1      27.240 -18.544  75.192  0.00  0.00     0.174 HD
ATOM    164  H   ARG d   1      30.792 -19.626  76.891  0.00  0.00     0.174 HD
ATOM    165  H   ARG d   1      29.681 -20.881  76.282  0.00  0.00     0.174 HD
ATOM    166  H   ARG d   1      30.188 -17.466  76.901  0.00  0.00     0.177 HD
ENDBRANCH 155 158
ENDBRANCH 152 155
ENDBRANCH 149 152
ENDBRANCH  19 149
BRANCH  76 167
ATOM    167  CB  TRP d   1      36.407  -7.912  82.552  0.00  0.00    -0.012 C 
ATOM    168  H   TRP d   1      35.825  -8.668  83.100  0.00  0.00     0.044 H 
ATOM    169  H   TRP d   1      37.071  -7.383  83.251  0.00  0.00     0.044 H 
BRANCH 167 170
ATOM    170  CG  TRP d   1      37.227  -8.591  81.567  0.00  0.00    -0.028 A 
ATOM    171  CD1 TRP d   1      37.020  -9.822  81.023  0.00  0.00    -0.015 A 
ATOM    172  NE1 TRP d   1      38.026 -10.119  80.148  0.00  0.00    -0.365 N 
ATOM    173  H   TRP d   1      36.178 -10.473  81.252  0.00  0.00     0.112 H 
ATOM    174  CE2 TRP d   1      38.939  -9.111  80.155  0.00  0.00     0.042 A 
ATOM    175  H   TRP d   1      38.084 -10.972  79.573  0.00  0.00     0.165 HD
ATOM    176  CD2 TRP d   1      38.468  -8.132  81.060  0.00  0.00    -0.002 A 
ATOM    177  CZ2 TRP d   1      40.177  -9.003  79.515  0.00  0.00    -0.056 A 
ATOM    178  CE3 TRP d   1      39.217  -6.979  81.250  0.00  0.00    -0.070 A 
ATOM    179  CZ3 TRP d   1      40.446  -6.851  80.570  0.00  0.00    -0.082 A 
ATOM    180  H   TRP d   1      38.864  -6.193  81.908  0.00  0.00     0.084 H 
ATOM    181  CH2 TRP d   1      40.884  -7.860  79.696  0.00  0.00    -0.081 A 
ATOM    182  H   TRP d   1      41.057  -5.968  80.723  0.00  0.00     0.083 H 
ATOM    183  H   TRP d   1      41.811  -7.721  79.152  0.00  0.00     0.083 H 
ATOM    184  H   TRP d   1      40.559  -9.806  78.895  0.00  0.00     0.086 H 
ENDBRANCH 167 170
ENDBRANCH  76 167
BRANCH  45 185
ATOM    185  CB  TYR d   1      32.000  -7.840  71.421  0.00  0.00    -0.014 C 
ATOM    186  H   TYR d   1      31.188  -7.117  71.253  0.00  0.00     0.043 H 
ATOM    187  H   TYR d   1      31.696  -8.827  71.043  0.00  0.00     0.043 H 
BRANCH 185 188
ATOM    188  CG  TYR d   1      33.228  -7.380  70.647  0.00  0.00    -0.056 A 
ATOM    189  CD1 TYR d   1      33.431  -6.051  70.497  0.00  0.00    -0.074 A 
ATOM    190  CE1 TYR d   1      34.557  -5.584  69.818  0.00  0.00    -0.051 A 
ATOM    191  H   TYR d   1      32.716  -5.346  70.906  0.00  0.00     0.084 H 
ATOM    192  CZ  TYR d   1      35.446  -6.445  69.274  0.00  0.00     0.065 A 
ATOM    193  H   TYR d   1      34.721  -4.516  69.725  0.00  0.00     0.087 H 
ATOM    194  CE2 TYR d   1      35.279  -7.794  69.390  0.00  0.00    -0.051 A 
ATOM    195  CD2 TYR d   1      34.149  -8.240  70.124  0.00  0.00    -0.074 A 
ATOM    196  H   TYR d   1      35.977  -8.493  68.942  0.00  0.00     0.087 H 
ATOM    197  H   TYR d   1      34.013  -9.305  70.275  0.00  0.00     0.084 H 
BRANCH 192 198
ATOM    198  OH  TYR d   1      36.545  -5.945  68.625  0.00  0.00    -0.361 OA
ATOM    199  H   TYR d   1      36.550  -6.256  67.727  0.00  0.00     0.217 HD
ENDBRANCH 192 198
ENDBRANCH 185 188
ENDBRANCH  45 185
BRANCH  90 200
ATOM    200  C   GLU d   1      34.527  -1.477  80.246  0.00  0.00     0.196 C 
ATOM    201  O   GLU d   1      33.861  -0.490  80.491  0.00  0.00    -0.646 OA
ATOM    202  O1  GLU d   1      35.340  -1.877  81.122  0.00  0.00    -0.646 OA
ENDBRANCH  90 200
TORSDOF 23
