REMARK  9 active torsions:
REMARK  status: ('A' for Active; 'I' for Inactive)
REMARK    1  A    between atoms: C18_1  and  C01_2 
REMARK    2  A    between atoms: C02_3  and  C03_4 
REMARK    3  A    between atoms: C05_6  and  C06_7 
REMARK    4  A    between atoms: C08_9  and  C09_10 
REMARK    5  A    between atoms: N24_11  and  N01_12 
REMARK       I    between atoms: N01_12  and  C23_13 
REMARK    6  A    between atoms: C23_13  and  C11_15 
REMARK    7  A    between atoms: C11_15  and  N22_16 
REMARK    8  A    between atoms: C11_15  and  C10_17 
REMARK    9  A    between atoms: C10_17  and  C12_18 
ROOT
ATOM      1  N01 1TZ d   1      27.150   5.862  57.997  0.00  0.00    -0.246 N 
ATOM      2  C23 1TZ d   1      27.802   5.498  59.101  0.00  0.00     0.268 C 
ATOM      3  O23 1TZ d   1      27.858   6.171  60.120  0.00  0.00    -0.269 OA
ATOM      4  H   1TZ d   1      27.147   5.252  57.205  0.00  0.00     0.192 HD
ENDROOT
BRANCH   2   5
ATOM      5  C11 1TZ d   1      28.487   4.164  59.035  0.00  0.00     0.181 C 
ATOM      6  H   1TZ d   1      28.218   3.688  58.080  0.00  0.00     0.099 H 
BRANCH   5   7
ATOM      7  N22 1TZ d   1      29.965   4.382  59.031  0.00  0.00    -0.066 N 
ATOM      8  H   1TZ d   1      30.436   3.492  58.987  0.00  0.00     0.275 HD
ATOM      9  H   1TZ d   1      30.236   4.864  59.874  0.00  0.00     0.275 HD
ATOM     10  H   1TZ d   1      30.221   4.937  58.230  0.00  0.00     0.275 HD
ENDBRANCH   5   7
BRANCH   5  11
ATOM     11  C10 1TZ d   1      28.000   3.227  60.163  0.00  0.00    -0.004 C 
ATOM     12  H   1TZ d   1      28.411   3.601  61.112  0.00  0.00     0.044 H 
ATOM     13  H   1TZ d   1      28.399   2.222  59.962  0.00  0.00     0.044 H 
BRANCH  11  14
ATOM     14  C12 1TZ d   1      26.500   3.105  60.324  0.00  0.00    -0.028 A 
ATOM     15  C2  1TZ d   1      25.583   4.040  60.704  0.00  0.00    -0.015 A 
ATOM     16  N23 1TZ d   1      24.367   3.512  60.745  0.00  0.00    -0.365 N 
ATOM     17  H   1TZ d   1      25.817   5.077  60.941  0.00  0.00     0.112 H 
ATOM     18  C13 1TZ d   1      24.430   2.183  60.429  0.00  0.00     0.042 A 
ATOM     19  H   1TZ d   1      23.505   4.025  60.979  0.00  0.00     0.165 HD
ATOM     20  C14 1TZ d   1      23.395   1.235  60.348  0.00  0.00    -0.056 A 
ATOM     21  C   1TZ d   1      25.752   1.829  60.138  0.00  0.00    -0.002 A 
ATOM     22  C15 1TZ d   1      23.750  -0.069  59.996  0.00  0.00    -0.081 A 
ATOM     23  H   1TZ d   1      22.365   1.505  60.550  0.00  0.00     0.086 H 
ATOM     24  C16 1TZ d   1      25.091  -0.412  59.712  0.00  0.00    -0.082 A 
ATOM     25  H   1TZ d   1      22.982  -0.832  59.940  0.00  0.00     0.083 H 
ATOM     26  C17 1TZ d   1      26.124   0.530  59.784  0.00  0.00    -0.070 A 
ATOM     27  H   1TZ d   1      25.326  -1.432  59.431  0.00  0.00     0.083 H 
ATOM     28  H   1TZ d   1      27.155   0.266  59.577  0.00  0.00     0.084 H 
ENDBRANCH  11  14
ENDBRANCH   5  11
ENDBRANCH   2   5
BRANCH   1  29
ATOM     29  N24 1TZ d   1      26.461   7.098  57.926  0.00  0.00    -0.184 NA
ATOM     30  C18 1TZ d   1      26.028   7.464  56.794  0.00  0.00     0.033 C 
ATOM     31  H   1TZ d   1      26.297   6.928  55.885  0.00  0.00     0.118 H 
BRANCH  30  32
ATOM     32  C01 1TZ d   1      25.124   8.673  56.755  0.00  0.00    -0.005 A 
ATOM     33  C02 1TZ d   1      25.496   9.873  57.415  0.00  0.00    -0.049 A 
ATOM     34  C04 1TZ d   1      24.624  10.975  57.380  0.00  0.00    -0.071 A 
ATOM     35  C05 1TZ d   1      23.411  10.886  56.714  0.00  0.00    -0.061 A 
ATOM     36  H   1TZ d   1      24.901  11.898  57.876  0.00  0.00     0.085 H 
ATOM     37  C07 1TZ d   1      23.047   9.704  56.070  0.00  0.00    -0.071 A 
ATOM     38  C08 1TZ d   1      23.891   8.582  56.081  0.00  0.00    -0.049 A 
ATOM     39  H   1TZ d   1      22.096   9.650  55.552  0.00  0.00     0.085 H 
BRANCH  33  40
ATOM     40  C03 1TZ d   1      26.833  10.081  58.165  0.00  0.00    -0.050 C 
ATOM     41  H   1TZ d   1      26.865  11.098  58.583  0.00  0.00     0.033 H 
ATOM     42  H   1TZ d   1      27.671   9.946  57.465  0.00  0.00     0.033 H 
ATOM     43  H   1TZ d   1      26.914   9.347  58.980  0.00  0.00     0.033 H 
ENDBRANCH  33  40
BRANCH  35  44
ATOM     44  C06 1TZ d   1      22.463  12.089  56.683  0.00  0.00    -0.051 C 
ATOM     45  H   1TZ d   1      21.559  11.829  56.112  0.00  0.00     0.033 H 
ATOM     46  H   1TZ d   1      22.967  12.941  56.203  0.00  0.00     0.033 H 
ATOM     47  H   1TZ d   1      22.182  12.361  57.711  0.00  0.00     0.033 H 
ENDBRANCH  35  44
BRANCH  38  48
ATOM     48  C09 1TZ d   1      23.415   7.302  55.360  0.00  0.00    -0.050 C 
ATOM     49  H   1TZ d   1      24.182   6.519  55.458  0.00  0.00     0.033 H 
ATOM     50  H   1TZ d   1      23.249   7.521  54.295  0.00  0.00     0.033 H 
ATOM     51  H   1TZ d   1      22.475   6.954  55.813  0.00  0.00     0.033 H 
ENDBRANCH  38  48
ENDBRANCH  30  32
ENDBRANCH   1  29
TORSDOF 9
