REMARK  9 active torsions:
REMARK  status: ('A' for Active; 'I' for Inactive)
REMARK    1  A    between atoms: PB_1  and  O3A_5 
REMARK    2  A    between atoms: O3A_5  and  PA_6 
REMARK    3  A    between atoms: PA_6  and  O5'_9 
REMARK    4  A    between atoms: O5'_9  and  C5'_10 
REMARK    5  A    between atoms: C5'_10  and  C4'_11 
REMARK    6  A    between atoms: C3'_13  and  O3'_14 
REMARK    7  A    between atoms: C2'_15  and  O2'_16 
REMARK    8  A    between atoms: C1'_17  and  N9_18 
REMARK    9  A    between atoms: C2_25  and  N2_26 
ROOT
ATOM      1  C4' GDP d   1       1.128 -19.602  24.542  0.00  0.00     0.089 C 
ATOM      2  O4' GDP d   1       0.652 -18.786  25.626  0.00  0.00    -0.353 OA
ATOM      3  C3' GDP d   1       1.216 -21.021  25.078  0.00  0.00     0.091 C 
ATOM      4  C2' GDP d   1       0.392 -20.962  26.344  0.00  0.00     0.105 C 
ATOM      5  C1' GDP d   1       0.646 -19.551  26.823  0.00  0.00     0.139 C 
ATOM      6  H   GDP d   1       2.118 -19.261  24.205  0.00  0.00     0.090 H 
ATOM      7  H   GDP d   1       0.848 -21.770  24.361  0.00  0.00     0.091 H 
ATOM      8  H   GDP d   1      -0.675 -21.119  26.127  0.00  0.00     0.093 H 
ATOM      9  H   GDP d   1       1.597 -19.474  27.370  0.00  0.00     0.122 H 
ENDROOT
BRANCH   5  10
ATOM     10  N9  GDP d   1      -0.476 -19.075  27.654  0.00  0.00    -0.295 N 
ATOM     11  C8  GDP d   1      -1.769 -19.416  27.510  0.00  0.00     0.071 A 
ATOM     12  N7  GDP d   1      -2.535 -18.750  28.432  0.00  0.00    -0.234 NA
ATOM     13  H   GDP d   1      -2.151 -20.118  26.770  0.00  0.00     0.144 H 
ATOM     14  C5  GDP d   1      -1.719 -17.964  29.153  0.00  0.00     0.171 A 
ATOM     15  C6  GDP d   1      -1.860 -17.019  30.291  0.00  0.00     0.292 A 
ATOM     16  C4  GDP d   1      -0.362 -18.176  28.617  0.00  0.00     0.161 A 
ATOM     17  O6  GDP d   1      -2.964 -16.768  30.801  0.00  0.00    -0.265 OA
ATOM     18  N1  GDP d   1      -0.756 -16.415  30.751  0.00  0.00    -0.154 N 
ATOM     19  C2  GDP d   1       0.465 -16.638  30.188  0.00  0.00     0.680 A 
ATOM     20  H   GDP d   1      -0.830 -15.786  31.525  0.00  0.00     0.187 HD
ATOM     21  N3  GDP d   1       0.670 -17.500  29.168  0.00  0.00    -0.174 N 
ATOM     22  H   GDP d   1       1.624 -17.643  28.806  0.00  0.00     0.186 HD
BRANCH  19  23
ATOM     23  N2  GDP d   1       1.538 -15.992  30.707  0.00  0.00    -0.234 N 
ATOM     24  H   GDP d   1       2.474 -16.140  30.303  0.00  0.00     0.174 HD
ATOM     25  H   GDP d   1       1.418 -15.353  31.506  0.00  0.00     0.174 HD
ENDBRANCH  19  23
ENDBRANCH   5  10
BRANCH   4  26
ATOM     26  O2' GDP d   1       0.821 -21.929  27.304  0.00  0.00    -0.388 OA
ATOM     27  H   GDP d   1       1.729 -21.767  27.531  0.00  0.00     0.210 HD
ENDBRANCH   4  26
BRANCH   1  28
ATOM     28  C5' GDP d   1       0.132 -19.518  23.386  0.00  0.00     0.058 C 
ATOM     29  H   GDP d   1       0.148 -18.506  22.955  0.00  0.00     0.079 H 
ATOM     30  H   GDP d   1       0.401 -20.251  22.611  0.00  0.00     0.079 H 
BRANCH  28  31
ATOM     31  O5' GDP d   1      -1.168 -19.805  23.888  0.00  0.00    -0.287 OA
BRANCH  31  32
ATOM     32  PA  GDP d   1      -2.309 -20.389  22.932  0.00  0.00     0.418 P 
ATOM     33  O1A GDP d   1      -3.513 -20.725  23.790  0.00  0.00    -0.624 OA
ATOM     34  O2A GDP d   1      -1.882 -21.552  22.087  0.00  0.00    -0.624 OA
BRANCH  32  35
ATOM     35  O3A GDP d   1      -2.594 -19.062  22.054  0.00  0.00    -0.173 OA
BRANCH  35  36
ATOM     36  PB  GDP d   1      -3.546 -18.874  20.769  0.00  0.00     0.431 P 
ATOM     37  O1B GDP d   1      -4.591 -19.939  20.676  0.00  0.00    -0.616 OA
ATOM     38  O2B GDP d   1      -2.669 -18.851  19.509  0.00  0.00    -0.616 OA
ATOM     39  O3B GDP d   1      -4.105 -17.483  20.881  0.00  0.00    -0.616 OA
ENDBRANCH  35  36
ENDBRANCH  32  35
ENDBRANCH  31  32
ENDBRANCH  28  31
ENDBRANCH   1  28
BRANCH   3  40
ATOM     40  O3' GDP d   1       2.567 -21.274  25.467  0.00  0.00    -0.390 OA
ATOM     41  H   GDP d   1       2.822 -20.655  26.141  0.00  0.00     0.210 HD
ENDBRANCH   3  40
TORSDOF 9
