REMARK  10 active torsions:
REMARK  status: ('A' for Active; 'I' for Inactive)
REMARK    1  A    between atoms: PG_1  and  O3B_5 
REMARK    2  A    between atoms: O3B_5  and  PB_6 
REMARK    3  A    between atoms: PB_6  and  O3A_9 
REMARK    4  A    between atoms: O3A_9  and  PA_10 
REMARK    5  A    between atoms: PA_10  and  O5'_13 
REMARK    6  A    between atoms: O5'_13  and  C5'_14 
REMARK    7  A    between atoms: C5'_14  and  C4'_15 
REMARK    8  A    between atoms: C3'_17  and  O3'_18 
REMARK    9  A    between atoms: C2'_19  and  O2'_20 
REMARK   10  A    between atoms: C1'_21  and  N9_22 
ROOT
ATOM      1  C4' GTP d   1     -35.512 -19.784 113.053  0.00  0.00     0.089 C 
ATOM      2  O4' GTP d   1     -35.751 -18.920 114.145  0.00  0.00    -0.353 OA
ATOM      3  C3' GTP d   1     -35.580 -21.208 113.579  0.00  0.00     0.091 C 
ATOM      4  C2' GTP d   1     -36.051 -21.092 115.013  0.00  0.00     0.105 C 
ATOM      5  C1' GTP d   1     -35.850 -19.629 115.363  0.00  0.00     0.139 C 
ATOM      6  H   GTP d   1     -34.526 -19.588 112.606  0.00  0.00     0.090 H 
ATOM      7  H   GTP d   1     -36.282 -21.811 112.984  0.00  0.00     0.091 H 
ATOM      8  H   GTP d   1     -37.113 -21.366 115.094  0.00  0.00     0.093 H 
ATOM      9  H   GTP d   1     -34.933 -19.504 115.957  0.00  0.00     0.122 H 
ENDROOT
BRANCH   1  10
ATOM     10  C5' GTP d   1     -36.614 -19.545 112.030  0.00  0.00     0.058 C 
ATOM     11  H   GTP d   1     -37.077 -18.561 112.198  0.00  0.00     0.079 H 
ATOM     12  H   GTP d   1     -36.199 -19.586 111.012  0.00  0.00     0.079 H 
BRANCH  10  13
ATOM     13  O5' GTP d   1     -37.571 -20.564 112.202  0.00  0.00    -0.287 OA
BRANCH  13  14
ATOM     14  PA  GTP d   1     -38.890 -20.690 111.293  0.00  0.00     0.417 P 
ATOM     15  O1A GTP d   1     -38.680 -21.823 110.315  0.00  0.00    -0.624 OA
ATOM     16  O2A GTP d   1     -40.119 -20.922 112.140  0.00  0.00    -0.624 OA
BRANCH  14  17
ATOM     17  O3A GTP d   1     -38.981 -19.294 110.493  0.00  0.00    -0.180 OA
BRANCH  17  18
ATOM     18  PB  GTP d   1     -39.883 -19.145 109.164  0.00  0.00     0.428 P 
ATOM     19  O1B GTP d   1     -40.810 -20.332 109.056  0.00  0.00    -0.624 OA
ATOM     20  O2B GTP d   1     -40.666 -17.857 109.203  0.00  0.00    -0.624 OA
BRANCH  18  21
ATOM     21  O3B GTP d   1     -38.821 -19.091 107.947  0.00  0.00    -0.173 OA
BRANCH  21  22
ATOM     22  PG  GTP d   1     -39.070 -19.715 106.476  0.00  0.00     0.431 P 
ATOM     23  O1G GTP d   1     -40.407 -20.409 106.398  0.00  0.00    -0.616 OA
ATOM     24  O2G GTP d   1     -39.039 -18.582 105.479  0.00  0.00    -0.616 OA
ATOM     25  O3G GTP d   1     -37.973 -20.699 106.143  0.00  0.00    -0.616 OA
ENDBRANCH  21  22
ENDBRANCH  18  21
ENDBRANCH  17  18
ENDBRANCH  14  17
ENDBRANCH  13  14
ENDBRANCH  10  13
ENDBRANCH   1  10
BRANCH   3  26
ATOM     26  O3' GTP d   1     -34.299 -21.791 113.546  0.00  0.00    -0.390 OA
ATOM     27  H   GTP d   1     -34.349 -22.680 113.876  0.00  0.00     0.210 HD
ENDBRANCH   3  26
BRANCH   5  28
ATOM     28  N9  GTP d   1     -37.005 -19.116 116.116  0.00  0.00    -0.295 N 
ATOM     29  C8  GTP d   1     -38.316 -19.484 115.961  0.00  0.00     0.071 A 
ATOM     30  N7  GTP d   1     -39.064 -18.779 116.840  0.00  0.00    -0.234 NA
ATOM     31  H   GTP d   1     -38.692 -20.219 115.251  0.00  0.00     0.144 H 
ATOM     32  C5  GTP d   1     -38.248 -17.970 117.553  0.00  0.00     0.171 A 
ATOM     33  C6  GTP d   1     -38.487 -17.053 118.569  0.00  0.00     0.292 A 
ATOM     34  C4  GTP d   1     -36.951 -18.171 117.107  0.00  0.00     0.161 A 
ATOM     35  O6  GTP d   1     -39.632 -16.864 118.974  0.00  0.00    -0.265 OA
ATOM     36  N1  GTP d   1     -37.433 -16.355 119.121  0.00  0.00    -0.154 N 
ATOM     37  C2  GTP d   1     -36.149 -16.570 118.662  0.00  0.00     0.680 A 
ATOM     38  H   GTP d   1     -37.599 -15.694 119.853  0.00  0.00     0.187 HD
ATOM     39  N2  GTP d   1     -35.130 -15.898 119.189  0.00  0.00    -0.234 N 
ATOM     40  N3  GTP d   1     -35.919 -17.484 117.653  0.00  0.00    -0.174 N 
ATOM     41  H   GTP d   1     -34.173 -16.060 118.845  0.00  0.00     0.174 HD
ATOM     42  H   GTP d   1     -35.298 -15.215 119.942  0.00  0.00     0.174 HD
ATOM     43  H   GTP d   1     -34.959 -17.644 117.314  0.00  0.00     0.186 HD
ENDBRANCH   5  28
BRANCH   4  44
ATOM     44  O2' GTP d   1     -35.292 -21.920 115.861  0.00  0.00    -0.388 OA
ATOM     45  H   GTP d   1     -34.378 -21.663 115.818  0.00  0.00     0.210 HD
ENDBRANCH   4  44
TORSDOF 10
