REMARK WARNING: 32 MAX_TORS EXCEEDED!!!
REMARK  44 active torsions:
REMARK  status: ('A' for Active; 'I' for Inactive)
REMARK    1  A    between atoms: N_1  and  CA_2 
REMARK    2  A    between atoms: C2_76  and  N_1 
REMARK    3  A    between atoms: CA_2  and  C_3 
REMARK    4  A    between atoms: CA_2  and  CB_5 
REMARK       I    between atoms: C_3  and  N_7 
REMARK    5  A    between atoms: CB_5  and  OG_6 
REMARK    6  A    between atoms: N_7  and  CA_8 
REMARK    7  A    between atoms: CA_8  and  C_9 
REMARK    8  A    between atoms: CA_8  and  CB_11 
REMARK       I    between atoms: C_9  and  N_12 
REMARK    9  A    between atoms: N_12  and  CA_13 
REMARK   10  A    between atoms: CA_13  and  C_14 
REMARK   11  A    between atoms: CA_13  and  CB_16 
REMARK       I    between atoms: C_14  and  N_18 
REMARK   12  A    between atoms: CB_16  and  OG_17 
REMARK   13  A    between atoms: N_18  and  CA_19 
REMARK   14  A    between atoms: CA_19  and  C_20 
REMARK   15  A    between atoms: CA_19  and  CB_22 
REMARK   16  A    between atoms: CB_22  and  CG_23 
REMARK   17  A    between atoms: CG_23  and  CD_24 
REMARK   18  A    between atoms: C6A_32  and  N6A_33 
REMARK   19  A    between atoms: C1B_37  and  N9A_36 
REMARK   20  A    between atoms: C2B_38  and  O2B_39 
REMARK   21  A    between atoms: C3B_40  and  O3B_41 
REMARK   22  A    between atoms: O3B_41  and  P3B_42 
REMARK   23  A    between atoms: C5B_48  and  C4B_46 
REMARK   24  A    between atoms: O5B_49  and  C5B_48 
REMARK   25  A    between atoms: P1A_50  and  O5B_49 
REMARK   26  A    between atoms: O3A_53  and  P1A_50 
REMARK   27  A    between atoms: P2A_54  and  O3A_53 
REMARK   28  A    between atoms: O6A_57  and  P2A_54 
REMARK   29  A    between atoms: CCP_59  and  O6A_57 
REMARK   30  A    between atoms: CBP_58  and  CCP_59 
REMARK   31  A    between atoms: CBP_58  and  CDP_60 
REMARK   32  A    between atoms: CBP_58  and  CEP_61 
REMARK   33  A    between atoms: CAP_62  and  CBP_58 
REMARK   34  A    between atoms: CAP_62  and  OAP_63 
REMARK   35  A    between atoms: C9P_64  and  CAP_62 
REMARK       I    between atoms: N8P_66  and  C9P_64 
REMARK   36  A    between atoms: C7P_67  and  N8P_66 
REMARK   37  A    between atoms: C6P_68  and  C7P_67 
REMARK   38  A    between atoms: C5P_69  and  C6P_68 
REMARK       I    between atoms: N4P_71  and  C5P_69 
REMARK   39  A    between atoms: C3P_72  and  N4P_71 
REMARK   40  A    between atoms: C2P_73  and  C3P_72 
REMARK   41  A    between atoms: S1P_74  and  C2P_73 
REMARK   42  A    between atoms: C1_75  and  S1P_74 
REMARK   43  A    between atoms: C1_75  and  C2_76 
REMARK   44  A    between atoms: C2_76  and  O21_77 
ROOT
ATOM      1  H45 SER d   1     -51.006  -9.510 -76.069  0.00  0.00     0.162 HD
ATOM      2  C5P 1XE d   1     -51.953 -11.454 -76.132  0.00  0.00     0.219 C 
ATOM      3  O5P 1XE d   1     -52.582 -12.201 -76.956  0.00  0.00    -0.274 OA
ATOM      4  N4P 1XE d   1     -51.506 -10.144 -76.658  0.00  0.00    -0.360 N 
ENDROOT
BRANCH   2   5
ATOM      5  C6P 1XE d   1     -51.685 -11.921 -74.697  0.00  0.00     0.024 C 
ATOM      6  H43 SER d   1     -52.256 -12.855 -74.585  0.00  0.00     0.049 H 
ATOM      7  H44 SER d   1     -50.608 -12.143 -74.661  0.00  0.00     0.049 H 
BRANCH   5   8
ATOM      8  C7P 1XE d   1     -51.972 -11.122 -73.435  0.00  0.00     0.003 C 
ATOM      9  H41 SER d   1     -52.413 -11.841 -72.729  0.00  0.00     0.064 H 
ATOM     10  H42 SER d   1     -50.988 -10.800 -73.064  0.00  0.00     0.064 H 
BRANCH   8  11
ATOM     11  N8P 1XE d   1     -52.839  -9.911 -73.360  0.00  0.00    -0.358 N 
ATOM     12  C9P 1XE d   1     -54.197 -10.276 -73.804  0.00  0.00     0.247 C 
ATOM     13  O9P 1XE d   1     -54.420 -11.473 -74.134  0.00  0.00    -0.271 OA
ATOM     14  H40 SER d   1     -52.548  -9.003 -73.059  0.00  0.00     0.162 HD
BRANCH  12  15
ATOM     15  CAP 1XE d   1     -55.317  -9.288 -73.864  0.00  0.00     0.120 C 
ATOM     16  H38 1XE d   1     -55.250  -8.641 -72.977  0.00  0.00     0.099 H 
BRANCH  15  17
ATOM     17  CBP 1XE d   1     -55.391  -8.386 -75.123  0.00  0.00     0.009 C 
BRANCH  17  18
ATOM     18  CCP 1XE d   1     -56.459  -7.321 -74.860  0.00  0.00     0.041 C 
ATOM     19  H30 1XE d   1     -56.208  -6.440 -75.469  0.00  0.00     0.076 H 
ATOM     20  H31 1XE d   1     -57.425  -7.731 -75.189  0.00  0.00     0.076 H 
BRANCH  18  21
ATOM     21  O6A 1XE d   1     -56.616  -6.874 -73.483  0.00  0.00    -0.289 OA
BRANCH  21  22
ATOM     22  P2A 1XE d   1     -58.021  -6.214 -73.113  0.00  0.00     0.417 P 
ATOM     23  O4A 1XE d   1     -58.901  -7.233 -72.275  0.00  0.00    -0.624 OA
ATOM     24  O5A 1XE d   1     -57.798  -4.924 -72.275  0.00  0.00    -0.624 OA
BRANCH  22  25
ATOM     25  O3A 1XE d   1     -58.697  -5.862 -74.485  0.00  0.00    -0.180 OA
BRANCH  25  26
ATOM     26  P1A 1XE d   1     -59.624  -4.589 -74.599  0.00  0.00     0.418 P 
ATOM     27  O1A 1XE d   1     -60.909  -4.835 -73.783  0.00  0.00    -0.624 OA
ATOM     28  O2A 1XE d   1     -58.924  -3.436 -74.070  0.00  0.00    -0.624 OA
BRANCH  26  29
ATOM     29  O5B 1XE d   1     -59.949  -4.295 -76.164  0.00  0.00    -0.283 OA
BRANCH  29  30
ATOM     30  C5B 1XE d   1     -61.286  -4.449 -76.723  0.00  0.00     0.078 C 
ATOM     31  H28 1XE d   1     -61.912  -3.644 -76.311  0.00  0.00     0.085 H 
ATOM     32  H29 1XE d   1     -61.205  -4.329 -77.813  0.00  0.00     0.085 H 
BRANCH  30  33
ATOM     33  C4B 1XE d   1     -61.983  -5.733 -76.465  0.00  0.00     0.116 A 
ATOM     34  C3B 1XE d   1     -63.247  -5.834 -75.917  0.00  0.00     0.152 A 
ATOM     35  C2B 1XE d   1     -63.535  -7.241 -75.839  0.00  0.00     0.155 A 
ATOM     36  C1B 1XE d   1     -62.392  -7.857 -76.346  0.00  0.00     0.194 A 
ATOM     37  O4B 1XE d   1     -61.516  -6.935 -76.699  0.00  0.00    -0.290 OA
BRANCH  34  38
ATOM     38  O3B 1XE d   1     -64.037  -4.792 -75.566  0.00  0.00    -0.234 OA
BRANCH  38  39
ATOM     39  P3B 1XE d   1     -65.304  -4.550 -76.435  0.00  0.00     0.427 P 
ATOM     40  O7A 1XE d   1     -65.673  -5.914 -77.168  0.00  0.00    -0.617 OA
ATOM     41  O8A 1XE d   1     -66.441  -4.087 -75.573  0.00  0.00    -0.617 OA
ATOM     42  O9A 1XE d   1     -64.990  -3.544 -77.455  0.00  0.00    -0.617 OA
ENDBRANCH  38  39
ENDBRANCH  34  38
BRANCH  35  43
ATOM     43  O2B 1XE d   1     -64.744  -7.833 -75.336  0.00  0.00    -0.354 OA
ATOM     44  H27 1XE d   1     -64.538  -8.390 -74.595  0.00  0.00     0.218 HD
ENDBRANCH  35  43
BRANCH  36  45
ATOM     45  N9A 1XE d   1     -62.140  -9.222 -76.485  0.00  0.00    -0.265 N 
ATOM     46  C4A 1XE d   1     -62.869 -10.276 -75.979  0.00  0.00     0.171 A 
ATOM     47  N3A 1XE d   1     -64.005 -10.400 -75.239  0.00  0.00    -0.221 NA
ATOM     48  C5A 1XE d   1     -62.216 -11.420 -76.379  0.00  0.00     0.149 A 
ATOM     49  C2A 1XE d   1     -64.479 -11.617 -74.906  0.00  0.00     0.091 A 
ATOM     50  N1A 1XE d   1     -63.863 -12.746 -75.279  0.00  0.00    -0.222 NA
ATOM     51  H23 1XE d   1     -65.387 -11.684 -74.318  0.00  0.00     0.146 H 
ATOM     52  C6A 1XE d   1     -62.743 -12.687 -76.008  0.00  0.00     0.155 A 
ATOM     53  N7A 1XE d   1     -61.138 -11.027 -77.087  0.00  0.00    -0.236 NA
ATOM     54  C8A 1XE d   1     -61.092  -9.698 -77.148  0.00  0.00     0.075 A 
ATOM     55  H26 1XE d   1     -60.330  -9.106 -77.652  0.00  0.00     0.144 H 
BRANCH  52  56
ATOM     56  N6A 1XE d   1     -62.063 -13.893 -76.423  0.00  0.00    -0.382 N 
ATOM     57  H24 1XE d   1     -61.202 -13.831 -76.984  0.00  0.00     0.157 HD
ATOM     58  H25 1XE d   1     -62.440 -14.814 -76.158  0.00  0.00     0.157 HD
ENDBRANCH  52  56
ENDBRANCH  36  45
ENDBRANCH  30  33
ENDBRANCH  29  30
ENDBRANCH  26  29
ENDBRANCH  25  26
ENDBRANCH  22  25
ENDBRANCH  21  22
ENDBRANCH  18  21
ENDBRANCH  17  18
BRANCH  17  59
ATOM     59  CDP 1XE d   1     -55.689  -9.165 -76.331  0.00  0.00    -0.065 C 
ATOM     60  H32 1XE d   1     -54.901  -9.917 -76.486  0.00  0.00     0.028 H 
ATOM     61  H33 1XE d   1     -55.729  -8.492 -77.200  0.00  0.00     0.028 H 
ATOM     62  H34 1XE d   1     -56.659  -9.669 -76.212  0.00  0.00     0.028 H 
ENDBRANCH  17  59
BRANCH  17  63
ATOM     63  CEP 1XE d   1     -54.045  -7.717 -75.278  0.00  0.00    -0.065 C 
ATOM     64  H35 1XE d   1     -53.820  -7.133 -74.374  0.00  0.00     0.028 H 
ATOM     65  H36 1XE d   1     -54.066  -7.048 -76.151  0.00  0.00     0.028 H 
ATOM     66  H37 1XE d   1     -53.269  -8.483 -75.422  0.00  0.00     0.028 H 
ENDBRANCH  17  63
ENDBRANCH  15  17
BRANCH  15  67
ATOM     67  OAP 1XE d   1     -56.524 -10.023 -73.848  0.00  0.00    -0.385 OA
ATOM     68  H39 1XE d   1     -56.588 -10.541 -74.641  0.00  0.00     0.210 HD
ENDBRANCH  15  67
ENDBRANCH  12  15
ENDBRANCH   8  11
ENDBRANCH   5   8
ENDBRANCH   2   5
BRANCH   4  69
ATOM     69  C3P 1XE d   1     -51.808  -9.773 -78.083  0.00  0.00     0.003 C 
ATOM     70  H46 SER d   1     -51.910  -8.679 -78.133  0.00  0.00     0.065 H 
ATOM     71  H47 SER d   1     -52.763 -10.243 -78.359  0.00  0.00     0.065 H 
BRANCH  69  72
ATOM     72  C2P 1XE d   1     -50.784 -10.186 -79.091  0.00  0.00    -0.009 C 
ATOM     73  H48 SER d   1     -50.533 -11.236 -78.879  0.00  0.00     0.051 H 
ATOM     74  H49 SER d   1     -49.898  -9.556 -78.923  0.00  0.00     0.051 H 
BRANCH  72  75
ATOM     75  S1P 1XE d   1     -51.156 -10.089 -80.776  0.00  0.00    -0.163 SA
BRANCH  75  76
ATOM     76  C1  1XE d   1     -50.402  -8.657 -81.472  0.00  0.00     0.025 C 
ATOM     77  H50 SER d   1     -50.885  -7.781 -81.015  0.00  0.00     0.055 H 
ATOM     78  H51 SER d   1     -50.613  -8.671 -82.552  0.00  0.00     0.055 H 
BRANCH  76  79
ATOM     79  C2  1XE d   1     -48.889  -8.476 -81.309  0.00  0.00     0.199 C 
ATOM     80  H52 SER d   1     -48.663  -7.652 -82.002  0.00  0.00     0.130 H 
BRANCH  79  81
ATOM     81  N   SER d   1     -47.941  -9.501 -81.620  0.00  0.00    -0.033 N 
ATOM     82  H1  SER d   1     -48.309 -10.361 -81.245  0.00  0.00     0.281 HD
ATOM     83  H2  SER d   1     -47.900  -9.563 -82.625  0.00  0.00     0.281 HD
BRANCH  81  84
ATOM     84  CA  SER d   1     -46.562  -9.393 -81.149  0.00  0.00     0.200 C 
ATOM     85  H3  SER d   1     -46.326  -8.340 -80.937  0.00  0.00     0.103 H 
BRANCH  84  86
ATOM     86  C   SER d   1     -45.627  -9.940 -82.183  0.00  0.00     0.251 C 
ATOM     87  O   SER d   1     -45.957 -10.877 -82.899  0.00  0.00    -0.271 OA
ATOM     88  N   ALA d   1     -44.433  -9.390 -82.239  0.00  0.00    -0.346 N 
ATOM     89  H7  ALA d   1     -44.141  -8.741 -81.536  0.00  0.00     0.163 HD
BRANCH  88  90
ATOM     90  CA  ALA d   1     -43.551  -9.735 -83.327  0.00  0.00     0.086 C 
ATOM     91  H8  ALA d   1     -44.132 -10.146 -84.165  0.00  0.00     0.086 H 
BRANCH  90  92
ATOM     92  C   ALA d   1     -42.609 -10.757 -82.808  0.00  0.00     0.240 C 
ATOM     93  O   ALA d   1     -42.328 -10.791 -81.607  0.00  0.00    -0.271 OA
ATOM     94  N   SER d   1     -42.075 -11.544 -83.731  0.00  0.00    -0.344 N 
ATOM     95  H12 SER d   1     -42.275 -11.369 -84.695  0.00  0.00     0.163 HD
BRANCH  94  96
ATOM     96  CA  SER d   1     -41.214 -12.645 -83.383  0.00  0.00     0.109 C 
ATOM     97  H13 SER d   1     -41.224 -12.750 -82.288  0.00  0.00     0.090 H 
BRANCH  96  98
ATOM     98  C   SER d   1     -39.782 -12.435 -83.826  0.00  0.00     0.243 C 
ATOM     99  O   SER d   1     -39.426 -12.668 -84.996  0.00  0.00    -0.271 OA
ATOM    100  N   GLU d   1     -38.961 -12.016 -82.873  0.00  0.00    -0.345 N 
ATOM    101  H17 GLU d   1     -39.344 -11.668 -82.017  0.00  0.00     0.163 HD
BRANCH 100 102
ATOM    102  CA  GLU d   1     -37.517 -12.051 -83.042  0.00  0.00     0.097 C 
ATOM    103  H18 GLU d   1     -37.286 -12.185 -84.109  0.00  0.00     0.089 H 
BRANCH 102 104
ATOM    104  C   GLU d   1     -36.957 -13.247 -82.263  0.00  0.00     0.196 C 
ATOM    105  O   GLU d   1     -37.616 -13.758 -81.318  0.00  0.00    -0.646 OA
ATOM    106  O   GLU d   1     -35.831 -13.722 -82.570  0.00  0.00    -0.646 OA
ENDBRANCH 102 104
BRANCH 102 107
ATOM    107  CB  GLU d   1     -36.886 -10.735 -82.572  0.00  0.00    -0.028 C 
ATOM    108  H19 GLU d   1     -35.929 -10.603 -83.098  0.00  0.00     0.037 H 
ATOM    109  H20 GLU d   1     -36.703 -10.806 -81.490  0.00  0.00     0.037 H 
BRANCH 107 110
ATOM    110  CG  GLU d   1     -37.751  -9.506 -82.833  0.00  0.00     0.018 C 
ATOM    111  H21 GLU d   1     -37.303  -8.650 -82.307  0.00  0.00     0.049 H 
ATOM    112  H22 GLU d   1     -38.756  -9.699 -82.430  0.00  0.00     0.049 H 
BRANCH 110 113
ATOM    113  CD  GLU d   1     -37.887  -9.144 -84.313  0.00  0.00     0.172 C 
ATOM    114  OE1 GLU d   1     -37.220  -9.785 -85.159  0.00  0.00    -0.648 OA
ATOM    115  OE2 GLU d   1     -38.661  -8.204 -84.626  0.00  0.00    -0.648 OA
ENDBRANCH 110 113
ENDBRANCH 107 110
ENDBRANCH 102 107
ENDBRANCH 100 102
ENDBRANCH  96  98
BRANCH  96 116
ATOM    116  CB  SER d   1     -41.733 -13.935 -84.003  0.00  0.00     0.044 C 
ATOM    117  H14 SER d   1     -41.978 -13.762 -85.061  0.00  0.00     0.077 H 
ATOM    118  H15 SER d   1     -42.636 -14.263 -83.467  0.00  0.00     0.077 H 
BRANCH 116 119
ATOM    119  OG  SER d   1     -40.734 -14.936 -83.906  0.00  0.00    -0.398 OA
ATOM    120  H16 SER d   1     -39.955 -14.651 -84.369  0.00  0.00     0.209 HD
ENDBRANCH 116 119
ENDBRANCH  96 116
ENDBRANCH  94  96
ENDBRANCH  90  92
BRANCH  90 121
ATOM    121  CB  ALA d   1     -42.784  -8.523 -83.797  0.00  0.00    -0.049 C 
ATOM    122  H9  ALA d   1     -42.119  -8.809 -84.625  0.00  0.00     0.030 H 
ATOM    123  H10 ALA d   1     -42.184  -8.124 -82.966  0.00  0.00     0.030 H 
ATOM    124  H11 ALA d   1     -43.490  -7.753 -84.142  0.00  0.00     0.030 H 
ENDBRANCH  90 121
ENDBRANCH  88  90
ENDBRANCH  84  86
BRANCH  84 125
ATOM    125  CB  SER d   1     -46.357 -10.242 -79.902  0.00  0.00     0.052 C 
ATOM    126  H4  SER d   1     -46.917  -9.810 -79.060  0.00  0.00     0.077 H 
ATOM    127  H5  SER d   1     -45.287 -10.282 -79.649  0.00  0.00     0.077 H 
BRANCH 125 128
ATOM    128  OG  SER d   1     -46.828 -11.527 -80.174  0.00  0.00    -0.398 OA
ATOM    129  H6  SER d   1     -46.343 -11.893 -80.904  0.00  0.00     0.209 HD
ENDBRANCH 125 128
ENDBRANCH  84 125
ENDBRANCH  81  84
ENDBRANCH  79  81
BRANCH  79 130
ATOM    130  O21 1XE d   1     -48.489  -8.078 -80.076  0.00  0.00    -0.369 OA
ATOM    131  H53 SER d   1     -49.061  -7.386 -79.767  0.00  0.00     0.212 HD
ENDBRANCH  79 130
ENDBRANCH  76  79
ENDBRANCH  75  76
ENDBRANCH  72  75
ENDBRANCH  69  72
ENDBRANCH   4  69
TORSDOF 44
