REMARK  2 active torsions:
REMARK  status: ('A' for Active; 'I' for Inactive)
REMARK    1  A    between atoms: C2_3  and  C1_4 
REMARK    2  A    between atoms: C11_5  and  C12_6 
ROOT
ATOM      1  O3  QDO d   1      26.066 -58.325 104.165  0.00  0.00    -0.080 OA
ATOM      2  N3  QDO d   1      25.061 -57.809 104.693  0.00  0.00    -0.189 N 
ATOM      3  C2  QDO d   1      23.847 -58.024 104.161  0.00  0.00     0.064 A 
ATOM      4  C11 QDO d   1      22.721 -57.439 104.766  0.00  0.00     0.056 A 
ATOM      5  C4  QDO d   1      25.188 -57.042 105.791  0.00  0.00     0.094 A 
ATOM      6  C5  QDO d   1      26.441 -56.808 106.351  0.00  0.00    -0.052 A 
ATOM      7  C6  QDO d   1      26.571 -56.014 107.489  0.00  0.00    -0.081 A 
ATOM      8  C7  QDO d   1      25.445 -55.441 108.077  0.00  0.00    -0.081 A 
ATOM      9  C8  QDO d   1      24.188 -55.666 107.522  0.00  0.00    -0.053 A 
ATOM     10  C9  QDO d   1      24.061 -56.465 106.384  0.00  0.00     0.086 A 
ATOM     11  N10 QDO d   1      22.857 -56.677 105.855  0.00  0.00    -0.249 NA
ATOM     12  H7  QDO d   1      27.323 -57.247 105.898  0.00  0.00     0.087 H 
ATOM     13  H8  QDO d   1      27.551 -55.842 107.918  0.00  0.00     0.083 H 
ATOM     14  H9  QDO d   1      25.547 -54.823 108.962  0.00  0.00     0.083 H 
ATOM     15  H10 QDO d   1      23.308 -55.221 107.973  0.00  0.00     0.087 H 
ENDROOT
BRANCH   3  16
ATOM     16  C1  QDO d   1      23.789 -58.894 102.930  0.00  0.00    -0.033 C 
ATOM     17  H1  QDO d   1      22.745 -58.990 102.597  0.00  0.00     0.035 H 
ATOM     18  H2  QDO d   1      24.192 -59.890 103.166  0.00  0.00     0.035 H 
ATOM     19  H3  QDO d   1      24.388 -58.437 102.129  0.00  0.00     0.035 H 
ENDBRANCH   3  16
BRANCH   4  20
ATOM     20  C12 QDO d   1      21.320 -57.593 104.267  0.00  0.00    -0.034 C 
ATOM     21  H4  QDO d   1      20.634 -57.035 104.922  0.00  0.00     0.035 H 
ATOM     22  H5  QDO d   1      21.045 -58.658 104.270  0.00  0.00     0.035 H 
ATOM     23  H6  QDO d   1      21.250 -57.199 103.242  0.00  0.00     0.035 H 
ENDBRANCH   4  20
TORSDOF 2
