REMARK  4 active torsions:
REMARK  status: ('A' for Active; 'I' for Inactive)
REMARK    1  A    between atoms: NAU_13  and  CAT_14 
REMARK    2  A    between atoms: CAR_17  and  OAB_18 
REMARK    3  A    between atoms: CAS_19  and  CAH_20 
REMARK    4  A    between atoms: CAH_20  and  OAA_21 
ROOT
ATOM      1  CAT EXX d   1      22.217 -25.973  13.970  0.00  0.00     0.114 C 
ATOM      2  OAK EXX d   1      23.155 -25.000  14.503  0.00  0.00    -0.356 OA
ATOM      3  CAI EXX d   1      20.755 -25.521  14.562  0.00  0.00     0.002 C 
ATOM      4  CAR EXX d   1      21.006 -24.157  14.893  0.00  0.00     0.066 C 
ATOM      5  CAS EXX d   1      22.360 -24.073  15.209  0.00  0.00     0.086 C 
ATOM      6  H   EXX d   1      22.238 -25.953  12.870  0.00  0.00     0.118 H 
ATOM      7  H   EXX d   1      20.480 -26.108  15.450  0.00  0.00     0.043 H 
ATOM      8  H   EXX d   1      19.965 -25.614  13.802  0.00  0.00     0.043 H 
ATOM      9  H   EXX d   1      20.411 -23.876  15.774  0.00  0.00     0.087 H 
ATOM     10  H   EXX d   1      22.678 -23.085  14.846  0.00  0.00     0.090 H 
ENDROOT
BRANCH   1  11
ATOM     11  NAU EXX d   1      22.399 -27.177  14.390  0.00  0.00    -0.310 N 
ATOM     12  CAQ EXX d   1      22.580 -28.333  13.656  0.00  0.00     0.087 A 
ATOM     13  CAO EXX d   1      22.719 -28.651  12.277  0.00  0.00     0.059 A 
ATOM     14  CAP EXX d   1      22.662 -29.358  14.540  0.00  0.00     0.105 A 
ATOM     15  CAM EXX d   1      22.926 -29.968  11.871  0.00  0.00     0.049 A 
ATOM     16 BRF  EXX d   1      22.619 -27.302  10.900  0.00  0.00    -0.047 Br
ATOM     17  CAL EXX d   1      22.995 -30.984  12.764  0.00  0.00     0.049 A 
ATOM     18 BRD  EXX d   1      23.163 -30.430  10.003  0.00  0.00    -0.048 Br
ATOM     19  CAN EXX d   1      22.859 -30.664  14.099  0.00  0.00     0.060 A 
ATOM     20 BRC  EXX d   1      23.325 -32.817  12.140  0.00  0.00    -0.048 Br
ATOM     21 BRE  EXX d   1      22.953 -32.045  15.425  0.00  0.00    -0.047 Br
ATOM     22  NAJ EXX d   1      22.521 -28.868  15.793  0.00  0.00    -0.240 NA
ATOM     23  CAG EXX d   1      22.339 -27.530  15.700  0.00  0.00     0.069 A 
ATOM     24  H   EXX d   1      22.172 -26.851  16.535  0.00  0.00     0.143 H 
ENDBRANCH   1  11
BRANCH   5  25
ATOM     25  CAH EXX d   1      22.659 -24.054  16.798  0.00  0.00     0.043 C 
ATOM     26  H   EXX d   1      22.287 -23.109  17.221  0.00  0.00     0.078 H 
ATOM     27  H   EXX d   1      23.745 -24.125  16.959  0.00  0.00     0.078 H 
BRANCH  25  28
ATOM     28  OAA EXX d   1      22.038 -25.112  17.443  0.00  0.00    -0.398 OA
ATOM     29  H   EXX d   1      22.232 -25.073  18.372  0.00  0.00     0.209 HD
ENDBRANCH  25  28
ENDBRANCH   5  25
BRANCH   4  30
ATOM     30  OAB EXX d   1      20.637 -23.288  13.798  0.00  0.00    -0.393 OA
ATOM     31  H   EXX d   1      20.812 -22.386  14.039  0.00  0.00     0.210 HD
ENDBRANCH   4  30
TORSDOF 4
