REMARK  2 active torsions:
REMARK  status: ('A' for Active; 'I' for Inactive)
REMARK    1  A    between atoms: C2_8  and  C10_3 
REMARK    2  A    between atoms: C3_9  and  C7_6 
ROOT
ATOM      1  C1  PHT d   1     -83.907 -24.982  -0.611  0.00  0.00    -0.065 A 
ATOM      2  C2  PHT d   1     -83.448 -23.648  -0.660  0.00  0.00     0.057 A 
ATOM      3  C3  PHT d   1     -84.117 -22.616  -1.516  0.00  0.00     0.057 A 
ATOM      4  C4  PHT d   1     -85.232 -23.048  -2.256  0.00  0.00    -0.065 A 
ATOM      5  C5  PHT d   1     -85.695 -24.400  -2.175  0.00  0.00    -0.082 A 
ATOM      6  C6  PHT d   1     -85.029 -25.368  -1.385  0.00  0.00    -0.082 A 
ATOM      7  H1  PHT d   1     -83.403 -25.708   0.016  0.00  0.00     0.085 H 
ATOM      8  H2  PHT d   1     -85.750 -22.345  -2.899  0.00  0.00     0.085 H 
ATOM      9  H3  PHT d   1     -86.578 -24.690  -2.733  0.00  0.00     0.083 H 
ATOM     10  H4  PHT d   1     -85.375 -26.395  -1.373  0.00  0.00     0.083 H 
ENDROOT
BRANCH   2  11
ATOM     11  C10 PHT d   1     -82.247 -23.280   0.129  0.00  0.00     0.210 C 
ATOM     12  O11 PHT d   1     -82.328 -23.237   1.399  0.00  0.00    -0.644 OA
ATOM     13  O12 PHT d   1     -81.220 -23.043  -0.556  0.00  0.00    -0.644 OA
ENDBRANCH   2  11
BRANCH   3  14
ATOM     14  C7  PHT d   1     -83.649 -21.186  -1.611  0.00  0.00     0.210 C 
ATOM     15  O8  PHT d   1     -83.133 -20.595  -0.626  0.00  0.00    -0.644 OA
ATOM     16  O9  PHT d   1     -83.806 -20.562  -2.687  0.00  0.00    -0.644 OA
ENDBRANCH   3  14
TORSDOF 2
