REMARK  8 active torsions:
REMARK  status: ('A' for Active; 'I' for Inactive)
REMARK    1  A    between atoms: C61_5  and  N6_6 
REMARK    2  A    between atoms: N6_6  and  C6_7 
REMARK    3  A    between atoms: N9_15  and  C1'_16 
REMARK    4  A    between atoms: C2'_18  and  O2'_19 
REMARK    5  A    between atoms: C3'_20  and  O3'_21 
REMARK    6  A    between atoms: C4'_22  and  C5'_23 
REMARK    7  A    between atoms: C5'_23  and  O5'_24 
REMARK    8  A    between atoms: O5'_24  and  PA_25 
ROOT
ATOM      1  C6  6C6 d   1       3.313  13.267  65.044  0.00  0.00     0.158 A 
ATOM      2  N1  6C6 d   1       4.226  14.252  65.163  0.00  0.00    -0.222 NA
ATOM      3  C2  6C6 d   1       5.331  14.067  65.863  0.00  0.00     0.091 A 
ATOM      4  N3  6C6 d   1       5.593  12.933  66.500  0.00  0.00    -0.222 NA
ATOM      5  C4  6C6 d   1       4.718  11.923  66.449  0.00  0.00     0.167 A 
ATOM      6  C5  6C6 d   1       3.550  12.055  65.688  0.00  0.00     0.149 A 
ATOM      7  N7  6C6 d   1       2.882  10.899  65.803  0.00  0.00    -0.236 NA
ATOM      8  C8  6C6 d   1       3.618  10.076  66.564  0.00  0.00     0.071 A 
ATOM      9  N9  6C6 d   1       4.747  10.695  66.957  0.00  0.00    -0.294 N 
ATOM     10  H   6C6 d   1       6.053  14.874  65.919  0.00  0.00     0.146 H 
ATOM     11  H   6C6 d   1       3.342   9.056  66.826  0.00  0.00     0.144 H 
ENDROOT
BRANCH   9  12
ATOM     12  C1' 6C6 d   1       5.810  10.149  67.854  0.00  0.00     0.139 C 
ATOM     13  O4' 6C6 d   1       5.408   8.825  68.288  0.00  0.00    -0.353 OA
ATOM     14  C4' 6C6 d   1       4.919   8.848  69.652  0.00  0.00     0.089 C 
ATOM     15  C3' 6C6 d   1       5.303  10.193  70.284  0.00  0.00     0.091 C 
ATOM     16  H   6C6 d   1       5.368   8.028  70.232  0.00  0.00     0.090 H 
ATOM     17  C2' 6C6 d   1       5.875  11.030  69.126  0.00  0.00     0.105 C 
ATOM     18  H   6C6 d   1       4.420  10.699  70.701  0.00  0.00     0.091 H 
ATOM     19  H   6C6 d   1       5.238  11.914  68.975  0.00  0.00     0.093 H 
ATOM     20  H   6C6 d   1       6.781  10.121  67.339  0.00  0.00     0.122 H 
BRANCH  14  21
ATOM     21  C5' 6C6 d   1       3.387   8.667  69.597  0.00  0.00     0.059 C 
ATOM     22  H   6C6 d   1       2.936   9.539  69.102  0.00  0.00     0.079 H 
ATOM     23  H   6C6 d   1       2.994   8.583  70.621  0.00  0.00     0.079 H 
BRANCH  21  24
ATOM     24  O5' 6C6 d   1       3.063   7.513  68.883  0.00  0.00    -0.280 OA
BRANCH  24  25
ATOM     25  PA  6C6 d   1       1.510   7.124  68.657  0.00  0.00     0.422 P 
ATOM     26  OA2 6C6 d   1       1.580   5.714  67.991  0.00  0.00    -0.617 OA
ATOM     27  OA3 6C6 d   1       0.920   8.204  67.692  0.00  0.00    -0.617 OA
ATOM     28  OA1 6C6 d   1       0.838   7.060  69.975  0.00  0.00    -0.617 OA
ENDBRANCH  24  25
ENDBRANCH  21  24
ENDBRANCH  14  21
BRANCH  15  29
ATOM     29  O3' 6C6 d   1       6.229   9.923  71.341  0.00  0.00    -0.390 OA
ATOM     30  H   6C6 d   1       6.972   9.442  70.995  0.00  0.00     0.210 HD
ENDBRANCH  15  29
BRANCH  17  31
ATOM     31  O2' 6C6 d   1       7.208  11.492  69.419  0.00  0.00    -0.388 OA
ATOM     32  H   6C6 d   1       7.779  10.745  69.554  0.00  0.00     0.210 HD
ENDBRANCH  17  31
ENDBRANCH   9  12
BRANCH   1  33
ATOM     33  N6  6C6 d   1       2.234  13.561  64.297  0.00  0.00    -0.368 N 
ATOM     34  H   6C6 d   1       2.185  14.514  63.909  0.00  0.00     0.161 HD
BRANCH  33  35
ATOM     35  C61 6C6 d   1       1.116  12.658  63.978  0.00  0.00     0.011 C 
ATOM     36  C65 6C6 d   1       0.338  13.248  62.784  0.00  0.00    -0.046 C 
ATOM     37  C64 6C6 d   1      -0.659  14.256  63.377  0.00  0.00    -0.063 C 
ATOM     38  H   6C6 d   1       1.027  13.755  62.093  0.00  0.00     0.035 H 
ATOM     39  H   6C6 d   1      -0.199  12.451  62.248  0.00  0.00     0.035 H 
ATOM     40  C63 6C6 d   1      -0.740  13.955  64.885  0.00  0.00    -0.063 C 
ATOM     41  H   6C6 d   1      -1.648  14.132  62.911  0.00  0.00     0.033 H 
ATOM     42  H   6C6 d   1      -0.303  15.284  63.213  0.00  0.00     0.033 H 
ATOM     43  C62 6C6 d   1       0.101  12.684  65.118  0.00  0.00    -0.046 C 
ATOM     44  H   6C6 d   1      -1.784  13.781  65.183  0.00  0.00     0.033 H 
ATOM     45  H   6C6 d   1      -0.329  14.795  65.464  0.00  0.00     0.033 H 
ATOM     46  H   6C6 d   1      -0.537  11.789  65.086  0.00  0.00     0.035 H 
ATOM     47  H   6C6 d   1       0.614  12.734  66.090  0.00  0.00     0.035 H 
ATOM     48  H   6C6 d   1       1.478  11.640  63.774  0.00  0.00     0.072 H 
ENDBRANCH  33  35
ENDBRANCH   1  33
TORSDOF 8
