REMARK  11 active torsions:
REMARK  status: ('A' for Active; 'I' for Inactive)
REMARK    1  A    between atoms: P_2  and  O5'_5 
REMARK    2  A    between atoms: O5'_5  and  C5'_6 
REMARK    3  A    between atoms: C5'_6  and  C4'_7 
REMARK    4  A    between atoms: C3'_9  and  O3'_10 
REMARK    5  A    between atoms: C2'_11  and  O2'_12 
REMARK    6  A    between atoms: C1'_13  and  N9_14 
REMARK    7  A    between atoms: C6_18  and  N6_19 
REMARK    8  A    between atoms: N6_19  and  C12_24 
REMARK    9  A    between atoms: C12_24  and  C13_25 
REMARK   10  A    between atoms: C14_26  and  C15_27 
REMARK   11  A    between atoms: C14_26  and  C16_28 
ROOT
ATOM      1  N9  6IA d   1       4.526  -1.597  39.677  0.00  0.00    -0.294 N 
ATOM      2  C8  6IA d   1       3.392  -1.022  40.090  0.00  0.00     0.071 A 
ATOM      3  N7  6IA d   1       2.718  -1.894  40.846  0.00  0.00    -0.236 NA
ATOM      4  C5  6IA d   1       3.414  -3.026  40.920  0.00  0.00     0.149 A 
ATOM      5  C6  6IA d   1       3.212  -4.253  41.546  0.00  0.00     0.158 A 
ATOM      6  N1  6IA d   1       4.152  -5.201  41.409  0.00  0.00    -0.222 NA
ATOM      7  C2  6IA d   1       5.244  -4.989  40.694  0.00  0.00     0.091 A 
ATOM      8  N3  6IA d   1       5.462  -3.838  40.080  0.00  0.00    -0.222 NA
ATOM      9  C4  6IA d   1       4.567  -2.837  40.180  0.00  0.00     0.167 A 
ATOM     10  H   6IA d   1       3.070  -0.010  39.850  0.00  0.00     0.144 H 
ATOM     11  H   6IA d   1       5.980  -5.780  40.609  0.00  0.00     0.146 H 
ENDROOT
BRANCH   1  12
ATOM     12  C1' 6IA d   1       5.547  -0.986  38.805  0.00  0.00     0.139 C 
ATOM     13  O4' 6IA d   1       5.132   0.346  38.467  0.00  0.00    -0.353 OA
ATOM     14  C4' 6IA d   1       4.671   0.419  37.092  0.00  0.00     0.089 C 
ATOM     15  C3' 6IA d   1       5.019  -0.884  36.406  0.00  0.00     0.091 C 
ATOM     16  H   6IA d   1       5.177   1.254  36.586  0.00  0.00     0.090 H 
ATOM     17  C2' 6IA d   1       5.638  -1.778  37.483  0.00  0.00     0.105 C 
ATOM     18  H   6IA d   1       4.133  -1.364  35.964  0.00  0.00     0.091 H 
ATOM     19  H   6IA d   1       5.074  -2.719  37.564  0.00  0.00     0.093 H 
ATOM     20  H   6IA d   1       6.522  -0.972  39.315  0.00  0.00     0.122 H 
BRANCH  14  21
ATOM     21  C5' 6IA d   1       3.167   0.622  37.002  0.00  0.00     0.059 C 
ATOM     22  H   6IA d   1       2.860   0.659  35.946  0.00  0.00     0.079 H 
ATOM     23  H   6IA d   1       2.650  -0.208  37.506  0.00  0.00     0.079 H 
BRANCH  21  24
ATOM     24  O5' 6IA d   1       2.845   1.832  37.631  0.00  0.00    -0.280 OA
BRANCH  24  25
ATOM     25  P   6IA d   1       1.312   2.232  37.911  0.00  0.00     0.422 P 
ATOM     26  OP3 6IA d   1       0.698   1.121  38.907  0.00  0.00    -0.617 OA
ATOM     27  OP1 6IA d   1       0.536   2.383  36.665  0.00  0.00    -0.617 OA
ATOM     28  OP2 6IA d   1       1.412   3.584  38.744  0.00  0.00    -0.617 OA
ENDBRANCH  24  25
ENDBRANCH  21  24
ENDBRANCH  14  21
BRANCH  15  29
ATOM     29  O3' 6IA d   1       5.965  -0.547  35.399  0.00  0.00    -0.390 OA
ATOM     30  H   6IA d   1       6.729  -0.154  35.803  0.00  0.00     0.210 HD
ENDBRANCH  15  29
BRANCH  17  31
ATOM     31  O2' 6IA d   1       7.009  -2.070  37.172  0.00  0.00    -0.388 OA
ATOM     32  H   6IA d   1       7.501  -1.259  37.124  0.00  0.00     0.210 HD
ENDBRANCH  17  31
ENDBRANCH   1  12
BRANCH   5  33
ATOM     33  N6  6IA d   1       2.115  -4.491  42.286  0.00  0.00    -0.369 N 
ATOM     34  H   6IA d   1       1.673  -3.709  42.789  0.00  0.00     0.161 HD
BRANCH  33  35
ATOM     35  C12 6IA d   1       1.522  -5.846  42.400  0.00  0.00     0.009 C 
ATOM     36  H   6IA d   1       1.646  -6.374  41.443  0.00  0.00     0.070 H 
ATOM     37  H   6IA d   1       0.451  -5.751  42.631  0.00  0.00     0.070 H 
BRANCH  35  38
ATOM     38  C13 6IA d   1       2.144  -6.584  43.413  0.00  0.00    -0.085 C 
ATOM     39  C14 6IA d   1       3.051  -7.652  43.306  0.00  0.00    -0.090 C 
ATOM     40  H   6IA d   1       1.889  -6.288  44.430  0.00  0.00     0.079 H 
BRANCH  39  41
ATOM     41  C15 6IA d   1       3.514  -8.199  41.941  0.00  0.00    -0.055 C 
ATOM     42  H   6IA d   1       4.219  -9.029  42.099  0.00  0.00     0.033 H 
ATOM     43  H   6IA d   1       4.011  -7.398  41.374  0.00  0.00     0.033 H 
ATOM     44  H   6IA d   1       2.642  -8.561  41.376  0.00  0.00     0.033 H 
ENDBRANCH  39  41
BRANCH  39  45
ATOM     45  C16 6IA d   1       3.604  -8.307  44.579  0.00  0.00    -0.055 C 
ATOM     46  H   6IA d   1       3.181  -7.807  45.462  0.00  0.00     0.033 H 
ATOM     47  H   6IA d   1       4.700  -8.212  44.594  0.00  0.00     0.033 H 
ATOM     48  H   6IA d   1       3.328  -9.372  44.593  0.00  0.00     0.033 H 
ENDBRANCH  39  45
ENDBRANCH  35  38
ENDBRANCH  33  35
ENDBRANCH   5  33
TORSDOF 11
