REMARK  5 active torsions:
REMARK  status: ('A' for Active; 'I' for Inactive)
REMARK    1  A    between atoms: C7_2  and  C8_3 
REMARK       I    between atoms: C7_2  and  N1_4 
REMARK    2  A    between atoms: N1_4  and  C6_5 
REMARK    3  A    between atoms: C2_13  and  C1_14 
REMARK    4  A    between atoms: C1_14  and  O_16 
REMARK    5  A    between atoms: O_16  and  C_17 
ROOT
ATOM      1  C6  1UJ d   1      17.386  13.231  23.148  0.00  0.00     0.174 A 
ATOM      2  N   1UJ d   1      18.051  12.345  23.838  0.00  0.00    -0.223 NA
ATOM      3  S   1UJ d   1      18.287  14.157  21.967  0.00  0.00    -0.050 SA
ATOM      4  C9  1UJ d   1      19.710  13.270  22.432  0.00  0.00     0.038 A 
ATOM      5  C5  1UJ d   1      19.392  12.356  23.445  0.00  0.00     0.076 A 
ATOM      6  C4  1UJ d   1      20.402  11.546  23.963  0.00  0.00    -0.053 A 
ATOM      7  C3  1UJ d   1      21.690  11.655  23.457  0.00  0.00    -0.065 A 
ATOM      8  C10 1UJ d   1      20.995  13.377  21.916  0.00  0.00    -0.048 A 
ATOM      9  C2  1UJ d   1      21.997  12.553  22.430  0.00  0.00     0.041 A 
ATOM     10  H5  1UJ d   1      20.183  10.838  24.754  0.00  0.00     0.087 H 
ATOM     11  H6  1UJ d   1      22.475  11.030  23.867  0.00  0.00     0.085 H 
ATOM     12  H7  1UJ d   1      21.216  14.088  21.128  0.00  0.00     0.087 H 
ENDROOT
BRANCH   1  13
ATOM     13  N1  1UJ d   1      16.029  13.394  23.364  0.00  0.00    -0.306 N 
ATOM     14  C7  1UJ d   1      15.204  14.324  22.766  0.00  0.00     0.219 C 
ATOM     15  O2  1UJ d   1      15.628  15.227  22.048  0.00  0.00    -0.274 OA
ATOM     16  H4  1UJ d   1      15.602  12.773  24.022  0.00  0.00     0.171 HD
BRANCH  14  17
ATOM     17  C8  1UJ d   1      13.741  14.168  23.062  0.00  0.00    -0.002 C 
ATOM     18  H1  1UJ d   1      13.591  13.300  23.721  0.00  0.00     0.040 H 
ATOM     19  H2  1UJ d   1      13.191  14.015  22.122  0.00  0.00     0.040 H 
ATOM     20  H3  1UJ d   1      13.369  15.075  23.561  0.00  0.00     0.040 H 
ENDBRANCH  14  17
ENDBRANCH   1  13
BRANCH   9  21
ATOM     21  C1  1UJ d   1      23.365  12.576  21.817  0.00  0.00     0.293 C 
ATOM     22  O1  1UJ d   1      24.315  11.963  22.244  0.00  0.00    -0.259 OA
BRANCH  21  23
ATOM     23  O   1UJ d   1      23.429  13.381  20.747  0.00  0.00    -0.323 OA
BRANCH  23  24
ATOM     24  C   1UJ d   1      24.666  13.373  19.988  0.00  0.00     0.013 C 
ATOM     25  H8  1UJ d   1      24.583  14.073  19.144  0.00  0.00     0.067 H 
ATOM     26  H9  1UJ d   1      24.855  12.359  19.606  0.00  0.00     0.067 H 
ATOM     27  H10 1UJ d   1      25.498  13.681  20.639  0.00  0.00     0.067 H 
ENDBRANCH  23  24
ENDBRANCH  21  23
ENDBRANCH   9  21
TORSDOF 5
