REMARK  5 active torsions:
REMARK  status: ('A' for Active; 'I' for Inactive)
REMARK    1  A    between atoms: C01_1  and  C02_2 
REMARK    2  A    between atoms: C03_3  and  C14_14 
REMARK    3  A    between atoms: C04_4  and  C07_7 
REMARK       I    between atoms: C14_14  and  N16_16 
REMARK    4  A    between atoms: N16_16  and  C17_17 
REMARK    5  A    between atoms: C17_17  and  C18_18 
ROOT
ATOM      1  C02 1U3 d   1      24.875   7.176  16.354  0.00  0.00     0.093 A 
ATOM      2  C03 1U3 d   1      23.850   6.845  15.460  0.00  0.00     0.095 A 
ATOM      3  C04 1U3 d   1      24.477   6.413  14.289  0.00  0.00     0.114 A 
ATOM      4  N05 1U3 d   1      25.805   6.485  14.455  0.00  0.00    -0.127 NA
ATOM      5  O06 1U3 d   1      26.054   6.952  15.723  0.00  0.00    -0.217 OA
ENDROOT
BRANCH   3   6
ATOM      6  C07 1U3 d   1      23.884   5.995  13.107  0.00  0.00     0.018 A 
ATOM      7  C08 1U3 d   1      23.688   4.647  12.830  0.00  0.00    -0.069 A 
ATOM      8  C09 1U3 d   1      23.101   4.290  11.626  0.00  0.00    -0.082 A 
ATOM      9  H   1U3 d   1      23.989   3.888  13.543  0.00  0.00     0.085 H 
ATOM     10  C10 1U3 d   1      22.713   5.264  10.713  0.00  0.00    -0.081 A 
ATOM     11  H   1U3 d   1      22.943   3.243  11.395  0.00  0.00     0.083 H 
ATOM     12  C11 1U3 d   1      22.914   6.609  10.999  0.00  0.00    -0.061 A 
ATOM     13  H   1U3 d   1      22.253   4.974   9.776  0.00  0.00     0.083 H 
ATOM     14  C12 1U3 d   1      23.500   6.975  12.201  0.00  0.00     0.046 A 
ATOM     15  H   1U3 d   1      22.614   7.368  10.286  0.00  0.00     0.086 H 
ATOM     16 CL1  1U3 d   1      23.759   8.646  12.590  0.00  0.00    -0.083 Cl
ENDBRANCH   3   6
BRANCH   2  17
ATOM     17  C14 1U3 d   1      22.347   6.913  15.669  0.00  0.00     0.257 C 
ATOM     18  O15 1U3 d   1      21.861   7.618  16.549  0.00  0.00    -0.267 OA
ATOM     19  N16 1U3 d   1      21.486   6.146  14.821  0.00  0.00    -0.347 N 
ATOM     20  H   1U3 d   1      21.899   5.575  14.112  0.00  0.00     0.163 HD
BRANCH  19  21
ATOM     21  C17 1U3 d   1      20.046   6.160  14.943  0.00  0.00     0.075 C 
ATOM     22  H   1U3 d   1      19.753   7.026  15.555  0.00  0.00     0.080 H 
ATOM     23  H   1U3 d   1      19.726   5.233  15.442  0.00  0.00     0.080 H 
BRANCH  21  24
ATOM     24  C18 1U3 d   1      19.354   6.254  13.621  0.00  0.00     0.191 C 
ATOM     25  O19 1U3 d   1      20.024   6.045  12.565  0.00  0.00    -0.647 OA
ATOM     26  O20 1U3 d   1      18.129   6.541  13.568  0.00  0.00    -0.647 OA
ENDBRANCH  21  24
ENDBRANCH  19  21
ENDBRANCH   2  17
BRANCH   1  27
ATOM     27  C01 1U3 d   1      24.741   7.693  17.763  0.00  0.00    -0.028 C 
ATOM     28  H   1U3 d   1      25.741   7.853  18.192  0.00  0.00     0.036 H 
ATOM     29  H   1U3 d   1      24.194   6.959  18.373  0.00  0.00     0.036 H 
ATOM     30  H   1U3 d   1      24.190   8.645  17.753  0.00  0.00     0.036 H 
ENDBRANCH   1  27
TORSDOF 5
