REMARK  4 active torsions:
REMARK  status: ('A' for Active; 'I' for Inactive)
REMARK    1  A    between atoms: C14_2  and  C12_5 
REMARK    2  A    between atoms: C9_11  and  C5_12 
REMARK    3  A    between atoms: C2_20  and  N_21 
REMARK       I    between atoms: N_21  and  C1_22 
REMARK    4  A    between atoms: C1_22  and  C_24 
ROOT
ATOM      1  C5  1UK d   1      23.646  12.317  23.372  0.00  0.00    -0.008 A 
ATOM      2  C4  1UK d   1      22.612  13.182  23.007  0.00  0.00    -0.003 A 
ATOM      3  C6  1UK d   1      23.412  11.378  24.452  0.00  0.00    -0.067 A 
ATOM      4  C7  1UK d   1      22.227  11.264  25.092  0.00  0.00    -0.037 A 
ATOM      5  C8  1UK d   1      21.159  12.106  24.698  0.00  0.00     0.136 A 
ATOM      6  N1  1UK d   1      21.387  13.073  23.655  0.00  0.00    -0.313 N 
ATOM      7  C3  1UK d   1      20.201  13.740  23.442  0.00  0.00     0.030 A 
ATOM      8  N2  1UK d   1      19.894  12.148  25.112  0.00  0.00    -0.212 NA
ATOM      9  C2  1UK d   1      19.279  13.153  24.336  0.00  0.00     0.148 A 
ATOM     10  H5  1UK d   1      22.763  13.929  22.229  0.00  0.00     0.113 H 
ATOM     11  H6  1UK d   1      24.232  10.732  24.763  0.00  0.00     0.085 H 
ATOM     12  H7  1UK d   1      22.096  10.539  25.894  0.00  0.00     0.089 H 
ATOM     13  H8  1UK d   1      20.014  14.547  22.735  0.00  0.00     0.118 H 
ENDROOT
BRANCH   1  14
ATOM     14  C9  1UK d   1      24.969  12.365  22.678  0.00  0.00    -0.006 A 
ATOM     15  C10 1UK d   1      26.067  11.661  23.156  0.00  0.00     0.015 A 
ATOM     16  N3  1UK d   1      27.240  11.576  22.515  0.00  0.00    -0.242 NA
ATOM     17  H3  1UK d   1      25.968  11.149  24.106  0.00  0.00     0.116 H 
ATOM     18  C11 1UK d   1      27.392  12.187  21.317  0.00  0.00     0.136 A 
ATOM     19  C12 1UK d   1      26.280  12.927  20.715  0.00  0.00     0.094 A 
ATOM     20  N4  1UK d   1      28.587  12.117  20.724  0.00  0.00    -0.383 N 
ATOM     21  C13 1UK d   1      25.096  13.006  21.447  0.00  0.00    -0.052 A 
ATOM     22  H4  1UK d   1      24.262  13.575  21.053  0.00  0.00     0.086 H 
ATOM     23  H1  1UK d   1      29.352  11.590  21.168  0.00  0.00     0.157 HD
ATOM     24  H2  1UK d   1      28.743  12.590  19.822  0.00  0.00     0.157 HD
BRANCH  19  25
ATOM     25  C14 1UK d   1      26.274  13.565  19.351  0.00  0.00     0.421 C 
ATOM     26  F2  1UK d   1      25.136  13.358  18.692  0.00  0.00    -0.166 F 
ATOM     27  F   1UK d   1      26.464  14.880  19.402  0.00  0.00    -0.166 F 
ATOM     28  F1  1UK d   1      27.222  13.081  18.558  0.00  0.00    -0.166 F 
ENDBRANCH  19  25
ENDBRANCH   1  14
BRANCH   9  29
ATOM     29  N   1UK d   1      17.920  13.381  24.540  0.00  0.00    -0.311 N 
ATOM     30  C1  1UK d   1      17.115  14.347  23.998  0.00  0.00     0.219 C 
ATOM     31  O   1UK d   1      17.557  15.253  23.298  0.00  0.00    -0.274 OA
ATOM     32  H9  1UK d   1      17.469  12.750  25.171  0.00  0.00     0.170 HD
BRANCH  30  33
ATOM     33  C   1UK d   1      15.666  14.263  24.374  0.00  0.00    -0.002 C 
ATOM     34  H10 1UK d   1      15.113  15.080  23.888  0.00  0.00     0.040 H 
ATOM     35  H11 1UK d   1      15.565  14.351  25.466  0.00  0.00     0.040 H 
ATOM     36  H12 1UK d   1      15.257  13.297  24.044  0.00  0.00     0.040 H 
ENDBRANCH  30  33
ENDBRANCH   9  29
TORSDOF 4
