REMARK  0 active torsions:
REMARK  status: ('A' for Active; 'I' for Inactive)
ROOT
ATOM      1  CAJ 20D d   1      -7.493 -38.213  12.961  0.00  0.00    -0.000 A 
ATOM      2  CAG 20D d   1      -7.479 -37.922  14.315  0.00  0.00     0.187 A 
ATOM      3  OAK 20D d   1      -8.257 -38.483  15.130  0.00  0.00    -0.287 OA
ATOM      4  CAF 20D d   1      -6.626 -36.883  14.738  0.00  0.00     0.048 A 
ATOM      5  CAA 20D d   1      -6.488 -36.618  16.090  0.00  0.00    -0.066 A 
ATOM      6  CAB 20D d   1      -5.641 -35.594  16.535  0.00  0.00    -0.082 A 
ATOM      7  CAC 20D d   1      -4.932 -34.793  15.628  0.00  0.00    -0.080 A 
ATOM      8  CAD 20D d   1      -5.066 -35.076  14.274  0.00  0.00    -0.049 A 
ATOM      9  CAE 20D d   1      -5.894 -36.114  13.827  0.00  0.00     0.090 A 
ATOM     10  OAH 20D d   1      -5.986 -36.391  12.476  0.00  0.00    -0.309 OA
ATOM     11  CAI 20D d   1      -6.713 -37.480  12.049  0.00  0.00     0.090 A 
ATOM     12  CAL 20D d   1      -6.669 -37.722  10.640  0.00  0.00    -0.002 A 
ATOM     13  CAM 20D d   1      -5.882 -36.898   9.831  0.00  0.00    -0.068 A 
ATOM     14  CAN 20D d   1      -5.813 -37.088   8.464  0.00  0.00    -0.045 A 
ATOM     15  CAO 20D d   1      -6.507 -38.130   7.845  0.00  0.00     0.116 A 
ATOM     16  FAR 20D d   1      -6.422 -38.265   6.529  0.00  0.00    -0.206 F 
ATOM     17  CAP 20D d   1      -7.297 -38.977   8.612  0.00  0.00    -0.045 A 
ATOM     18  CAQ 20D d   1      -7.396 -38.763   9.988  0.00  0.00    -0.068 A 
ATOM     19  H1  20D d   1      -8.120 -39.025  12.596  0.00  0.00     0.094 H 
ATOM     20  H2  20D d   1      -7.041 -37.209  16.812  0.00  0.00     0.085 H 
ATOM     21  H3  20D d   1      -5.532 -35.418  17.599  0.00  0.00     0.083 H 
ATOM     22  H4  20D d   1      -4.301 -33.981  15.971  0.00  0.00     0.083 H 
ATOM     23  H5  20D d   1      -4.520 -34.482  13.550  0.00  0.00     0.087 H 
ATOM     24  H6  20D d   1      -5.314 -36.094  10.285  0.00  0.00     0.085 H 
ATOM     25  H7  20D d   1      -5.210 -36.417   7.862  0.00  0.00     0.088 H 
ATOM     26  H8  20D d   1      -7.832 -39.797   8.146  0.00  0.00     0.088 H 
ATOM     27  H9  20D d   1      -8.042 -39.404  10.577  0.00  0.00     0.085 H 
ENDROOT
TORSDOF 0
