REMARK  9 active torsions:
REMARK  status: ('A' for Active; 'I' for Inactive)
REMARK    1  A    between atoms: C12_8  and  C11_9 
REMARK    2  A    between atoms: C9_13  and  N1_14 
REMARK    3  A    between atoms: N1_14  and  C1_15 
REMARK    4  A    between atoms: C6_20  and  C7_21 
REMARK    5  A    between atoms: C7_21  and  C8_22 
REMARK    6  A    between atoms: C8_22  and  N2_23 
REMARK    7  A    between atoms: C20_26  and  O2_27 
REMARK    8  A    between atoms: C18_29  and  C23_30 
REMARK    9  A    between atoms: C23_30  and  O1_31 
ROOT
ATOM      1  C1  1V2 d   1      49.202  64.165   6.319  0.00  0.00     0.034 A 
ATOM      2  C3  1V2 d   1      48.259  64.422   5.326  0.00  0.00    -0.057 A 
ATOM      3  C5  1V2 d   1      48.416  63.897   4.047  0.00  0.00    -0.075 A 
ATOM      4  C2  1V2 d   1      50.316  63.376   6.016  0.00  0.00    -0.057 A 
ATOM      5  C4  1V2 d   1      50.474  62.848   4.732  0.00  0.00    -0.075 A 
ATOM      6  C6  1V2 d   1      49.521  63.107   3.744  0.00  0.00    -0.057 A 
ATOM      7  H6  1V2 d   1      47.395  65.037   5.552  0.00  0.00     0.086 H 
ATOM      8  H7  1V2 d   1      47.675  64.104   3.284  0.00  0.00     0.084 H 
ATOM      9  H8  1V2 d   1      51.059  63.173   6.779  0.00  0.00     0.086 H 
ATOM     10  H9  1V2 d   1      51.338  62.236   4.502  0.00  0.00     0.084 H 
ENDROOT
BRANCH   6  11
ATOM     11  C7  1V2 d   1      49.664  62.539   2.322  0.00  0.00    -0.018 C 
ATOM     12  H10 1V2 d   1      50.476  63.076   1.810  0.00  0.00     0.042 H 
ATOM     13  H11 1V2 d   1      48.719  62.701   1.783  0.00  0.00     0.042 H 
BRANCH  11  14
ATOM     14  C8  1V2 d   1      49.985  61.036   2.307  0.00  0.00     0.088 C 
ATOM     15  H12 1V2 d   1      49.358  60.532   3.057  0.00  0.00     0.076 H 
ATOM     16  H13 1V2 d   1      51.046  60.897   2.562  0.00  0.00     0.076 H 
BRANCH  14  17
ATOM     17  N2  1V2 d   1      49.729  60.428   0.985  0.00  0.00    -0.064 N 
ATOM     18  C22 1V2 d   1      50.383  61.248  -0.067  0.00  0.00     0.086 C 
ATOM     19  C21 1V2 d   1      50.188  60.629  -1.459  0.00  0.00    -0.018 C 
ATOM     20  H15 1V2 d   1      51.460  61.314   0.148  0.00  0.00     0.076 H 
ATOM     21  H16 1V2 d   1      49.945  62.257  -0.059  0.00  0.00     0.076 H 
ATOM     22  C20 1V2 d   1      50.795  59.224  -1.481  0.00  0.00     0.039 C 
ATOM     23  H17 1V2 d   1      50.687  61.256  -2.212  0.00  0.00     0.039 H 
ATOM     24  H18 1V2 d   1      49.113  60.568  -1.686  0.00  0.00     0.039 H 
ATOM     25  C19 1V2 d   1      50.112  58.365  -0.412  0.00  0.00    -0.012 C 
ATOM     26  H19 1V2 d   1      51.871  59.290  -1.261  0.00  0.00     0.083 H 
ATOM     27  C18 1V2 d   1      50.233  59.023   0.982  0.00  0.00     0.126 C 
ATOM     28  H21 1V2 d   1      50.590  57.375  -0.386  0.00  0.00     0.040 H 
ATOM     29  H22 1V2 d   1      49.048  58.252  -0.666  0.00  0.00     0.040 H 
ATOM     30  H23 1V2 d   1      51.297  59.048   1.259  0.00  0.00     0.088 H 
ATOM     31  H14 1V2 d   1      48.736  60.415   0.814  0.00  0.00     0.280 HD
BRANCH  22  32
ATOM     32  O2  1V2 d   1      50.617  58.634  -2.771  0.00  0.00    -0.395 OA
ATOM     33  H20 1V2 d   1      51.047  59.171  -3.426  0.00  0.00     0.210 HD
ENDBRANCH  22  32
BRANCH  27  34
ATOM     34  C23 1V2 d   1      49.483  58.155   2.013  0.00  0.00     0.044 C 
ATOM     35  H24 1V2 d   1      49.490  58.669   2.985  0.00  0.00     0.077 H 
ATOM     36  H25 1V2 d   1      49.997  57.187   2.106  0.00  0.00     0.077 H 
BRANCH  34  37
ATOM     37  O1  1V2 d   1      48.126  57.924   1.620  0.00  0.00    -0.399 OA
ATOM     38  H26 1V2 d   1      47.674  58.756   1.542  0.00  0.00     0.209 HD
ENDBRANCH  34  37
ENDBRANCH  27  34
ENDBRANCH  14  17
ENDBRANCH  11  14
ENDBRANCH   6  11
BRANCH   1  39
ATOM     39  N1  1V2 d   1      48.993  64.713   7.524  0.00  0.00    -0.335 N 
ATOM     40  H5  1V2 d   1      48.284  65.459   7.565  0.00  0.00     0.168 HD
BRANCH  39  41
ATOM     41  C9  1V2 d   1      49.595  64.408   8.681  0.00  0.00     0.171 A 
ATOM     42  N3  1V2 d   1      50.392  63.373   8.954  0.00  0.00    -0.223 NA
ATOM     43  C11 1V2 d   1      50.858  63.322  10.224  0.00  0.00     0.076 A 
ATOM     44  C10 1V2 d   1      50.427  64.321  11.011  0.00  0.00    -0.013 A 
ATOM     45  S1  1V2 d   1      49.437  65.303  10.072  0.00  0.00    -0.061 SA
ATOM     46  H4  1V2 d   1      50.673  64.468  12.062  0.00  0.00     0.098 H 
BRANCH  43  47
ATOM     47  C12 1V2 d   1      51.696  62.307  10.675  0.00  0.00    -0.005 A 
ATOM     48  C13 1V2 d   1      51.939  61.221   9.842  0.00  0.00    -0.048 A 
ATOM     49  C14 1V2 d   1      52.765  60.198  10.280  0.00  0.00     0.056 A 
ATOM     50  H1  1V2 d   1      51.486  61.175   8.858  0.00  0.00     0.087 H 
ATOM     51 CL1  1V2 d   1      53.077  58.847   9.255  0.00  0.00    -0.083 Cl
ATOM     52  C15 1V2 d   1      53.348  60.245  11.539  0.00  0.00     0.055 A 
ATOM     53 CL2  1V2 d   1      54.367  58.935  12.023  0.00  0.00    -0.083 Cl
ATOM     54  C16 1V2 d   1      53.113  61.327  12.384  0.00  0.00    -0.059 A 
ATOM     55  C17 1V2 d   1      52.281  62.358  11.946  0.00  0.00    -0.069 A 
ATOM     56  H2  1V2 d   1      53.569  61.367  13.367  0.00  0.00     0.086 H 
ATOM     57  H3  1V2 d   1      52.086  63.205  12.595  0.00  0.00     0.085 H 
ENDBRANCH  43  47
ENDBRANCH  39  41
ENDBRANCH   1  39
TORSDOF 9
