REMARK  1 active torsions:
REMARK  status: ('A' for Active; 'I' for Inactive)
REMARK    1  A    between atoms: CAD_15  and  CAB_16 
ROOT
ATOM      1  CAK 1UR d   1      -7.599 -38.282  12.905  0.00  0.00    -0.000 A 
ATOM      2  CAL 1UR d   1      -7.569 -37.976  14.266  0.00  0.00     0.187 A 
ATOM      3  OAM 1UR d   1      -8.343 -38.556  15.074  0.00  0.00    -0.287 OA
ATOM      4  CAN 1UR d   1      -6.683 -36.941  14.684  0.00  0.00     0.048 A 
ATOM      5  CAO 1UR d   1      -6.500 -36.656  16.029  0.00  0.00    -0.066 A 
ATOM      6  CAP 1UR d   1      -5.648 -35.627  16.420  0.00  0.00    -0.082 A 
ATOM      7  CAQ 1UR d   1      -4.916 -34.874  15.486  0.00  0.00    -0.080 A 
ATOM      8  CAR 1UR d   1      -5.067 -35.176  14.134  0.00  0.00    -0.049 A 
ATOM      9  CAS 1UR d   1      -5.940 -36.207  13.763  0.00  0.00     0.090 A 
ATOM     10  OAT 1UR d   1      -6.053 -36.509  12.428  0.00  0.00    -0.309 OA
ATOM     11  CAJ 1UR d   1      -6.810 -37.552  11.979  0.00  0.00     0.090 A 
ATOM     12  CAG 1UR d   1      -6.741 -37.741  10.556  0.00  0.00    -0.002 A 
ATOM     13  CAF 1UR d   1      -7.436 -38.751   9.850  0.00  0.00    -0.069 A 
ATOM     14  CAE 1UR d   1      -7.330 -38.882   8.447  0.00  0.00    -0.066 A 
ATOM     15  CAD 1UR d   1      -6.531 -38.015   7.673  0.00  0.00     0.040 A 
ATOM     16  CAI 1UR d   1      -5.847 -37.019   8.366  0.00  0.00    -0.066 A 
ATOM     17  CAH 1UR d   1      -5.948 -36.880   9.764  0.00  0.00    -0.069 A 
ATOM     18  H1  1UR d   1      -8.236 -39.091  12.549  0.00  0.00     0.094 H 
ATOM     19  H2  1UR d   1      -7.023 -37.237  16.779  0.00  0.00     0.085 H 
ATOM     20  H3  1UR d   1      -5.546 -35.400  17.475  0.00  0.00     0.083 H 
ATOM     21  H4  1UR d   1      -4.252 -34.080  15.809  0.00  0.00     0.083 H 
ATOM     22  H5  1UR d   1      -4.518 -34.622  13.381  0.00  0.00     0.087 H 
ATOM     23  H6  1UR d   1      -8.066 -39.442  10.399  0.00  0.00     0.085 H 
ATOM     24  H7  1UR d   1      -7.880 -39.673   7.950  0.00  0.00     0.085 H 
ATOM     25  H8  1UR d   1      -5.218 -36.331   7.813  0.00  0.00     0.085 H 
ATOM     26  H9  1UR d   1      -5.397 -36.083  10.250  0.00  0.00     0.085 H 
ENDROOT
BRANCH  15  27
ATOM     27  CAB 1UR d   1      -6.446 -38.147   6.240  0.00  0.00     0.209 C 
ATOM     28  OAC 1UR d   1      -5.690 -37.471   5.517  0.00  0.00    -0.644 OA
ATOM     29  OAA 1UR d   1      -7.155 -38.974   5.648  0.00  0.00    -0.644 OA
ENDBRANCH  15  27
TORSDOF 1
