REMARK  4 active torsions:
REMARK  status: ('A' for Active; 'I' for Inactive)
REMARK    1  A    between atoms: CAA_1  and  NAB_2 
REMARK    2  A    between atoms: NAB_2  and  CAC_3 
REMARK    3  A    between atoms: NAB_2  and  CAD_4 
REMARK    4  A    between atoms: CAG_9  and  CAJ_10 
ROOT
ATOM      1  CAD 1UT d   1       6.318  10.743  -7.786  0.00  0.00     0.029 A 
ATOM      2  CAI 1UT d   1       5.734  11.876  -8.342  0.00  0.00    -0.057 A 
ATOM      3  CAH 1UT d   1       5.880  12.196  -9.703  0.00  0.00    -0.068 A 
ATOM      4  CAE 1UT d   1       7.011   9.884  -8.634  0.00  0.00    -0.057 A 
ATOM      5  CAF 1UT d   1       7.126  10.183 -10.009  0.00  0.00    -0.068 A 
ATOM      6  CAG 1UT d   1       6.578  11.336 -10.566  0.00  0.00    -0.002 A 
ATOM      7  H7  1UT d   1       5.149  12.532  -7.707  0.00  0.00     0.086 H 
ATOM      8  H8  1UT d   1       5.451  13.113 -10.089  0.00  0.00     0.085 H 
ATOM      9  H9  1UT d   1       7.464   8.982  -8.237  0.00  0.00     0.086 H 
ATOM     10  H10 1UT d   1       7.659   9.492 -10.653  0.00  0.00     0.085 H 
ENDROOT
BRANCH   6  11
ATOM     11  CAJ 1UT d   1       6.669  11.634 -11.972  0.00  0.00     0.090 A 
ATOM     12  OAT 1UT d   1       5.898  12.660 -12.364  0.00  0.00    -0.309 OA
ATOM     13  CAS 1UT d   1       5.846  13.017 -13.688  0.00  0.00     0.090 A 
ATOM     14  CAR 1UT d   1       5.013  14.060 -14.026  0.00  0.00    -0.049 A 
ATOM     15  CAN 1UT d   1       6.557  12.269 -14.645  0.00  0.00     0.048 A 
ATOM     16  CAQ 1UT d   1       4.860  14.431 -15.385  0.00  0.00    -0.080 A 
ATOM     17  H11 1UT d   1       4.475  14.597 -13.253  0.00  0.00     0.087 H 
ATOM     18  CAP 1UT d   1       5.563  13.696 -16.374  0.00  0.00    -0.082 A 
ATOM     19  H12 1UT d   1       4.219  15.260 -15.663  0.00  0.00     0.083 H 
ATOM     20  CAO 1UT d   1       6.424  12.625 -15.992  0.00  0.00    -0.066 A 
ATOM     21  H13 1UT d   1       5.446  13.949 -17.422  0.00  0.00     0.083 H 
ATOM     22  H14 1UT d   1       6.979  12.083 -16.750  0.00  0.00     0.085 H 
ATOM     23  CAL 1UT d   1       7.423  11.221 -14.254  0.00  0.00     0.187 A 
ATOM     24  OAM 1UT d   1       8.255  10.677 -15.042  0.00  0.00    -0.287 OA
ATOM     25  CAK 1UT d   1       7.430  10.929 -12.896  0.00  0.00    -0.000 A 
ATOM     26  H15 1UT d   1       8.058  10.113 -12.541  0.00  0.00     0.094 H 
ENDBRANCH   6  11
BRANCH   1  27
ATOM     27  NAB 1UT d   1       6.165  10.447  -6.443  0.00  0.00    -0.390 N 
BRANCH  27  28
ATOM     28  CAA 1UT d   1       5.560  11.435  -5.516  0.00  0.00    -0.019 C 
ATOM     29  H1  1UT d   1       5.527  11.013  -4.501  0.00  0.00     0.056 H 
ATOM     30  H2  1UT d   1       4.538  11.671  -5.848  0.00  0.00     0.056 H 
ATOM     31  H3  1UT d   1       6.166  12.353  -5.512  0.00  0.00     0.056 H 
ENDBRANCH  27  28
BRANCH  27  32
ATOM     32  CAC 1UT d   1       6.365   9.073  -5.999  0.00  0.00    -0.019 C 
ATOM     33  H4  1UT d   1       6.821   8.488  -6.811  0.00  0.00     0.056 H 
ATOM     34  H5  1UT d   1       5.395   8.630  -5.728  0.00  0.00     0.056 H 
ATOM     35  H6  1UT d   1       7.030   9.064  -5.123  0.00  0.00     0.056 H 
ENDBRANCH  27  32
ENDBRANCH   1  27
TORSDOF 4
