REMARK  5 active torsions:
REMARK  status: ('A' for Active; 'I' for Inactive)
REMARK    1  A    between atoms: CAV_1  and  CAS_2 
REMARK    2  A    between atoms: CAS_2  and  OAP_3 
REMARK    3  A    between atoms: OAP_3  and  CAG_4 
REMARK    4  A    between atoms: CAG_4  and  CAI_6 
REMARK    5  A    between atoms: CAH_11  and  CAA_12 
ROOT
ATOM      1  CAI 1UW d   1      -6.301  37.785  -7.743  0.00  0.00     0.039 A 
ATOM      2  CAO 1UW d   1      -5.641  36.776  -8.465  0.00  0.00    -0.066 A 
ATOM      3  CAM 1UW d   1      -5.775  36.650  -9.846  0.00  0.00    -0.069 A 
ATOM      4  CAN 1UW d   1      -7.133  38.643  -8.480  0.00  0.00    -0.066 A 
ATOM      5  CAL 1UW d   1      -7.283  38.515  -9.869  0.00  0.00    -0.069 A 
ATOM      6  CAH 1UW d   1      -6.610  37.513 -10.587  0.00  0.00    -0.002 A 
ATOM      7  H6  1UW d   1      -5.009  36.075  -7.932  0.00  0.00     0.085 H 
ATOM      8  H7  1UW d   1      -5.226  35.872 -10.363  0.00  0.00     0.085 H 
ATOM      9  H8  1UW d   1      -7.674  39.426  -7.961  0.00  0.00     0.085 H 
ATOM     10  H9  1UW d   1      -7.931  39.203 -10.399  0.00  0.00     0.085 H 
ENDROOT
BRANCH   6  11
ATOM     11  CAA 1UW d   1      -6.702  37.351 -11.993  0.00  0.00     0.090 A 
ATOM     12  OAC 1UW d   1      -5.932  36.336 -12.485  0.00  0.00    -0.309 OA
ATOM     13  CAF 1UW d   1      -5.789  36.092 -13.831  0.00  0.00     0.090 A 
ATOM     14  CAR 1UW d   1      -4.882  35.105 -14.253  0.00  0.00    -0.049 A 
ATOM     15  CAE 1UW d   1      -6.567  36.814 -14.738  0.00  0.00     0.048 A 
ATOM     16  CAU 1UW d   1      -4.722  34.870 -15.615  0.00  0.00    -0.080 A 
ATOM     17  H10 1UW d   1      -4.314  34.534 -13.527  0.00  0.00     0.087 H 
ATOM     18  CAT 1UW d   1      -5.469  35.615 -16.542  0.00  0.00    -0.082 A 
ATOM     19  H11 1UW d   1      -4.024  34.115 -15.959  0.00  0.00     0.083 H 
ATOM     20  CAQ 1UW d   1      -6.377  36.587 -16.104  0.00  0.00    -0.066 A 
ATOM     21  H12 1UW d   1      -5.342  35.436 -17.604  0.00  0.00     0.083 H 
ATOM     22  H13 1UW d   1      -6.936  37.167 -16.829  0.00  0.00     0.085 H 
ATOM     23  CAD 1UW d   1      -7.448  37.803 -14.261  0.00  0.00     0.187 A 
ATOM     24  OAJ 1UW d   1      -8.148  38.463 -15.040  0.00  0.00    -0.287 OA
ATOM     25  CAB 1UW d   1      -7.470  38.102 -12.892  0.00  0.00    -0.000 A 
ATOM     26  H14 1UW d   1      -8.087  38.922 -12.526  0.00  0.00     0.094 H 
ENDBRANCH   6  11
BRANCH   1  27
ATOM     27  CAG 1UW d   1      -6.160  37.859  -6.324  0.00  0.00     0.293 C 
ATOM     28  OAK 1UW d   1      -5.099  38.084  -5.750  0.00  0.00    -0.259 OA
BRANCH  27  29
ATOM     29  OAP 1UW d   1      -7.245  37.417  -5.621  0.00  0.00    -0.318 OA
BRANCH  29  30
ATOM     30  CAS 1UW d   1      -8.103  38.331  -4.913  0.00  0.00     0.026 C 
ATOM     31  H4  1UW d   1      -7.604  39.303  -4.784  0.00  0.00     0.074 H 
ATOM     32  H5  1UW d   1      -9.046  38.473  -5.461  0.00  0.00     0.074 H 
BRANCH  30  33
ATOM     33  CAV 1UW d   1      -8.370  37.686  -3.553  0.00  0.00    -0.056 C 
ATOM     34  H1  1UW d   1      -9.025  38.340  -2.959  0.00  0.00     0.030 H 
ATOM     35  H2  1UW d   1      -7.417  37.542  -3.022  0.00  0.00     0.030 H 
ATOM     36  H3  1UW d   1      -8.860  36.712  -3.699  0.00  0.00     0.030 H 
ENDBRANCH  30  33
ENDBRANCH  29  30
ENDBRANCH  27  29
ENDBRANCH   1  27
TORSDOF 5
