REMARK  19 active torsions:
REMARK  status: ('A' for Active; 'I' for Inactive)
REMARK       I    between atoms: C36_1  and  N35_11 
REMARK       I    between atoms: N4_20  and  C36_1 
REMARK    1  A    between atoms: N35_11  and  C34_2 
REMARK    2  A    between atoms: C34_2  and  C27_12 
REMARK    3  A    between atoms: C6_3  and  C9_4 
REMARK    4  A    between atoms: C5_32  and  C6_3 
REMARK    5  A    between atoms: O15_5  and  C16_7 
REMARK    6  A    between atoms: N8_34  and  O15_5 
REMARK    7  A    between atoms: C16_7  and  C18_6 
REMARK    8  A    between atoms: C16_7  and  C19_8 
REMARK    9  A    between atoms: C16_7  and  C17_35 
REMARK   10  A    between atoms: N28_13  and  O38_14 
REMARK   11  A    between atoms: C30_16  and  O33_17 
REMARK   12  A    between atoms: C3_21  and  N4_20 
REMARK   13  A    between atoms: C2_22  and  C3_21 
REMARK   14  A    between atoms: C2_22  and  N1_23 
REMARK   15  A    between atoms: CA_28  and  C2_22 
REMARK   16  A    between atoms: N1_23  and  S22_24 
REMARK   17  A    between atoms: CA_28  and  C_29 
REMARK   18  A    between atoms: N_31  and  CA_28 
REMARK       I    between atoms: N_31  and  C5_32 
REMARK   19  A    between atoms: C12_39  and  N14_40 
ROOT
ATOM      1  C2  PFV d   1      -4.516  -2.624 -17.652  0.00  0.00     0.063 C 
ATOM      2  H17 PFV d   1      -4.144  -3.217 -18.500  0.00  0.00     0.080 H 
ENDROOT
BRANCH   1   3
ATOM      3  C3  PFV d   1      -4.582  -1.148 -18.085  0.00  0.00     0.018 C 
ATOM      4  H15 PFV d   1      -5.348  -1.031 -18.866  0.00  0.00     0.067 H 
ATOM      5  H16 PFV d   1      -4.845  -0.525 -17.217  0.00  0.00     0.067 H 
BRANCH   3   6
ATOM      6  N4  PFV d   1      -3.276  -0.720 -18.615  0.00  0.00    -0.341 N 
ATOM      7  C36 PFV d   1      -2.361  -0.133 -17.717  0.00  0.00     0.316 C 
ATOM      8  O37 PFV d   1      -2.559  -0.014 -16.515  0.00  0.00    -0.247 OA
ATOM      9  N35 PFV d   1      -1.207   0.306 -18.270  0.00  0.00    -0.337 N 
ATOM     10  H10 PFV d   1      -1.223   0.673 -19.200  0.00  0.00     0.164 HD
ATOM     11  H14 PFV d   1      -3.046  -0.842 -19.581  0.00  0.00     0.164 HD
BRANCH   9  12
ATOM     12  C34 PFV d   1       0.045   0.260 -17.556  0.00  0.00     0.037 C 
ATOM     13  H1  PFV d   1       0.537  -0.707 -17.737  0.00  0.00     0.073 H 
ATOM     14  H2  PFV d   1      -0.141   0.381 -16.479  0.00  0.00     0.073 H 
BRANCH  12  15
ATOM     15  C27 PFV d   1       0.938   1.382 -18.046  0.00  0.00     0.061 A 
ATOM     16  C26 PFV d   1       0.803   2.619 -17.497  0.00  0.00    -0.006 A 
ATOM     17  C31 PFV d   1       1.682   3.744 -17.982  0.00  0.00     0.208 A 
ATOM     18  H9  PFV d   1       0.067   2.795 -16.714  0.00  0.00     0.093 H 
ATOM     19  C30 PFV d   1       2.688   3.439 -19.056  0.00  0.00     0.134 A 
ATOM     20  O32 PFV d   1       1.577   4.871 -17.506  0.00  0.00    -0.285 OA
ATOM     21  C29 PFV d   1       2.721   2.151 -19.521  0.00  0.00     0.044 A 
ATOM     22  N28 PFV d   1       1.882   1.117 -19.063  0.00  0.00    -0.236 N 
ATOM     23  H12 PFV d   1       3.445   1.910 -20.298  0.00  0.00     0.120 H 
BRANCH  19  24
ATOM     24  O33 PFV d   1       3.509   4.459 -19.508  0.00  0.00    -0.356 OA
ATOM     25  H13 PFV d   1       3.304   5.260 -19.040  0.00  0.00     0.218 HD
ENDBRANCH  19  24
BRANCH  22  26
ATOM     26  O38 PFV d   1       2.022  -0.186 -19.633  0.00  0.00    -0.283 OA
ATOM     27  H11 PFV d   1       2.702  -0.169 -20.296  0.00  0.00     0.245 HD
ENDBRANCH  22  26
ENDBRANCH  12  15
ENDBRANCH   9  12
ENDBRANCH   3   6
ENDBRANCH   1   3
BRANCH   1  28
ATOM     28  N1  PFV d   1      -3.617  -2.807 -16.522  0.00  0.00    -0.292 N 
ATOM     29  H18 PFV d   1      -3.831  -2.361 -15.653  0.00  0.00     0.175 HD
BRANCH  28  30
ATOM     30  S22 PFV d   1      -2.207  -3.763 -16.640  0.00  0.00     0.204 S 
ATOM     31  O25 PFV d   1      -2.681  -5.110 -16.824  0.00  0.00    -0.578 OA
ATOM     32  O24 PFV d   1      -1.524  -3.686 -15.395  0.00  0.00    -0.578 OA
ATOM     33  O23 PFV d   1      -1.429  -3.274 -17.721  0.00  0.00    -0.578 OA
ENDBRANCH  28  30
ENDBRANCH   1  28
BRANCH   1  34
ATOM     34  CA  PFV d   1      -5.920  -3.145 -17.251  0.00  0.00     0.084 C 
ATOM     35  H19 PFV d   1      -6.597  -3.057 -18.113  0.00  0.00     0.087 H 
BRANCH  34  36
ATOM     36  C   PFV d   1      -5.808  -4.578 -16.824  0.00  0.00     0.112 C 
ATOM     37  O   PFV d   1      -5.789  -4.976 -15.646  0.00  0.00    -0.305 OA
ATOM     38  H20 PFV d   1      -5.738  -5.330 -17.608  0.00  0.00     0.146 H 
ENDBRANCH  34  36
BRANCH  34  39
ATOM     39  N   PFV d   1      -6.463  -2.423 -16.137  0.00  0.00    -0.343 N 
ATOM     40  C5  PFV d   1      -7.563  -1.688 -16.376  0.00  0.00     0.275 C 
ATOM     41  O7  PFV d   1      -7.986  -1.422 -17.488  0.00  0.00    -0.266 OA
ATOM     42  H21 PFV d   1      -6.045  -2.464 -15.229  0.00  0.00     0.163 HD
BRANCH  40  43
ATOM     43  C6  PFV d   1      -8.283  -1.259 -15.084  0.00  0.00     0.180 C 
ATOM     44  N8  PFV d   1      -8.015  -0.159 -14.441  0.00  0.00    -0.125 NA
BRANCH  43  45
ATOM     45  C9  PFV d   1      -9.310  -2.132 -14.524  0.00  0.00     0.102 A 
ATOM     46  N13 PFV d   1     -10.006  -1.813 -13.361  0.00  0.00    -0.222 NA
ATOM     47  C12 PFV d   1     -10.864  -2.709 -12.981  0.00  0.00     0.164 A 
ATOM     48  S11 PFV d   1     -10.886  -4.036 -14.084  0.00  0.00    -0.062 SA
ATOM     49  C10 PFV d   1      -9.682  -3.338 -15.101  0.00  0.00    -0.011 A 
ATOM     50  H24 PFV d   1      -9.288  -3.763 -16.023  0.00  0.00     0.098 H 
BRANCH  47  51
ATOM     51  N14 PFV d   1     -11.690  -2.668 -11.857  0.00  0.00    -0.378 N 
ATOM     52  H22 PFV d   1     -11.652  -1.860 -11.219  0.00  0.00     0.158 HD
ATOM     53  H23 PFV d   1     -12.338  -3.445 -11.666  0.00  0.00     0.158 HD
ENDBRANCH  47  51
ENDBRANCH  43  45
BRANCH  44  54
ATOM     54  O15 PFV d   1      -6.879   0.490 -15.007  0.00  0.00    -0.234 OA
BRANCH  54  55
ATOM     55  C16 PFV d   1      -6.321   1.595 -14.251  0.00  0.00     0.171 C 
BRANCH  55  56
ATOM     56  C18 PFV d   1      -5.227   2.290 -15.069  0.00  0.00    -0.036 C 
ATOM     57  H3  PFV d   1      -4.810   3.126 -14.488  0.00  0.00     0.032 H 
ATOM     58  H4  PFV d   1      -5.657   2.673 -16.006  0.00  0.00     0.032 H 
ATOM     59  H5  PFV d   1      -4.428   1.570 -15.300  0.00  0.00     0.032 H 
ENDBRANCH  55  56
BRANCH  55  60
ATOM     60  C19 PFV d   1      -5.705   1.268 -12.911  0.00  0.00    -0.036 C 
ATOM     61  H6  PFV d   1      -5.323   2.190 -12.448  0.00  0.00     0.032 H 
ATOM     62  H7  PFV d   1      -4.877   0.558 -13.052  0.00  0.00     0.032 H 
ATOM     63  H8  PFV d   1      -6.467   0.818 -12.257  0.00  0.00     0.032 H 
ENDBRANCH  55  60
BRANCH  55  64
ATOM     64  C17 PFV d   1      -7.405   2.725 -14.030  0.00  0.00     0.211 C 
ATOM     65  O21 PFV d   1      -8.529   2.607 -14.597  0.00  0.00    -0.646 OA
ATOM     66  O20 PFV d   1      -7.096   3.676 -13.296  0.00  0.00    -0.646 OA
ENDBRANCH  55  64
ENDBRANCH  54  55
ENDBRANCH  44  54
ENDBRANCH  40  43
ENDBRANCH  34  39
ENDBRANCH   1  34
TORSDOF 19
