REMARK  0 active torsions:
REMARK  status: ('A' for Active; 'I' for Inactive)
ROOT
ATOM      1  CAC 1UZ d   1       7.586  38.326  12.966  0.00  0.00    -0.000 C 
ATOM      2  CAB 1UZ d   1       7.527  38.031  14.317  0.00  0.00     0.187 C 
ATOM      3  OAA 1UZ d   1       8.297  38.624  15.107  0.00  0.00    -0.287 OA
ATOM      4  CAK 1UZ d   1       6.673  36.971  14.762  0.00  0.00     0.048 A 
ATOM      5  CAJ 1UZ d   1       6.509  36.660  16.093  0.00  0.00    -0.066 A 
ATOM      6  CAI 1UZ d   1       5.647  35.606  16.481  0.00  0.00    -0.082 A 
ATOM      7  CAH 1UZ d   1       5.001  34.811  15.484  0.00  0.00    -0.080 A 
ATOM      8  CAG 1UZ d   1       5.160  35.151  14.124  0.00  0.00    -0.049 A 
ATOM      9  CAF 1UZ d   1       5.990  36.208  13.783  0.00  0.00     0.090 A 
ATOM     10  OAE 1UZ d   1       6.120  36.554  12.462  0.00  0.00    -0.309 OA
ATOM     11  CAD 1UZ d   1       6.812  37.635  12.039  0.00  0.00     0.090 C 
ATOM     12  CAL 1UZ d   1       6.776  37.829  10.641  0.00  0.00    -0.002 A 
ATOM     13  CAM 1UZ d   1       6.007  36.952   9.834  0.00  0.00    -0.069 A 
ATOM     14  CAN 1UZ d   1       5.975  37.124   8.458  0.00  0.00    -0.062 A 
ATOM     15  CAO 1UZ d   1       6.675  38.166   7.850  0.00  0.00     0.044 A 
ATOM     16  CAR 1UZ d   1       6.645  38.315   6.484  0.00  0.00     0.099 C 
ATOM     17  NAS 1UZ d   1       6.624  38.427   5.448  0.00  0.00    -0.191 NA
ATOM     18  CAP 1UZ d   1       7.418  39.046   8.635  0.00  0.00    -0.062 A 
ATOM     19  CAQ 1UZ d   1       7.447  38.883  10.010  0.00  0.00    -0.069 A 
ATOM     20  H1  1UZ d   1       8.252  39.115  12.621  0.00  0.00     0.094 H 
ATOM     21  H2  1UZ d   1       7.043  37.225  16.848  0.00  0.00     0.085 H 
ATOM     22  H3  1UZ d   1       5.477  35.402  17.532  0.00  0.00     0.083 H 
ATOM     23  H4  1UZ d   1       4.396  33.958  15.769  0.00  0.00     0.083 H 
ATOM     24  H5  1UZ d   1       4.639  34.592  13.355  0.00  0.00     0.087 H 
ATOM     25  H6  1UZ d   1       5.444  36.147  10.293  0.00  0.00     0.085 H 
ATOM     26  H7  1UZ d   1       5.398  36.439   7.847  0.00  0.00     0.085 H 
ATOM     27  H8  1UZ d   1       7.971  39.855   8.171  0.00  0.00     0.085 H 
ATOM     28  H9  1UZ d   1       8.004  39.590  10.614  0.00  0.00     0.085 H 
ENDROOT
TORSDOF 0
