REMARK  1 active torsions:
REMARK  status: ('A' for Active; 'I' for Inactive)
REMARK    1  A    between atoms: CAH_15  and  NAB_16 
ROOT
ATOM      1  CAC 1V0 d   1       7.607  38.266  13.028  0.00  0.00    -0.000 A 
ATOM      2  CAE 1V0 d   1       7.553  37.968  14.394  0.00  0.00     0.187 A 
ATOM      3  OAL 1V0 d   1       8.348  38.542  15.150  0.00  0.00    -0.287 OA
ATOM      4  CAF 1V0 d   1       6.692  36.924  14.826  0.00  0.00     0.048 A 
ATOM      5  CAQ 1V0 d   1       6.555  36.591  16.160  0.00  0.00    -0.066 A 
ATOM      6  CAS 1V0 d   1       5.700  35.545  16.512  0.00  0.00    -0.082 A 
ATOM      7  CAT 1V0 d   1       4.980  34.777  15.566  0.00  0.00    -0.080 A 
ATOM      8  CAR 1V0 d   1       5.100  35.126  14.218  0.00  0.00    -0.049 A 
ATOM      9  CAG 1V0 d   1       5.950  36.185  13.874  0.00  0.00     0.090 A 
ATOM     10  OAD 1V0 d   1       6.039  36.517  12.565  0.00  0.00    -0.309 OA
ATOM     11  CAA 1V0 d   1       6.805  37.549  12.135  0.00  0.00     0.090 A 
ATOM     12  CAI 1V0 d   1       6.748  37.759  10.728  0.00  0.00    -0.002 A 
ATOM     13  CAO 1V0 d   1       7.450  38.791  10.078  0.00  0.00    -0.068 A 
ATOM     14  CAM 1V0 d   1       7.333  38.976   8.706  0.00  0.00    -0.050 A 
ATOM     15  CAH 1V0 d   1       6.540  38.107   7.963  0.00  0.00     0.102 A 
ATOM     16  CAN 1V0 d   1       5.858  37.064   8.596  0.00  0.00    -0.050 A 
ATOM     17  CAP 1V0 d   1       5.958  36.892   9.963  0.00  0.00    -0.068 A 
ATOM     18  H1  1V0 d   1       8.269  39.050  12.663  0.00  0.00     0.094 H 
ATOM     19  H2  1V0 d   1       7.103  37.134  16.922  0.00  0.00     0.085 H 
ATOM     20  H3  1V0 d   1       5.582  35.309  17.563  0.00  0.00     0.083 H 
ATOM     21  H4  1V0 d   1       4.357  33.946  15.876  0.00  0.00     0.083 H 
ATOM     22  H5  1V0 d   1       4.548  34.589  13.456  0.00  0.00     0.087 H 
ATOM     23  H6  1V0 d   1       8.090  39.449  10.655  0.00  0.00     0.085 H 
ATOM     24  H7  1V0 d   1       7.855  39.791   8.218  0.00  0.00     0.087 H 
ATOM     25  H8  1V0 d   1       5.247  36.386   8.011  0.00  0.00     0.087 H 
ATOM     26  H9  1V0 d   1       5.423  36.082  10.446  0.00  0.00     0.085 H 
ENDROOT
BRANCH  15  27
ATOM     27  NAB 1V0 d   1       6.443  38.230   6.645  0.00  0.00    -0.116 N 
ATOM     28  OAK 1V0 d   1       7.560  38.471   5.897  0.00  0.00    -0.532 OA
ATOM     29  OAJ 1V0 d   1       5.299  38.027   6.085  0.00  0.00    -0.532 OA
ENDBRANCH  15  27
TORSDOF 1
