REMARK  0 active torsions:
REMARK  status: ('A' for Active; 'I' for Inactive)
ROOT
ATOM      1  CAB 1V1 d   1      -7.371 -38.005  12.910  0.00  0.00    -0.000 C 
ATOM      2  CAD 1V1 d   1      -7.357 -37.703  14.263  0.00  0.00     0.187 C 
ATOM      3  OAH 1V1 d   1      -8.160 -38.275  14.995  0.00  0.00    -0.287 OA
ATOM      4  CAE 1V1 d   1      -6.505 -36.692  14.717  0.00  0.00     0.048 A 
ATOM      5  CAO 1V1 d   1      -6.364 -36.424  16.048  0.00  0.00    -0.066 A 
ATOM      6  CAQ 1V1 d   1      -5.517 -35.371  16.447  0.00  0.00    -0.082 A 
ATOM      7  CAR 1V1 d   1      -4.808 -34.604  15.507  0.00  0.00    -0.080 A 
ATOM      8  CAP 1V1 d   1      -4.958 -34.898  14.140  0.00  0.00    -0.049 A 
ATOM      9  CAF 1V1 d   1      -5.807 -35.930  13.778  0.00  0.00     0.090 A 
ATOM     10  OAC 1V1 d   1      -5.891 -36.224  12.452  0.00  0.00    -0.309 OA
ATOM     11  CAA 1V1 d   1      -6.590 -37.327  12.022  0.00  0.00     0.090 C 
ATOM     12  CAG 1V1 d   1      -6.580 -37.559  10.624  0.00  0.00    -0.002 A 
ATOM     13  CAI 1V1 d   1      -5.856 -36.671   9.808  0.00  0.00    -0.069 A 
ATOM     14  CAM 1V1 d   1      -5.838 -36.839   8.423  0.00  0.00    -0.061 A 
ATOM     15  CAK 1V1 d   1      -6.506 -37.914   7.845  0.00  0.00     0.034 A 
ATOM     16 CL1  1V1 d   1      -6.461 -38.102   6.117  0.00  0.00    -0.084 Cl
ATOM     17  CAL 1V1 d   1      -7.229 -38.808   8.632  0.00  0.00    -0.061 A 
ATOM     18  CAJ 1V1 d   1      -7.272 -38.627  10.019  0.00  0.00    -0.069 A 
ATOM     19  H1  1V1 d   1      -8.020 -38.801  12.549  0.00  0.00     0.094 H 
ATOM     20  H2  1V1 d   1      -6.896 -37.013  16.787  0.00  0.00     0.085 H 
ATOM     21  H3  1V1 d   1      -5.410 -35.148  17.502  0.00  0.00     0.083 H 
ATOM     22  H4  1V1 d   1      -4.157 -33.800  15.830  0.00  0.00     0.083 H 
ATOM     23  H5  1V1 d   1      -4.422 -34.330  13.388  0.00  0.00     0.087 H 
ATOM     24  H6  1V1 d   1      -5.309 -35.851  10.258  0.00  0.00     0.085 H 
ATOM     25  H7  1V1 d   1      -5.304 -36.133   7.798  0.00  0.00     0.086 H 
ATOM     26  H8  1V1 d   1      -7.754 -39.638   8.173  0.00  0.00     0.086 H 
ATOM     27  H9  1V1 d   1      -7.843 -39.314  10.633  0.00  0.00     0.085 H 
ENDROOT
TORSDOF 0
