REMARK  3 active torsions:
REMARK  status: ('A' for Active; 'I' for Inactive)
REMARK    1  A    between atoms: CAQ_1  and  OAO_2 
REMARK    2  A    between atoms: OAO_2  and  CAK_3 
REMARK    3  A    between atoms: CAG_8  and  CAA_9 
ROOT
ATOM      1  CAA A63 d   1      -6.635 -37.336  12.005  0.00  0.00     0.090 A 
ATOM      2  OAC A63 d   1      -5.900 -36.273  12.417  0.00  0.00    -0.309 OA
ATOM      3  CAF A63 d   1      -5.841 -35.935  13.738  0.00  0.00     0.090 A 
ATOM      4  CAP A63 d   1      -4.988 -34.919  14.110  0.00  0.00    -0.049 A 
ATOM      5  CAS A63 d   1      -4.847 -34.616  15.471  0.00  0.00    -0.080 A 
ATOM      6  CAR A63 d   1      -5.566 -35.361  16.410  0.00  0.00    -0.082 A 
ATOM      7  CAN A63 d   1      -6.392 -36.433  16.003  0.00  0.00    -0.066 A 
ATOM      8  CAE A63 d   1      -6.536 -36.716  14.654  0.00  0.00     0.048 A 
ATOM      9  CAD A63 d   1      -7.381 -37.744  14.215  0.00  0.00     0.187 A 
ATOM     10  OAH A63 d   1      -8.202 -38.288  14.946  0.00  0.00    -0.287 OA
ATOM     11  CAB A63 d   1      -7.430 -38.065  12.862  0.00  0.00    -0.000 A 
ATOM     12  H8  A63 d   1      -4.435 -34.363  13.362  0.00  0.00     0.087 H 
ATOM     13  H9  A63 d   1      -4.190 -33.815  15.791  0.00  0.00     0.083 H 
ATOM     14  H10 A63 d   1      -5.489 -35.114  17.463  0.00  0.00     0.083 H 
ATOM     15  H11 A63 d   1      -6.911 -37.032  16.743  0.00  0.00     0.085 H 
ATOM     16  H12 A63 d   1      -8.073 -38.863  12.494  0.00  0.00     0.094 H 
ENDROOT
BRANCH   1  17
ATOM     17  CAG A63 d   1      -6.565 -37.585  10.627  0.00  0.00    -0.002 A 
ATOM     18  CAI A63 d   1      -7.167 -38.700  10.041  0.00  0.00    -0.068 A 
ATOM     19  CAM A63 d   1      -7.069 -38.900   8.652  0.00  0.00    -0.050 A 
ATOM     20  H5  A63 d   1      -7.709 -39.410  10.655  0.00  0.00     0.085 H 
ATOM     21  CAK A63 d   1      -6.400 -38.006   7.832  0.00  0.00     0.068 A 
ATOM     22  H4  A63 d   1      -7.529 -39.777   8.211  0.00  0.00     0.087 H 
ATOM     23  CAL A63 d   1      -5.811 -36.895   8.422  0.00  0.00    -0.050 A 
ATOM     24  CAJ A63 d   1      -5.895 -36.685   9.799  0.00  0.00    -0.068 A 
ATOM     25  H6  A63 d   1      -5.279 -36.181   7.804  0.00  0.00     0.087 H 
ATOM     26  H7  A63 d   1      -5.431 -35.806  10.233  0.00  0.00     0.085 H 
BRANCH  21  27
ATOM     27  OAO A63 d   1      -6.309 -38.147   6.451  0.00  0.00    -0.356 OA
BRANCH  27  28
ATOM     28  CAQ A63 d   1      -5.848 -39.409   6.009  0.00  0.00     0.010 C 
ATOM     29  H1  A63 d   1      -5.811 -39.421   4.910  0.00  0.00     0.066 H 
ATOM     30  H2  A63 d   1      -6.533 -40.194   6.362  0.00  0.00     0.066 H 
ATOM     31  H3  A63 d   1      -4.841 -39.593   6.412  0.00  0.00     0.066 H 
ENDBRANCH  27  28
ENDBRANCH  21  27
ENDBRANCH   1  17
TORSDOF 3
