REMARK  20 active torsions:
REMARK  status: ('A' for Active; 'I' for Inactive)
REMARK    1  A    between atoms: C10_13  and  N1_3 
REMARK    2  A    between atoms: C29_37  and  C4_6 
REMARK    3  A    between atoms: C11_14  and  C10_13 
REMARK    4  A    between atoms: C10_13  and  C13_17 
REMARK       I    between atoms: N3_15  and  C11_14 
REMARK    5  A    between atoms: C12_16  and  N3_15 
REMARK    6  A    between atoms: C12_16  and  C22_27 
REMARK    7  A    between atoms: C23_28  and  C12_16 
REMARK    8  A    between atoms: C13_17  and  C14_18 
REMARK    9  A    between atoms: C13_17  and  C15_19 
REMARK   10  A    between atoms: C22_27  and  C20_25 
REMARK   11  A    between atoms: C24_29  and  C23_28 
REMARK   12  A    between atoms: C25_30  and  C24_29 
REMARK   13  A    between atoms: C24_29  and  O4_36 
REMARK   14  A    between atoms: C25_30  and  N4_31 
REMARK   15  A    between atoms: C25_30  and  C29_37 
REMARK       I    between atoms: N4_31  and  C26_32 
REMARK   16  A    between atoms: C26_32  and  C27_33 
REMARK   17  A    between atoms: C27_33  and  O3_34 
REMARK   18  A    between atoms: O3_34  and  C28_35 
REMARK   19  A    between atoms: C30_39  and  C36_45 
REMARK   20  A    between atoms: C34_43  and  C35_44 
ROOT
ATOM      1  C23 AB1 d   1      -6.281  15.704  -0.323  0.00  0.00    -0.020 C 
ATOM      2  H   AB1 d   1      -5.954  16.641   0.150  0.00  0.00     0.040 H 
ATOM      3  H   AB1 d   1      -5.841  15.628  -1.328  0.00  0.00     0.040 H 
ENDROOT
BRANCH   1   4
ATOM      4  C12 AB1 d   1      -7.798  15.740  -0.463  0.00  0.00     0.018 C 
ATOM      5  H   AB1 d   1      -8.204  14.720  -0.532  0.00  0.00     0.073 H 
BRANCH   4   6
ATOM      6  N3  AB1 d   1      -8.421  16.527   0.587  0.00  0.00    -0.354 N 
ATOM      7  C11 AB1 d   1      -9.520  16.032   1.149  0.00  0.00     0.241 C 
ATOM      8  O2  AB1 d   1      -9.966  14.933   0.831  0.00  0.00    -0.271 OA
ATOM      9  H   AB1 d   1      -8.039  17.405   0.875  0.00  0.00     0.162 HD
BRANCH   7  10
ATOM     10  C10 AB1 d   1     -10.210  16.884   2.183  0.00  0.00     0.096 C 
ATOM     11  H   AB1 d   1      -9.451  17.356   2.824  0.00  0.00     0.088 H 
BRANCH  10  12
ATOM     12  N1  AB1 d   1     -10.993  17.961   1.520  0.00  0.00    -0.320 N 
ATOM     13  C2  AB1 d   1     -11.330  17.695   0.114  0.00  0.00     0.002 C 
ATOM     14  C37 AB1 d   1     -12.797  18.099  -0.076  0.00  0.00    -0.035 C 
ATOM     15  H   AB1 d   1     -11.200  16.626  -0.111  0.00  0.00     0.064 H 
ATOM     16  H   AB1 d   1     -10.685  18.290  -0.549  0.00  0.00     0.064 H 
ATOM     17  C1  AB1 d   1     -13.092  19.531   0.381  0.00  0.00    -0.002 C 
ATOM     18  H   AB1 d   1     -13.048  18.014  -1.144  0.00  0.00     0.037 H 
ATOM     19  H   AB1 d   1     -13.428  17.410   0.505  0.00  0.00     0.037 H 
ATOM     20  N2  AB1 d   1     -12.519  19.642   1.715  0.00  0.00    -0.343 N 
ATOM     21  H   AB1 d   1     -12.622  20.256  -0.300  0.00  0.00     0.064 H 
ATOM     22  H   AB1 d   1     -14.177  19.708   0.413  0.00  0.00     0.064 H 
ATOM     23  C3  AB1 d   1     -11.366  19.105   2.120  0.00  0.00     0.319 C 
ATOM     24  H   AB1 d   1     -13.037  20.169   2.389  0.00  0.00     0.164 HD
ATOM     25  O1  AB1 d   1     -10.704  19.660   2.965  0.00  0.00    -0.247 OA
ENDBRANCH  10  12
BRANCH  10  26
ATOM     26  C13 AB1 d   1     -11.093  15.962   3.061  0.00  0.00    -0.033 C 
ATOM     27  H   AB1 d   1     -10.671  14.954   2.930  0.00  0.00     0.042 H 
BRANCH  26  28
ATOM     28  C14 AB1 d   1     -10.990  16.277   4.555  0.00  0.00    -0.071 C 
ATOM     29  H   AB1 d   1     -11.638  15.591   5.120  0.00  0.00     0.028 H 
ATOM     30  H   AB1 d   1     -11.310  17.314   4.734  0.00  0.00     0.028 H 
ATOM     31  H   AB1 d   1      -9.948  16.153   4.885  0.00  0.00     0.028 H 
ENDBRANCH  26  28
BRANCH  26  32
ATOM     32  C15 AB1 d   1     -12.562  15.850   2.649  0.00  0.00    -0.071 C 
ATOM     33  H   AB1 d   1     -12.625  15.624   1.574  0.00  0.00     0.028 H 
ATOM     34  H   AB1 d   1     -13.074  16.802   2.854  0.00  0.00     0.028 H 
ATOM     35  H   AB1 d   1     -13.043  15.044   3.222  0.00  0.00     0.028 H 
ENDBRANCH  26  32
ENDBRANCH  10  26
ENDBRANCH   7  10
ENDBRANCH   4   6
BRANCH   4  36
ATOM     36  C22 AB1 d   1      -8.188  16.628  -1.640  0.00  0.00    -0.022 C 
ATOM     37  H   AB1 d   1      -7.280  16.889  -2.203  0.00  0.00     0.043 H 
ATOM     38  H   AB1 d   1      -8.655  17.545  -1.252  0.00  0.00     0.043 H 
BRANCH  36  39
ATOM     39  C20 AB1 d   1      -9.159  15.945  -2.572  0.00  0.00    -0.056 A 
ATOM     40  C19 AB1 d   1     -10.003  14.919  -2.130  0.00  0.00    -0.077 A 
ATOM     41  C18 AB1 d   1     -10.888  14.307  -3.010  0.00  0.00    -0.082 A 
ATOM     42  H   AB1 d   1      -9.966  14.600  -1.095  0.00  0.00     0.084 H 
ATOM     43  C17 AB1 d   1     -10.916  14.732  -4.333  0.00  0.00    -0.083 A 
ATOM     44  H   AB1 d   1     -11.544  13.513  -2.671  0.00  0.00     0.083 H 
ATOM     45  C16 AB1 d   1     -10.085  15.753  -4.785  0.00  0.00    -0.082 A 
ATOM     46  H   AB1 d   1     -11.600  14.258  -5.028  0.00  0.00     0.083 H 
ATOM     47  C21 AB1 d   1      -9.204  16.364  -3.899  0.00  0.00    -0.077 A 
ATOM     48  H   AB1 d   1     -10.124  16.070  -5.821  0.00  0.00     0.083 H 
ATOM     49  H   AB1 d   1      -8.555  17.163  -4.240  0.00  0.00     0.084 H 
ENDBRANCH  36  39
ENDBRANCH   4  36
ENDBRANCH   1   4
BRANCH   1  50
ATOM     50  C24 AB1 d   1      -5.768  14.535   0.517  0.00  0.00     0.057 C 
ATOM     51  H   AB1 d   1      -6.339  14.550   1.457  0.00  0.00     0.086 H 
BRANCH  50  52
ATOM     52  C25 AB1 d   1      -5.851  13.105  -0.024  0.00  0.00     0.041 C 
ATOM     53  H   AB1 d   1      -6.887  12.752  -0.137  0.00  0.00     0.076 H 
BRANCH  52  54
ATOM     54  N4  AB1 d   1      -5.053  12.991  -1.235  0.00  0.00    -0.352 N 
ATOM     55  C26 AB1 d   1      -5.179  11.951  -2.066  0.00  0.00     0.242 C 
ATOM     56  O5  AB1 d   1      -5.978  11.033  -1.930  0.00  0.00    -0.271 OA
ATOM     57  H   AB1 d   1      -4.392  13.710  -1.452  0.00  0.00     0.163 HD
BRANCH  55  58
ATOM     58  C27 AB1 d   1      -4.263  11.945  -3.253  0.00  0.00     0.099 C 
ATOM     59  H   AB1 d   1      -4.207  12.956  -3.683  0.00  0.00     0.089 H 
ATOM     60  H   AB1 d   1      -4.644  11.245  -4.011  0.00  0.00     0.089 H 
BRANCH  58  61
ATOM     61  O3  AB1 d   1      -2.958  11.529  -2.822  0.00  0.00    -0.341 OA
BRANCH  61  62
ATOM     62  C28 AB1 d   1      -2.471  10.278  -3.094  0.00  0.00     0.081 A 
ATOM     63  C30 AB1 d   1      -2.162   9.922  -4.404  0.00  0.00    -0.028 A 
ATOM     64  C31 AB1 d   1      -1.661   8.647  -4.684  0.00  0.00    -0.074 A 
ATOM     65  C32 AB1 d   1      -1.477   7.720  -3.658  0.00  0.00    -0.082 A 
ATOM     66  H   AB1 d   1      -1.414   8.377  -5.705  0.00  0.00     0.084 H 
ATOM     67  C33 AB1 d   1      -1.789   8.077  -2.348  0.00  0.00    -0.074 A 
ATOM     68  H   AB1 d   1      -1.094   6.730  -3.878  0.00  0.00     0.083 H 
ATOM     69  C34 AB1 d   1      -2.280   9.350  -2.067  0.00  0.00    -0.028 A 
ATOM     70  H   AB1 d   1      -1.649   7.362  -1.545  0.00  0.00     0.084 H 
BRANCH  63  71
ATOM     71  C36 AB1 d   1      -2.365  10.900  -5.530  0.00  0.00    -0.049 C 
ATOM     72  H   AB1 d   1      -2.762  11.844  -5.129  0.00  0.00     0.033 H 
ATOM     73  H   AB1 d   1      -3.078  10.481  -6.255  0.00  0.00     0.033 H 
ATOM     74  H   AB1 d   1      -1.403  11.090  -6.029  0.00  0.00     0.033 H 
ENDBRANCH  63  71
BRANCH  69  75
ATOM     75  C35 AB1 d   1      -2.598   9.689  -0.639  0.00  0.00    -0.049 C 
ATOM     76  H   AB1 d   1      -2.973  10.722  -0.582  0.00  0.00     0.033 H 
ATOM     77  H   AB1 d   1      -1.688   9.595  -0.028  0.00  0.00     0.033 H 
ATOM     78  H   AB1 d   1      -3.366   8.999  -0.261  0.00  0.00     0.033 H 
ENDBRANCH  69  75
ENDBRANCH  61  62
ENDBRANCH  58  61
ENDBRANCH  55  58
ENDBRANCH  52  54
BRANCH  52  79
ATOM     79  C29 AB1 d   1      -4.983  12.270   0.919  0.00  0.00    -0.020 C 
ATOM     80  H   AB1 d   1      -3.995  12.164   0.446  0.00  0.00     0.043 H 
ATOM     81  H   AB1 d   1      -4.882  12.835   1.857  0.00  0.00     0.043 H 
BRANCH  79  82
ATOM     82  C4  AB1 d   1      -5.460  10.883   1.280  0.00  0.00    -0.056 A 
ATOM     83  C5  AB1 d   1      -4.641  10.132   2.128  0.00  0.00    -0.077 A 
ATOM     84  C6  AB1 d   1      -5.011   8.845   2.503  0.00  0.00    -0.082 A 
ATOM     85  H   AB1 d   1      -3.713  10.555   2.495  0.00  0.00     0.084 H 
ATOM     86  C7  AB1 d   1      -6.211   8.320   2.032  0.00  0.00    -0.083 A 
ATOM     87  H   AB1 d   1      -4.373   8.258   3.154  0.00  0.00     0.083 H 
ATOM     88  C8  AB1 d   1      -7.039   9.065   1.192  0.00  0.00    -0.082 A 
ATOM     89  H   AB1 d   1      -6.506   7.318   2.322  0.00  0.00     0.083 H 
ATOM     90  C9  AB1 d   1      -6.666  10.352   0.817  0.00  0.00    -0.077 A 
ATOM     91  H   AB1 d   1      -7.970   8.643   0.833  0.00  0.00     0.083 H 
ATOM     92  H   AB1 d   1      -7.307  10.939   0.170  0.00  0.00     0.084 H 
ENDBRANCH  79  82
ENDBRANCH  52  79
ENDBRANCH  50  52
BRANCH  50  93
ATOM     93  O4  AB1 d   1      -4.389  14.787   0.797  0.00  0.00    -0.393 OA
ATOM     94  H   AB1 d   1      -3.883  14.697  -0.002  0.00  0.00     0.210 HD
ENDBRANCH  50  93
ENDBRANCH   1  50
TORSDOF 20
