REMARK  32 active torsions:
REMARK  status: ('A' for Active; 'I' for Inactive)
REMARK    1  A    between atoms: N_1  and  CA_2 
REMARK    2  A    between atoms: CA_2  and  C_3 
REMARK       I    between atoms: C_3  and  N_5 
REMARK    3  A    between atoms: N_5  and  CA_6 
REMARK    4  A    between atoms: CA_6  and  C_7 
REMARK    5  A    between atoms: CA_6  and  CB_9 
REMARK       I    between atoms: C_7  and  N_11 
REMARK    6  A    between atoms: CB_9  and  OG_10 
REMARK    7  A    between atoms: N_11  and  CA_12 
REMARK    8  A    between atoms: CA_12  and  C_13 
REMARK    9  A    between atoms: CA_12  and  CB_15 
REMARK       I    between atoms: C_13  and  N_22 
REMARK   10  A    between atoms: CB_15  and  CG_16 
REMARK   11  A    between atoms: CG_16  and  CD_17 
REMARK   12  A    between atoms: CD_17  and  NE_18 
REMARK       I    between atoms: NE_18  and  CZ_19 
REMARK       I    between atoms: CZ_19  and  NH1_20 
REMARK   13  A    between atoms: N_22  and  CA_23 
REMARK   14  A    between atoms: CA_23  and  CB_24 
REMARK   15  A    between atoms: CA_23  and  C_31 
REMARK   16  A    between atoms: CB_24  and  CG2_25 
REMARK   17  A    between atoms: CB_24  and  OG1_26 
REMARK   18  A    between atoms: OG1_26  and  P_27 
REMARK       I    between atoms: C_31  and  N_33 
REMARK   19  A    between atoms: CA_34  and  C_35 
REMARK       I    between atoms: C_35  and  N_40 
REMARK   20  A    between atoms: N_40  and  CA_41 
REMARK   21  A    between atoms: CA_41  and  C_42 
REMARK   22  A    between atoms: CA_41  and  CB_44 
REMARK       I    between atoms: C_42  and  N_48 
REMARK   23  A    between atoms: CB_44  and  CG_45 
REMARK   24  A    between atoms: CG_45  and  SD_46 
REMARK   25  A    between atoms: SD_46  and  CE_47 
REMARK   26  A    between atoms: N_48  and  CA_49 
REMARK   27  A    between atoms: CA_49  and  C_50 
REMARK   28  A    between atoms: CA_49  and  CB_52 
REMARK       I    between atoms: C_50  and  N_60 
REMARK   29  A    between atoms: CB_52  and  CG_53 
REMARK   30  A    between atoms: CZ_58  and  OH_59 
REMARK   31  A    between atoms: N_60  and  CA_61 
REMARK   32  A    between atoms: CA_61  and  C_62 
ROOT
ATOM      1  C   TPO d   1     216.561  -7.531  71.499  0.00  0.00     0.246 C 
ATOM      2  O   TPO d   1     215.460  -6.967  71.352  0.00  0.00    -0.271 OA
ATOM      3  N   PRO d   1     216.951  -8.053  72.667  0.00  0.00    -0.337 N 
ATOM      4  CA  PRO d   1     216.086  -7.861  73.830  0.00  0.00     0.091 C 
ATOM      5  CB  PRO d   1     216.611  -8.902  74.820  0.00  0.00    -0.036 C 
ATOM      6  CG  PRO d   1     218.071  -9.029  74.465  0.00  0.00    -0.048 C 
ATOM      7  CD  PRO d   1     218.138  -8.873  72.975  0.00  0.00    -0.001 C 
ATOM      8  H30 PRO d   1     215.032  -8.052  73.581  0.00  0.00     0.087 H 
ATOM      9  H31 PRO d   1     216.091  -9.863  74.691  0.00  0.00     0.036 H 
ATOM     10  H32 PRO d   1     216.488  -8.555  75.856  0.00  0.00     0.036 H 
ATOM     11  H33 PRO d   1     218.455 -10.015  74.766  0.00  0.00     0.035 H 
ATOM     12  H34 PRO d   1     218.657  -8.241  74.960  0.00  0.00     0.035 H 
ATOM     13  H35 PRO d   1     219.062  -8.358  72.674  0.00  0.00     0.064 H 
ATOM     14  H36 PRO d   1     218.083  -9.850  72.474  0.00  0.00     0.064 H 
ENDROOT
BRANCH   1  15
ATOM     15  CA  TPO d   1     217.522  -7.673  70.323  0.00  0.00     0.114 C 
ATOM     16  H25 TPO d   1     218.361  -8.328  70.602  0.00  0.00     0.091 H 
BRANCH  15  17
ATOM     17  N   TPO d   1     216.751  -8.274  69.263  0.00  0.00    -0.344 N 
ATOM     18  C   ARG d   1     216.435  -9.566  69.268  0.00  0.00     0.241 C 
ATOM     19  O   ARG d   1     216.781 -10.348  70.152  0.00  0.00    -0.271 OA
ATOM     20  H24 TPO d   1     216.445  -7.702  68.502  0.00  0.00     0.163 HD
BRANCH  18  21
ATOM     21  CA  ARG d   1     215.604 -10.042  68.091  0.00  0.00     0.089 C 
ATOM     22  H12 ARG d   1     215.599  -9.238  67.340  0.00  0.00     0.087 H 
BRANCH  21  23
ATOM     23  N   ARG d   1     216.131 -11.236  67.444  0.00  0.00    -0.346 N 
ATOM     24  C   SER d   1     217.400 -11.333  67.064  0.00  0.00     0.243 C 
ATOM     25  O   SER d   1     218.287 -10.583  67.482  0.00  0.00    -0.271 OA
ATOM     26  H11 ARG d   1     215.517 -12.008  67.281  0.00  0.00     0.163 HD
BRANCH  24  27
ATOM     27  CA  SER d   1     217.726 -12.471  66.095  0.00  0.00     0.109 C 
ATOM     28  H7  SER d   1     216.852 -13.133  66.012  0.00  0.00     0.090 H 
BRANCH  27  29
ATOM     29  N   SER d   1     218.042 -11.935  64.762  0.00  0.00    -0.344 N 
ATOM     30  C   GLY d   1     217.191 -11.940  63.733  0.00  0.00     0.243 C 
ATOM     31  O   GLY d   1     216.040 -12.374  63.802  0.00  0.00    -0.272 OA
ATOM     32  H6  SER d   1     218.950 -11.543  64.618  0.00  0.00     0.163 HD
BRANCH  30  33
ATOM     33  CA  GLY d   1     217.726 -11.363  62.427  0.00  0.00     0.152 C 
ATOM     34  H4  GLY d   1     218.319 -10.467  62.665  0.00  0.00     0.090 H 
ATOM     35  H5  GLY d   1     218.375 -12.118  61.959  0.00  0.00     0.090 H 
BRANCH  33  36
ATOM     36  N   GLY d   1     216.704 -10.987  61.467  0.00  0.00    -0.071 N 
ATOM     37  H1  GLY d   1     217.142 -10.617  60.638  0.00  0.00     0.274 HD
ATOM     38  H2  GLY d   1     216.105 -10.285  61.872  0.00  0.00     0.274 HD
ATOM     39  H3  GLY d   1     216.156 -11.798  61.225  0.00  0.00     0.274 HD
ENDBRANCH  33  36
ENDBRANCH  30  33
ENDBRANCH  27  29
BRANCH  27  40
ATOM     40  CB  SER d   1     218.915 -13.277  66.648  0.00  0.00     0.044 C 
ATOM     41  H8  SER d   1     218.685 -14.350  66.570  0.00  0.00     0.077 H 
ATOM     42  H9  SER d   1     219.066 -13.010  67.704  0.00  0.00     0.077 H 
BRANCH  40  43
ATOM     43  OG  SER d   1     220.114 -13.009  65.929  0.00  0.00    -0.398 OA
ATOM     44  H10 SER d   1     220.824 -13.522  66.297  0.00  0.00     0.209 HD
ENDBRANCH  40  43
ENDBRANCH  27  40
ENDBRANCH  24  27
ENDBRANCH  21  23
BRANCH  21  45
ATOM     45  CB  ARG d   1     214.170 -10.269  68.556  0.00  0.00    -0.036 C 
ATOM     46  H13 ARG d   1     214.159 -11.099  69.278  0.00  0.00     0.036 H 
ATOM     47  H14 ARG d   1     213.553 -10.533  67.684  0.00  0.00     0.036 H 
BRANCH  45  48
ATOM     48  CG  ARG d   1     213.582  -9.045  69.215  0.00  0.00    -0.048 C 
ATOM     49  H15 ARG d   1     213.765  -8.170  68.573  0.00  0.00     0.035 H 
ATOM     50  H16 ARG d   1     214.070  -8.894  70.189  0.00  0.00     0.035 H 
BRANCH  48  51
ATOM     51  CD  ARG d   1     212.096  -9.196  69.428  0.00  0.00     0.009 C 
ATOM     52  H17 ARG d   1     211.617  -9.346  68.449  0.00  0.00     0.064 H 
ATOM     53  H18 ARG d   1     211.713  -8.272  69.886  0.00  0.00     0.064 H 
BRANCH  51  54
ATOM     54  NE  ARG d   1     211.746 -10.321  70.293  0.00  0.00    -0.227 N 
ATOM     55  CZ  ARG d   1     210.525 -10.520  70.789  0.00  0.00     0.665 C 
ATOM     56  NH1 ARG d   1     209.547  -9.660  70.514  0.00  0.00    -0.235 N 
ATOM     57  NH2 ARG d   1     210.269 -11.576  71.552  0.00  0.00    -0.235 N 
ATOM     58  H20 ARG d   1     208.603  -9.813  70.897  0.00  0.00     0.174 HD
ATOM     59  H21 ARG d   1     209.734  -8.841  69.918  0.00  0.00     0.174 HD
ATOM     60  H22 ARG d   1     211.019 -12.247  71.771  0.00  0.00     0.174 HD
ATOM     61  H23 ARG d   1     209.321 -11.724  71.925  0.00  0.00     0.174 HD
ATOM     62  H19 ARG d   1     212.484 -10.998  70.533  0.00  0.00     0.177 HD
ENDBRANCH  51  54
ENDBRANCH  48  51
ENDBRANCH  45  48
ENDBRANCH  21  45
ENDBRANCH  18  21
ENDBRANCH  15  17
BRANCH  15  63
ATOM     63  CB  TPO d   1     218.076  -6.321  69.871  0.00  0.00     0.076 C 
ATOM     64  H26 TPO d   1     217.267  -5.680  69.490  0.00  0.00     0.087 H 
BRANCH  63  65
ATOM     65  CG2 TPO d   1     218.783  -5.629  71.050  0.00  0.00    -0.049 C 
ATOM     66  H27 TPO d   1     219.180  -4.657  70.720  0.00  0.00     0.031 H 
ATOM     67  H28 TPO d   1     219.610  -6.262  71.404  0.00  0.00     0.031 H 
ATOM     68  H29 TPO d   1     218.064  -5.473  71.868  0.00  0.00     0.031 H 
ENDBRANCH  63  65
BRANCH  63  69
ATOM     69  OG1 TPO d   1     219.036  -6.599  68.831  0.00  0.00    -0.275 OA
BRANCH  69  70
ATOM     70  P   TPO d   1     218.545  -6.005  67.424  0.00  0.00     0.422 P 
ATOM     71  O1P TPO d   1     219.579  -6.319  66.418  0.00  0.00    -0.617 OA
ATOM     72  O2P TPO d   1     217.113  -6.640  67.010  0.00  0.00    -0.617 OA
ATOM     73  O3P TPO d   1     218.387  -4.396  67.534  0.00  0.00    -0.617 OA
ENDBRANCH  69  70
ENDBRANCH  63  69
ENDBRANCH  15  63
ENDBRANCH   1  15
BRANCH   4  74
ATOM     74  C   PRO d   1     216.236  -6.431  74.370  0.00  0.00     0.241 C 
ATOM     75  O   PRO d   1     217.282  -5.822  74.170  0.00  0.00    -0.271 OA
ATOM     76  N   MET d   1     215.202  -5.901  75.014  0.00  0.00    -0.346 N 
ATOM     77  H37 MET d   1     214.366  -6.439  75.118  0.00  0.00     0.163 HD
BRANCH  76  78
ATOM     78  CA  MET d   1     215.254  -4.550  75.576  0.00  0.00     0.090 C 
ATOM     79  H38 MET d   1     216.034  -3.984  75.046  0.00  0.00     0.087 H 
BRANCH  78  80
ATOM     80  C   MET d   1     215.598  -4.574  77.061  0.00  0.00     0.241 C 
ATOM     81  O   MET d   1     215.115  -5.421  77.803  0.00  0.00    -0.271 OA
ATOM     82  N   TYR d   1     216.440  -3.642  77.484  0.00  0.00    -0.346 N 
ATOM     83  H46 TYR d   1     216.864  -3.032  76.815  0.00  0.00     0.163 HD
BRANCH  82  84
ATOM     84  CA  TYR d   1     216.766  -3.480  78.894  0.00  0.00     0.093 C 
ATOM     85  H47 TYR d   1     217.273  -4.389  79.250  0.00  0.00     0.088 H 
BRANCH  84  86
ATOM     86  C   TYR d   1     215.483  -3.275  79.720  0.00  0.00     0.241 C 
ATOM     87  O   TYR d   1     214.568  -2.582  79.278  0.00  0.00    -0.271 OA
ATOM     88  N   GLY d   1     215.417  -3.890  80.904  0.00  0.00    -0.349 N 
ATOM     89  H55 GLY d   1     216.223  -4.378  81.239  0.00  0.00     0.163 HD
BRANCH  88  90
ATOM     90  CA  GLY d   1     214.214  -3.876  81.725  0.00  0.00     0.075 C 
ATOM     91  H56 GLY d   1     213.843  -2.842  81.786  0.00  0.00     0.080 H 
ATOM     92  H57 GLY d   1     214.472  -4.233  82.733  0.00  0.00     0.080 H 
BRANCH  90  93
ATOM     93  C   GLY d   1     213.108  -4.757  81.167  0.00  0.00     0.191 C 
ATOM     94  O   GLY d   1     212.723  -4.654  79.972  0.00  0.00    -0.647 OA
ATOM     95  O   GLY d   1     212.563  -5.610  81.917  0.00  0.00    -0.647 OA
ENDBRANCH  90  93
ENDBRANCH  88  90
ENDBRANCH  84  86
BRANCH  84  96
ATOM     96  CB  TYR d   1     217.709  -2.290  79.064  0.00  0.00    -0.014 C 
ATOM     97  H48 TYR d   1     217.234  -1.405  78.616  0.00  0.00     0.043 H 
ATOM     98  H49 TYR d   1     218.646  -2.512  78.532  0.00  0.00     0.043 H 
BRANCH  96  99
ATOM     99  CG  TYR d   1     218.040  -1.976  80.493  0.00  0.00    -0.056 A 
ATOM    100  CD1 TYR d   1     218.504  -2.963  81.355  0.00  0.00    -0.074 A 
ATOM    101  CE1 TYR d   1     218.809  -2.672  82.674  0.00  0.00    -0.051 A 
ATOM    102  H50 TYR d   1     218.629  -3.976  80.989  0.00  0.00     0.084 H 
ATOM    103  CZ  TYR d   1     218.657  -1.380  83.138  0.00  0.00     0.065 A 
ATOM    104  H52 TYR d   1     219.164  -3.452  83.337  0.00  0.00     0.087 H 
ATOM    105  CE2 TYR d   1     218.199  -0.390  82.292  0.00  0.00    -0.051 A 
ATOM    106  CD2 TYR d   1     217.897  -0.690  80.984  0.00  0.00    -0.074 A 
ATOM    107  H53 TYR d   1     218.077   0.623  82.658  0.00  0.00     0.087 H 
ATOM    108  H51 TYR d   1     217.541   0.095  80.326  0.00  0.00     0.084 H 
BRANCH 103 109
ATOM    109  OH  TYR d   1     218.959  -1.063  84.452  0.00  0.00    -0.361 OA
ATOM    110  H54 TYR d   1     219.259  -1.843  84.904  0.00  0.00     0.217 HD
ENDBRANCH 103 109
ENDBRANCH  96  99
ENDBRANCH  84  96
ENDBRANCH  82  84
ENDBRANCH  78  80
BRANCH  78 111
ATOM    111  CB  MET d   1     213.910  -3.843  75.379  0.00  0.00    -0.030 C 
ATOM    112  H39 MET d   1     213.917  -2.913  75.967  0.00  0.00     0.037 H 
ATOM    113  H40 MET d   1     213.112  -4.504  75.748  0.00  0.00     0.037 H 
BRANCH 111 114
ATOM    114  CG  MET d   1     213.613  -3.494  73.933  0.00  0.00    -0.021 C 
ATOM    115  H41 MET d   1     212.591  -3.091  73.870  0.00  0.00     0.049 H 
ATOM    116  H42 MET d   1     213.684  -4.410  73.327  0.00  0.00     0.049 H 
BRANCH 114 117
ATOM    117  SD  MET d   1     214.764  -2.266  73.266  0.00  0.00    -0.173 SA
BRANCH 117 118
ATOM    118  CE  MET d   1     215.640  -3.242  72.054  0.00  0.00    -0.035 C 
ATOM    119  H43 MET d   1     216.393  -2.615  71.553  0.00  0.00     0.041 H 
ATOM    120  H44 MET d   1     214.928  -3.627  71.309  0.00  0.00     0.041 H 
ATOM    121  H45 MET d   1     216.139  -4.085  72.554  0.00  0.00     0.041 H 
ENDBRANCH 117 118
ENDBRANCH 114 117
ENDBRANCH 111 114
ENDBRANCH  78 111
ENDBRANCH  76  78
ENDBRANCH   4  74
TORSDOF 32
