REMARK  3 active torsions:
REMARK  status: ('A' for Active; 'I' for Inactive)
REMARK    1  A    between atoms: C11_11  and  N12_12 
REMARK    2  A    between atoms: C19_19  and  C20_20 
REMARK    3  A    between atoms: C24_24  and  O25_25 
ROOT
ATOM      1  N01 X6K d   1      35.216  48.703  43.931  0.00  0.00    -0.236 NA
ATOM      2  C02 X6K d   1      36.190  49.138  43.108  0.00  0.00     0.005 A 
ATOM      3  C03 X6K d   1      36.279  48.806  41.745  0.00  0.00    -0.065 A 
ATOM      4  C04 X6K d   1      35.347  47.969  41.126  0.00  0.00    -0.065 A 
ATOM      5  C05 X6K d   1      34.352  47.521  41.975  0.00  0.00     0.049 A 
ATOM      6  C06 X6K d   1      34.282  47.891  43.402  0.00  0.00     0.182 A 
ATOM      7  O07 X6K d   1      33.225  47.327  44.008  0.00  0.00    -0.285 OA
ATOM      8  C08 X6K d   1      32.549  46.586  43.106  0.00  0.00     0.148 A 
ATOM      9  C09 X6K d   1      33.185  46.645  41.782  0.00  0.00     0.111 A 
ATOM     10  N10 X6K d   1      32.681  45.977  40.721  0.00  0.00    -0.225 NA
ATOM     11  C11 X6K d   1      31.315  45.774  43.254  0.00  0.00     0.144 A 
ATOM     12  N18 X6K d   1      30.912  45.137  42.121  0.00  0.00    -0.213 NA
ATOM     13  C19 X6K d   1      31.543  45.235  40.903  0.00  0.00     0.162 A 
ATOM     14  H   X6K d   1      36.954  49.785  43.523  0.00  0.00     0.114 H 
ATOM     15  H   X6K d   1      37.094  49.211  41.157  0.00  0.00     0.085 H 
ATOM     16  H   X6K d   1      35.399  47.696  40.078  0.00  0.00     0.085 H 
ENDROOT
BRANCH  11  17
ATOM     17  N12 X6K d   1      30.633  45.618  44.488  0.00  0.00    -0.261 NA
ATOM     18  C13 X6K d   1      29.284  45.054  44.374  0.00  0.00     0.005 C 
ATOM     19  C14 X6K d   1      28.961  44.500  45.763  0.00  0.00     0.031 C 
ATOM     20  H   X6K d   1      29.265  44.250  43.624  0.00  0.00     0.059 H 
ATOM     21  H   X6K d   1      28.562  45.835  44.093  0.00  0.00     0.059 H 
ATOM     22  O15 X6K d   1      29.097  45.507  46.781  0.00  0.00    -0.389 OA
ATOM     23  H   X6K d   1      29.650  43.672  45.986  0.00  0.00     0.076 H 
ATOM     24  H   X6K d   1      27.926  44.127  45.766  0.00  0.00     0.076 H 
ATOM     25  C16 X6K d   1      30.288  46.312  46.730  0.00  0.00     0.031 C 
ATOM     26  C17 X6K d   1      30.556  46.824  45.318  0.00  0.00     0.005 C 
ATOM     27  H   X6K d   1      31.144  45.705  47.059  0.00  0.00     0.076 H 
ATOM     28  H   X6K d   1      30.168  47.172  47.405  0.00  0.00     0.076 H 
ATOM     29  H   X6K d   1      29.736  47.475  44.980  0.00  0.00     0.059 H 
ATOM     30  H   X6K d   1      31.504  47.380  45.282  0.00  0.00     0.059 H 
ENDBRANCH  11  17
BRANCH  13  31
ATOM     31  C20 X6K d   1      30.951  44.462  39.764  0.00  0.00     0.014 A 
ATOM     32  C21 X6K d   1      31.191  44.781  38.434  0.00  0.00    -0.069 A 
ATOM     33  C22 X6K d   1      30.641  44.030  37.406  0.00  0.00    -0.079 A 
ATOM     34  H   X6K d   1      31.819  45.632  38.195  0.00  0.00     0.085 H 
ATOM     35  C23 X6K d   1      29.842  42.935  37.709  0.00  0.00    -0.051 A 
ATOM     36  H   X6K d   1      30.833  44.296  36.373  0.00  0.00     0.083 H 
ATOM     37  C24 X6K d   1      29.605  42.604  39.031  0.00  0.00     0.066 A 
ATOM     38  H   X6K d   1      29.406  42.342  36.913  0.00  0.00     0.087 H 
ATOM     39  C26 X6K d   1      30.159  43.357  40.050  0.00  0.00    -0.037 A 
ATOM     40  H   X6K d   1      29.974  43.082  41.082  0.00  0.00     0.089 H 
BRANCH  37  41
ATOM     41  O25 X6K d   1      28.827  41.530  39.331  0.00  0.00    -0.361 OA
ATOM     42  H   X6K d   1      29.216  40.746  38.962  0.00  0.00     0.217 HD
ENDBRANCH  37  41
ENDBRANCH  13  31
TORSDOF 3
