REMARK  1 active torsions:
REMARK  status: ('A' for Active; 'I' for Inactive)
REMARK    1  A    between atoms: CAA_12  and  CAH_13 
ROOT
ATOM      1  CAB 1V3 d   1      -7.347 -38.234  12.988  0.00  0.00    -0.000 C 
ATOM      2  CAD 1V3 d   1      -7.330 -37.773  14.307  0.00  0.00     0.187 C 
ATOM      3  OAI 1V3 d   1      -7.937 -38.333  15.221  0.00  0.00    -0.287 OA
ATOM      4  CAC 1V3 d   1      -6.468 -36.731  14.579  0.00  0.00     0.050 A 
ATOM      5  CAG 1V3 d   1      -6.159 -36.450  15.900  0.00  0.00    -0.045 A 
ATOM      6  CAK 1V3 d   1      -5.217 -35.418  16.136  0.00  0.00     0.035 A 
ATOM      7 CL1  1V3 d   1      -4.821 -35.018  17.628  0.00  0.00    -0.084 Cl
ATOM      8  CAL 1V3 d   1      -4.579 -34.683  15.120  0.00  0.00    -0.059 A 
ATOM      9  CAJ 1V3 d   1      -4.859 -34.999  13.786  0.00  0.00    -0.048 A 
ATOM     10  CAF 1V3 d   1      -5.771 -36.020  13.541  0.00  0.00     0.090 A 
ATOM     11  OAE 1V3 d   1      -6.000 -36.339  12.237  0.00  0.00    -0.309 OA
ATOM     12  CAA 1V3 d   1      -6.682 -37.518  11.957  0.00  0.00     0.090 C 
ATOM     13  H1  1V3 d   1      -7.877 -39.154  12.747  0.00  0.00     0.094 H 
ATOM     14  H2  1V3 d   1      -6.617 -36.995  16.717  0.00  0.00     0.087 H 
ATOM     15  H3  1V3 d   1      -3.885 -33.888  15.366  0.00  0.00     0.086 H 
ATOM     16  H4  1V3 d   1      -4.381 -34.466  12.972  0.00  0.00     0.087 H 
ENDROOT
BRANCH  12  17
ATOM     17  CAH 1V3 d   1      -6.631 -37.887  10.578  0.00  0.00    -0.002 A 
ATOM     18  CAN 1V3 d   1      -7.436 -38.890  10.003  0.00  0.00    -0.070 A 
ATOM     19  CAP 1V3 d   1      -7.300 -39.237   8.656  0.00  0.00    -0.082 A 
ATOM     20  H5  1V3 d   1      -8.172 -39.400  10.614  0.00  0.00     0.084 H 
ATOM     21  CAR 1V3 d   1      -6.390 -38.579   7.826  0.00  0.00    -0.083 A 
ATOM     22  H6  1V3 d   1      -7.913 -40.032   8.248  0.00  0.00     0.083 H 
ATOM     23  CAQ 1V3 d   1      -5.585 -37.573   8.368  0.00  0.00    -0.082 A 
ATOM     24  H7  1V3 d   1      -6.309 -38.844   6.778  0.00  0.00     0.083 H 
ATOM     25  CAO 1V3 d   1      -5.695 -37.242   9.735  0.00  0.00    -0.070 A 
ATOM     26  H8  1V3 d   1      -4.876 -37.047   7.738  0.00  0.00     0.083 H 
ATOM     27  H9  1V3 d   1      -5.048 -36.477  10.149  0.00  0.00     0.084 H 
ENDBRANCH  12  17
TORSDOF 1
