REMARK  1 active torsions:
REMARK  status: ('A' for Active; 'I' for Inactive)
REMARK    1  A    between atoms: CAA_12  and  CAH_13 
ROOT
ATOM      1  CAB 1V4 d   1     -38.791 -10.779  13.026  0.00  0.00    -0.000 A 
ATOM      2  CAD 1V4 d   1     -38.812 -11.106  14.379  0.00  0.00     0.187 A 
ATOM      3  OAI 1V4 d   1     -38.085 -10.453  15.165  0.00  0.00    -0.287 OA
ATOM      4  CAC 1V4 d   1     -39.692 -12.135  14.793  0.00  0.00     0.051 A 
ATOM      5  CAG 1V4 d   1     -39.885 -12.442  16.119  0.00  0.00    -0.029 A 
ATOM      6  CAK 1V4 d   1     -40.776 -13.464  16.506  0.00  0.00     0.117 A 
ATOM      7  F1  1V4 d   1     -40.972 -13.734  17.810  0.00  0.00    -0.206 F 
ATOM      8  CAL 1V4 d   1     -41.505 -14.200  15.574  0.00  0.00    -0.043 A 
ATOM      9  CAJ 1V4 d   1     -41.306 -13.876  14.233  0.00  0.00    -0.046 A 
ATOM     10  CAF 1V4 d   1     -40.426 -12.859  13.863  0.00  0.00     0.090 A 
ATOM     11  OAE 1V4 d   1     -40.322 -12.558  12.548  0.00  0.00    -0.309 OA
ATOM     12  CAA 1V4 d   1     -39.571 -11.486  12.115  0.00  0.00     0.090 A 
ATOM     13  H1  1V4 d   1     -38.159  -9.963  12.677  0.00  0.00     0.094 H 
ATOM     14  H2  1V4 d   1     -39.344 -11.890  16.879  0.00  0.00     0.089 H 
ATOM     15  H3  1V4 d   1     -42.191 -14.983  15.876  0.00  0.00     0.088 H 
ATOM     16  H4  1V4 d   1     -41.843 -14.422  13.466  0.00  0.00     0.087 H 
ENDROOT
BRANCH  12  17
ATOM     17  CAH 1V4 d   1     -39.648 -11.219  10.723  0.00  0.00    -0.002 A 
ATOM     18  CAN 1V4 d   1     -40.465 -12.027   9.917  0.00  0.00    -0.070 A 
ATOM     19  CAP 1V4 d   1     -40.576 -11.775   8.545  0.00  0.00    -0.082 A 
ATOM     20  H5  1V4 d   1     -41.013 -12.851  10.360  0.00  0.00     0.084 H 
ATOM     21  CAR 1V4 d   1     -39.903 -10.714   7.942  0.00  0.00    -0.083 A 
ATOM     22  H6  1V4 d   1     -41.200 -12.420   7.937  0.00  0.00     0.083 H 
ATOM     23  CAQ 1V4 d   1     -39.099  -9.917   8.735  0.00  0.00    -0.082 A 
ATOM     24  H7  1V4 d   1     -40.007 -10.519   6.881  0.00  0.00     0.083 H 
ATOM     25  CAO 1V4 d   1     -38.974 -10.172  10.097  0.00  0.00    -0.070 A 
ATOM     26  H8  1V4 d   1     -38.561  -9.086   8.292  0.00  0.00     0.083 H 
ATOM     27  H9  1V4 d   1     -38.330  -9.534  10.692  0.00  0.00     0.084 H 
ENDBRANCH  12  17
TORSDOF 1
