REMARK  1 active torsions:
REMARK  status: ('A' for Active; 'I' for Inactive)
REMARK    1  A    between atoms: CAG_9  and  CAA_10 
ROOT
ATOM      1  CAA 1V8 d   1      -6.742 -37.468  12.001  0.00  0.00     0.090 A 
ATOM      2  OAC 1V8 d   1      -5.963 -36.441  12.496  0.00  0.00    -0.309 OA
ATOM      3  CAF 1V8 d   1      -5.873 -36.215  13.824  0.00  0.00     0.090 A 
ATOM      4  CAR 1V8 d   1      -4.990 -35.241  14.266  0.00  0.00    -0.049 A 
ATOM      5  CAT 1V8 d   1      -4.855 -35.003  15.632  0.00  0.00    -0.080 A 
ATOM      6  CAS 1V8 d   1      -5.625 -35.775  16.513  0.00  0.00    -0.082 A 
ATOM      7  CAQ 1V8 d   1      -6.522 -36.740  16.059  0.00  0.00    -0.066 A 
ATOM      8  CAE 1V8 d   1      -6.680 -36.956  14.700  0.00  0.00     0.048 A 
ATOM      9  CAD 1V8 d   1      -7.558 -37.933  14.210  0.00  0.00     0.187 A 
ATOM     10  OAN 1V8 d   1      -8.351 -38.540  14.942  0.00  0.00    -0.287 OA
ATOM     11  CAB 1V8 d   1      -7.565 -38.193  12.848  0.00  0.00    -0.000 A 
ATOM     12  H6  1V8 d   1      -4.408 -34.668  13.553  0.00  0.00     0.087 H 
ATOM     13  H7  1V8 d   1      -4.175 -34.244  16.002  0.00  0.00     0.083 H 
ATOM     14  H8  1V8 d   1      -5.519 -35.617  17.580  0.00  0.00     0.083 H 
ATOM     15  H9  1V8 d   1      -7.097 -37.322  16.770  0.00  0.00     0.085 H 
ATOM     16  H10 1V8 d   1      -8.217 -38.966  12.444  0.00  0.00     0.094 H 
ENDROOT
BRANCH   1  17
ATOM     17  CAG 1V8 d   1      -6.676 -37.644  10.592  0.00  0.00     0.001 A 
ATOM     18  CAI 1V8 d   1      -7.508 -38.507   9.851  0.00  0.00    -0.035 A 
ATOM     19  CAH 1V8 d   1      -7.377 -38.606   8.513  0.00  0.00     0.105 A 
ATOM     20  H1  1V8 d   1      -8.261 -39.097  10.362  0.00  0.00     0.089 H 
ATOM     21  OAK 1V8 d   1      -8.088 -39.382   7.638  0.00  0.00    -0.323 OA
ATOM     22  CAJ 1V8 d   1      -6.450 -37.870   7.832  0.00  0.00     0.105 A 
ATOM     23  CAM 1V8 d   1      -7.841 -38.644   6.346  0.00  0.00     0.115 C 
ATOM     24  OAL 1V8 d   1      -6.493 -38.098   6.483  0.00  0.00    -0.323 OA
ATOM     25  H2  1V8 d   1      -8.575 -37.836   6.214  0.00  0.00     0.118 H 
ATOM     26  H3  1V8 d   1      -7.896 -39.332   5.490  0.00  0.00     0.118 H 
ATOM     27  CAP 1V8 d   1      -5.658 -37.022   8.482  0.00  0.00    -0.047 A 
ATOM     28  CAO 1V8 d   1      -5.739 -36.892   9.864  0.00  0.00    -0.068 A 
ATOM     29  H4  1V8 d   1      -4.942 -36.426   7.928  0.00  0.00     0.087 H 
ATOM     30  H5  1V8 d   1      -5.077 -36.208  10.382  0.00  0.00     0.085 H 
ENDBRANCH   1  17
TORSDOF 1
