REMARK  6 active torsions:
REMARK  status: ('A' for Active; 'I' for Inactive)
REMARK    1  A    between atoms: PAS_2  and  CAR_5 
REMARK    2  A    between atoms: CAR_5  and  PAT_6 
REMARK    3  A    between atoms: CAR_5  and  NAJ_10 
REMARK    4  A    between atoms: NAJ_10  and  C4_11 
REMARK    5  A    between atoms: CAD_19  and  CAK_20 
REMARK    6  A    between atoms: CAN_25  and  CAQ_26 
ROOT
ATOM      1  C4  YL2 d   1      14.480  31.781  -8.118  0.00  0.00     0.139 A 
ATOM      2  N3  YL2 d   1      13.486  32.090  -8.923  0.00  0.00    -0.224 NA
ATOM      3  C2  YL2 d   1      12.825  31.121  -9.623  0.00  0.00     0.090 A 
ATOM      4  N1  YL2 d   1      13.266  29.831  -9.500  0.00  0.00    -0.234 NA
ATOM      5  C6  YL2 d   1      14.292  29.545  -8.682  0.00  0.00     0.113 A 
ATOM      6  SAE YL2 d   1      15.040  28.072  -8.388  0.00  0.00    -0.069 SA
ATOM      7  C5  YL2 d   1      14.937  30.494  -7.965  0.00  0.00     0.047 A 
ATOM      8  CAC YL2 d   1      15.952  29.931  -7.213  0.00  0.00    -0.049 A 
ATOM      9  CAD YL2 d   1      16.100  28.579  -7.348  0.00  0.00     0.018 A 
ATOM     10  H   YL2 d   1      11.979  31.366 -10.255  0.00  0.00     0.146 H 
ATOM     11  H   YL2 d   1      16.589  30.524  -6.559  0.00  0.00     0.087 H 
ENDROOT
BRANCH   9  12
ATOM     12  CAK YL2 d   1      17.004  27.708  -6.798  0.00  0.00    -0.019 A 
ATOM     13  CAP YL2 d   1      17.680  27.915  -5.608  0.00  0.00    -0.071 A 
ATOM     14  CAO YL2 d   1      18.575  26.974  -5.117  0.00  0.00    -0.075 A 
ATOM     15  H   YL2 d   1      17.508  28.828  -5.050  0.00  0.00     0.084 H 
ATOM     16  CAN YL2 d   1      18.845  25.799  -5.799  0.00  0.00    -0.047 A 
ATOM     17  H   YL2 d   1      19.076  27.164  -4.175  0.00  0.00     0.084 H 
ATOM     18  CAM YL2 d   1      18.205  25.577  -6.984  0.00  0.00    -0.075 A 
ATOM     19  CAL YL2 d   1      17.306  26.516  -7.469  0.00  0.00    -0.071 A 
ATOM     20  H   YL2 d   1      18.398  24.670  -7.545  0.00  0.00     0.084 H 
ATOM     21  H   YL2 d   1      16.813  26.317  -8.414  0.00  0.00     0.084 H 
BRANCH  16  22
ATOM     22  CAQ YL2 d   1      19.776  24.816  -5.380  0.00  0.00     0.004 A 
ATOM     23  CBA YL2 d   1      20.075  24.577  -3.974  0.00  0.00    -0.094 A 
ATOM     24  CBB YL2 d   1      19.245  23.730  -4.710  0.00  0.00    -0.094 A 
ATOM     25  H   YL2 d   1      20.573  24.853  -3.045  0.00  0.00     0.077 H 
ATOM     26  H   YL2 d   1      18.619  22.839  -4.737  0.00  0.00     0.077 H 
ATOM     27  H   YL2 d   1      20.569  24.701  -6.133  0.00  0.00     0.059 H 
ENDBRANCH  16  22
ENDBRANCH   9  12
BRANCH   1  28
ATOM     28  NAJ YL2 d   1      15.046  32.831  -7.513  0.00  0.00    -0.346 N 
ATOM     29  H   YL2 d   1      15.345  32.791  -6.528  0.00  0.00     0.162 HD
BRANCH  28  30
ATOM     30  CAR YL2 d   1      15.227  34.086  -8.349  0.00  0.00     0.228 C 
ATOM     31  H   YL2 d   1      14.282  34.247  -8.889  0.00  0.00     0.117 H 
BRANCH  30  32
ATOM     32  PAS YL2 d   1      16.597  33.944  -9.600  0.00  0.00     0.297 P 
ATOM     33  OAU YL2 d   1      16.297  32.823 -10.531  0.00  0.00    -0.638 OA
ATOM     34  OAV YL2 d   1      17.839  33.958  -8.757  0.00  0.00    -0.638 OA
ATOM     35  OAW YL2 d   1      16.578  35.125 -10.678  0.00  0.00    -0.638 OA
ENDBRANCH  30  32
BRANCH  30  36
ATOM     36  PAT YL2 d   1      15.588  35.604  -7.355  0.00  0.00     0.297 P 
ATOM     37  OAX YL2 d   1      14.583  35.607  -6.141  0.00  0.00    -0.638 OA
ATOM     38  OAZ YL2 d   1      16.857  35.503  -6.598  0.00  0.00    -0.638 OA
ATOM     39  OAY YL2 d   1      15.456  36.555  -8.455  0.00  0.00    -0.638 OA
ENDBRANCH  30  36
ENDBRANCH  28  30
ENDBRANCH   1  28
TORSDOF 6
