REMARK  4 active torsions:
REMARK  status: ('A' for Active; 'I' for Inactive)
REMARK    1  A    between atoms: CAA_1  and  OAB_2 
REMARK    2  A    between atoms: OAB_2  and  CAC_3 
REMARK    3  A    between atoms: CAC_3  and  CAE_5 
REMARK    4  A    between atoms: CAH_10  and  CAK_11 
ROOT
ATOM      1  CAE F08 d   1      -6.168 -10.727  -7.986  0.00  0.00     0.039 A 
ATOM      2  CAJ F08 d   1      -7.115 -10.028  -8.765  0.00  0.00    -0.066 A 
ATOM      3  CAI F08 d   1      -7.324 -10.322 -10.124  0.00  0.00    -0.069 A 
ATOM      4  CAF F08 d   1      -5.456 -11.744  -8.628  0.00  0.00    -0.066 A 
ATOM      5  CAG F08 d   1      -5.618 -12.038  -9.988  0.00  0.00    -0.069 A 
ATOM      6  CAH F08 d   1      -6.558 -11.341 -10.779  0.00  0.00    -0.002 A 
ATOM      7  H4  F08 d   1      -7.699  -9.241  -8.302  0.00  0.00     0.085 H 
ATOM      8  H5  F08 d   1      -8.073  -9.772 -10.682  0.00  0.00     0.085 H 
ATOM      9  H6  F08 d   1      -4.750 -12.329  -8.050  0.00  0.00     0.085 H 
ATOM     10  H7  F08 d   1      -5.011 -12.814 -10.441  0.00  0.00     0.085 H 
ENDROOT
BRANCH   6  11
ATOM     11  CAK F08 d   1      -6.671 -11.682 -12.168  0.00  0.00     0.090 C 
ATOM     12  OAU F08 d   1      -5.916 -12.794 -12.582  0.00  0.00    -0.309 OA
ATOM     13  CAT F08 d   1      -5.766 -13.021 -13.934  0.00  0.00     0.090 A 
ATOM     14  CAS F08 d   1      -4.869 -14.019 -14.352  0.00  0.00    -0.049 A 
ATOM     15  CAO F08 d   1      -6.537 -12.266 -14.863  0.00  0.00     0.048 A 
ATOM     16  CAR F08 d   1      -4.678 -14.245 -15.726  0.00  0.00    -0.080 A 
ATOM     17  H8  F08 d   1      -4.329 -14.610 -13.621  0.00  0.00     0.087 H 
ATOM     18  CAQ F08 d   1      -5.405 -13.449 -16.629  0.00  0.00    -0.082 A 
ATOM     19  H9  F08 d   1      -3.993 -15.008 -16.078  0.00  0.00     0.083 H 
ATOM     20  CAP F08 d   1      -6.319 -12.477 -16.199  0.00  0.00    -0.066 A 
ATOM     21  H10 F08 d   1      -5.254 -13.592 -17.693  0.00  0.00     0.083 H 
ATOM     22  H11 F08 d   1      -6.859 -11.887 -16.931  0.00  0.00     0.085 H 
ATOM     23  CAM F08 d   1      -7.407 -11.258 -14.458  0.00  0.00     0.187 C 
ATOM     24  OAN F08 d   1      -8.129 -10.653 -15.266  0.00  0.00    -0.287 OA
ATOM     25  CAL F08 d   1      -7.367 -10.898 -13.111  0.00  0.00    -0.000 C 
ATOM     26  H12 F08 d   1      -7.882  -9.996 -12.782  0.00  0.00     0.094 H 
ENDBRANCH   6  11
BRANCH   1  27
ATOM     27  CAC F08 d   1      -5.941 -10.436  -6.610  0.00  0.00     0.292 C 
ATOM     28  OAD F08 d   1      -6.277  -9.357  -6.102  0.00  0.00    -0.259 OA
BRANCH  27  29
ATOM     29  OAB F08 d   1      -5.219 -11.349  -5.901  0.00  0.00    -0.323 OA
BRANCH  29  30
ATOM     30  CAA F08 d   1      -5.941 -11.792  -4.724  0.00  0.00     0.013 C 
ATOM     31  H1  F08 d   1      -5.333 -12.526  -4.175  0.00  0.00     0.067 H 
ATOM     32  H2  F08 d   1      -6.890 -12.257  -5.029  0.00  0.00     0.067 H 
ATOM     33  H3  F08 d   1      -6.148 -10.929  -4.074  0.00  0.00     0.067 H 
ENDBRANCH  29  30
ENDBRANCH  27  29
ENDBRANCH   1  27
TORSDOF 4
