REMARK  3 active torsions:
REMARK  status: ('A' for Active; 'I' for Inactive)
REMARK    1  A    between atoms: NAB_3  and  CAA_4 
REMARK       I    between atoms: NAE_7  and  CAH_8 
REMARK    2  A    between atoms: CAH_8  and  CAJ_10 
REMARK    3  A    between atoms: CAM_15  and  CAP_16 
ROOT
ATOM      1  CAJ 1VF d   1       7.039 -37.649  -7.733  0.00  0.00     0.032 A 
ATOM      2  CAO 1VF d   1       7.903 -38.391  -8.521  0.00  0.00    -0.067 A 
ATOM      3  CAN 1VF d   1       7.856 -38.311  -9.908  0.00  0.00    -0.069 A 
ATOM      4  CAK 1VF d   1       6.157 -36.768  -8.375  0.00  0.00    -0.067 A 
ATOM      5  CAL 1VF d   1       6.108 -36.678  -9.780  0.00  0.00    -0.069 A 
ATOM      6  CAM 1VF d   1       6.953 -37.470 -10.561  0.00  0.00    -0.002 A 
ATOM      7  H13 1VF d   1       8.627 -39.045  -8.049  0.00  0.00     0.085 H 
ATOM      8  H14 1VF d   1       8.537 -38.916 -10.496  0.00  0.00     0.085 H 
ATOM      9  H15 1VF d   1       5.500 -36.145  -7.779  0.00  0.00     0.085 H 
ATOM     10  H16 1VF d   1       5.414 -35.994 -10.255  0.00  0.00     0.085 H 
ENDROOT
BRANCH   1  11
ATOM     11  CAH 1VF d   1       7.142 -37.665  -6.329  0.00  0.00     0.253 C 
ATOM     12  NAE 1VF d   1       6.072 -37.730  -5.506  0.00  0.00    -0.345 N 
ATOM     13  CAD 1VF d   1       4.717 -38.036  -5.956  0.00  0.00     0.021 C 
ATOM     14  CAF 1VF d   1       6.171 -37.563  -4.001  0.00  0.00     0.021 C 
ATOM     15  CAC 1VF d   1       4.447 -39.347  -5.186  0.00  0.00     0.098 C 
ATOM     16  H1  1VF d   1       4.007 -37.245  -5.671  0.00  0.00     0.067 H 
ATOM     17  H2  1VF d   1       4.677 -38.190  -7.044  0.00  0.00     0.067 H 
ATOM     18  NAB 1VF d   1       4.210 -39.040  -3.762  0.00  0.00    -0.072 N 
ATOM     19  H3  1VF d   1       5.318 -40.012  -5.278  0.00  0.00     0.078 H 
ATOM     20  H4  1VF d   1       3.560 -39.844  -5.607  0.00  0.00     0.078 H 
ATOM     21  CAG 1VF d   1       5.603 -38.747  -3.315  0.00  0.00     0.098 C 
ATOM     22  H5  1VF d   1       3.548 -38.294  -3.618  0.00  0.00     0.279 HD
ATOM     23  H9  1VF d   1       6.236 -39.620  -3.532  0.00  0.00     0.078 H 
ATOM     24  H10 1VF d   1       5.596 -38.559  -2.231  0.00  0.00     0.078 H 
ATOM     25  H11 1VF d   1       7.228 -37.451  -3.717  0.00  0.00     0.067 H 
ATOM     26  H12 1VF d   1       5.613 -36.665  -3.698  0.00  0.00     0.067 H 
ATOM     27  OAI 1VF d   1       8.273 -37.444  -5.885  0.00  0.00    -0.267 OA
BRANCH  18  28
ATOM     28  CAA 1VF d   1       3.867 -40.280  -2.997  0.00  0.00     0.066 C 
ATOM     29  H6  1VF d   1       3.696 -40.024  -1.941  0.00  0.00     0.068 H 
ATOM     30  H7  1VF d   1       4.698 -40.998  -3.070  0.00  0.00     0.068 H 
ATOM     31  H8  1VF d   1       2.956 -40.730  -3.418  0.00  0.00     0.068 H 
ENDBRANCH  18  28
ENDBRANCH   1  11
BRANCH   6  32
ATOM     32  CAP 1VF d   1       6.916 -37.354 -11.967  0.00  0.00     0.090 A 
ATOM     33  OAZ 1VF d   1       6.149 -36.321 -12.408  0.00  0.00    -0.309 OA
ATOM     34  CAY 1VF d   1       6.044 -36.058 -13.763  0.00  0.00     0.090 A 
ATOM     35  CAX 1VF d   1       5.184 -35.042 -14.184  0.00  0.00    -0.049 A 
ATOM     36  CAT 1VF d   1       6.747 -36.829 -14.671  0.00  0.00     0.048 A 
ATOM     37  CAW 1VF d   1       5.008 -34.788 -15.545  0.00  0.00    -0.080 A 
ATOM     38  H17 1VF d   1       4.651 -34.448 -13.451  0.00  0.00     0.087 H 
ATOM     39  CAV 1VF d   1       5.698 -35.543 -16.479  0.00  0.00    -0.082 A 
ATOM     40  H18 1VF d   1       4.334 -34.003 -15.870  0.00  0.00     0.083 H 
ATOM     41  CAU 1VF d   1       6.581 -36.556 -16.046  0.00  0.00    -0.066 A 
ATOM     42  H19 1VF d   1       5.561 -35.357 -17.538  0.00  0.00     0.083 H 
ATOM     43  H20 1VF d   1       7.138 -37.130 -16.777  0.00  0.00     0.085 H 
ATOM     44  CAR 1VF d   1       7.618 -37.833 -14.229  0.00  0.00     0.187 A 
ATOM     45  OAS 1VF d   1       8.363 -38.451 -15.017  0.00  0.00    -0.287 OA
ATOM     46  CAQ 1VF d   1       7.706 -38.073 -12.865  0.00  0.00    -0.000 A 
ATOM     47  H21 1VF d   1       8.397 -38.828 -12.493  0.00  0.00     0.094 H 
ENDBRANCH   6  32
TORSDOF 3
