REMARK  4 active torsions:
REMARK  status: ('A' for Active; 'I' for Inactive)
REMARK    1  A    between atoms: CAD_3  and  OAE_4 
REMARK    2  A    between atoms: OAE_4  and  CAF_5 
REMARK    3  A    between atoms: CAF_5  and  CAH_7 
REMARK    4  A    between atoms: CAM_12  and  CAN_13 
ROOT
ATOM      1  NAB F70 d   1     -43.075 -12.289   4.320  0.00  0.00    -0.195 NA
ATOM      2  CAC F70 d   1     -42.160 -11.659   4.339  0.00  0.00     0.085 C 
ATOM      3  CAD F70 d   1     -40.936 -10.835   4.517  0.00  0.00     0.107 C 
ATOM      4  H1  F70 d   1     -41.176  -9.767   4.629  0.00  0.00     0.098 H 
ATOM      5  H2  F70 d   1     -40.230 -10.967   3.684  0.00  0.00     0.098 H 
ENDROOT
BRANCH   3   6
ATOM      6  OAE F70 d   1     -40.430 -11.398   5.738  0.00  0.00    -0.303 OA
BRANCH   6   7
ATOM      7  CAF F70 d   1     -39.408 -10.803   6.372  0.00  0.00     0.294 C 
ATOM      8  OAG F70 d   1     -38.483 -10.264   5.737  0.00  0.00    -0.259 OA
BRANCH   7   9
ATOM      9  CAH F70 d   1     -39.383 -11.006   7.792  0.00  0.00     0.039 A 
ATOM     10  CAK F70 d   1     -38.597 -10.215   8.612  0.00  0.00    -0.066 A 
ATOM     11  CAL F70 d   1     -38.531 -10.438   9.995  0.00  0.00    -0.069 A 
ATOM     12  H3  F70 d   1     -38.021  -9.407   8.176  0.00  0.00     0.085 H 
ATOM     13  CAM F70 d   1     -39.259 -11.466  10.633  0.00  0.00    -0.002 A 
ATOM     14  H4  F70 d   1     -37.897  -9.797  10.597  0.00  0.00     0.085 H 
ATOM     15  CAJ F70 d   1     -40.051 -12.276   9.799  0.00  0.00    -0.069 A 
ATOM     16  CAI F70 d   1     -40.102 -12.046   8.414  0.00  0.00    -0.066 A 
ATOM     17  H6  F70 d   1     -40.628 -13.086  10.230  0.00  0.00     0.085 H 
ATOM     18  H5  F70 d   1     -40.718 -12.693   7.800  0.00  0.00     0.085 H 
BRANCH  13  19
ATOM     19  CAN F70 d   1     -39.219 -11.679  12.046  0.00  0.00     0.090 C 
ATOM     20  OAO F70 d   1     -39.943 -12.725  12.517  0.00  0.00    -0.309 OA
ATOM     21  CAP F70 d   1     -40.048 -13.018  13.834  0.00  0.00     0.090 A 
ATOM     22  CAQ F70 d   1     -40.908 -14.046  14.219  0.00  0.00    -0.049 A 
ATOM     23  CAU F70 d   1     -39.304 -12.279  14.749  0.00  0.00     0.048 A 
ATOM     24  CAR F70 d   1     -41.062 -14.343  15.578  0.00  0.00    -0.080 A 
ATOM     25  H7  F70 d   1     -41.453 -14.611  13.471  0.00  0.00     0.087 H 
ATOM     26  CAS F70 d   1     -40.313 -13.575  16.498  0.00  0.00    -0.082 A 
ATOM     27  H8  F70 d   1     -41.729 -15.130  15.911  0.00  0.00     0.083 H 
ATOM     28  CAT F70 d   1     -39.467 -12.548  16.103  0.00  0.00    -0.066 A 
ATOM     29  H9  F70 d   1     -40.403 -13.797  17.555  0.00  0.00     0.083 H 
ATOM     30  H10 F70 d   1     -38.938 -11.960  16.844  0.00  0.00     0.085 H 
ATOM     31  CAV F70 d   1     -38.449 -11.251  14.281  0.00  0.00     0.187 C 
ATOM     32  OAW F70 d   1     -37.655 -10.645  15.008  0.00  0.00    -0.287 OA
ATOM     33  CAX F70 d   1     -38.425 -10.969  12.927  0.00  0.00    -0.000 C 
ATOM     34  H11 F70 d   1     -37.775 -10.180  12.552  0.00  0.00     0.094 H 
ENDBRANCH  13  19
ENDBRANCH   7   9
ENDBRANCH   6   7
ENDBRANCH   3   6
TORSDOF 4
