REMARK  0 active torsions:
REMARK  status: ('A' for Active; 'I' for Inactive)
ROOT
ATOM      1  CAC 1VG d   1       7.631  38.208  12.763  0.00  0.00    -0.000 C 
ATOM      2  CAB 1VG d   1       7.528  37.931  14.115  0.00  0.00     0.187 C 
ATOM      3  OAA 1VG d   1       8.307  38.499  14.915  0.00  0.00    -0.287 OA
ATOM      4  CAK 1VG d   1       6.666  36.897  14.520  0.00  0.00     0.048 A 
ATOM      5  CAJ 1VG d   1       6.477  36.616  15.855  0.00  0.00    -0.066 A 
ATOM      6  CAI 1VG d   1       5.621  35.567  16.223  0.00  0.00    -0.082 A 
ATOM      7  CAH 1VG d   1       4.946  34.812  15.247  0.00  0.00    -0.080 A 
ATOM      8  CAG 1VG d   1       5.099  35.115  13.892  0.00  0.00    -0.049 A 
ATOM      9  CAF 1VG d   1       5.962  36.160  13.561  0.00  0.00     0.090 A 
ATOM     10  OAE 1VG d   1       6.121  36.481  12.246  0.00  0.00    -0.309 OA
ATOM     11  CAD 1VG d   1       6.801  37.576  11.851  0.00  0.00     0.090 C 
ATOM     12  CAL 1VG d   1       6.851  37.725  10.462  0.00  0.00    -0.002 A 
ATOM     13  CAQ 1VG d   1       7.700  38.640   9.852  0.00  0.00    -0.069 A 
ATOM     14  CAP 1VG d   1       7.768  38.710   8.465  0.00  0.00    -0.068 A 
ATOM     15  CAM 1VG d   1       6.066  36.875   9.656  0.00  0.00    -0.069 A 
ATOM     16  CAN 1VG d   1       6.132  36.955   8.266  0.00  0.00    -0.068 A 
ATOM     17  CAO 1VG d   1       6.959  37.904   7.674  0.00  0.00     0.013 A 
ATOM     18  CAR 1VG d   1       7.102  37.890   6.367  0.00  0.00     0.179 A 
ATOM     19  NAV 1VG d   1       8.300  37.587   5.837  0.00  0.00    -0.108 NA
ATOM     20  NAU 1VG d   1       8.175  37.564   4.733  0.00  0.00    -0.023 NA
ATOM     21  NAT 1VG d   1       6.847  37.792   4.429  0.00  0.00    -0.046 NA
ATOM     22  NAS 1VG d   1       6.214  37.969   5.404  0.00  0.00    -0.239 N 
ATOM     23  H1  1VG d   1       8.370  38.928  12.413  0.00  0.00     0.094 H 
ATOM     24  H2  1VG d   1       6.985  37.200  16.614  0.00  0.00     0.085 H 
ATOM     25  H3  1VG d   1       5.478  35.336  17.272  0.00  0.00     0.083 H 
ATOM     26  H4  1VG d   1       4.304  33.992  15.547  0.00  0.00     0.083 H 
ATOM     27  H5  1VG d   1       4.568  34.560  13.127  0.00  0.00     0.087 H 
ATOM     28  H6  1VG d   1       8.310  39.300  10.458  0.00  0.00     0.085 H 
ATOM     29  H7  1VG d   1       8.460  39.401   7.996  0.00  0.00     0.085 H 
ATOM     30  H8  1VG d   1       5.405  36.153  10.122  0.00  0.00     0.085 H 
ATOM     31  H9  1VG d   1       5.544  36.283   7.651  0.00  0.00     0.085 H 
ATOM     32  H10 1VG d   1       5.202  38.145   5.483  0.00  0.00     0.192 HD
ENDROOT
TORSDOF 0
