REMARK WARNING: 32 MAX_TORS EXCEEDED!!!
REMARK  43 active torsions:
REMARK  status: ('A' for Active; 'I' for Inactive)
REMARK    1  A    between atoms: CA_5  and  CB_8 
REMARK    2  A    between atoms: CB_8  and  CG_9 
REMARK    3  A    between atoms: CZ_14  and  OH_15 
REMARK    4  A    between atoms: CA_17  and  CB_20 
REMARK    5  A    between atoms: CB_20  and  CG_21 
REMARK    6  A    between atoms: CA_27  and  CB_30 
REMARK    7  A    between atoms: CB_30  and  OG1_31 
REMARK    8  A    between atoms: CB_30  and  CG2_32 
REMARK    9  A    between atoms: CA_34  and  CB_37 
REMARK   10  A    between atoms: CB_37  and  CG_38 
REMARK   11  A    between atoms: CZ_43  and  OH_44 
REMARK   12  A    between atoms: CA_46  and  CB_49 
REMARK   13  A    between atoms: CB_49  and  CG_50 
REMARK   14  A    between atoms: CA_56  and  CB_59 
REMARK   15  A    between atoms: CB_59  and  CG1_60 
REMARK   16  A    between atoms: CB_59  and  CG2_61 
REMARK   17  A    between atoms: CA_63  and  CB_66 
REMARK   18  A    between atoms: CB_66  and  CG_67 
REMARK   19  A    between atoms: CG_67  and  CD_68 
REMARK   20  A    between atoms: CD_68  and  CE_69 
REMARK   21  A    between atoms: CE_69  and  NZ_70 
REMARK       I    between atoms: NZ_70  and  CH_71 
REMARK   22  A    between atoms: CH_71  and  CT_73 
REMARK   23  A    between atoms: CA_78  and  CB_81 
REMARK   24  A    between atoms: CB_81  and  CG_82 
REMARK   25  A    between atoms: CG_82  and  CD_83 
REMARK   26  A    between atoms: CD_83  and  NE_84 
REMARK       I    between atoms: NE_84  and  CZ_85 
REMARK       I    between atoms: CZ_85  and  NH1_86 
REMARK       I    between atoms: CZ_85  and  NH2_87 
REMARK   27  A    between atoms: CA_89  and  CB_92 
REMARK   28  A    between atoms: CB_92  and  CG_93 
REMARK   29  A    between atoms: CG_93  and  CD_94 
REMARK   30  A    between atoms: CD_94  and  NE_95 
REMARK       I    between atoms: NE_95  and  CZ_96 
REMARK       I    between atoms: CZ_96  and  NH1_97 
REMARK   31  A    between atoms: CZ_96  and  NH2_98 
REMARK   32  A    between atoms: CA_100  and  CB_103 
REMARK   33  A    between atoms: CB_103  and  OG1_104 
REMARK   34  A    between atoms: CB_103  and  CG2_105 
REMARK   35  A    between atoms: CA_107  and  CB_110 
REMARK   36  A    between atoms: CB_110  and  CG_111 
REMARK       I    between atoms: CG_111  and  ND2_113 
REMARK   37  A    between atoms: CA_115  and  CB_118 
REMARK   38  A    between atoms: CB_118  and  CG_119 
REMARK   39  A    between atoms: CZ_124  and  OH_125 
REMARK   40  A    between atoms: CA_127  and  CB_130 
REMARK   41  A    between atoms: CB_130  and  CG_131 
REMARK   42  A    between atoms: CZ_136  and  OH_137 
REMARK   43  A    between atoms: CA_139  and  C_140 
REMARK       I    between atoms: C_140  and  N_144 
ROOT
ATOM      1  C   ACY d   1     -11.408  77.344  91.657  0.00  0.00     0.227 C 
ATOM      2  O   ACY d   1     -11.376  76.128  91.851  0.00  0.00    -0.273 OA
ATOM      3  CH3 ACY d   1     -12.701  78.114  91.801  0.00  0.00     0.051 C 
ATOM      4  H   ACY d   1     -13.229  77.711  90.924  0.00  0.00     0.063 H 
ATOM      5  H   ACY d   1     -12.319  79.119  91.569  0.00  0.00     0.063 H 
ATOM      6  N   TYR d   1     -10.345  78.063  91.309  0.00  0.00    -0.347 N 
ATOM      7  CA  TYR d   1      -9.027  77.477  91.071  0.00  0.00     0.093 C 
ATOM      8  C   TYR d   1      -9.006  76.440  89.943  0.00  0.00     0.241 C 
ATOM      9  O   TYR d   1      -8.165  76.513  89.055  0.00  0.00    -0.271 OA
ATOM     10  N   TYR d   1     -11.492  77.233  85.562  0.00  0.00    -0.346 N 
ATOM     11  CA  TYR d   1     -11.163  78.208  84.524  0.00  0.00     0.093 C 
ATOM     12  C   TYR d   1     -12.137  78.151  83.351  0.00  0.00     0.241 C 
ATOM     13  O   TYR d   1     -12.490  79.180  82.773  0.00  0.00    -0.271 OA
ATOM     14  N   TYR d   1     -10.448  87.645  91.446  0.00  0.00    -0.346 N 
ATOM     15  CA  TYR d   1      -9.234  86.846  91.550  0.00  0.00     0.093 C 
ATOM     16  C   TYR d   1      -9.373  85.789  92.639  0.00  0.00     0.241 C 
ATOM     17  O   TYR d   1      -8.485  85.614  93.471  0.00  0.00    -0.271 OA
ATOM     18  N   TYR d   1     -10.508  85.097  92.621  0.00  0.00    -0.346 N 
ATOM     19  CA  TYR d   1     -10.775  83.990  93.529  0.00  0.00     0.093 C 
ATOM     20  C   TYR d   1     -11.928  83.143  93.003  0.00  0.00     0.241 C 
ATOM     21  O   TYR d   1     -12.483  83.424  91.943  0.00  0.00    -0.271 OA
ATOM     22  H   TYR d   1     -10.452  79.052  91.205  0.00  0.00     0.163 HD
ATOM     23  H   TYR d   1      -8.384  78.302  90.731  0.00  0.00     0.088 H 
ATOM     24  H   TYR d   1     -10.822  76.533  85.810  0.00  0.00     0.163 HD
ATOM     25  H   TYR d   1     -11.232  79.210  84.974  0.00  0.00     0.088 H 
ATOM     26  H   TYR d   1     -10.534  88.482  91.987  0.00  0.00     0.163 HD
ATOM     27  H   TYR d   1      -9.087  86.327  90.591  0.00  0.00     0.088 H 
ATOM     28  H   TYR d   1     -11.210  85.348  91.954  0.00  0.00     0.163 HD
ATOM     29  H   TYR d   1      -9.874  83.361  93.579  0.00  0.00     0.088 H 
ATOM     30  N   HIS d   1      -9.941  75.496  89.973  0.00  0.00    -0.346 N 
ATOM     31  CA  HIS d   1     -10.013  74.452  88.960  0.00  0.00     0.094 C 
ATOM     32  C   HIS d   1     -11.112  74.726  87.938  0.00  0.00     0.241 C 
ATOM     33  O   HIS d   1     -11.366  73.907  87.054  0.00  0.00    -0.271 OA
ATOM     34  N   HIS d   1     -12.568  76.943  83.012  0.00  0.00    -0.346 N 
ATOM     35  CA  HIS d   1     -13.451  76.721  81.875  0.00  0.00     0.094 C 
ATOM     36  C   HIS d   1     -14.880  77.186  82.147  0.00  0.00     0.241 C 
ATOM     37  O   HIS d   1     -15.717  77.204  81.245  0.00  0.00    -0.271 OA
ATOM     38  H   HIS d   1     -10.614  75.503  90.712  0.00  0.00     0.163 HD
ATOM     39  H   HIS d   1      -9.049  74.422  88.432  0.00  0.00     0.088 H 
ATOM     40  H   HIS d   1     -12.276  76.157  83.557  0.00  0.00     0.163 HD
ATOM     41  H   HIS d   1     -13.062  77.299  81.024  0.00  0.00     0.088 H 
ATOM     42  N   THR d   1     -11.763  75.878  88.060  0.00  0.00    -0.344 N 
ATOM     43  CA  THR d   1     -12.928  76.188  87.235  0.00  0.00     0.113 C 
ATOM     44  C   THR d   1     -12.669  77.262  86.183  0.00  0.00     0.243 C 
ATOM     45  O   THR d   1     -13.532  78.103  85.934  0.00  0.00    -0.271 OA
ATOM     46  N   THR d   1     -14.754  88.796  86.986  0.00  0.00    -0.344 N 
ATOM     47  CA  THR d   1     -13.321  89.083  87.031  0.00  0.00     0.113 C 
ATOM     48  C   THR d   1     -12.744  89.139  88.444  0.00  0.00     0.243 C 
ATOM     49  O   THR d   1     -11.863  89.949  88.731  0.00  0.00    -0.271 OA
ATOM     50  H   THR d   1     -11.448  76.548  88.732  0.00  0.00     0.163 HD
ATOM     51  H   THR d   1     -13.214  75.263  86.713  0.00  0.00     0.091 H 
ATOM     52  H   THR d   1     -15.408  89.550  87.046  0.00  0.00     0.163 HD
ATOM     53  H   THR d   1     -12.815  88.261  86.504  0.00  0.00     0.091 H 
ATOM     54  N   VAL d   1     -15.152  77.559  83.393  0.00  0.00    -0.346 N 
ATOM     55  CA  VAL d   1     -16.490  77.973  83.801  0.00  0.00     0.092 C 
ATOM     56  C   VAL d   1     -16.661  79.488  83.683  0.00  0.00     0.241 C 
ATOM     57  O   VAL d   1     -15.750  80.248  84.016  0.00  0.00    -0.271 OA
ATOM     58  H   VAL d   1     -14.417  77.556  84.072  0.00  0.00     0.163 HD
ATOM     59  H   VAL d   1     -17.217  77.490  83.132  0.00  0.00     0.088 H 
ATOM     60  N   FAK d   1     -17.828  79.917  83.204  0.00  0.00    -0.346 N 
ATOM     61  CA  FAK d   1     -18.133  81.317  83.068  0.00  0.00     0.089 C 
ATOM     62  C   FAK d   1     -18.162  81.978  84.408  0.00  0.00     0.241 C 
ATOM     63  O   FAK d   1     -18.893  81.562  85.298  0.00  0.00    -0.271 OA
ATOM     64  H   FAK d   1     -18.515  79.244  82.930  0.00  0.00     0.163 HD
ATOM     65  H   FAK d   1     -17.355  81.793  82.453  0.00  0.00     0.087 H 
ATOM     66  N   ARG d   1     -17.352  83.020  84.563  0.00  0.00    -0.346 N 
ATOM     67  CA  ARG d   1     -17.207  83.709  85.841  0.00  0.00     0.089 C 
ATOM     68  C   ARG d   1     -17.122  85.215  85.643  0.00  0.00     0.241 C 
ATOM     69  O   ARG d   1     -17.161  85.708  84.515  0.00  0.00    -0.271 OA
ATOM     70  N   ARG d   1     -17.004  85.943  86.748  0.00  0.00    -0.346 N 
ATOM     71  CA  ARG d   1     -16.705  87.367  86.696  0.00  0.00     0.089 C 
ATOM     72  C   ARG d   1     -15.202  87.550  86.866  0.00  0.00     0.241 C 
ATOM     73  O   ARG d   1     -14.457  86.572  86.893  0.00  0.00    -0.271 OA
ATOM     74  H   ARG d   1     -16.824  83.343  83.777  0.00  0.00     0.163 HD
ATOM     75  H   ARG d   1     -18.081  83.479  86.468  0.00  0.00     0.087 H 
ATOM     76  H   ARG d   1     -17.123  85.502  87.638  0.00  0.00     0.163 HD
ATOM     77  H   ARG d   1     -17.004  87.758  85.712  0.00  0.00     0.087 H 
ATOM     78  N   ASN d   1     -13.241  88.275  89.320  0.00  0.00    -0.345 N 
ATOM     79  CA  ASN d   1     -12.688  88.154  90.661  0.00  0.00     0.097 C 
ATOM     80  C   ASN d   1     -11.441  87.280  90.645  0.00  0.00     0.241 C 
ATOM     81  O   ASN d   1     -11.378  86.291  89.916  0.00  0.00    -0.271 OA
ATOM     82  H   ASN d   1     -14.011  87.695  89.053  0.00  0.00     0.163 HD
ATOM     83  H   ASN d   1     -12.411  89.157  91.019  0.00  0.00     0.088 H 
ATOM     84  N   CYS d   1     -12.285  82.104  93.749  0.00  0.00    -0.345 N 
ATOM     85  CA  CYS d   1     -13.361  81.210  93.341  0.00  0.00     0.097 C 
ATOM     86  CB  CYS d   1     -12.845  79.780  93.211  0.00  0.00     0.004 C 
ATOM     87  SG  CYS d   1     -14.133  78.592  92.779  0.00  0.00    -0.157 SA
ATOM     88  H   CYS d   1     -11.805  81.931  94.609  0.00  0.00     0.163 HD
ATOM     89  H   CYS d   1     -13.727  81.541  92.358  0.00  0.00     0.088 H 
ATOM     90  H   CYS d   1     -12.402  79.480  94.172  0.00  0.00     0.052 H 
ATOM     91  H   CYS d   1     -12.073  79.757  92.428  0.00  0.00     0.052 H 
ENDROOT
BRANCH  61  92
ATOM     92  CB  FAK d   1     -19.454  81.482  82.394  0.00  0.00    -0.038 C 
ATOM     93  H   FAK d   1     -20.215  81.042  83.056  0.00  0.00     0.036 H 
ATOM     94  H   FAK d   1     -19.413  80.913  81.453  0.00  0.00     0.036 H 
BRANCH  92  95
ATOM     95  CG  FAK d   1     -19.906  82.863  82.057  0.00  0.00    -0.061 C 
ATOM     96  H   FAK d   1     -19.167  83.292  81.364  0.00  0.00     0.033 H 
ATOM     97  H   FAK d   1     -19.913  83.445  82.991  0.00  0.00     0.033 H 
BRANCH  95  98
ATOM     98  CD  FAK d   1     -21.249  83.012  81.427  0.00  0.00    -0.050 C 
ATOM     99  H   FAK d   1     -21.981  82.558  82.111  0.00  0.00     0.035 H 
ATOM    100  H   FAK d   1     -21.230  82.448  80.483  0.00  0.00     0.035 H 
BRANCH  98 101
ATOM    101  CE  FAK d   1     -21.734  84.387  81.110  0.00  0.00    -0.004 C 
ATOM    102  H   FAK d   1     -20.958  84.880  80.506  0.00  0.00     0.064 H 
ATOM    103  H   FAK d   1     -21.853  84.923  82.063  0.00  0.00     0.064 H 
BRANCH 101 104
ATOM    104  NZ  FAK d   1     -22.972  84.500  80.395  0.00  0.00    -0.353 N 
ATOM    105  CH  FAK d   1     -23.273  85.701  79.680  0.00  0.00     0.325 C 
ATOM    106  OH  FAK d   1     -22.472  86.624  79.685  0.00  0.00    -0.263 OA
ATOM    107  H   FAK d   1     -23.623  83.741  80.397  0.00  0.00     0.162 HD
BRANCH 105 108
ATOM    108  CT  FAK d   1     -24.554  85.836  78.925  0.00  0.00     0.472 C 
ATOM    109  FI1 FAK d   1     -24.364  86.655  77.897  0.00  0.00    -0.162 F 
ATOM    110  FI2 FAK d   1     -25.501  86.331  79.713  0.00  0.00    -0.162 F 
ATOM    111  FI3 FAK d   1     -24.947  84.652  78.475  0.00  0.00    -0.162 F 
ENDBRANCH 105 108
ENDBRANCH 101 104
ENDBRANCH  98 101
ENDBRANCH  95  98
ENDBRANCH  92  95
ENDBRANCH  61  92
BRANCH  55 112
ATOM    112  CB  VAL d   1     -16.784  77.522  85.248  0.00  0.00    -0.033 C 
ATOM    113  H   VAL d   1     -16.071  78.024  85.918  0.00  0.00     0.042 H 
BRANCH 112 114
ATOM    114  CG1 VAL d   1     -18.190  77.918  85.667  0.00  0.00    -0.071 C 
ATOM    115  H   VAL d   1     -18.372  77.585  86.700  0.00  0.00     0.028 H 
ATOM    116  H   VAL d   1     -18.920  77.444  84.995  0.00  0.00     0.028 H 
ATOM    117  H   VAL d   1     -18.295  79.011  85.610  0.00  0.00     0.028 H 
ENDBRANCH 112 114
BRANCH 112 118
ATOM    118  CG2 VAL d   1     -16.589  76.019  85.379  0.00  0.00    -0.071 C 
ATOM    119  H   VAL d   1     -15.567  75.754  85.071  0.00  0.00     0.028 H 
ATOM    120  H   VAL d   1     -17.312  75.498  84.735  0.00  0.00     0.028 H 
ATOM    121  H   VAL d   1     -16.747  75.719  86.425  0.00  0.00     0.028 H 
ENDBRANCH 112 118
ENDBRANCH  55 112
BRANCH  67 122
ATOM    122  CB  ARG d   1     -15.937  83.235  86.555  0.00  0.00    -0.036 C 
ATOM    123  H   ARG d   1     -15.780  83.878  87.433  0.00  0.00     0.036 H 
ATOM    124  H   ARG d   1     -15.092  83.350  85.860  0.00  0.00     0.036 H 
BRANCH 122 125
ATOM    125  CG  ARG d   1     -15.965  81.792  87.027  0.00  0.00    -0.048 C 
ATOM    126  H   ARG d   1     -16.462  81.175  86.264  0.00  0.00     0.035 H 
ATOM    127  H   ARG d   1     -16.530  81.734  87.969  0.00  0.00     0.035 H 
BRANCH 125 128
ATOM    128  CD  ARG d   1     -14.555  81.256  87.259  0.00  0.00     0.009 C 
ATOM    129  H   ARG d   1     -14.624  80.296  87.792  0.00  0.00     0.064 H 
ATOM    130  H   ARG d   1     -13.999  81.978  87.875  0.00  0.00     0.064 H 
BRANCH 128 131
ATOM    131  NE  ARG d   1     -13.829  81.048  86.007  0.00  0.00    -0.227 N 
ATOM    132  CZ  ARG d   1     -12.838  81.822  85.573  0.00  0.00     0.665 C 
ATOM    133  NH1 ARG d   1     -12.438  82.862  86.293  0.00  0.00    -0.235 N 
ATOM    134  NH2 ARG d   1     -12.240  81.550  84.418  0.00  0.00    -0.235 N 
ATOM    135  H   ARG d   1     -11.670  83.459  85.953  0.00  0.00     0.174 HD
ATOM    136  H   ARG d   1     -12.895  83.073  87.192  0.00  0.00     0.174 HD
ATOM    137  H   ARG d   1     -12.548  80.743  83.856  0.00  0.00     0.174 HD
ATOM    138  H   ARG d   1     -11.469  82.146  84.085  0.00  0.00     0.174 HD
ATOM    139  H   ARG d   1     -14.104  80.247  85.421  0.00  0.00     0.177 HD
ENDBRANCH 128 131
ENDBRANCH 125 128
ENDBRANCH 122 125
ENDBRANCH  67 122
BRANCH  35 140
ATOM    140  CB  HIS d   1     -13.448  75.239  81.496  0.00  0.00     0.004 C 
ATOM    141  H   HIS d   1     -12.427  74.960  81.196  0.00  0.00     0.046 H 
ATOM    142  H   HIS d   1     -14.132  75.097  80.646  0.00  0.00     0.046 H 
BRANCH 140 143
ATOM    143  CG  HIS d   1     -13.879  74.332  82.606  0.00  0.00     0.053 A 
ATOM    144  ND1 HIS d   1     -15.038  73.587  82.552  0.00  0.00    -0.247 NA
ATOM    145  CE1 HIS d   1     -15.164  72.888  83.665  0.00  0.00     0.064 A 
ATOM    146  NE2 HIS d   1     -14.128  73.153  84.441  0.00  0.00    -0.359 N 
ATOM    147  H   HIS d   1     -15.982  72.209  83.903  0.00  0.00     0.143 H 
ATOM    148  CD2 HIS d   1     -13.310  74.052  83.803  0.00  0.00     0.002 A 
ATOM    149  H   HIS d   1     -13.961  72.750  85.374  0.00  0.00     0.166 HD
ATOM    150  H   HIS d   1     -12.378  74.463  84.187  0.00  0.00     0.114 H 
ENDBRANCH 140 143
ENDBRANCH  35 140
BRANCH  71 151
ATOM    151  CB  ARG d   1     -17.470  88.137  87.775  0.00  0.00    -0.036 C 
ATOM    152  H   ARG d   1     -17.035  89.145  87.850  0.00  0.00     0.036 H 
ATOM    153  H   ARG d   1     -17.338  87.609  88.731  0.00  0.00     0.036 H 
BRANCH 151 154
ATOM    154  CG  ARG d   1     -18.967  88.283  87.515  0.00  0.00    -0.048 C 
ATOM    155  H   ARG d   1     -19.125  88.454  86.440  0.00  0.00     0.035 H 
ATOM    156  H   ARG d   1     -19.343  89.147  88.083  0.00  0.00     0.035 H 
BRANCH 154 157
ATOM    157  CD  ARG d   1     -19.744  87.044  87.934  0.00  0.00     0.009 C 
ATOM    158  H   ARG d   1     -19.491  86.803  88.977  0.00  0.00     0.064 H 
ATOM    159  H   ARG d   1     -19.453  86.206  87.283  0.00  0.00     0.064 H 
BRANCH 157 160
ATOM    160  NE  ARG d   1     -21.188  87.239  87.833  0.00  0.00    -0.227 N 
ATOM    161  CZ  ARG d   1     -22.093  86.389  88.310  0.00  0.00     0.665 C 
ATOM    162  NH1 ARG d   1     -21.707  85.281  88.928  0.00  0.00    -0.235 N 
ATOM    163  H   ARG d   1     -22.410  84.625  89.296  0.00  0.00     0.174 HD
ATOM    164  H   ARG d   1     -20.704  85.076  89.040  0.00  0.00     0.174 HD
ATOM    165  H   ARG d   1     -21.527  88.090  87.362  0.00  0.00     0.177 HD
BRANCH 161 166
ATOM    166  NH2 ARG d   1     -23.386  86.648  88.173  0.00  0.00    -0.235 N 
ATOM    167  H   ARG d   1     -23.691  87.507  87.694  0.00  0.00     0.174 HD
ATOM    168  H   ARG d   1     -24.085  85.990  88.546  0.00  0.00     0.174 HD
ENDBRANCH 161 166
ENDBRANCH 157 160
ENDBRANCH 154 157
ENDBRANCH 151 154
ENDBRANCH  71 151
BRANCH  11 169
ATOM    169  CB  TYR d   1      -9.734  78.012  84.013  0.00  0.00    -0.014 C 
ATOM    170  H   TYR d   1      -9.584  76.945  83.791  0.00  0.00     0.043 H 
ATOM    171  H   TYR d   1      -9.034  78.325  84.801  0.00  0.00     0.043 H 
BRANCH 169 172
ATOM    172  CG  TYR d   1      -9.440  78.811  82.761  0.00  0.00    -0.056 A 
ATOM    173  CD1 TYR d   1      -9.271  80.187  82.819  0.00  0.00    -0.074 A 
ATOM    174  CE1 TYR d   1      -9.007  80.924  81.680  0.00  0.00    -0.051 A 
ATOM    175  H   TYR d   1      -9.347  80.693  83.775  0.00  0.00     0.084 H 
ATOM    176  CZ  TYR d   1      -8.916  80.285  80.462  0.00  0.00     0.065 A 
ATOM    177  H   TYR d   1      -8.872  81.998  81.744  0.00  0.00     0.087 H 
ATOM    178  CE2 TYR d   1      -9.084  78.918  80.377  0.00  0.00    -0.051 A 
ATOM    179  CD2 TYR d   1      -9.346  78.190  81.522  0.00  0.00    -0.074 A 
ATOM    180  H   TYR d   1      -9.011  78.418  79.418  0.00  0.00     0.087 H 
ATOM    181  H   TYR d   1      -9.480  77.117  81.452  0.00  0.00     0.084 H 
BRANCH 176 182
ATOM    182  OH  TYR d   1      -8.657  81.017  79.327  0.00  0.00    -0.361 OA
ATOM    183  H   TYR d   1      -8.569  81.935  79.557  0.00  0.00     0.217 HD
ENDBRANCH 176 182
ENDBRANCH 169 172
ENDBRANCH  11 169
BRANCH  47 184
ATOM    184  CB  THR d   1     -12.984  90.390  86.295  0.00  0.00     0.060 C 
ATOM    185  H   THR d   1     -11.992  90.741  86.615  0.00  0.00     0.086 H 
BRANCH 184 186
ATOM    186  OG1 THR d   1     -13.967  91.383  86.612  0.00  0.00    -0.393 OA
ATOM    187  H   THR d   1     -13.968  91.538  87.549  0.00  0.00     0.210 HD
ENDBRANCH 184 186
BRANCH 184 188
ATOM    188  CG2 THR d   1     -12.974  90.160  84.794  0.00  0.00    -0.050 C 
ATOM    189  H   THR d   1     -12.732  91.102  84.280  0.00  0.00     0.031 H 
ATOM    190  H   THR d   1     -13.965  89.810  84.470  0.00  0.00     0.031 H 
ATOM    191  H   THR d   1     -12.218  89.401  84.544  0.00  0.00     0.031 H 
ENDBRANCH 184 188
ENDBRANCH  47 184
BRANCH  43 192
ATOM    192  CB  THR d   1     -14.119  76.650  88.099  0.00  0.00     0.060 C 
ATOM    193  H   THR d   1     -14.987  76.825  87.447  0.00  0.00     0.086 H 
BRANCH 192 194
ATOM    194  OG1 THR d   1     -13.780  77.871  88.769  0.00  0.00    -0.393 OA
ATOM    195  H   THR d   1     -14.515  78.154  89.300  0.00  0.00     0.210 HD
ENDBRANCH 192 194
BRANCH 192 196
ATOM    196  CG2 THR d   1     -14.481  75.586  89.131  0.00  0.00    -0.050 C 
ATOM    197  H   THR d   1     -15.331  75.936  89.735  0.00  0.00     0.031 H 
ATOM    198  H   THR d   1     -13.617  75.402  89.786  0.00  0.00     0.031 H 
ATOM    199  H   THR d   1     -14.756  74.654  88.616  0.00  0.00     0.031 H 
ENDBRANCH 192 196
ENDBRANCH  43 192
BRANCH  79 200
ATOM    200  CB  ASN d   1     -13.726  87.563  91.614  0.00  0.00     0.036 C 
ATOM    201  H   ASN d   1     -13.262  87.430  92.602  0.00  0.00     0.051 H 
ATOM    202  H   ASN d   1     -14.045  86.585  91.225  0.00  0.00     0.051 H 
BRANCH 200 203
ATOM    203  CG  ASN d   1     -14.947  88.447  91.766  0.00  0.00     0.217 C 
ATOM    204  OD1 ASN d   1     -14.832  89.654  91.982  0.00  0.00    -0.274 OA
ATOM    205  ND2 ASN d   1     -16.128  87.849  91.646  0.00  0.00    -0.370 N 
ATOM    206  H   ASN d   1     -16.970  88.382  91.737  0.00  0.00     0.159 HD
ATOM    207  H   ASN d   1     -16.175  86.867  91.465  0.00  0.00     0.159 HD
ENDBRANCH 200 203
ENDBRANCH  79 200
BRANCH  31 208
ATOM    208  CB  HIS d   1     -10.256  73.090  89.610  0.00  0.00     0.004 C 
ATOM    209  H   HIS d   1      -9.507  72.945  90.403  0.00  0.00     0.046 H 
ATOM    210  H   HIS d   1     -10.133  72.312  88.843  0.00  0.00     0.046 H 
BRANCH 208 211
ATOM    211  CG  HIS d   1     -11.618  72.948  90.214  0.00  0.00     0.053 A 
ATOM    212  ND1 HIS d   1     -11.992  73.600  91.368  0.00  0.00    -0.247 NA
ATOM    213  CE1 HIS d   1     -13.244  73.294  91.659  0.00  0.00     0.064 A 
ATOM    214  NE2 HIS d   1     -13.695  72.465  90.735  0.00  0.00    -0.359 N 
ATOM    215  H   HIS d   1     -13.808  73.662  92.515  0.00  0.00     0.143 H 
ATOM    216  CD2 HIS d   1     -12.698  72.233  89.818  0.00  0.00     0.002 A 
ATOM    217  H   HIS d   1     -14.641  72.058  90.706  0.00  0.00     0.166 HD
ATOM    218  H   HIS d   1     -12.764  71.594  88.938  0.00  0.00     0.114 H 
ENDBRANCH 208 211
ENDBRANCH  31 208
BRANCH  15 219
ATOM    219  CB  TYR d   1      -8.012  87.733  91.795  0.00  0.00    -0.014 C 
ATOM    220  H   TYR d   1      -7.132  87.087  91.934  0.00  0.00     0.043 H 
ATOM    221  H   TYR d   1      -8.183  88.321  92.709  0.00  0.00     0.043 H 
BRANCH 219 222
ATOM    222  CG  TYR d   1      -7.736  88.683  90.656  0.00  0.00    -0.056 A 
ATOM    223  CD1 TYR d   1      -7.360  88.204  89.408  0.00  0.00    -0.074 A 
ATOM    224  CE1 TYR d   1      -7.112  89.066  88.359  0.00  0.00    -0.051 A 
ATOM    225  H   TYR d   1      -7.260  87.135  89.255  0.00  0.00     0.084 H 
ATOM    226  CZ  TYR d   1      -7.238  90.424  88.550  0.00  0.00     0.065 A 
ATOM    227  H   TYR d   1      -6.820  88.676  87.391  0.00  0.00     0.087 H 
ATOM    228  CE2 TYR d   1      -7.611  90.924  89.780  0.00  0.00    -0.051 A 
ATOM    229  CD2 TYR d   1      -7.859  90.054  90.823  0.00  0.00    -0.074 A 
ATOM    230  H   TYR d   1      -7.709  91.993  89.927  0.00  0.00     0.087 H 
ATOM    231  H   TYR d   1      -8.155  90.449  91.788  0.00  0.00     0.084 H 
BRANCH 226 232
ATOM    232  OH  TYR d   1      -6.991  91.284  87.506  0.00  0.00    -0.361 OA
ATOM    233  H   TYR d   1      -6.747  90.784  86.736  0.00  0.00     0.217 HD
ENDBRANCH 226 232
ENDBRANCH 219 222
ENDBRANCH  15 219
BRANCH   7 234
ATOM    234  CB  TYR d   1      -8.400  76.953  92.384  0.00  0.00    -0.014 C 
ATOM    235  H   TYR d   1      -9.092  77.194  93.204  0.00  0.00     0.043 H 
ATOM    236  H   TYR d   1      -7.450  77.486  92.537  0.00  0.00     0.043 H 
BRANCH 234 237
ATOM    237  CG  TYR d   1      -8.110  75.470  92.447  0.00  0.00    -0.056 A 
ATOM    238  CD1 TYR d   1      -6.945  74.945  91.904  0.00  0.00    -0.074 A 
ATOM    239  CE1 TYR d   1      -6.673  73.582  91.967  0.00  0.00    -0.051 A 
ATOM    240  H   TYR d   1      -6.235  75.608  91.423  0.00  0.00     0.084 H 
ATOM    241  CZ  TYR d   1      -7.569  72.737  92.593  0.00  0.00     0.065 A 
ATOM    242  H   TYR d   1      -5.764  73.186  91.528  0.00  0.00     0.087 H 
ATOM    243  CE2 TYR d   1      -8.727  73.240  93.148  0.00  0.00    -0.051 A 
ATOM    244  CD2 TYR d   1      -8.989  74.598  93.077  0.00  0.00    -0.074 A 
ATOM    245  H   TYR d   1      -9.429  72.575  93.638  0.00  0.00     0.087 H 
ATOM    246  H   TYR d   1      -9.897  74.988  93.522  0.00  0.00     0.084 H 
BRANCH 241 247
ATOM    247  OH  TYR d   1      -7.306  71.388  92.663  0.00  0.00    -0.361 OA
ATOM    248  H   TYR d   1      -6.477  71.206  92.237  0.00  0.00     0.217 HD
ENDBRANCH 241 247
ENDBRANCH 234 237
ENDBRANCH   7 234
BRANCH  19 249
ATOM    249  CB  TYR d   1     -11.090  84.490  94.940  0.00  0.00    -0.014 C 
ATOM    250  H   TYR d   1     -10.154  84.850  95.392  0.00  0.00     0.043 H 
ATOM    251  H   TYR d   1     -11.477  83.642  95.524  0.00  0.00     0.043 H 
BRANCH 249 252
ATOM    252  CG  TYR d   1     -12.107  85.612  95.009  0.00  0.00    -0.056 A 
ATOM    253  CD1 TYR d   1     -13.470  85.350  94.948  0.00  0.00    -0.074 A 
ATOM    254  CE1 TYR d   1     -14.398  86.373  95.019  0.00  0.00    -0.051 A 
ATOM    255  H   TYR d   1     -13.812  84.327  94.843  0.00  0.00     0.084 H 
ATOM    256  CZ  TYR d   1     -13.965  87.676  95.162  0.00  0.00     0.065 A 
ATOM    257  H   TYR d   1     -15.458  86.153  94.963  0.00  0.00     0.087 H 
ATOM    258  CE2 TYR d   1     -12.619  87.958  95.232  0.00  0.00    -0.051 A 
ATOM    259  CD2 TYR d   1     -11.701  86.930  95.159  0.00  0.00    -0.074 A 
ATOM    260  H   TYR d   1     -12.282  88.982  95.344  0.00  0.00     0.087 H 
ATOM    261  H   TYR d   1     -10.643  87.157  95.220  0.00  0.00     0.084 H 
BRANCH 256 262
ATOM    262  OH  TYR d   1     -14.877  88.704  95.236  0.00  0.00    -0.361 OA
ATOM    263  H   TYR d   1     -14.727  89.311  94.521  0.00  0.00     0.217 HD
ENDBRANCH 256 262
ENDBRANCH 249 252
ENDBRANCH  19 249
BRANCH  85 264
ATOM    264  C   CYS d   1     -14.526  81.247  94.322  0.00  0.00     0.239 C 
ATOM    265  O   CYS d   1     -14.413  80.766  95.451  0.00  0.00    -0.271 OA
ATOM    266  N   NH2 d   1     -15.643  81.819  93.885  0.00  0.00    -0.368 N 
ATOM    267  H   NH2 d   1     -16.443  81.874  94.482  0.00  0.00     0.159 HD
ATOM    268  H   NH2 d   1     -15.683  82.194  92.959  0.00  0.00     0.159 HD
ENDBRANCH  85 264
TORSDOF 43
