REMARK  4 active torsions:
REMARK  status: ('A' for Active; 'I' for Inactive)
REMARK    1  A    between atoms: N19_1  and  C18_2 
REMARK    2  A    between atoms: C15_7  and  C20_20 
REMARK    3  A    between atoms: C10_10  and  C3_11 
REMARK    4  A    between atoms: N23_22  and  C25_25 
ROOT
ATOM      1  C18 1UH d   1     -13.582 -47.054 -15.179  0.00  0.00     0.156 A 
ATOM      2  C12 1UH d   1     -13.461 -48.085 -16.077  0.00  0.00     0.132 A 
ATOM      3  O11 1UH d   1     -12.455 -48.750 -16.274  0.00  0.00    -0.305 OA
ATOM      4  N17 1UH d   1     -14.808 -46.417 -15.095  0.00  0.00    -0.240 NA
ATOM      5  C16 1UH d   1     -15.882 -46.803 -15.892  0.00  0.00     0.016 A 
ATOM      6  C15 1UH d   1     -15.769 -47.851 -16.815  0.00  0.00     0.008 A 
ATOM      7  C13 1UH d   1     -14.515 -48.470 -16.869  0.00  0.00     0.017 A 
ATOM      8  C14 1UH d   1     -13.934 -49.491 -17.571  0.00  0.00    -0.036 A 
ATOM      9  C10 1UH d   1     -12.630 -49.607 -17.128  0.00  0.00     0.088 A 
ATOM     10  H3  1UH d   1     -16.827 -46.281 -15.796  0.00  0.00     0.116 H 
ATOM     11  H4  1UH d   1     -14.411 -50.100 -18.337  0.00  0.00     0.089 H 
ENDROOT
BRANCH   6  12
ATOM     12  C20 1UH d   1     -16.962 -48.207 -17.647  0.00  0.00     0.013 A 
ATOM     13  C24 1UH d   1     -18.244 -47.757 -17.455  0.00  0.00     0.011 A 
ATOM     14  N23 1UH d   1     -19.024 -48.286 -18.403  0.00  0.00    -0.276 N 
ATOM     15  H10 1UH d   1     -18.571 -47.083 -16.664  0.00  0.00     0.115 H 
ATOM     16  N22 1UH d   1     -18.355 -49.023 -19.176  0.00  0.00    -0.184 NA
ATOM     17  C21 1UH d   1     -17.070 -49.013 -18.760  0.00  0.00     0.034 A 
ATOM     18  H11 1UH d   1     -16.250 -49.555 -19.229  0.00  0.00     0.118 H 
BRANCH  14  19
ATOM     19  C25 1UH d   1     -20.471 -48.011 -18.485  0.00  0.00     0.037 C 
ATOM     20  C30 1UH d   1     -20.696 -46.622 -19.110  0.00  0.00    -0.022 C 
ATOM     21  C29 1UH d   1     -22.184 -46.249 -19.112  0.00  0.00     0.084 C 
ATOM     22  H13 1UH d   1     -20.327 -46.631 -20.146  0.00  0.00     0.038 H 
ATOM     23  H14 1UH d   1     -20.139 -45.873 -18.529  0.00  0.00     0.038 H 
ATOM     24  N28 1UH d   1     -22.991 -47.308 -19.743  0.00  0.00    -0.075 N 
ATOM     25  H15 1UH d   1     -22.320 -45.312 -19.671  0.00  0.00     0.075 H 
ATOM     26  H16 1UH d   1     -22.522 -46.109 -18.075  0.00  0.00     0.075 H 
ATOM     27  C27 1UH d   1     -22.739 -48.692 -19.280  0.00  0.00     0.084 C 
ATOM     28  H17 1UH d   1     -22.813 -47.279 -20.735  0.00  0.00     0.277 HD
ATOM     29  H18 1UH d   1     -23.962 -47.099 -19.569  0.00  0.00     0.277 HD
ATOM     30  C26 1UH d   1     -21.245 -49.051 -19.294  0.00  0.00    -0.022 C 
ATOM     31  H19 1UH d   1     -23.276 -49.389 -19.940  0.00  0.00     0.075 H 
ATOM     32  H20 1UH d   1     -23.117 -48.795 -18.252  0.00  0.00     0.075 H 
ATOM     33  H21 1UH d   1     -21.102 -50.046 -18.847  0.00  0.00     0.038 H 
ATOM     34  H22 1UH d   1     -20.878 -49.058 -20.331  0.00  0.00     0.038 H 
ATOM     35  H12 1UH d   1     -20.873 -48.009 -17.461  0.00  0.00     0.076 H 
ENDBRANCH  14  19
ENDBRANCH   6  12
BRANCH   1  36
ATOM     36  N19 1UH d   1     -12.490 -46.671 -14.374  0.00  0.00    -0.382 N 
ATOM     37  H1  1UH d   1     -12.591 -45.896 -13.703  0.00  0.00     0.157 HD
ATOM     38  H2  1UH d   1     -11.591 -47.166 -14.457  0.00  0.00     0.157 HD
ENDBRANCH   1  36
BRANCH   9  39
ATOM     39  C3  1UH d   1     -11.559 -50.533 -17.575  0.00  0.00     0.016 A 
ATOM     40  C5  1UH d   1     -11.739 -51.367 -18.683  0.00  0.00    -0.069 A 
ATOM     41  C6  1UH d   1     -10.716 -52.221 -19.109  0.00  0.00    -0.081 A 
ATOM     42  H5  1UH d   1     -12.682 -51.352 -19.218  0.00  0.00     0.085 H 
ATOM     43  C4  1UH d   1      -9.492 -52.246 -18.442  0.00  0.00    -0.072 A 
ATOM     44  H6  1UH d   1     -10.876 -52.868 -19.964  0.00  0.00     0.083 H 
ATOM     45  C2  1UH d   1      -9.307 -51.412 -17.352  0.00  0.00    -0.018 A 
ATOM     46  H7  1UH d   1      -8.698 -52.907 -18.771  0.00  0.00     0.084 H 
ATOM     47  C1  1UH d   1     -10.321 -50.561 -16.929  0.00  0.00     0.028 A 
ATOM     48  C7  1UH d   1      -8.171 -51.288 -16.561  0.00  0.00    -0.065 A 
ATOM     49  S9  1UH d   1      -9.802 -49.724 -15.647  0.00  0.00    -0.100 SA
ATOM     50  C8  1UH d   1      -8.338 -50.357 -15.563  0.00  0.00    -0.043 A 
ATOM     51  H8  1UH d   1      -7.583 -50.091 -14.824  0.00  0.00     0.095 H 
ATOM     52  H9  1UH d   1      -7.257 -51.860 -16.713  0.00  0.00     0.085 H 
ENDBRANCH   9  39
TORSDOF 4
