REMARK  11 active torsions:
REMARK  status: ('A' for Active; 'I' for Inactive)
REMARK    1  A    between atoms: S5_14  and  C4_1 
REMARK    2  A    between atoms: C7_2  and  S5_14 
REMARK    3  A    between atoms: C13_5  and  C10_4 
REMARK    4  A    between atoms: N14_19  and  C13_5 
REMARK       I    between atoms: C15_6  and  N14_19 
REMARK    5  A    between atoms: C16_20  and  C15_6 
REMARK    6  A    between atoms: N21_23  and  C22_9 
REMARK    7  A    between atoms: C24_10  and  O25_24 
REMARK    8  A    between atoms: C27_25  and  O28_26 
REMARK    9  A    between atoms: C30_27  and  C31_28 
REMARK   10  A    between atoms: C31_28  and  O32_29 
REMARK   11  A    between atoms: O32_29  and  P33_30 
ROOT
ATOM      1  C17 1XC d   1      15.565  10.022   5.515  0.00  0.00     0.001 A 
ATOM      2  C20 1XC d   1      14.416  10.423   8.836  0.00  0.00    -0.001 A 
ATOM      3  C16 1XC d   1      15.012  10.553   4.378  0.00  0.00     0.048 A 
ATOM      4  N18 1XC d   1      15.008  10.276   6.732  0.00  0.00    -0.317 N 
ATOM      5  C19 1XC d   1      15.326   9.877   8.005  0.00  0.00     0.001 A 
ATOM      6  N21 1XC d   1      13.557  11.145   8.112  0.00  0.00    -0.312 N 
ATOM      7  C39 1XC d   1      13.890  11.067   6.833  0.00  0.00     0.115 A 
ATOM      8  C40 1XC d   1      13.317  11.632   5.671  0.00  0.00    -0.039 A 
ATOM      9  C41 1XC d   1      13.866  11.380   4.459  0.00  0.00    -0.063 A 
ATOM     10  H   1XC d   1      16.453   9.395   5.445  0.00  0.00     0.113 H 
ATOM     11  H   1XC d   1      14.386  10.296   9.917  0.00  0.00     0.114 H 
ATOM     12  H   1XC d   1      16.160   9.237   8.291  0.00  0.00     0.114 H 
ATOM     13  H   1XC d   1      12.437  12.268   5.750  0.00  0.00     0.089 H 
ATOM     14  H   1XC d   1      13.431  11.809   3.557  0.00  0.00     0.085 H 
ENDROOT
BRANCH   3  15
ATOM     15  C15 1XC d   1      15.592  10.273   3.052  0.00  0.00     0.253 C 
ATOM     16  N14 1XC d   1      16.692   9.509   2.937  0.00  0.00    -0.353 N 
ATOM     17  H   1XC d   1      17.125   9.125   3.752  0.00  0.00     0.163 HD
ATOM     18  O42 1XC d   1      15.054  10.715   2.057  0.00  0.00    -0.268 OA
BRANCH  16  19
ATOM     19  C13 1XC d   1      17.251   9.243   1.614  0.00  0.00     0.019 C 
ATOM     20  H   1XC d   1      17.353  10.200   1.082  0.00  0.00     0.071 H 
ATOM     21  H   1XC d   1      18.244   8.787   1.742  0.00  0.00     0.071 H 
BRANCH  19  22
ATOM     22  C10 1XC d   1      16.408   8.317   0.771  0.00  0.00    -0.040 A 
ATOM     23  C9  1XC d   1      16.155   7.032   1.197  0.00  0.00    -0.074 A 
ATOM     24  C8  1XC d   1      15.395   6.182   0.416  0.00  0.00    -0.061 A 
ATOM     25  H   1XC d   1      16.552   6.687   2.145  0.00  0.00     0.084 H 
ATOM     26  C7  1XC d   1      14.875   6.605  -0.794  0.00  0.00     0.064 A 
ATOM     27  H   1XC d   1      15.204   5.171   0.756  0.00  0.00     0.085 H 
ATOM     28  C12 1XC d   1      15.147   7.889  -1.232  0.00  0.00    -0.061 A 
ATOM     29  C11 1XC d   1      15.906   8.742  -0.448  0.00  0.00    -0.074 A 
ATOM     30  H   1XC d   1      14.766   8.227  -2.189  0.00  0.00     0.085 H 
ATOM     31  H   1XC d   1      16.109   9.750  -0.791  0.00  0.00     0.084 H 
BRANCH  26  32
ATOM     32  S5  1XC d   1      13.938   5.476  -1.786  0.00  0.00     0.207 S 
ATOM     33  O6  1XC d   1      13.446   4.441  -0.943  0.00  0.00    -0.217 OA
ATOM     34  O43 1XC d   1      13.121   6.200  -2.691  0.00  0.00    -0.217 OA
BRANCH  32  35
ATOM     35  C4  1XC d   1      15.303   4.803  -2.676  0.00  0.00     0.070 A 
ATOM     36  C3  1XC d   1      16.207   4.009  -1.993  0.00  0.00    -0.024 A 
ATOM     37  C2  1XC d   1      17.305   3.474  -2.645  0.00  0.00     0.120 A 
ATOM     38  H   1XC d   1      16.055   3.804  -0.940  0.00  0.00     0.090 H 
ATOM     39  F1  1XC d   1      18.178   2.692  -1.972  0.00  0.00    -0.206 F 
ATOM     40  C47 1XC d   1      17.503   3.748  -3.984  0.00  0.00    -0.008 A 
ATOM     41  C45 1XC d   1      16.607   4.553  -4.667  0.00  0.00     0.120 A 
ATOM     42  H   1XC d   1      18.361   3.333  -4.501  0.00  0.00     0.092 H 
ATOM     43  C44 1XC d   1      15.507   5.088  -4.015  0.00  0.00    -0.024 A 
ATOM     44  F46 1XC d   1      16.812   4.816  -5.975  0.00  0.00    -0.206 F 
ATOM     45  H   1XC d   1      14.812   5.725  -4.550  0.00  0.00     0.090 H 
ENDBRANCH  32  35
ENDBRANCH  26  32
ENDBRANCH  19  22
ENDBRANCH  16  19
ENDBRANCH   3  15
BRANCH   6  46
ATOM     46  C22 1XC d   1      12.405  11.887   8.632  0.00  0.00     0.138 C 
ATOM     47  C24 1XC d   1      11.118  11.096   8.306  0.00  0.00     0.105 C 
ATOM     48  C27 1XC d   1      10.193  11.529   9.444  0.00  0.00     0.091 C 
ATOM     49  H   1XC d   1      11.295  10.010   8.306  0.00  0.00     0.093 H 
ATOM     50  C30 1XC d   1      11.183  11.568  10.628  0.00  0.00     0.089 C 
ATOM     51  H   1XC d   1       9.376  10.814   9.617  0.00  0.00     0.091 H 
ATOM     52  O38 1XC d   1      12.462  11.979  10.077  0.00  0.00    -0.353 OA
ATOM     53  H   1XC d   1      10.842  12.283  11.391  0.00  0.00     0.090 H 
ATOM     54  H   1XC d   1      12.373  12.891   8.184  0.00  0.00     0.122 H 
BRANCH  47  55
ATOM     55  O25 1XC d   1      10.562  11.506   7.057  0.00  0.00    -0.388 OA
ATOM     56  H   1XC d   1       9.774  11.005   6.883  0.00  0.00     0.210 HD
ENDBRANCH  47  55
BRANCH  48  57
ATOM     57  O28 1XC d   1       9.664  12.825   9.150  0.00  0.00    -0.390 OA
ATOM     58  H   1XC d   1       9.175  12.789   8.336  0.00  0.00     0.210 HD
ENDBRANCH  48  57
BRANCH  50  59
ATOM     59  C31 1XC d   1      11.321  10.173  11.247  0.00  0.00     0.059 C 
ATOM     60  H   1XC d   1      11.555  10.270  12.318  0.00  0.00     0.079 H 
ATOM     61  H   1XC d   1      12.133   9.628  10.742  0.00  0.00     0.079 H 
BRANCH  59  62
ATOM     62  O32 1XC d   1      10.097   9.451  11.092  0.00  0.00    -0.280 OA
BRANCH  62  63
ATOM     63  P33 1XC d   1       9.133   9.078  12.326  0.00  0.00     0.422 P 
ATOM     64  O34 1XC d   1       9.963   8.265  13.372  0.00  0.00    -0.617 OA
ATOM     65  O35 1XC d   1       8.574  10.403  12.941  0.00  0.00    -0.617 OA
ATOM     66  O36 1XC d   1       7.948   8.183  11.831  0.00  0.00    -0.617 OA
ENDBRANCH  62  63
ENDBRANCH  59  62
ENDBRANCH  50  59
ENDBRANCH   6  46
TORSDOF 11
