REMARK  5 active torsions:
REMARK  status: ('A' for Active; 'I' for Inactive)
REMARK    1  A    between atoms: C6_3  and  C7_4 
REMARK    2  A    between atoms: C7_4  and  N8_13 
REMARK    3  A    between atoms: S20_23  and  C3_12 
REMARK       I    between atoms: N8_13  and  C9_14 
REMARK    4  A    between atoms: C9_14  and  C11_16 
REMARK    5  A    between atoms: S20_23  and  C23_26 
ROOT
ATOM      1  C4  1XD d   1      14.853   7.707  -1.022  0.00  0.00    -0.061 A 
ATOM      2  C5  1XD d   1      15.486   8.662  -0.257  0.00  0.00    -0.074 A 
ATOM      3  C6  1XD d   1      15.873   8.380   1.037  0.00  0.00    -0.040 A 
ATOM      4  C1  1XD d   1      15.640   7.129   1.568  0.00  0.00    -0.074 A 
ATOM      5  C2  1XD d   1      15.005   6.168   0.802  0.00  0.00    -0.061 A 
ATOM      6  C3  1XD d   1      14.606   6.464  -0.487  0.00  0.00     0.064 A 
ATOM      7  H   1XD d   1      14.552   7.934  -2.038  0.00  0.00     0.085 H 
ATOM      8  H   1XD d   1      15.682   9.643  -0.675  0.00  0.00     0.084 H 
ATOM      9  H   1XD d   1      15.953   6.900   2.580  0.00  0.00     0.084 H 
ATOM     10  H   1XD d   1      14.820   5.182   1.213  0.00  0.00     0.085 H 
ENDROOT
BRANCH   3  11
ATOM     11  C7  1XD d   1      16.572   9.446   1.836  0.00  0.00     0.019 C 
ATOM     12  H   1XD d   1      16.343  10.420   1.379  0.00  0.00     0.071 H 
ATOM     13  H   1XD d   1      17.655   9.260   1.780  0.00  0.00     0.071 H 
BRANCH  11  14
ATOM     14  N8  1XD d   1      16.193   9.506   3.250  0.00  0.00    -0.353 N 
ATOM     15  C9  1XD d   1      15.118  10.209   3.669  0.00  0.00     0.252 C 
ATOM     16  O10 1XD d   1      14.419  10.806   2.869  0.00  0.00    -0.268 OA
ATOM     17  H   1XD d   1      16.745   9.013   3.923  0.00  0.00     0.163 HD
BRANCH  15  18
ATOM     18  C11 1XD d   1      14.808  10.247   5.115  0.00  0.00     0.036 A 
ATOM     19  C12 1XD d   1      15.637   9.550   6.033  0.00  0.00    -0.052 A 
ATOM     20  C13 1XD d   1      15.376   9.574   7.352  0.00  0.00    -0.013 A 
ATOM     21  H   1XD d   1      16.495   8.989   5.665  0.00  0.00     0.087 H 
ATOM     22  N14 1XD d   1      14.307  10.274   7.837  0.00  0.00    -0.316 N 
ATOM     23  H   1XD d   1      16.022   9.031   8.040  0.00  0.00     0.112 H 
ATOM     24  C15 1XD d   1      13.827  10.459   9.103  0.00  0.00     0.003 A 
ATOM     25  C18 1XD d   1      13.478  10.967   6.988  0.00  0.00     0.134 A 
ATOM     26  C16 1XD d   1      12.730  11.250   9.012  0.00  0.00     0.020 A 
ATOM     27  H   1XD d   1      14.249  10.046  10.018  0.00  0.00     0.114 H 
ATOM     28  N17 1XD d   1      12.535  11.544   7.725  0.00  0.00    -0.241 NA
ATOM     29  H   1XD d   1      12.114  11.587   9.845  0.00  0.00     0.117 H 
ATOM     30  C19 1XD d   1      13.724  10.961   5.599  0.00  0.00    -0.023 A 
ATOM     31  H   1XD d   1      13.073  11.508   4.919  0.00  0.00     0.091 H 
ENDBRANCH  15  18
ENDBRANCH  11  14
ENDBRANCH   3  11
BRANCH   6  32
ATOM     32  S20 1XD d   1      13.813   5.251  -1.480  0.00  0.00     0.207 S 
ATOM     33  O21 1XD d   1      13.289   4.264  -0.603  0.00  0.00    -0.217 OA
ATOM     34  O22 1XD d   1      13.027   5.958  -2.431  0.00  0.00    -0.217 OA
BRANCH  32  35
ATOM     35  C23 1XD d   1      15.178   4.539  -2.334  0.00  0.00     0.070 A 
ATOM     36  C24 1XD d   1      15.361   4.765  -3.684  0.00  0.00    -0.024 A 
ATOM     37  C25 1XD d   1      16.451   4.207  -4.336  0.00  0.00     0.120 A 
ATOM     38  H   1XD d   1      14.655   5.377  -4.233  0.00  0.00     0.090 H 
ATOM     39  C26 1XD d   1      17.357   3.431  -3.632  0.00  0.00    -0.008 A 
ATOM     40  F30 1XD d   1      16.630   4.419  -5.660  0.00  0.00    -0.206 F 
ATOM     41  C27 1XD d   1      17.175   3.214  -2.276  0.00  0.00     0.120 A 
ATOM     42  H   1XD d   1      18.208   2.994  -4.142  0.00  0.00     0.092 H 
ATOM     43  C28 1XD d   1      16.085   3.773  -1.629  0.00  0.00    -0.024 A 
ATOM     44  F29 1XD d   1      18.059   2.458  -1.584  0.00  0.00    -0.206 F 
ATOM     45  H   1XD d   1      15.944   3.609  -0.567  0.00  0.00     0.090 H 
ENDBRANCH  32  35
ENDBRANCH   6  32
TORSDOF 5
