REMARK  5 active torsions:
REMARK  status: ('A' for Active; 'I' for Inactive)
REMARK    1  A    between atoms: C1_2  and  C23_3 
REMARK       I    between atoms: C1_2  and  N1_4 
REMARK    2  A    between atoms: C4_7  and  N2_10 
REMARK    3  A    between atoms: C6_12  and  C8_15 
REMARK    4  A    between atoms: C13_18  and  N5_19 
REMARK    5  A    between atoms: C11_23  and  C15_25 
ROOT
ATOM      1  N2  1UL d   1     -18.979 -49.034 -18.090  0.00  0.00    -0.276 N 
ATOM      2  C7  1UL d   1     -18.171 -48.402 -17.255  0.00  0.00     0.011 A 
ATOM      3  C6  1UL d   1     -16.906 -48.954 -17.409  0.00  0.00     0.013 A 
ATOM      4  C5  1UL d   1     -17.019 -49.952 -18.381  0.00  0.00     0.034 A 
ATOM      5  N3  1UL d   1     -18.302 -50.023 -18.810  0.00  0.00    -0.184 NA
ATOM      6  H13 1UL d   1     -18.446 -47.598 -16.574  0.00  0.00     0.115 H 
ATOM      7  H14 1UL d   1     -16.201 -50.576 -18.738  0.00  0.00     0.118 H 
ENDROOT
BRANCH   3   8
ATOM      8  C8  1UL d   1     -15.773 -48.547 -16.695  0.00  0.00     0.008 A 
ATOM      9  C14 1UL d   1     -15.884 -47.480 -15.799  0.00  0.00     0.016 A 
ATOM     10  N4  1UL d   1     -14.837 -47.028 -15.079  0.00  0.00    -0.240 NA
ATOM     11  H15 1UL d   1     -16.847 -46.998 -15.678  0.00  0.00     0.116 H 
ATOM     12  C13 1UL d   1     -13.629 -47.595 -15.170  0.00  0.00     0.156 A 
ATOM     13  C12 1UL d   1     -13.497 -48.650 -16.036  0.00  0.00     0.132 A 
ATOM     14  C9  1UL d   1     -14.517 -49.151 -16.792  0.00  0.00     0.017 A 
ATOM     15  O2  1UL d   1     -12.324 -49.386 -16.287  0.00  0.00    -0.305 OA
ATOM     16  C10 1UL d   1     -13.888 -50.225 -17.514  0.00  0.00    -0.036 A 
ATOM     17  C11 1UL d   1     -12.536 -50.301 -17.135  0.00  0.00     0.088 A 
ATOM     18  H18 1UL d   1     -14.380 -50.874 -18.237  0.00  0.00     0.089 H 
BRANCH  12  19
ATOM     19  N5  1UL d   1     -12.582 -47.141 -14.443  0.00  0.00    -0.382 N 
ATOM     20  H16 1UL d   1     -11.661 -47.593 -14.529  0.00  0.00     0.157 HD
ATOM     21  H17 1UL d   1     -12.706 -46.343 -13.803  0.00  0.00     0.157 HD
ENDBRANCH  12  19
BRANCH  17  22
ATOM     22  C15 1UL d   1     -11.583 -51.180 -17.619  0.00  0.00     0.018 A 
ATOM     23  C20 1UL d   1     -10.340 -51.220 -17.024  0.00  0.00     0.062 A 
ATOM     24  S   1UL d   1      -9.885 -50.228 -15.631  0.00  0.00     0.005 SA
ATOM     25  C19 1UL d   1      -9.329 -52.064 -17.468  0.00  0.00     0.092 A 
ATOM     26  N7  1UL d   1      -8.264 -50.970 -15.622  0.00  0.00    -0.036 NA
ATOM     27  N6  1UL d   1      -8.215 -51.921 -16.688  0.00  0.00    -0.169 NA
ATOM     28  C18 1UL d   1      -9.579 -52.887 -18.563  0.00  0.00    -0.052 A 
ATOM     29  C17 1UL d   1     -10.825 -52.849 -19.197  0.00  0.00    -0.080 A 
ATOM     30  H19 1UL d   1      -8.807 -53.557 -18.924  0.00  0.00     0.087 H 
ATOM     31  C16 1UL d   1     -11.819 -51.990 -18.735  0.00  0.00    -0.069 A 
ATOM     32  H20 1UL d   1     -11.018 -53.490 -20.050  0.00  0.00     0.083 H 
ATOM     33  H21 1UL d   1     -12.777 -51.949 -19.241  0.00  0.00     0.085 H 
ENDBRANCH  17  22
ENDBRANCH   3   8
BRANCH   1  34
ATOM     34  C4  1UL d   1     -20.443 -48.885 -18.324  0.00  0.00     0.037 C 
ATOM     35  C21 1UL d   1     -20.777 -47.678 -19.201  0.00  0.00    -0.029 C 
ATOM     36  C22 1UL d   1     -22.297 -47.540 -19.331  0.00  0.00    -0.001 C 
ATOM     37  H6  1UL d   1     -20.365 -46.767 -18.742  0.00  0.00     0.038 H 
ATOM     38  H7  1UL d   1     -20.336 -47.818 -20.199  0.00  0.00     0.038 H 
ATOM     39  N1  1UL d   1     -22.717 -48.790 -19.975  0.00  0.00    -0.352 N 
ATOM     40  H4  1UL d   1     -22.765 -47.434 -18.341  0.00  0.00     0.064 H 
ATOM     41  H5  1UL d   1     -22.558 -46.672 -19.955  0.00  0.00     0.064 H 
ATOM     42  C1  1UL d   1     -23.171 -48.901 -21.241  0.00  0.00     0.215 C 
ATOM     43  C2  1UL d   1     -22.560 -49.957 -19.098  0.00  0.00    -0.001 C 
ATOM     44  O1  1UL d   1     -23.486 -49.985 -21.718  0.00  0.00    -0.274 OA
ATOM     45  C3  1UL d   1     -21.053 -50.155 -18.932  0.00  0.00    -0.029 C 
ATOM     46  H11 1UL d   1     -23.014 -50.846 -19.559  0.00  0.00     0.064 H 
ATOM     47  H12 1UL d   1     -23.031 -49.769 -18.122  0.00  0.00     0.064 H 
ATOM     48  H9  1UL d   1     -20.865 -51.009 -18.265  0.00  0.00     0.038 H 
ATOM     49  H10 1UL d   1     -20.597 -50.349 -19.914  0.00  0.00     0.038 H 
ATOM     50  H8  1UL d   1     -20.914 -48.723 -17.343  0.00  0.00     0.076 H 
BRANCH  42  51
ATOM     51  C23 1UL d   1     -23.297 -47.657 -22.079  0.00  0.00    -0.003 C 
ATOM     52  H1  1UL d   1     -22.972 -46.785 -21.492  0.00  0.00     0.040 H 
ATOM     53  H2  1UL d   1     -24.346 -47.524 -22.383  0.00  0.00     0.040 H 
ATOM     54  H3  1UL d   1     -22.665 -47.752 -22.974  0.00  0.00     0.040 H 
ENDBRANCH  42  51
ENDBRANCH   1  34
TORSDOF 5
