REMARK  5 active torsions:
REMARK  status: ('A' for Active; 'I' for Inactive)
REMARK    1  A    between atoms: O1_1  and  C2_2 
REMARK    2  A    between atoms: C6_5  and  N10_8 
REMARK    3  A    between atoms: C12_10  and  C15_13 
REMARK    4  A    between atoms: C18_16  and  N19_17 
REMARK    5  A    between atoms: C22_20  and  C23_21 
ROOT
ATOM      1  C15 1UO d   1     -16.098 -48.499 -16.744  0.00  0.00     0.009 A 
ATOM      2  C16 1UO d   1     -16.201 -47.364 -15.925  0.00  0.00     0.016 A 
ATOM      3  N17 1UO d   1     -15.186 -46.882 -15.228  0.00  0.00    -0.240 NA
ATOM      4  C18 1UO d   1     -13.990 -47.421 -15.260  0.00  0.00     0.156 A 
ATOM      5  C20 1UO d   1     -13.766 -48.540 -16.050  0.00  0.00     0.134 A 
ATOM      6  O21 1UO d   1     -12.655 -49.239 -16.246  0.00  0.00    -0.303 OA
ATOM      7  C22 1UO d   1     -12.827 -50.248 -17.097  0.00  0.00     0.110 A 
ATOM      8  C32 1UO d   1     -14.135 -50.260 -17.495  0.00  0.00     0.082 A 
ATOM      9 CL3  1UO d   1     -14.824 -51.415 -18.595  0.00  0.00    -0.080 Cl
ATOM     10  C34 1UO d   1     -14.802 -49.126 -16.815  0.00  0.00     0.039 A 
ATOM     11  H14 1UO d   1     -17.158 -46.859 -15.861  0.00  0.00     0.116 H 
ENDROOT
BRANCH   1  12
ATOM     12  C12 1UO d   1     -17.325 -48.895 -17.508  0.00  0.00     0.013 A 
ATOM     13  C11 1UO d   1     -18.625 -48.583 -17.199  0.00  0.00     0.011 A 
ATOM     14  N10 1UO d   1     -19.435 -49.073 -18.160  0.00  0.00    -0.276 N 
ATOM     15  H12 1UO d   1     -18.950 -48.029 -16.320  0.00  0.00     0.115 H 
ATOM     16  N14 1UO d   1     -18.638 -49.705 -19.117  0.00  0.00    -0.184 NA
ATOM     17  C13 1UO d   1     -17.388 -49.578 -18.745  0.00  0.00     0.034 A 
ATOM     18  H13 1UO d   1     -16.528 -49.943 -19.304  0.00  0.00     0.118 H 
BRANCH  14  19
ATOM     19  C6  1UO d   1     -20.899 -48.981 -18.196  0.00  0.00     0.034 C 
ATOM     20  C5  1UO d   1     -21.296 -47.534 -18.475  0.00  0.00    -0.042 C 
ATOM     21  C4  1UO d   1     -22.821 -47.399 -18.429  0.00  0.00    -0.039 C 
ATOM     22  H5  1UO d   1     -20.848 -46.879 -17.714  0.00  0.00     0.036 H 
ATOM     23  H6  1UO d   1     -20.933 -47.241 -19.471  0.00  0.00     0.036 H 
ATOM     24  C2  1UO d   1     -23.460 -48.335 -19.459  0.00  0.00     0.035 C 
ATOM     25  H3  1UO d   1     -23.180 -47.664 -17.424  0.00  0.00     0.036 H 
ATOM     26  H4  1UO d   1     -23.102 -46.360 -18.657  0.00  0.00     0.036 H 
ATOM     27  C9  1UO d   1     -23.046 -49.777 -19.153  0.00  0.00    -0.039 C 
ATOM     28  H2  1UO d   1     -23.119 -48.060 -20.468  0.00  0.00     0.082 H 
ATOM     29  C8  1UO d   1     -21.520 -49.900 -19.207  0.00  0.00    -0.042 C 
ATOM     30  H10 1UO d   1     -23.494 -50.452 -19.898  0.00  0.00     0.036 H 
ATOM     31  H11 1UO d   1     -23.399 -50.053 -18.149  0.00  0.00     0.036 H 
ATOM     32  H8  1UO d   1     -21.229 -50.937 -18.985  0.00  0.00     0.036 H 
ATOM     33  H9  1UO d   1     -21.167 -49.628 -20.213  0.00  0.00     0.036 H 
ATOM     34  H7  1UO d   1     -21.283 -49.265 -17.205  0.00  0.00     0.075 H 
BRANCH  24  35
ATOM     35  O1  1UO d   1     -24.883 -48.221 -19.390  0.00  0.00    -0.396 OA
ATOM     36  H1  1UO d   1     -25.277 -48.802 -20.029  0.00  0.00     0.210 HD
ENDBRANCH  24  35
ENDBRANCH  14  19
ENDBRANCH   1  12
BRANCH   4  37
ATOM     37  N19 1UO d   1     -12.948 -46.879 -14.500  0.00  0.00    -0.382 N 
ATOM     38  H15 1UO d   1     -12.012 -47.307 -14.530  0.00  0.00     0.157 HD
ATOM     39  H16 1UO d   1     -13.117 -46.052 -13.910  0.00  0.00     0.157 HD
ENDBRANCH   4  37
BRANCH   7  40
ATOM     40  C23 1UO d   1     -11.686 -51.108 -17.489  0.00  0.00     0.021 A 
ATOM     41  C24 1UO d   1     -11.696 -51.996 -18.584  0.00  0.00    -0.069 A 
ATOM     42  C25 1UO d   1     -10.568 -52.752 -18.886  0.00  0.00    -0.080 A 
ATOM     43  H17 1UO d   1     -12.587 -52.090 -19.194  0.00  0.00     0.085 H 
ATOM     44  C26 1UO d   1      -9.413 -52.641 -18.142  0.00  0.00    -0.052 A 
ATOM     45  H18 1UO d   1     -10.598 -53.441 -19.722  0.00  0.00     0.083 H 
ATOM     46  C27 1UO d   1      -9.351 -51.743 -17.054  0.00  0.00     0.099 A 
ATOM     47  H19 1UO d   1      -8.549 -53.245 -18.393  0.00  0.00     0.087 H 
ATOM     48  N28 1UO d   1      -8.364 -51.450 -16.199  0.00  0.00    -0.142 NA
ATOM     49  C31 1UO d   1     -10.502 -50.984 -16.749  0.00  0.00     0.069 A 
ATOM     50  N29 1UO d   1      -8.554 -50.585 -15.284  0.00  0.00    -0.110 NA
ATOM     51  S30 1UO d   1     -10.012 -50.017 -15.359  0.00  0.00     0.037 SA
ENDBRANCH   7  40
TORSDOF 5
