REMARK WARNING: 32 MAX_TORS EXCEEDED!!!
REMARK  37 active torsions:
REMARK  status: ('A' for Active; 'I' for Inactive)
REMARK    1  A    between atoms: N_1  and  CA_2 
REMARK    2  A    between atoms: CA_2  and  C_3 
REMARK    3  A    between atoms: CA_2  and  CB_5 
REMARK       I    between atoms: C_3  and  N_6 
REMARK    4  A    between atoms: N_6  and  CA_7 
REMARK    5  A    between atoms: CA_7  and  C_8 
REMARK    6  A    between atoms: CA_7  and  CB_10 
REMARK       I    between atoms: C_8  and  N_17 
REMARK    7  A    between atoms: CB_10  and  CG_11 
REMARK    8  A    between atoms: CG_11  and  CD_12 
REMARK    9  A    between atoms: CD_12  and  NE_13 
REMARK       I    between atoms: NE_13  and  CZ_14 
REMARK       I    between atoms: CZ_14  and  NH1_15 
REMARK   10  A    between atoms: N_17  and  CA_18 
REMARK   11  A    between atoms: CA_18  and  C_19 
REMARK   12  A    between atoms: CA_18  and  CB_21 
REMARK       I    between atoms: C_19  and  N_24 
REMARK   13  A    between atoms: CB_21  and  OG1_22 
REMARK   14  A    between atoms: CB_21  and  CG2_23 
REMARK   15  A    between atoms: N_24  and  CA_25 
REMARK   16  A    between atoms: CA_25  and  CB_26 
REMARK   17  A    between atoms: CA_25  and  C_31 
REMARK   18  A    between atoms: CB_26  and  CG_27 
REMARK   19  A    between atoms: CG_27  and  CD_28 
REMARK   20  A    between atoms: CD_28  and  CE_29 
REMARK   21  A    between atoms: CE_29  and  NZ_30 
REMARK   22  A    between atoms: NZ_30  and  CM1_33 
REMARK   23  A    between atoms: NZ_30  and  CM2_34 
REMARK   24  A    between atoms: NZ_30  and  CM3_35 
REMARK       I    between atoms: C_31  and  N_36 
REMARK   25  A    between atoms: N_36  and  CA_37 
REMARK   26  A    between atoms: CA_37  and  C_38 
REMARK   27  A    between atoms: CA_37  and  CB_40 
REMARK       I    between atoms: C_38  and  N_45 
REMARK   28  A    between atoms: CB_40  and  CG_41 
REMARK   29  A    between atoms: CG_41  and  CD_42 
REMARK       I    between atoms: CD_42  and  NE2_44 
REMARK   30  A    between atoms: N_45  and  CA_46 
REMARK   31  A    between atoms: CA_46  and  C_47 
REMARK   32  A    between atoms: CA_46  and  CB_49 
REMARK       I    between atoms: C_47  and  N_52 
REMARK   33  A    between atoms: CB_49  and  OG1_50 
REMARK   34  A    between atoms: CB_49  and  CG2_51 
REMARK   35  A    between atoms: N_52  and  CA_53 
REMARK   36  A    between atoms: CA_53  and  C_54 
REMARK   37  A    between atoms: CA_53  and  CB_56 
ROOT
ATOM      1  CA  M3L d   1       2.810   6.126  12.809  0.00  0.00     0.089 C 
ATOM      2  H29 M3L d   1       3.137   7.151  13.039  0.00  0.00     0.087 H 
ENDROOT
BRANCH   1   3
ATOM      3  N   M3L d   1       1.407   6.035  13.177  0.00  0.00    -0.346 N 
ATOM      4  C   THR d   1       0.925   6.755  14.183  0.00  0.00     0.243 C 
ATOM      5  O   THR d   1       1.644   7.363  14.979  0.00  0.00    -0.271 OA
ATOM      6  H28 M3L d   1       0.799   5.425  12.668  0.00  0.00     0.163 HD
BRANCH   4   7
ATOM      7  CA  THR d   1      -0.582   6.799  14.316  0.00  0.00     0.113 C 
ATOM      8  H22 THR d   1      -0.984   5.777  14.371  0.00  0.00     0.091 H 
BRANCH   7   9
ATOM      9  N   THR d   1      -0.905   7.512  15.537  0.00  0.00    -0.344 N 
ATOM     10  C   ARG d   1      -1.677   6.978  16.472  0.00  0.00     0.241 C 
ATOM     11  O   ARG d   1      -2.184   5.865  16.376  0.00  0.00    -0.271 OA
ATOM     12  H21 THR d   1      -0.535   8.431  15.677  0.00  0.00     0.163 HD
BRANCH  10  13
ATOM     13  CA  ARG d   1      -1.897   7.838  17.700  0.00  0.00     0.089 C 
ATOM     14  H9  ARG d   1      -1.492   8.842  17.505  0.00  0.00     0.087 H 
BRANCH  13  15
ATOM     15  N   ARG d   1      -3.323   7.979  17.948  0.00  0.00    -0.346 N 
ATOM     16  C   ALA d   1      -3.997   8.945  17.325  0.00  0.00     0.248 C 
ATOM     17  O   ALA d   1      -3.438   9.858  16.713  0.00  0.00    -0.271 OA
ATOM     18  H8  ARG d   1      -3.792   7.359  18.578  0.00  0.00     0.163 HD
BRANCH  16  19
ATOM     19  CA  ALA d   1      -5.509   8.907  17.395  0.00  0.00     0.172 C 
ATOM     20  H4  ALA d   1      -5.830   8.710  18.429  0.00  0.00     0.098 H 
BRANCH  19  21
ATOM     21  N   ALA d   1      -6.016  10.232  16.955  0.00  0.00    -0.067 N 
ATOM     22  H1  ALA d   1      -7.023  10.235  16.992  0.00  0.00     0.275 HD
ATOM     23  H2  ALA d   1      -5.714  10.411  16.010  0.00  0.00     0.275 HD
ATOM     24  H3  ALA d   1      -5.655  10.949  17.564  0.00  0.00     0.275 HD
ENDBRANCH  19  21
BRANCH  19  25
ATOM     25  CB  ALA d   1      -6.045   7.816  16.485  0.00  0.00    -0.042 C 
ATOM     26  H5  ALA d   1      -5.664   6.840  16.819  0.00  0.00     0.030 H 
ATOM     27  H6  ALA d   1      -5.715   8.005  15.453  0.00  0.00     0.030 H 
ATOM     28  H7  ALA d   1      -7.144   7.813  16.524  0.00  0.00     0.030 H 
ENDBRANCH  19  25
ENDBRANCH  16  19
ENDBRANCH  13  15
BRANCH  13  29
ATOM     29  CB  ARG d   1      -1.114   7.237  18.866  0.00  0.00    -0.036 C 
ATOM     30  H10 ARG d   1      -1.458   6.208  19.049  0.00  0.00     0.036 H 
ATOM     31  H11 ARG d   1      -1.275   7.844  19.769  0.00  0.00     0.036 H 
BRANCH  29  32
ATOM     32  CG  ARG d   1       0.369   7.224  18.519  0.00  0.00    -0.048 C 
ATOM     33  H12 ARG d   1       0.564   8.059  17.831  0.00  0.00     0.035 H 
ATOM     34  H13 ARG d   1       0.591   6.273  18.013  0.00  0.00     0.035 H 
BRANCH  32  35
ATOM     35  CD  ARG d   1       1.307   7.358  19.691  0.00  0.00     0.009 C 
ATOM     36  H14 ARG d   1       1.204   6.482  20.348  0.00  0.00     0.064 H 
ATOM     37  H15 ARG d   1       1.065   8.271  20.255  0.00  0.00     0.064 H 
BRANCH  35  38
ATOM     38  NE  ARG d   1       2.682   7.439  19.193  0.00  0.00    -0.227 N 
ATOM     39  CZ  ARG d   1       3.687   6.650  19.568  0.00  0.00     0.665 C 
ATOM     40  NH1 ARG d   1       3.518   5.697  20.475  0.00  0.00    -0.235 N 
ATOM     41  NH2 ARG d   1       4.888   6.825  19.031  0.00  0.00    -0.235 N 
ATOM     42  H17 ARG d   1       4.311   5.100  20.748  0.00  0.00     0.174 HD
ATOM     43  H18 ARG d   1       2.594   5.554  20.906  0.00  0.00     0.174 HD
ATOM     44  H19 ARG d   1       5.034   7.561  18.326  0.00  0.00     0.174 HD
ATOM     45  H20 ARG d   1       5.674   6.225  19.320  0.00  0.00     0.174 HD
ATOM     46  H16 ARG d   1       2.889   8.167  18.494  0.00  0.00     0.177 HD
ENDBRANCH  35  38
ENDBRANCH  32  35
ENDBRANCH  29  32
ENDBRANCH  13  29
ENDBRANCH  10  13
ENDBRANCH   7   9
BRANCH   7  47
ATOM     47  CB  THR d   1      -1.169   7.512  13.083  0.00  0.00     0.060 C 
ATOM     48  H23 THR d   1      -0.995   6.888  12.194  0.00  0.00     0.086 H 
BRANCH  47  49
ATOM     49  OG1 THR d   1      -0.522   8.780  12.904  0.00  0.00    -0.393 OA
ATOM     50  H24 THR d   1       0.409   8.644  12.776  0.00  0.00     0.210 HD
ENDBRANCH  47  49
BRANCH  47  51
ATOM     51  CG2 THR d   1      -2.664   7.732  13.249  0.00  0.00    -0.050 C 
ATOM     52  H25 THR d   1      -3.061   8.242  12.358  0.00  0.00     0.031 H 
ATOM     53  H26 THR d   1      -2.847   8.353  14.139  0.00  0.00     0.031 H 
ATOM     54  H27 THR d   1      -3.166   6.761  13.370  0.00  0.00     0.031 H 
ENDBRANCH  47  51
ENDBRANCH   7  47
ENDBRANCH   4   7
ENDBRANCH   1   3
BRANCH   1  55
ATOM     55  CB  M3L d   1       3.744   5.203  13.545  0.00  0.00    -0.038 C 
ATOM     56  H30 M3L d   1       3.592   5.368  14.622  0.00  0.00     0.036 H 
ATOM     57  H31 M3L d   1       4.772   5.485  13.272  0.00  0.00     0.036 H 
BRANCH  55  58
ATOM     58  CG  M3L d   1       3.595   3.725  13.286  0.00  0.00    -0.061 C 
ATOM     59  H32 M3L d   1       3.756   3.555  12.211  0.00  0.00     0.033 H 
ATOM     60  H33 M3L d   1       2.566   3.441  13.552  0.00  0.00     0.033 H 
BRANCH  58  61
ATOM     61  CD  M3L d   1       4.535   2.812  14.042  0.00  0.00    -0.042 C 
ATOM     62  H34 M3L d   1       4.492   3.099  15.103  0.00  0.00     0.035 H 
ATOM     63  H35 M3L d   1       5.550   2.988  13.655  0.00  0.00     0.035 H 
BRANCH  61  64
ATOM     64  CE  M3L d   1       4.264   1.299  13.960  0.00  0.00     0.084 C 
ATOM     65  H36 M3L d   1       4.362   1.003  12.905  0.00  0.00     0.076 H 
ATOM     66  H37 M3L d   1       3.229   1.131  14.293  0.00  0.00     0.076 H 
BRANCH  64  67
ATOM     67  NZ  M3L d   1       5.146   0.398  14.763  0.00  0.00    -0.079 N 
BRANCH  67  68
ATOM     68  CM1 M3L d   1       4.974   0.692  16.177  0.00  0.00     0.067 C 
ATOM     69  H38 M3L d   1       5.622   0.030  16.770  0.00  0.00     0.068 H 
ATOM     70  H39 M3L d   1       3.924   0.528  16.461  0.00  0.00     0.068 H 
ATOM     71  H40 M3L d   1       5.246   1.740  16.369  0.00  0.00     0.068 H 
ENDBRANCH  67  68
BRANCH  67  72
ATOM     72  CM2 M3L d   1       6.503   0.580  14.339  0.00  0.00     0.067 C 
ATOM     73  H41 M3L d   1       6.587   0.347  13.267  0.00  0.00     0.068 H 
ATOM     74  H42 M3L d   1       7.159  -0.091  14.912  0.00  0.00     0.068 H 
ATOM     75  H43 M3L d   1       6.804   1.624  14.512  0.00  0.00     0.068 H 
ENDBRANCH  67  72
BRANCH  67  76
ATOM     76  CM3 M3L d   1       4.749  -0.974  14.523  0.00  0.00     0.067 C 
ATOM     77  H44 M3L d   1       3.708  -1.117  14.848  0.00  0.00     0.068 H 
ATOM     78  H45 M3L d   1       5.406  -1.650  15.090  0.00  0.00     0.068 H 
ATOM     79  H46 M3L d   1       4.832  -1.197  13.449  0.00  0.00     0.068 H 
ENDBRANCH  67  76
ENDBRANCH  64  67
ENDBRANCH  61  64
ENDBRANCH  58  61
ENDBRANCH  55  58
ENDBRANCH   1  55
BRANCH   1  80
ATOM     80  C   M3L d   1       2.921   5.927  11.342  0.00  0.00     0.241 C 
ATOM     81  O   M3L d   1       2.246   5.030  10.735  0.00  0.00    -0.271 OA
ATOM     82  N   GLN d   1       3.752   6.757  10.725  0.00  0.00    -0.346 N 
ATOM     83  H47 GLN d   1       4.214   7.464  11.261  0.00  0.00     0.163 HD
BRANCH  82  84
ATOM     84  CA  GLN d   1       4.014   6.676   9.302  0.00  0.00     0.090 C 
ATOM     85  H48 GLN d   1       3.491   5.803   8.885  0.00  0.00     0.087 H 
BRANCH  84  86
ATOM     86  C   GLN d   1       5.504   6.515   9.093  0.00  0.00     0.241 C 
ATOM     87  O   GLN d   1       6.238   7.495   8.933  0.00  0.00    -0.271 OA
ATOM     88  N   THR d   1       5.942   5.266   9.101  0.00  0.00    -0.344 N 
ATOM     89  H55 THR d   1       5.282   4.521   9.195  0.00  0.00     0.163 HD
BRANCH  88  90
ATOM     90  CA  THR d   1       7.349   4.947   8.978  0.00  0.00     0.113 C 
ATOM     91  H56 THR d   1       7.925   5.621   9.629  0.00  0.00     0.091 H 
BRANCH  90  92
ATOM     92  C   THR d   1       7.800   5.142   7.539  0.00  0.00     0.243 C 
ATOM     93  O   THR d   1       7.165   4.644   6.607  0.00  0.00    -0.271 OA
ATOM     94  N   ALA d   1       8.885   5.890   7.363  0.00  0.00    -0.345 N 
ATOM     95  H62 ALA d   1       9.308   6.326   8.157  0.00  0.00     0.163 HD
BRANCH  94  96
ATOM     96  CA  ALA d   1       9.476   6.093   6.044  0.00  0.00     0.093 C 
ATOM     97  H63 ALA d   1       8.913   5.497   5.311  0.00  0.00     0.089 H 
BRANCH  96  98
ATOM     98  C   ALA d   1      10.923   5.621   6.048  0.00  0.00     0.196 C 
ATOM     99  O   ALA d   1      11.600   5.651   7.110  0.00  0.00    -0.646 OA
ATOM    100  O   ALA d   1      11.447   5.198   4.983  0.00  0.00    -0.646 OA
ENDBRANCH  96  98
BRANCH  96 101
ATOM    101  CB  ALA d   1       9.395   7.565   5.639  0.00  0.00    -0.048 C 
ATOM    102  H64 ALA d   1       9.845   7.697   4.644  0.00  0.00     0.030 H 
ATOM    103  H65 ALA d   1       9.941   8.178   6.372  0.00  0.00     0.030 H 
ATOM    104  H66 ALA d   1       8.341   7.880   5.610  0.00  0.00     0.030 H 
ENDBRANCH  96 101
ENDBRANCH  94  96
ENDBRANCH  90  92
BRANCH  90 105
ATOM    105  CB  THR d   1       7.610   3.502   9.406  0.00  0.00     0.060 C 
ATOM    106  H57 THR d   1       7.035   2.825   8.757  0.00  0.00     0.086 H 
BRANCH 105 107
ATOM    107  OG1 THR d   1       7.188   3.326  10.764  0.00  0.00    -0.393 OA
ATOM    108  H58 THR d   1       7.676   3.917  11.325  0.00  0.00     0.210 HD
ENDBRANCH 105 107
BRANCH 105 109
ATOM    109  CG2 THR d   1       9.081   3.171   9.282  0.00  0.00    -0.050 C 
ATOM    110  H59 THR d   1       9.250   2.130   9.593  0.00  0.00     0.031 H 
ATOM    111  H60 THR d   1       9.664   3.845   9.926  0.00  0.00     0.031 H 
ATOM    112  H61 THR d   1       9.398   3.297   8.236  0.00  0.00     0.031 H 
ENDBRANCH 105 109
ENDBRANCH  90 105
ENDBRANCH  88  90
ENDBRANCH  84  86
BRANCH  84 113
ATOM    113  CB  GLN d   1       3.521   7.932   8.597  0.00  0.00    -0.030 C 
ATOM    114  H49 GLN d   1       3.964   7.962   7.591  0.00  0.00     0.037 H 
ATOM    115  H50 GLN d   1       3.857   8.808   9.172  0.00  0.00     0.037 H 
BRANCH 113 116
ATOM    116  CG  GLN d   1       2.018   8.000   8.459  0.00  0.00     0.011 C 
ATOM    117  H51 GLN d   1       1.565   7.904   9.457  0.00  0.00     0.047 H 
ATOM    118  H52 GLN d   1       1.682   7.168   7.823  0.00  0.00     0.047 H 
BRANCH 116 119
ATOM    119  CD  GLN d   1       1.563   9.299   7.841  0.00  0.00     0.215 C 
ATOM    120  OE1 GLN d   1       1.011  10.162   8.524  0.00  0.00    -0.274 OA
ATOM    121  NE2 GLN d   1       1.796   9.451   6.540  0.00  0.00    -0.370 N 
ATOM    122  H53 GLN d   1       1.516  10.292   6.077  0.00  0.00     0.159 HD
ATOM    123  H54 GLN d   1       2.251   8.724   6.025  0.00  0.00     0.159 HD
ENDBRANCH 116 119
ENDBRANCH 113 116
ENDBRANCH  84 113
ENDBRANCH  82  84
ENDBRANCH   1  80
TORSDOF 37
