REMARK  6 active torsions:
REMARK  status: ('A' for Active; 'I' for Inactive)
REMARK    1  A    between atoms: C1'_1  and  O1_14 
REMARK    2  A    between atoms: C2'_3  and  O2'_4 
REMARK    3  A    between atoms: C3'_5  and  O3'_6 
REMARK    4  A    between atoms: C4'_7  and  C5'_8 
REMARK    5  A    between atoms: C5'_8  and  O5'_9 
REMARK    6  A    between atoms: O5'_9  and  P'_10 
ROOT
ATOM      1  C1' HSX d   1       6.627  28.927  27.179  0.00  0.00     0.156 C 
ATOM      2  O1' HSX d   1       6.303  27.589  26.759  0.00  0.00    -0.349 OA
ATOM      3  C2' HSX d   1       5.353  29.313  27.901  0.00  0.00     0.110 C 
ATOM      4  C3' HSX d   1       4.290  28.785  26.957  0.00  0.00     0.092 C 
ATOM      5  C4' HSX d   1       5.025  27.742  26.118  0.00  0.00     0.090 C 
ATOM      6  H1  HSX d   1       6.828  29.589  26.324  0.00  0.00     0.133 H 
ATOM      7  H2  HSX d   1       5.273  30.398  28.061  0.00  0.00     0.094 H 
ATOM      8  H4  HSX d   1       3.879  29.587  26.326  0.00  0.00     0.091 H 
ATOM      9  H6  HSX d   1       4.477  26.789  26.083  0.00  0.00     0.090 H 
ENDROOT
BRANCH   5  10
ATOM     10  C5' HSX d   1       5.218  28.306  24.711  0.00  0.00     0.059 C 
ATOM     11  H7  HSX d   1       5.601  29.335  24.776  0.00  0.00     0.079 H 
ATOM     12  H8  HSX d   1       4.255  28.306  24.179  0.00  0.00     0.079 H 
BRANCH  10  13
ATOM     13  O5' HSX d   1       6.152  27.492  24.008  0.00  0.00    -0.280 OA
BRANCH  13  14
ATOM     14  P'  HSX d   1       5.925  27.199  22.450  0.00  0.00     0.422 P 
ATOM     15  O1X HSX d   1       4.703  28.104  21.925  0.00  0.00    -0.617 OA
ATOM     16  O2X HSX d   1       5.558  25.649  22.257  0.00  0.00    -0.617 OA
ATOM     17  O3X HSX d   1       7.271  27.526  21.637  0.00  0.00    -0.617 OA
ENDBRANCH  13  14
ENDBRANCH  10  13
ENDBRANCH   5  10
BRANCH   4  18
ATOM     18  O3' HSX d   1       3.242  28.166  27.717  0.00  0.00    -0.390 OA
ATOM     19  H5  HSX d   1       2.857  28.807  28.303  0.00  0.00     0.210 HD
ENDBRANCH   4  18
BRANCH   1  20
ATOM     20  O1  HSX d   1       7.760  28.924  28.071  0.00  0.00    -0.369 OA
ATOM     21  H9  HSX d   1       7.956  29.815  28.335  0.00  0.00     0.212 HD
ENDBRANCH   1  20
BRANCH   3  22
ATOM     22  O2' HSX d   1       5.272  28.603  29.146  0.00  0.00    -0.388 OA
ATOM     23  H3  HSX d   1       4.472  28.847  29.597  0.00  0.00     0.210 HD
ENDBRANCH   3  22
TORSDOF 6
