REMARK  5 active torsions:
REMARK  status: ('A' for Active; 'I' for Inactive)
REMARK    1  A    between atoms: C6_4  and  C8_5 
REMARK    2  A    between atoms: C8_5  and  N9_6 
REMARK    3  A    between atoms: C1_9  and  O10_10 
REMARK    4  A    between atoms: O10_10  and  C15_11 
REMARK    5  A    between atoms: B17_18  and  O20_20 
ROOT
ATOM      1  O10 1WU d   1      -3.984  -0.198 -32.636  0.00  0.00    -0.308 OA
ENDROOT
BRANCH   1   2
ATOM      2  C1  1WU d   1      -4.557   0.769 -31.842  0.00  0.00     0.114 A 
ATOM      3  C3  1WU d   1      -4.044   2.056 -31.897  0.00  0.00     0.150 A 
ATOM      4  F7  1WU d   1      -3.021   2.333 -32.721  0.00  0.00    -0.203 F 
ATOM      5  C5  1WU d   1      -4.573   3.073 -31.120  0.00  0.00    -0.035 A 
ATOM      6  C6  1WU d   1      -5.641   2.826 -30.252  0.00  0.00    -0.030 A 
ATOM      7  H1  1WU d   1      -4.155   4.071 -31.185  0.00  0.00     0.089 H 
ATOM      8  C4  1WU d   1      -6.157   1.520 -30.187  0.00  0.00    -0.072 A 
ATOM      9  C2  1WU d   1      -5.616   0.492 -30.980  0.00  0.00    -0.047 A 
ATOM     10  H7  1WU d   1      -6.982   1.303 -29.518  0.00  0.00     0.084 H 
ATOM     11  H8  1WU d   1      -6.021  -0.512 -30.921  0.00  0.00     0.087 H 
BRANCH   6  12
ATOM     12  C8  1WU d   1      -6.237   3.995 -29.346  0.00  0.00     0.103 C 
ATOM     13  H2  1WU d   1      -7.148   3.637 -28.844  0.00  0.00     0.082 H 
ATOM     14  H3  1WU d   1      -6.484   4.858 -29.982  0.00  0.00     0.082 H 
BRANCH  12  15
ATOM     15  N9  1WU d   1      -5.221   4.418 -28.300  0.00  0.00    -0.075 N 
ATOM     16  H4  1WU d   1      -5.609   5.157 -27.734  0.00  0.00     0.274 HD
ATOM     17  H5  1WU d   1      -4.386   4.748 -28.757  0.00  0.00     0.274 HD
ATOM     18  H6  1WU d   1      -4.994   3.630 -27.714  0.00  0.00     0.274 HD
ENDBRANCH  12  15
ENDBRANCH   6  12
ENDBRANCH   1   2
BRANCH   1  19
ATOM     19  C15 1WU d   1      -4.678  -1.204 -33.318  0.00  0.00     0.075 A 
ATOM     20  C13 1WU d   1      -4.116  -2.498 -33.412  0.00  0.00    -0.052 A 
ATOM     21  C11 1WU d   1      -4.792  -3.489 -34.114  0.00  0.00    -0.060 A 
ATOM     22  H9  1WU d   1      -3.165  -2.716 -32.940  0.00  0.00     0.087 H 
ATOM     23  C12 1WU d   1      -5.981  -3.264 -34.715  0.00  0.00    -0.039 A 
ATOM     24  B17 1WU d   1      -4.425  -5.003 -34.368  0.00  0.00     0.363 B 
ATOM     25  C14 1WU d   1      -6.576  -2.013 -34.646  0.00  0.00    -0.073 A 
ATOM     26  C18 1WU d   1      -6.512  -4.511 -35.396  0.00  0.00     0.024 A 
ATOM     27  C16 1WU d   1      -5.925  -0.968 -33.948  0.00  0.00    -0.050 A 
ATOM     28  H11 1WU d   1      -7.533  -1.837 -35.123  0.00  0.00     0.084 H 
ATOM     29  H10 1WU d   1      -6.381   0.014 -33.895  0.00  0.00     0.087 H 
ATOM     30  O19 1WU d   1      -5.607  -5.576 -35.102  0.00  0.00    -0.448 OA
ATOM     31  H12 1WU d   1      -6.565  -4.352 -36.483  0.00  0.00     0.078 H 
ATOM     32  H13 1WU d   1      -7.514  -4.752 -35.011  0.00  0.00     0.078 H 
BRANCH  24  33
ATOM     33  O20 1WU d   1      -3.189  -5.750 -33.971  0.00  0.00     0.000 OA
ATOM     34  H16 1WU d   1      -2.765  -6.094 -34.748  0.00  0.00     0.000 HD
ATOM     35  H17 1WU d   1      -2.765  -6.094 -34.748  0.00  0.00     0.000 HD
ENDBRANCH  24  33
ENDBRANCH   1  19
TORSDOF 5
