REMARK  4 active torsions:
REMARK  status: ('A' for Active; 'I' for Inactive)
REMARK    1  A    between atoms: C1_1  and  C2_2 
REMARK    2  A    between atoms: C8_7  and  C9_8 
REMARK    3  A    between atoms: C9_8  and  N10_9 
REMARK    4  A    between atoms: C13_12  and  C16_15 
ROOT
ATOM      1  N10 1WQ d   1      15.646  -5.837  -7.012  0.00  0.00    -0.064 N 
ATOM      2  C11 1WQ d   1      15.516  -5.449  -8.426  0.00  0.00     0.088 C 
ATOM      3  C12 1WQ d   1      16.693  -4.586  -8.794  0.00  0.00    -0.018 C 
ATOM      4  C13 1WQ d   1      17.931  -5.387  -8.525  0.00  0.00    -0.049 C 
ATOM      5  C14 1WQ d   1      17.997  -6.347  -7.616  0.00  0.00    -0.071 C 
ATOM      6  C15 1WQ d   1      16.812  -6.715  -6.765  0.00  0.00     0.099 C 
ATOM      7  H9  1WQ d   1      15.752  -4.997  -6.466  0.00  0.00     0.280 HD
ATOM      8  H10 1WQ d   1      14.583  -4.886  -8.572  0.00  0.00     0.076 H 
ATOM      9  H11 1WQ d   1      15.504  -6.349  -9.058  0.00  0.00     0.076 H 
ATOM     10  H12 1WQ d   1      16.696  -3.671  -8.183  0.00  0.00     0.042 H 
ATOM     11  H13 1WQ d   1      16.643  -4.315  -9.859  0.00  0.00     0.042 H 
ATOM     12  H14 1WQ d   1      18.934  -6.885  -7.481  0.00  0.00     0.080 H 
ATOM     13  H15 1WQ d   1      16.526  -7.753  -6.988  0.00  0.00     0.082 H 
ATOM     14  H16 1WQ d   1      17.098  -6.633  -5.706  0.00  0.00     0.082 H 
ENDROOT
BRANCH   1  15
ATOM     15  C9  1WQ d   1      14.463  -6.552  -6.562  0.00  0.00     0.107 C 
ATOM     16  H7  1WQ d   1      14.401  -7.495  -7.125  0.00  0.00     0.083 H 
ATOM     17  H8  1WQ d   1      14.585  -6.772  -5.491  0.00  0.00     0.083 H 
BRANCH  15  18
ATOM     18  C8  1WQ d   1      13.165  -5.819  -6.740  0.00  0.00    -0.030 A 
ATOM     19  C7  1WQ d   1      12.344  -6.207  -7.793  0.00  0.00    -0.072 A 
ATOM     20  C6  1WQ d   1      11.115  -5.569  -8.003  0.00  0.00    -0.048 A 
ATOM     21  H6  1WQ d   1      12.657  -7.007  -8.454  0.00  0.00     0.084 H 
ATOM     22  C5  1WQ d   1      10.713  -4.553  -7.141  0.00  0.00     0.096 A 
ATOM     23  H5  1WQ d   1      10.481  -5.864  -8.831  0.00  0.00     0.087 H 
ATOM     24  O4  1WQ d   1       9.511  -3.919  -7.335  0.00  0.00    -0.335 OA
ATOM     25  C24 1WQ d   1      11.571  -4.141  -6.098  0.00  0.00     0.069 A 
ATOM     26  C2  1WQ d   1       9.375  -2.536  -6.847  0.00  0.00     0.118 C 
ATOM     27  C26 1WQ d   1       9.975  -2.438  -5.451  0.00  0.00     0.251 C 
ATOM     28  H4  1WQ d   1       9.927  -1.864  -7.520  0.00  0.00     0.098 H 
ATOM     29  N25 1WQ d   1      11.082  -3.184  -5.209  0.00  0.00    -0.323 N 
ATOM     30  O27 1WQ d   1       9.526  -1.691  -4.561  0.00  0.00    -0.270 OA
ATOM     31  H22 1WQ d   1      11.572  -3.040  -4.349  0.00  0.00     0.169 HD
ATOM     32  C23 1WQ d   1      12.774  -4.805  -5.859  0.00  0.00    -0.047 A 
ATOM     33  H21 1WQ d   1      13.393  -4.541  -5.009  0.00  0.00     0.088 H 
BRANCH  26  34
ATOM     34  C1  1WQ d   1       7.908  -2.117  -6.836  0.00  0.00    -0.043 C 
ATOM     35  H1  1WQ d   1       7.825  -1.083  -6.470  0.00  0.00     0.031 H 
ATOM     36  H2  1WQ d   1       7.340  -2.788  -6.174  0.00  0.00     0.031 H 
ATOM     37  H3  1WQ d   1       7.502  -2.178  -7.856  0.00  0.00     0.031 H 
ENDBRANCH  26  34
ENDBRANCH  15  18
ENDBRANCH   1  15
BRANCH   4  38
ATOM     38  C16 1WQ d   1      19.115  -5.111  -9.335  0.00  0.00    -0.030 A 
ATOM     39  C17 1WQ d   1      18.994  -4.873 -10.717  0.00  0.00    -0.071 A 
ATOM     40  C18 1WQ d   1      20.135  -4.644 -11.473  0.00  0.00    -0.061 A 
ATOM     41  H17 1WQ d   1      18.017  -4.869 -11.187  0.00  0.00     0.084 H 
ATOM     42  C19 1WQ d   1      21.378  -4.668 -10.840  0.00  0.00     0.034 A 
ATOM     43  H18 1WQ d   1      20.062  -4.450 -12.537  0.00  0.00     0.086 H 
ATOM     44 CL   1WQ d   1      22.833  -4.380 -11.732  0.00  0.00    -0.084 Cl
ATOM     45  C21 1WQ d   1      21.500  -4.919  -9.483  0.00  0.00    -0.061 A 
ATOM     46  C22 1WQ d   1      20.373  -5.151  -8.726  0.00  0.00    -0.071 A 
ATOM     47  H19 1WQ d   1      22.479  -4.933  -9.018  0.00  0.00     0.086 H 
ATOM     48  H20 1WQ d   1      20.461  -5.363  -7.667  0.00  0.00     0.084 H 
ENDBRANCH   4  38
TORSDOF 4
