REMARK  7 active torsions:
REMARK  status: ('A' for Active; 'I' for Inactive)
REMARK    1  A    between atoms: CAT_6  and  CAY_7 
REMARK    2  A    between atoms: CAY_7  and  CAM_8 
REMARK    3  A    between atoms: CAY_7  and  NAQ_10 
REMARK    4  A    between atoms: CAM_8  and  CAA_9 
REMARK       I    between atoms: NAQ_10  and  CAS_11 
REMARK    5  A    between atoms: CAS_11  and  CAN_13 
REMARK    6  A    between atoms: CAN_13  and  CAO_14 
REMARK    7  A    between atoms: CAO_14  and  CAU_15 
ROOT
ATOM      1  NAQ 1V9 d   1      22.056  -3.183  13.166  0.00  0.00    -0.352 N 
ATOM      2  CAS 1V9 d   1      20.710  -3.034  13.230  0.00  0.00     0.218 C 
ATOM      3  OAB 1V9 d   1      20.147  -2.250  13.999  0.00  0.00    -0.274 OA
ATOM      4  H   1V9 d   1      22.450  -3.816  12.500  0.00  0.00     0.163 HD
ENDROOT
BRANCH   2   5
ATOM      5  CAN 1V9 d   1      19.854  -3.898  12.294  0.00  0.00     0.015 C 
ATOM      6  H   1V9 d   1      20.494  -4.446  11.587  0.00  0.00     0.047 H 
ATOM      7  H   1V9 d   1      19.144  -3.270  11.736  0.00  0.00     0.047 H 
BRANCH   5   8
ATOM      8  CAO 1V9 d   1      19.097  -4.882  13.205  0.00  0.00    -0.002 C 
ATOM      9  H   1V9 d   1      18.548  -4.305  13.964  0.00  0.00     0.045 H 
ATOM     10  H   1V9 d   1      19.830  -5.535  13.701  0.00  0.00     0.045 H 
BRANCH   8  11
ATOM     11  CAU 1V9 d   1      18.178  -5.690  12.502  0.00  0.00     0.107 A 
ATOM     12  NAP 1V9 d   1      18.530  -6.931  12.152  0.00  0.00    -0.235 NA
ATOM     13  CAW 1V9 d   1      17.692  -7.728  11.473  0.00  0.00     0.074 A 
ATOM     14  CAK 1V9 d   1      18.119  -9.016  11.215  0.00  0.00    -0.054 A 
ATOM     15  CAX 1V9 d   1      16.407  -7.295  11.117  0.00  0.00     0.061 A 
ATOM     16  CAG 1V9 d   1      17.273  -9.909  10.524  0.00  0.00    -0.081 A 
ATOM     17  H   1V9 d   1      19.101  -9.339  11.542  0.00  0.00     0.087 H 
ATOM     18  CAH 1V9 d   1      16.001  -9.474  10.149  0.00  0.00    -0.082 A 
ATOM     19  H   1V9 d   1      17.605 -10.914  10.289  0.00  0.00     0.083 H 
ATOM     20  CAL 1V9 d   1      15.585  -8.152  10.437  0.00  0.00    -0.065 A 
ATOM     21  H   1V9 d   1      15.329 -10.151   9.635  0.00  0.00     0.083 H 
ATOM     22  H   1V9 d   1      14.606  -7.815  10.116  0.00  0.00     0.085 H 
ATOM     23  CAV 1V9 d   1      15.982  -5.986  11.454  0.00  0.00     0.259 A 
ATOM     24  OAC 1V9 d   1      14.846  -5.516  11.170  0.00  0.00    -0.267 OA
ATOM     25  NAR 1V9 d   1      16.915  -5.206  12.157  0.00  0.00    -0.311 N 
ATOM     26  H   1V9 d   1      16.666  -4.274  12.419  0.00  0.00     0.170 HD
ENDBRANCH   8  11
ENDBRANCH   5   8
ENDBRANCH   2   5
BRANCH   1  27
ATOM     27  CAY 1V9 d   1      22.968  -2.410  14.082  0.00  0.00     0.037 C 
ATOM     28  H   1V9 d   1      22.330  -1.858  14.788  0.00  0.00     0.080 H 
BRANCH  27  29
ATOM     29  CAT 1V9 d   1      23.756  -1.493  13.376  0.00  0.00    -0.035 A 
ATOM     30  CAI 1V9 d   1      24.444  -1.834  12.193  0.00  0.00    -0.075 A 
ATOM     31  CAE 1V9 d   1      25.216  -0.885  11.513  0.00  0.00    -0.082 A 
ATOM     32  H   1V9 d   1      24.374  -2.844  11.806  0.00  0.00     0.084 H 
ATOM     33  CAD 1V9 d   1      25.329   0.416  12.018  0.00  0.00    -0.083 A 
ATOM     34  H   1V9 d   1      25.726  -1.157  10.596  0.00  0.00     0.083 H 
ATOM     35  CAF 1V9 d   1      24.649   0.725  13.195  0.00  0.00    -0.082 A 
ATOM     36  H   1V9 d   1      25.928   1.162  11.508  0.00  0.00     0.083 H 
ATOM     37  CAJ 1V9 d   1      23.870  -0.195  13.864  0.00  0.00    -0.075 A 
ATOM     38  H   1V9 d   1      24.736   1.727  13.600  0.00  0.00     0.083 H 
ATOM     39  H   1V9 d   1      23.347   0.092  14.769  0.00  0.00     0.084 H 
ENDBRANCH  27  29
BRANCH  27  40
ATOM     40  CAM 1V9 d   1      23.920  -3.275  14.878  0.00  0.00    -0.046 C 
ATOM     41  H   1V9 d   1      24.726  -2.665  15.311  0.00  0.00     0.035 H 
ATOM     42  H   1V9 d   1      24.355  -4.059  14.241  0.00  0.00     0.035 H 
BRANCH  40  43
ATOM     43  CAA 1V9 d   1      23.059  -3.897  15.986  0.00  0.00    -0.074 C 
ATOM     44  H   1V9 d   1      23.685  -4.547  16.615  0.00  0.00     0.027 H 
ATOM     45  H   1V9 d   1      22.252  -4.492  15.533  0.00  0.00     0.027 H 
ATOM     46  H   1V9 d   1      22.623  -3.098  16.604  0.00  0.00     0.027 H 
ENDBRANCH  40  43
ENDBRANCH  27  40
ENDBRANCH   1  27
TORSDOF 7
