REMARK  4 active torsions:
REMARK  status: ('A' for Active; 'I' for Inactive)
REMARK    1  A    between atoms: C23_15  and  C25_24 
REMARK       I    between atoms: N7_28  and  C23_15 
REMARK    2  A    between atoms: C29_25  and  C31_16 
REMARK    3  A    between atoms: C10_26  and  C6_23 
REMARK    4  A    between atoms: C10_26  and  N11_27 
ROOT
ATOM      1  C3  1VV d   1      -2.953   6.875 -31.388  0.00  0.00    -0.082 A 
ATOM      2  C4  1VV d   1      -3.483   7.306 -30.196  0.00  0.00    -0.082 A 
ATOM      3  C2  1VV d   1      -2.708   5.536 -31.576  0.00  0.00    -0.076 A 
ATOM      4  C21 1VV d   1      -3.764   6.398 -29.202  0.00  0.00    -0.074 A 
ATOM      5  C1  1VV d   1      -2.987   4.626 -30.580  0.00  0.00    -0.048 A 
ATOM      6  C5  1VV d   1      -3.521   5.054 -29.379  0.00  0.00    -0.027 A 
ATOM      7  C23 1VV d   1      -2.682   2.105 -27.584  0.00  0.00     0.225 C 
ATOM      8  C9  1VV d   1      -2.694   3.196 -30.852  0.00  0.00    -0.025 C 
ATOM      9  C8  1VV d   1      -3.514   2.362 -29.912  0.00  0.00     0.002 C 
ATOM     10  C6  1VV d   1      -3.872   4.184 -28.233  0.00  0.00     0.056 C 
ATOM     11  N7  1VV d   1      -3.312   2.870 -28.569  0.00  0.00    -0.341 N 
ATOM     12  O24 1VV d   1      -2.822   2.333 -26.392  0.00  0.00    -0.273 OA
ATOM     13  H   1VV d   1      -2.730   7.586 -32.175  0.00  0.00     0.083 H 
ATOM     14  H   1VV d   1      -3.679   8.361 -30.039  0.00  0.00     0.083 H 
ATOM     15  H   1VV d   1      -2.292   5.193 -32.516  0.00  0.00     0.084 H 
ATOM     16  H   1VV d   1      -4.183   6.746 -28.265  0.00  0.00     0.084 H 
ATOM     17  H   1VV d   1      -1.624   2.998 -30.689  0.00  0.00     0.042 H 
ATOM     18  H   1VV d   1      -2.958   2.953 -31.892  0.00  0.00     0.042 H 
ATOM     19  H   1VV d   1      -3.191   1.312 -29.966  0.00  0.00     0.064 H 
ATOM     20  H   1VV d   1      -4.578   2.433 -30.182  0.00  0.00     0.064 H 
ATOM     21  H   1VV d   1      -3.479   4.604 -27.295  0.00  0.00     0.083 H 
ENDROOT
BRANCH   7  22
ATOM     22  C25 1VV d   1      -1.844   0.983 -28.116  0.00  0.00     0.036 C 
ATOM     23  C26 1VV d   1      -2.280  -0.491 -27.911  0.00  0.00    -0.053 C 
ATOM     24  C27 1VV d   1      -2.665  -0.773 -26.478  0.00  0.00    -0.064 C 
ATOM     25  H   1VV d   1      -3.144  -0.699 -28.558  0.00  0.00     0.034 H 
ATOM     26  H   1VV d   1      -1.445  -1.150 -28.191  0.00  0.00     0.034 H 
ATOM     27  C28 1VV d   1      -1.449  -0.605 -25.609  0.00  0.00    -0.064 C 
ATOM     28  H   1VV d   1      -3.447  -0.068 -26.160  0.00  0.00     0.033 H 
ATOM     29  H   1VV d   1      -3.042  -1.803 -26.392  0.00  0.00     0.033 H 
ATOM     30  C30 1VV d   1      -0.825   0.747 -25.852  0.00  0.00    -0.052 C 
ATOM     31  H   1VV d   1      -0.719  -1.392 -25.848  0.00  0.00     0.033 H 
ATOM     32  H   1VV d   1      -1.742  -0.686 -24.552  0.00  0.00     0.033 H 
ATOM     33  C29 1VV d   1      -0.517   0.947 -27.303  0.00  0.00     0.042 C 
ATOM     34  H   1VV d   1       0.108   0.821 -25.274  0.00  0.00     0.034 H 
ATOM     35  H   1VV d   1      -1.524   1.530 -25.522  0.00  0.00     0.034 H 
ATOM     36  H   1VV d   1       0.137   0.131 -27.644  0.00  0.00     0.058 H 
ATOM     37  H   1VV d   1      -1.672   1.170 -29.186  0.00  0.00     0.056 H 
BRANCH  33  38
ATOM     38  C31 1VV d   1       0.091   2.257 -27.622  0.00  0.00     0.177 C 
ATOM     39  O32 1VV d   1      -0.231   3.035 -28.508  0.00  0.00    -0.648 OA
ATOM     40  O33 1VV d   1       1.128   2.496 -26.780  0.00  0.00    -0.648 OA
ENDBRANCH  33  38
ENDBRANCH   7  22
BRANCH  10  41
ATOM     41  C10 1VV d   1      -5.331   3.836 -28.110  0.00  0.00     0.029 C 
ATOM     42  H   1VV d   1      -5.656   3.389 -29.061  0.00  0.00     0.068 H 
ATOM     43  H   1VV d   1      -5.890   4.767 -27.932  0.00  0.00     0.068 H 
BRANCH  41  44
ATOM     44  N11 1VV d   1      -5.650   2.916 -27.054  0.00  0.00    -0.278 N 
ATOM     45  C12 1VV d   1      -5.979   1.597 -27.285  0.00  0.00     0.261 A 
ATOM     46  C19 1VV d   1      -6.078   1.028 -25.955  0.00  0.00     0.048 A 
ATOM     47  O22 1VV d   1      -6.151   0.969 -28.318  0.00  0.00    -0.267 OA
ATOM     48  C15 1VV d   1      -6.371  -0.263 -25.601  0.00  0.00    -0.067 A 
ATOM     49  C13 1VV d   1      -5.825   1.995 -25.032  0.00  0.00     0.048 A 
ATOM     50  C16 1VV d   1      -6.400  -0.542 -24.250  0.00  0.00    -0.082 A 
ATOM     51  H   1VV d   1      -6.570  -1.026 -26.345  0.00  0.00     0.085 H 
ATOM     52  C17 1VV d   1      -6.143   0.442 -23.309  0.00  0.00    -0.082 A 
ATOM     53  H   1VV d   1      -6.628  -1.549 -23.919  0.00  0.00     0.083 H 
ATOM     54  C18 1VV d   1      -5.849   1.738 -23.685  0.00  0.00    -0.067 A 
ATOM     55  H   1VV d   1      -6.173   0.189 -22.255  0.00  0.00     0.083 H 
ATOM     56  H   1VV d   1      -5.648   2.512 -22.953  0.00  0.00     0.085 H 
ATOM     57  C14 1VV d   1      -5.549   3.245 -25.718  0.00  0.00     0.261 A 
ATOM     58  O20 1VV d   1      -5.284   4.299 -25.158  0.00  0.00    -0.267 OA
ENDBRANCH  41  44
ENDBRANCH  10  41
TORSDOF 4
