REMARK  4 active torsions:
REMARK  status: ('A' for Active; 'I' for Inactive)
REMARK    1  A    between atoms: C9_6  and  C11_3 
REMARK    2  A    between atoms: C3_7  and  C2_9 
REMARK       I    between atoms: C2_9  and  N16_14 
REMARK    3  A    between atoms: C25_23  and  C27_24 
REMARK    4  A    between atoms: C27_24  and  N28_25 
ROOT
ATOM      1  O1  1VW d   1     -23.216  37.469 -35.961  0.00  0.00    -0.273 OA
ATOM      2  C2  1VW d   1     -22.642  38.529 -36.165  0.00  0.00     0.225 C 
ATOM      3  N16 1VW d   1     -23.243  39.592 -36.836  0.00  0.00    -0.341 N 
ATOM      4  C17 1VW d   1     -22.691  40.924 -36.976  0.00  0.00     0.002 C 
ATOM      5  C18 1VW d   1     -23.426  41.862 -36.055  0.00  0.00    -0.025 C 
ATOM      6  C19 1VW d   1     -24.889  41.770 -36.316  0.00  0.00    -0.048 A 
ATOM      7  C20 1VW d   1     -25.449  40.645 -36.886  0.00  0.00    -0.027 A 
ATOM      8  C21 1VW d   1     -26.809  40.605 -37.107  0.00  0.00    -0.074 A 
ATOM      9  C22 1VW d   1     -27.607  41.672 -36.765  0.00  0.00    -0.082 A 
ATOM     10  C23 1VW d   1     -27.046  42.791 -36.197  0.00  0.00    -0.082 A 
ATOM     11  C24 1VW d   1     -25.690  42.836 -35.974  0.00  0.00    -0.076 A 
ATOM     12  C25 1VW d   1     -24.618  39.465 -37.274  0.00  0.00     0.056 C 
ATOM     13  H   1VW d   1     -22.807  41.263 -38.016  0.00  0.00     0.064 H 
ATOM     14  H   1VW d   1     -21.623  40.910 -36.712  0.00  0.00     0.064 H 
ATOM     15  H   1VW d   1     -23.086  42.893 -36.234  0.00  0.00     0.042 H 
ATOM     16  H   1VW d   1     -23.222  41.585 -35.010  0.00  0.00     0.042 H 
ATOM     17  H   1VW d   1     -27.254  39.724 -37.555  0.00  0.00     0.084 H 
ATOM     18  H   1VW d   1     -28.675  41.630 -36.943  0.00  0.00     0.083 H 
ATOM     19  H   1VW d   1     -27.670  43.635 -35.926  0.00  0.00     0.083 H 
ATOM     20  H   1VW d   1     -25.248  43.718 -35.525  0.00  0.00     0.084 H 
ATOM     21  H   1VW d   1     -25.046  38.567 -36.804  0.00  0.00     0.083 H 
ENDROOT
BRANCH   2  22
ATOM     22  C3  1VW d   1     -21.221  38.739 -35.702  0.00  0.00     0.034 C 
ATOM     23  C5  1VW d   1     -20.297  38.534 -36.885  0.00  0.00    -0.053 C 
ATOM     24  C6  1VW d   1     -20.143  37.073 -37.232  0.00  0.00    -0.064 C 
ATOM     25  H   1VW d   1     -20.710  39.065 -37.755  0.00  0.00     0.034 H 
ATOM     26  H   1VW d   1     -19.308  38.947 -36.639  0.00  0.00     0.034 H 
ATOM     27  C7  1VW d   1     -19.554  36.360 -36.047  0.00  0.00    -0.064 C 
ATOM     28  H   1VW d   1     -19.474  36.966 -38.099  0.00  0.00     0.033 H 
ATOM     29  H   1VW d   1     -21.127  36.643 -37.472  0.00  0.00     0.033 H 
ATOM     30  C8  1VW d   1     -20.558  36.414 -34.926  0.00  0.00    -0.054 C 
ATOM     31  H   1VW d   1     -18.622  36.856 -35.738  0.00  0.00     0.033 H 
ATOM     32  H   1VW d   1     -19.342  35.313 -36.309  0.00  0.00     0.033 H 
ATOM     33  C9  1VW d   1     -20.809  37.854 -34.528  0.00  0.00     0.020 C 
ATOM     34  H   1VW d   1     -20.168  35.859 -34.060  0.00  0.00     0.034 H 
ATOM     35  H   1VW d   1     -21.502  35.958 -35.259  0.00  0.00     0.034 H 
ATOM     36  H   1VW d   1     -19.856  38.250 -34.146  0.00  0.00     0.053 H 
ATOM     37  H   1VW d   1     -21.130  39.783 -35.369  0.00  0.00     0.055 H 
BRANCH  33  38
ATOM     38  C11 1VW d   1     -21.796  37.949 -33.432  0.00  0.00     0.170 A 
ATOM     39  N12 1VW d   1     -22.469  39.008 -33.046  0.00  0.00    -0.141 NA
ATOM     40  N13 1VW d   1     -23.252  38.603 -31.998  0.00  0.00     0.021 NA
ATOM     41  N14 1VW d   1     -23.071  37.318 -31.734  0.00  0.00    -0.200 N 
ATOM     42  N15 1VW d   1     -22.163  36.911 -32.628  0.00  0.00    -0.143 NA
ATOM     43  H   1VW d   1     -23.528  36.756 -31.002  0.00  0.00     0.208 HD
ENDBRANCH  33  38
ENDBRANCH   2  22
BRANCH  12  44
ATOM     44  C27 1VW d   1     -24.678  39.307 -38.778  0.00  0.00     0.029 C 
ATOM     45  H   1VW d   1     -24.324  40.236 -39.249  0.00  0.00     0.068 H 
ATOM     46  H   1VW d   1     -25.720  39.118 -39.076  0.00  0.00     0.068 H 
BRANCH  44  47
ATOM     47  N28 1VW d   1     -23.859  38.215 -39.225  0.00  0.00    -0.278 N 
ATOM     48  C29 1VW d   1     -22.664  38.382 -39.896  0.00  0.00     0.261 A 
ATOM     49  O30 1VW d   1     -22.077  39.381 -40.285  0.00  0.00    -0.267 OA
ATOM     50  C31 1VW d   1     -22.176  37.025 -40.072  0.00  0.00     0.048 A 
ATOM     51  C32 1VW d   1     -21.020  36.600 -40.675  0.00  0.00    -0.067 A 
ATOM     52  C36 1VW d   1     -23.067  36.155 -39.524  0.00  0.00     0.048 A 
ATOM     53  C33 1VW d   1     -20.802  35.237 -40.701  0.00  0.00    -0.082 A 
ATOM     54  H   1VW d   1     -20.314  37.298 -41.109  0.00  0.00     0.085 H 
ATOM     55  C34 1VW d   1     -21.710  34.352 -40.143  0.00  0.00    -0.082 A 
ATOM     56  H   1VW d   1     -19.902  34.852 -41.167  0.00  0.00     0.083 H 
ATOM     57  C35 1VW d   1     -22.868  34.799 -39.539  0.00  0.00    -0.067 A 
ATOM     58  H   1VW d   1     -21.507  33.288 -40.181  0.00  0.00     0.083 H 
ATOM     59  H   1VW d   1     -23.583  34.113 -39.099  0.00  0.00     0.085 H 
ATOM     60  C37 1VW d   1     -24.179  36.900 -38.964  0.00  0.00     0.261 A 
ATOM     61  O38 1VW d   1     -25.139  36.396 -38.401  0.00  0.00    -0.267 OA
ENDBRANCH  44  47
ENDBRANCH  12  44
TORSDOF 4
