REMARK  5 active torsions:
REMARK  status: ('A' for Active; 'I' for Inactive)
REMARK    1  A    between atoms: C11_4  and  C13_8 
REMARK    2  A    between atoms: C13_8  and  N14_13 
REMARK    3  A    between atoms: C2_11  and  C1_10 
REMARK       I    between atoms: N10_12  and  C24_23 
REMARK    4  A    between atoms: C24_23  and  C26_25 
REMARK    5  A    between atoms: C32_30  and  C34_31 
ROOT
ATOM      1  C4  1VX d   1     -27.880  41.079 -37.101  0.00  0.00    -0.082 A 
ATOM      2  C5  1VX d   1     -26.864  40.162 -37.216  0.00  0.00    -0.074 A 
ATOM      3  C6  1VX d   1     -25.566  40.518 -36.927  0.00  0.00    -0.027 A 
ATOM      4  C11 1VX d   1     -24.515  39.470 -37.071  0.00  0.00     0.056 C 
ATOM      5  C7  1VX d   1     -25.275  41.806 -36.517  0.00  0.00    -0.042 A 
ATOM      6  C8  1VX d   1     -23.870  42.209 -36.197  0.00  0.00    -0.025 C 
ATOM      7  C9  1VX d   1     -22.872  41.236 -36.772  0.00  0.00     0.002 C 
ATOM      8  C3  1VX d   1     -27.595  42.360 -36.695  0.00  0.00    -0.077 A 
ATOM      9  C2  1VX d   1     -26.301  42.726 -36.405  0.00  0.00    -0.055 A 
ATOM     10  N10 1VX d   1     -23.274  39.884 -36.457  0.00  0.00    -0.341 N 
ATOM     11  C24 1VX d   1     -22.544  38.965 -35.710  0.00  0.00     0.225 C 
ATOM     12  O25 1VX d   1     -22.819  37.774 -35.686  0.00  0.00    -0.273 OA
ATOM     13  H   1VX d   1     -28.901  40.794 -37.329  0.00  0.00     0.083 H 
ATOM     14  H   1VX d   1     -27.086  39.151 -37.537  0.00  0.00     0.084 H 
ATOM     15  H   1VX d   1     -24.858  38.557 -36.562  0.00  0.00     0.083 H 
ATOM     16  H   1VX d   1     -23.748  42.243 -35.104  0.00  0.00     0.042 H 
ATOM     17  H   1VX d   1     -23.680  43.207 -36.618  0.00  0.00     0.042 H 
ATOM     18  H   1VX d   1     -21.879  41.432 -36.341  0.00  0.00     0.064 H 
ATOM     19  H   1VX d   1     -22.828  41.359 -37.864  0.00  0.00     0.064 H 
ATOM     20  H   1VX d   1     -28.394  43.087 -36.603  0.00  0.00     0.084 H 
ENDROOT
BRANCH   4  21
ATOM     21  C13 1VX d   1     -24.333  39.160 -38.544  0.00  0.00     0.021 C 
ATOM     22  H   1VX d   1     -24.070  40.089 -39.072  0.00  0.00     0.068 H 
ATOM     23  H   1VX d   1     -25.280  38.767 -38.943  0.00  0.00     0.068 H 
BRANCH  21  24
ATOM     24  N14 1VX d   1     -23.296  38.188 -38.770  0.00  0.00    -0.341 N 
ATOM     25  C15 1VX d   1     -23.557  36.770 -38.673  0.00  0.00     0.023 A 
ATOM     26  C16 1VX d   1     -22.192  36.228 -38.875  0.00  0.00    -0.025 A 
ATOM     27  H   1VX d   1     -24.249  36.430 -39.458  0.00  0.00     0.071 H 
ATOM     28  H   1VX d   1     -23.960  36.498 -37.686  0.00  0.00     0.071 H 
ATOM     29  C17 1VX d   1     -21.767  34.922 -38.852  0.00  0.00    -0.074 A 
ATOM     30  C21 1VX d   1     -21.299  37.230 -39.108  0.00  0.00     0.040 A 
ATOM     31  C18 1VX d   1     -20.427  34.671 -39.071  0.00  0.00    -0.082 A 
ATOM     32  H   1VX d   1     -22.463  34.112 -38.667  0.00  0.00     0.084 H 
ATOM     33  C19 1VX d   1     -19.534  35.700 -39.306  0.00  0.00    -0.082 A 
ATOM     34  H   1VX d   1     -20.069  33.648 -39.058  0.00  0.00     0.083 H 
ATOM     35  C20 1VX d   1     -19.963  37.010 -39.328  0.00  0.00    -0.067 A 
ATOM     36  H   1VX d   1     -18.487  35.475 -39.474  0.00  0.00     0.083 H 
ATOM     37  H   1VX d   1     -19.276  37.828 -39.511  0.00  0.00     0.085 H 
ATOM     38  C22 1VX d   1     -21.990  38.509 -39.080  0.00  0.00     0.254 A 
ATOM     39  O23 1VX d   1     -21.450  39.582 -39.301  0.00  0.00    -0.267 OA
ENDBRANCH  21  24
ENDBRANCH   4  21
BRANCH  11  40
ATOM     40  C26 1VX d   1     -21.376  39.507 -34.926  0.00  0.00     0.036 C 
ATOM     41  C28 1VX d   1     -20.141  39.438 -35.802  0.00  0.00    -0.053 C 
ATOM     42  C29 1VX d   1     -19.622  38.024 -35.930  0.00  0.00    -0.064 C 
ATOM     43  H   1VX d   1     -19.355  40.067 -35.359  0.00  0.00     0.034 H 
ATOM     44  H   1VX d   1     -20.393  39.817 -36.803  0.00  0.00     0.034 H 
ATOM     45  C30 1VX d   1     -19.263  37.511 -34.562  0.00  0.00    -0.064 C 
ATOM     46  H   1VX d   1     -18.730  38.015 -36.574  0.00  0.00     0.033 H 
ATOM     47  H   1VX d   1     -20.400  37.384 -36.372  0.00  0.00     0.033 H 
ATOM     48  C31 1VX d   1     -20.532  37.404 -33.757  0.00  0.00    -0.052 C 
ATOM     49  H   1VX d   1     -18.568  38.209 -34.072  0.00  0.00     0.033 H 
ATOM     50  H   1VX d   1     -18.790  36.521 -34.647  0.00  0.00     0.033 H 
ATOM     51  C32 1VX d   1     -21.146  38.783 -33.605  0.00  0.00     0.042 C 
ATOM     52  H   1VX d   1     -20.303  36.992 -32.763  0.00  0.00     0.034 H 
ATOM     53  H   1VX d   1     -21.241  36.741 -34.275  0.00  0.00     0.034 H 
ATOM     54  H   1VX d   1     -20.441  39.387 -33.016  0.00  0.00     0.058 H 
ATOM     55  H   1VX d   1     -21.582  40.562 -34.694  0.00  0.00     0.056 H 
BRANCH  51  56
ATOM     56  C34 1VX d   1     -22.442  38.717 -32.853  0.00  0.00     0.177 C 
ATOM     57  O35 1VX d   1     -22.782  37.453 -32.501  0.00  0.00    -0.648 OA
ATOM     58  O36 1VX d   1     -23.121  39.695 -32.583  0.00  0.00    -0.648 OA
ENDBRANCH  51  56
ENDBRANCH  11  40
BRANCH   9  59
ATOM     59  C1  1VX d   1     -26.075  44.133 -35.969  0.00  0.00    -0.051 C 
ATOM     60  H   1VX d   1     -25.004  44.288 -35.771  0.00  0.00     0.033 H 
ATOM     61  H   1VX d   1     -26.649  44.329 -35.052  0.00  0.00     0.033 H 
ATOM     62  H   1VX d   1     -26.405  44.820 -36.762  0.00  0.00     0.033 H 
ENDBRANCH   9  59
TORSDOF 5
