REMARK  6 active torsions:
REMARK  status: ('A' for Active; 'I' for Inactive)
REMARK    1  A    between atoms: C50_7  and  C16_8 
REMARK    2  A    between atoms: C16_8  and  N48_11 
REMARK       I    between atoms: N48_11  and  C27_12 
REMARK    3  A    between atoms: C27_12  and  C39_14 
REMARK    4  A    between atoms: C43_24  and  N34_27 
REMARK    5  A    between atoms: N34_27  and  C26_28 
REMARK    6  A    between atoms: C20_33  and  O17_34 
ROOT
ATOM      1  C39 1V5 d   1      -4.319  52.822   2.720  0.00  0.00     0.034 A 
ATOM      2  C45 1V5 d   1      -3.424  53.470   3.575  0.00  0.00    -0.065 A 
ATOM      3  C37 1V5 d   1      -3.687  53.536   4.933  0.00  0.00    -0.052 A 
ATOM      4  C40 1V5 d   1      -5.469  52.241   3.262  0.00  0.00    -0.039 A 
ATOM      5  C32 1V5 d   1      -5.733  52.319   4.636  0.00  0.00     0.070 A 
ATOM      6  N41 1V5 d   1      -6.850  51.729   5.237  0.00  0.00    -0.300 N 
ATOM      7  C44 1V5 d   1      -7.088  51.812   6.556  0.00  0.00     0.180 A 
ATOM      8  N28 1V5 d   1      -8.249  51.175   6.808  0.00  0.00    -0.238 NA
ATOM      9  C46 1V5 d   1      -8.725  50.708   5.639  0.00  0.00     0.020 A 
ATOM     10  C18 1V5 d   1      -7.855  51.073   4.675  0.00  0.00     0.004 A 
ATOM     11  C43 1V5 d   1      -6.159  52.464   7.363  0.00  0.00     0.171 A 
ATOM     12  N42 1V5 d   1      -5.050  53.010   6.809  0.00  0.00    -0.226 NA
ATOM     13  C33 1V5 d   1      -4.824  52.945   5.473  0.00  0.00     0.086 A 
ATOM     14  H10 1V5 d   1      -2.523  53.921   3.175  0.00  0.00     0.085 H 
ATOM     15  H11 1V5 d   1      -2.995  54.057   5.585  0.00  0.00     0.087 H 
ATOM     16  H12 1V5 d   1      -6.165  51.724   2.612  0.00  0.00     0.088 H 
ATOM     17  H13 1V5 d   1      -9.643  50.140   5.497  0.00  0.00     0.117 H 
ATOM     18  H14 1V5 d   1      -7.961  50.863   3.612  0.00  0.00     0.114 H 
ENDROOT
BRANCH   1  19
ATOM     19  C27 1V5 d   1      -4.033  52.719   1.242  0.00  0.00     0.252 C 
ATOM     20  N48 1V5 d   1      -2.746  52.683   0.871  0.00  0.00    -0.343 N 
ATOM     21  H9  1V5 d   1      -2.044  52.720   1.582  0.00  0.00     0.164 HD
ATOM     22  O30 1V5 d   1      -4.939  52.588   0.416  0.00  0.00    -0.268 OA
BRANCH  20  23
ATOM     23  C16 1V5 d   1      -2.324  52.593  -0.516  0.00  0.00     0.060 A 
ATOM     24  C47 1V5 d   1      -1.202  51.641  -0.892  0.00  0.00    -0.035 A 
ATOM     25  C31 1V5 d   1      -2.648  51.264  -1.204  0.00  0.00    -0.035 A 
ATOM     26  H5  1V5 d   1      -0.652  51.103  -0.106  0.00  0.00     0.037 H 
ATOM     27  H6  1V5 d   1      -0.513  51.900  -1.710  0.00  0.00     0.037 H 
ATOM     28  H7  1V5 d   1      -3.003  51.254  -2.245  0.00  0.00     0.037 H 
ATOM     29  H8  1V5 d   1      -3.141  50.458  -0.641  0.00  0.00     0.037 H 
BRANCH  23  30
ATOM     30  C50 1V5 d   1      -2.537  53.843  -1.313  0.00  0.00    -0.030 A 
ATOM     31  C51 1V5 d   1      -2.790  55.014  -0.589  0.00  0.00    -0.071 A 
ATOM     32  C52 1V5 d   1      -3.022  56.211  -1.251  0.00  0.00    -0.045 A 
ATOM     33  H2  1V5 d   1      -2.805  54.985   0.494  0.00  0.00     0.084 H 
ATOM     34  C53 1V5 d   1      -3.029  56.260  -2.630  0.00  0.00     0.116 A 
ATOM     35  H1  1V5 d   1      -3.199  57.115  -0.680  0.00  0.00     0.088 H 
ATOM     36  F60 1V5 d   1      -3.278  57.458  -3.232  0.00  0.00    -0.206 F 
ATOM     37  C54 1V5 d   1      -2.792  55.102  -3.365  0.00  0.00    -0.045 A 
ATOM     38  C55 1V5 d   1      -2.550  53.885  -2.722  0.00  0.00    -0.071 A 
ATOM     39  H3  1V5 d   1      -2.795  55.145  -4.448  0.00  0.00     0.088 H 
ATOM     40  H4  1V5 d   1      -2.374  52.985  -3.300  0.00  0.00     0.084 H 
ENDBRANCH  23  30
ENDBRANCH  20  23
ENDBRANCH   1  19
BRANCH  11  41
ATOM     41  N34 1V5 d   1      -6.409  52.539   8.689  0.00  0.00    -0.367 N 
ATOM     42  H15 1V5 d   1      -7.252  52.079   9.060  0.00  0.00     0.161 HD
BRANCH  41  43
ATOM     43  C26 1V5 d   1      -5.544  53.236   9.602  0.00  0.00     0.011 C 
ATOM     44  C35 1V5 d   1      -4.596  52.235  10.274  0.00  0.00    -0.044 C 
ATOM     45  C19 1V5 d   1      -3.639  53.019  11.146  0.00  0.00    -0.039 C 
ATOM     46  H17 1V5 d   1      -4.035  51.679   9.508  0.00  0.00     0.036 H 
ATOM     47  H18 1V5 d   1      -5.172  51.530  10.891  0.00  0.00     0.036 H 
ATOM     48  C20 1V5 d   1      -4.431  53.759  12.230  0.00  0.00     0.035 C 
ATOM     49  H19 1V5 d   1      -3.092  53.747  10.529  0.00  0.00     0.036 H 
ATOM     50  H20 1V5 d   1      -2.924  52.330  11.619  0.00  0.00     0.036 H 
ATOM     51  C36 1V5 d   1      -5.444  54.718  11.609  0.00  0.00    -0.039 C 
ATOM     52  H25 1V5 d   1      -4.977  53.026  12.842  0.00  0.00     0.082 H 
ATOM     53  C21 1V5 d   1      -6.367  53.982  10.646  0.00  0.00    -0.044 C 
ATOM     54  H23 1V5 d   1      -6.046  55.173  12.409  0.00  0.00     0.036 H 
ATOM     55  H24 1V5 d   1      -4.906  55.506  11.062  0.00  0.00     0.036 H 
ATOM     56  H21 1V5 d   1      -6.981  53.263  11.208  0.00  0.00     0.036 H 
ATOM     57  H22 1V5 d   1      -7.022  54.708  10.143  0.00  0.00     0.036 H 
ATOM     58  H16 1V5 d   1      -4.946  53.967   9.038  0.00  0.00     0.072 H 
BRANCH  48  59
ATOM     59  O17 1V5 d   1      -3.498  54.444  13.052  0.00  0.00    -0.396 OA
ATOM     60  H26 1V5 d   1      -3.961  54.887  13.753  0.00  0.00     0.210 HD
ENDBRANCH  48  59
ENDBRANCH  41  43
ENDBRANCH  11  41
TORSDOF 6
