REMARK  3 active torsions:
REMARK  status: ('A' for Active; 'I' for Inactive)
REMARK    1  A    between atoms: C5_2  and  C7_4 
REMARK    2  A    between atoms: C17_6  and  C3_11 
REMARK    3  A    between atoms: C14_17  and  N16_19 
ROOT
ATOM      1  C7  1W0 d   1      14.098  -6.362  16.599  0.00  0.00     0.091 C 
ATOM      2  C8  1W0 d   1      14.621  -7.707  17.076  0.00  0.00    -0.015 C 
ATOM      3  C9  1W0 d   1      16.164  -7.582  17.137  0.00  0.00     0.022 C 
ATOM      4  O10 1W0 d   1      16.542  -6.519  18.001  0.00  0.00    -0.388 OA
ATOM      5  C11 1W0 d   1      15.440  -5.925  18.719  0.00  0.00     0.047 C 
ATOM      6  C12 1W0 d   1      14.545  -5.296  17.675  0.00  0.00     0.097 C 
ATOM      7  O13 1W0 d   1      15.188  -4.286  16.914  0.00  0.00    -0.312 OA
ATOM      8  C14 1W0 d   1      15.355  -4.747  15.653  0.00  0.00     0.214 C 
ATOM      9  N15 1W0 d   1      14.746  -5.875  15.399  0.00  0.00    -0.340 N 
ATOM     10  H3  1W0 d   1      14.332  -8.499  16.370  0.00  0.00     0.040 H 
ATOM     11  H4  1W0 d   1      14.219  -7.939  18.073  0.00  0.00     0.040 H 
ATOM     12  H9  1W0 d   1      16.552  -7.383  16.127  0.00  0.00     0.074 H 
ATOM     13  H10 1W0 d   1      16.589  -8.524  17.514  0.00  0.00     0.074 H 
ATOM     14  H11 1W0 d   1      15.809  -5.159  19.417  0.00  0.00     0.078 H 
ATOM     15  H12 1W0 d   1      14.890  -6.696  19.278  0.00  0.00     0.078 H 
ATOM     16  H13 1W0 d   1      13.664  -4.875  18.182  0.00  0.00     0.092 H 
ATOM     17  H14 1W0 d   1      14.729  -6.346  14.483  0.00  0.00     0.164 HD
ENDROOT
BRANCH   1  18
ATOM     18  C5  1W0 d   1      12.578  -6.359  16.512  0.00  0.00    -0.026 A 
ATOM     19  C4  1W0 d   1      11.930  -5.261  15.979  0.00  0.00    -0.064 A 
ATOM     20  C3  1W0 d   1      10.535  -5.217  15.900  0.00  0.00    -0.022 A 
ATOM     21  H1  1W0 d   1      12.512  -4.421  15.617  0.00  0.00     0.085 H 
ATOM     22  C2  1W0 d   1       9.792  -6.294  16.374  0.00  0.00    -0.072 A 
ATOM     23  C1  1W0 d   1      10.441  -7.398  16.897  0.00  0.00    -0.082 A 
ATOM     24  H8  1W0 d   1       8.709  -6.268  16.334  0.00  0.00     0.084 H 
ATOM     25  C6  1W0 d   1      11.828  -7.435  16.970  0.00  0.00    -0.074 A 
ATOM     26  H7  1W0 d   1       9.862  -8.242  17.253  0.00  0.00     0.083 H 
ATOM     27  H2  1W0 d   1      12.325  -8.304  17.385  0.00  0.00     0.084 H 
BRANCH  20  28
ATOM     28  C17 1W0 d   1       9.886  -3.989  15.373  0.00  0.00     0.009 A 
ATOM     29  C22 1W0 d   1       8.765  -3.452  16.020  0.00  0.00     0.015 A 
ATOM     30  N21 1W0 d   1       8.216  -2.336  15.565  0.00  0.00    -0.253 NA
ATOM     31  H6  1W0 d   1       8.349  -3.948  16.889  0.00  0.00     0.116 H 
ATOM     32  C20 1W0 d   1       8.717  -1.727  14.507  0.00  0.00     0.086 A 
ATOM     33  N19 1W0 d   1       9.782  -2.188  13.874  0.00  0.00    -0.253 NA
ATOM     34  H5  1W0 d   1       8.241  -0.822  14.146  0.00  0.00     0.146 H 
ATOM     35  C18 1W0 d   1      10.382  -3.303  14.263  0.00  0.00     0.015 A 
ATOM     36  H17 1W0 d   1      11.246  -3.678  13.727  0.00  0.00     0.116 H 
ENDBRANCH  20  28
ENDBRANCH   1  18
BRANCH   8  37
ATOM     37  N16 1W0 d   1      16.096  -4.074  14.738  0.00  0.00    -0.365 N 
ATOM     38  H15 1W0 d   1      16.205  -4.451  13.786  0.00  0.00     0.159 HD
ATOM     39  H16 1W0 d   1      16.550  -3.186  14.995  0.00  0.00     0.159 HD
ENDBRANCH   8  37
TORSDOF 3
