REMARK  3 active torsions:
REMARK  status: ('A' for Active; 'I' for Inactive)
REMARK    1  A    between atoms: N7_13  and  C4_1 
REMARK    2  A    between atoms: C17_5  and  C10_4 
REMARK    3  A    between atoms: C14_18  and  N16_20 
ROOT
ATOM      1  C4  1W1 d   1      17.904  -7.204  19.360  0.00  0.00     0.126 A 
ATOM      2  C6  1W1 d   1      18.439  -6.909  21.606  0.00  0.00     0.004 A 
ATOM      3  C1  1W1 d   1      19.692  -7.463  21.438  0.00  0.00    -0.064 A 
ATOM      4  C2  1W1 d   1      20.071  -7.898  20.182  0.00  0.00    -0.058 A 
ATOM      5  C3  1W1 d   1      19.183  -7.773  19.105  0.00  0.00     0.085 A 
ATOM      6  N5  1W1 d   1      17.608  -6.799  20.590  0.00  0.00    -0.247 NA
ATOM      7  C25 1W1 d   1      19.635  -8.242  17.822  0.00  0.00     0.103 C 
ATOM      8  N26 1W1 d   1      20.002  -8.622  16.814  0.00  0.00    -0.191 NA
ATOM      9  H1  1W1 d   1      18.135  -6.560  22.586  0.00  0.00     0.114 H 
ATOM     10  H5  1W1 d   1      20.369  -7.556  22.279  0.00  0.00     0.085 H 
ATOM     11  H6  1W1 d   1      21.052  -8.334  20.030  0.00  0.00     0.086 H 
ENDROOT
BRANCH   1  12
ATOM     12  N7  1W1 d   1      16.915  -6.994  18.399  0.00  0.00    -0.264 NA
ATOM     13  C8  1W1 d   1      16.573  -8.122  17.534  0.00  0.00    -0.012 C 
ATOM     14  C9  1W1 d   1      15.048  -8.252  17.317  0.00  0.00    -0.024 C 
ATOM     15  H2  1W1 d   1      16.945  -9.048  17.996  0.00  0.00     0.056 H 
ATOM     16  H3  1W1 d   1      17.058  -7.979  16.557  0.00  0.00     0.056 H 
ATOM     17  C10 1W1 d   1      14.457  -6.909  16.906  0.00  0.00     0.092 A 
ATOM     18  H7  1W1 d   1      14.575  -8.586  18.253  0.00  0.00     0.039 H 
ATOM     19  H8  1W1 d   1      14.856  -8.991  16.525  0.00  0.00     0.039 H 
ATOM     20  C11 1W1 d   1      14.923  -5.771  17.894  0.00  0.00     0.088 A 
ATOM     21  N15 1W1 d   1      14.887  -6.410  15.611  0.00  0.00    -0.340 N 
ATOM     22  C12 1W1 d   1      15.718  -6.385  19.024  0.00  0.00     0.012 C 
ATOM     23  O13 1W1 d   1      15.616  -4.851  17.060  0.00  0.00    -0.313 OA
ATOM     24  H9  1W1 d   1      14.050  -5.265  18.332  0.00  0.00     0.090 H 
ATOM     25  H10 1W1 d   1      16.016  -5.611  19.746  0.00  0.00     0.060 H 
ATOM     26  H11 1W1 d   1      15.122  -7.154  19.537  0.00  0.00     0.060 H 
ATOM     27  C14 1W1 d   1      15.530  -5.277  15.766  0.00  0.00     0.214 A 
ATOM     28  H12 1W1 d   1      14.713  -6.875  14.709  0.00  0.00     0.164 HD
BRANCH  17  29
ATOM     29  C17 1W1 d   1      12.946  -7.073  16.907  0.00  0.00     0.011 A 
ATOM     30  C22 1W1 d   1      12.242  -7.426  18.059  0.00  0.00     0.128 A 
ATOM     31  C21 1W1 d   1      10.865  -7.581  18.022  0.00  0.00    -0.008 A 
ATOM     32  F23 1W1 d   1      12.865  -7.620  19.242  0.00  0.00    -0.205 F 
ATOM     33  C20 1W1 d   1      10.177  -7.392  16.839  0.00  0.00     0.119 A 
ATOM     34  H4  1W1 d   1      10.327  -7.851  18.923  0.00  0.00     0.093 H 
ATOM     35  C19 1W1 d   1      10.872  -7.045  15.691  0.00  0.00    -0.045 A 
ATOM     36  F24 1W1 d   1       8.831  -7.542  16.810  0.00  0.00    -0.206 F 
ATOM     37  C18 1W1 d   1      12.249  -6.891  15.726  0.00  0.00    -0.069 A 
ATOM     38  H16 1W1 d   1      10.336  -6.893  14.761  0.00  0.00     0.088 H 
ATOM     39  H15 1W1 d   1      12.784  -6.626  14.821  0.00  0.00     0.084 H 
ENDBRANCH  17  29
BRANCH  27  40
ATOM     40  N16 1W1 d   1      16.072  -4.573  14.717  0.00  0.00    -0.365 N 
ATOM     41  H13 1W1 d   1      15.983  -4.932  13.756  0.00  0.00     0.159 HD
ATOM     42  H14 1W1 d   1      16.567  -3.687  14.893  0.00  0.00     0.159 HD
ENDBRANCH  27  40
ENDBRANCH   1  12
TORSDOF 3
