REMARK  3 active torsions:
REMARK  status: ('A' for Active; 'I' for Inactive)
REMARK    1  A    between atoms: N7_13  and  C4_1 
REMARK    2  A    between atoms: C17_5  and  C11_15 
REMARK    3  A    between atoms: C14_18  and  N16_20 
ROOT
ATOM      1  C4  1W2 d   1      17.447  -9.062  17.682  0.00  0.00     0.146 A 
ATOM      2  C6  1W2 d   1      19.763  -9.314  17.586  0.00  0.00     0.004 A 
ATOM      3  C1  1W2 d   1      19.629 -10.635  17.165  0.00  0.00    -0.064 A 
ATOM      4  C2  1W2 d   1      18.372 -11.181  16.978  0.00  0.00    -0.058 A 
ATOM      5  C3  1W2 d   1      17.239 -10.390  17.235  0.00  0.00     0.090 A 
ATOM      6  N5  1W2 d   1      18.693  -8.581  17.845  0.00  0.00    -0.242 NA
ATOM      7  C25 1W2 d   1      15.930 -10.949  17.061  0.00  0.00     0.103 C 
ATOM      8  N26 1W2 d   1      14.860 -11.358  16.926  0.00  0.00    -0.191 NA
ATOM      9  H1  1W2 d   1      20.751  -8.884  17.702  0.00  0.00     0.114 H 
ATOM     10  H6  1W2 d   1      20.512 -11.237  16.983  0.00  0.00     0.085 H 
ATOM     11  H7  1W2 d   1      18.262 -12.204  16.638  0.00  0.00     0.086 H 
ENDROOT
BRANCH   1  12
ATOM     12  N7  1W2 d   1      16.415  -8.169  17.978  0.00  0.00    -0.362 N 
ATOM     13  C8  1W2 d   1      16.806  -6.928  18.687  0.00  0.00    -0.001 C 
ATOM     14  C9  1W2 d   1      15.554  -6.159  19.158  0.00  0.00    -0.023 C 
ATOM     15  H2  1W2 d   1      17.388  -6.290  18.006  0.00  0.00     0.064 H 
ATOM     16  H3  1W2 d   1      17.421  -7.189  19.561  0.00  0.00     0.064 H 
ATOM     17  C10 1W2 d   1      14.771  -5.754  17.927  0.00  0.00     0.079 A 
ATOM     18  H8  1W2 d   1      15.855  -5.264  19.722  0.00  0.00     0.039 H 
ATOM     19  H9  1W2 d   1      14.936  -6.806  19.799  0.00  0.00     0.039 H 
ATOM     20  C11 1W2 d   1      14.442  -6.986  17.012  0.00  0.00     0.106 A 
ATOM     21  O15 1W2 d   1      15.481  -4.868  17.078  0.00  0.00    -0.314 OA
ATOM     22  H4  1W2 d   1      13.838  -5.276  18.259  0.00  0.00     0.088 H 
ATOM     23  C12 1W2 d   1      14.984  -8.323  17.564  0.00  0.00     0.026 C 
ATOM     24  N13 1W2 d   1      15.044  -6.652  15.726  0.00  0.00    -0.339 N 
ATOM     25  H10 1W2 d   1      14.384  -8.626  18.435  0.00  0.00     0.068 H 
ATOM     26  H11 1W2 d   1      14.913  -9.094  16.783  0.00  0.00     0.068 H 
ATOM     27  C14 1W2 d   1      15.629  -5.455  15.860  0.00  0.00     0.214 A 
ATOM     28  H12 1W2 d   1      15.023  -7.229  14.873  0.00  0.00     0.164 HD
BRANCH  20  29
ATOM     29  C17 1W2 d   1      12.927  -7.089  16.817  0.00  0.00     0.013 A 
ATOM     30  C22 1W2 d   1      12.143  -7.156  17.941  0.00  0.00     0.128 A 
ATOM     31  C21 1W2 d   1      10.775  -7.288  17.841  0.00  0.00    -0.008 A 
ATOM     32  F23 1W2 d   1      12.710  -7.121  19.169  0.00  0.00    -0.205 F 
ATOM     33  C20 1W2 d   1      10.191  -7.331  16.585  0.00  0.00     0.119 A 
ATOM     34  H5  1W2 d   1      10.164  -7.357  18.733  0.00  0.00     0.093 H 
ATOM     35  C19 1W2 d   1      10.946  -7.256  15.430  0.00  0.00    -0.045 A 
ATOM     36  F24 1W2 d   1       8.844  -7.426  16.528  0.00  0.00    -0.206 F 
ATOM     37  C18 1W2 d   1      12.359  -7.117  15.556  0.00  0.00    -0.068 A 
ATOM     38  H16 1W2 d   1      10.476  -7.302  14.454  0.00  0.00     0.088 H 
ATOM     39  H15 1W2 d   1      12.982  -7.034  14.673  0.00  0.00     0.084 H 
ENDBRANCH  20  29
BRANCH  27  40
ATOM     40  N16 1W2 d   1      16.298  -4.814  14.847  0.00  0.00    -0.365 N 
ATOM     41  H13 1W2 d   1      16.727  -3.893  15.015  0.00  0.00     0.159 HD
ATOM     42  H14 1W2 d   1      16.371  -5.254  13.919  0.00  0.00     0.159 HD
ENDBRANCH  27  40
ENDBRANCH   1  12
TORSDOF 3
