REMARK  8 active torsions:
REMARK  status: ('A' for Active; 'I' for Inactive)
REMARK    1  A    between atoms: CAU_6  and  CAP_7 
REMARK    2  A    between atoms: CAP_7  and  CAZ_8 
REMARK    3  A    between atoms: CAZ_8  and  CAM_9 
REMARK    4  A    between atoms: CAZ_8  and  NAR_11 
REMARK    5  A    between atoms: CAM_9  and  OAC_10 
REMARK       I    between atoms: NAR_11  and  CAT_12 
REMARK    6  A    between atoms: CAT_12  and  CAN_14 
REMARK    7  A    between atoms: CAN_14  and  CAO_15 
REMARK    8  A    between atoms: CAO_15  and  CAV_16 
ROOT
ATOM      1  NAR 1VA d   1      21.848  -3.203  13.611  0.00  0.00    -0.354 N 
ATOM      2  CAT 1VA d   1      20.514  -3.193  13.915  0.00  0.00     0.218 C 
ATOM      3  OAA 1VA d   1      20.077  -2.609  14.901  0.00  0.00    -0.274 OA
ATOM      4  H   1VA d   1      22.154  -3.656  12.774  0.00  0.00     0.162 HD
ENDROOT
BRANCH   2   5
ATOM      5  CAN 1VA d   1      19.519  -3.805  12.883  0.00  0.00     0.015 C 
ATOM      6  H   1VA d   1      19.988  -3.817  11.888  0.00  0.00     0.047 H 
ATOM      7  H   1VA d   1      18.605  -3.193  12.851  0.00  0.00     0.047 H 
BRANCH   5   8
ATOM      8  CAO 1VA d   1      19.163  -5.209  13.281  0.00  0.00    -0.002 C 
ATOM      9  H   1VA d   1      18.812  -5.181  14.323  0.00  0.00     0.045 H 
ATOM     10  H   1VA d   1      20.078  -5.816  13.218  0.00  0.00     0.045 H 
BRANCH   8  11
ATOM     11  CAV 1VA d   1      18.159  -5.860  12.504  0.00  0.00     0.107 A 
ATOM     12  NAQ 1VA d   1      18.441  -7.107  12.078  0.00  0.00    -0.235 NA
ATOM     13  CAX 1VA d   1      17.589  -7.825  11.362  0.00  0.00     0.074 A 
ATOM     14  CAK 1VA d   1      17.973  -9.124  11.040  0.00  0.00    -0.054 A 
ATOM     15  CAY 1VA d   1      16.313  -7.340  11.066  0.00  0.00     0.061 A 
ATOM     16  CAG 1VA d   1      17.130  -9.935  10.300  0.00  0.00    -0.081 A 
ATOM     17  H   1VA d   1      18.934  -9.501  11.370  0.00  0.00     0.087 H 
ATOM     18  CAH 1VA d   1      15.896  -9.424   9.922  0.00  0.00    -0.082 A 
ATOM     19  H   1VA d   1      17.425 -10.941  10.024  0.00  0.00     0.083 H 
ATOM     20  CAL 1VA d   1      15.484  -8.142  10.328  0.00  0.00    -0.065 A 
ATOM     21  H   1VA d   1      15.238 -10.024   9.303  0.00  0.00     0.083 H 
ATOM     22  H   1VA d   1      14.498  -7.784  10.053  0.00  0.00     0.085 H 
ATOM     23  CAW 1VA d   1      15.941  -6.052  11.449  0.00  0.00     0.259 A 
ATOM     24  OAB 1VA d   1      14.811  -5.568  11.192  0.00  0.00    -0.267 OA
ATOM     25  NAS 1VA d   1      16.882  -5.330  12.181  0.00  0.00    -0.311 N 
ATOM     26  H   1VA d   1      16.650  -4.407  12.489  0.00  0.00     0.170 HD
ENDBRANCH   8  11
ENDBRANCH   5   8
ENDBRANCH   2   5
BRANCH   1  27
ATOM     27  CAZ 1VA d   1      22.871  -2.546  14.509  0.00  0.00     0.036 C 
ATOM     28  H   1VA d   1      22.327  -2.057  15.330  0.00  0.00     0.076 H 
BRANCH  27  29
ATOM     29  CAP 1VA d   1      23.858  -3.551  15.128  0.00  0.00    -0.020 C 
ATOM     30  H   1VA d   1      24.401  -4.073  14.326  0.00  0.00     0.043 H 
ATOM     31  H   1VA d   1      24.574  -3.015  15.768  0.00  0.00     0.043 H 
BRANCH  29  32
ATOM     32  CAU 1VA d   1      23.144  -4.493  15.905  0.00  0.00    -0.056 A 
ATOM     33  CAI 1VA d   1      23.016  -5.813  15.478  0.00  0.00    -0.077 A 
ATOM     34  CAE 1VA d   1      22.311  -6.722  16.267  0.00  0.00    -0.082 A 
ATOM     35  H   1VA d   1      23.460  -6.131  14.541  0.00  0.00     0.084 H 
ATOM     36  CAD 1VA d   1      21.705  -6.330  17.468  0.00  0.00    -0.083 A 
ATOM     37  H   1VA d   1      22.230  -7.754  15.944  0.00  0.00     0.083 H 
ATOM     38  CAF 1VA d   1      21.837  -5.019  17.881  0.00  0.00    -0.082 A 
ATOM     39  H   1VA d   1      21.143  -7.042  18.061  0.00  0.00     0.083 H 
ATOM     40  CAJ 1VA d   1      22.558  -4.123  17.106  0.00  0.00    -0.077 A 
ATOM     41  H   1VA d   1      21.379  -4.691  18.807  0.00  0.00     0.083 H 
ATOM     42  H   1VA d   1      22.667  -3.101  17.450  0.00  0.00     0.084 H 
ENDBRANCH  29  32
ENDBRANCH  27  29
BRANCH  27  43
ATOM     43  CAM 1VA d   1      23.653  -1.478  13.749  0.00  0.00     0.036 C 
ATOM     44  H   1VA d   1      24.197  -1.935  12.909  0.00  0.00     0.077 H 
ATOM     45  H   1VA d   1      24.368  -0.984  14.423  0.00  0.00     0.077 H 
BRANCH  43  46
ATOM     46  OAC 1VA d   1      22.674  -0.496  13.242  0.00  0.00    -0.399 OA
ATOM     47  H   1VA d   1      23.130   0.185  12.762  0.00  0.00     0.209 HD
ENDBRANCH  43  46
ENDBRANCH  27  43
ENDBRANCH   1  27
TORSDOF 8
