REMARK  8 active torsions:
REMARK  status: ('A' for Active; 'I' for Inactive)
REMARK    1  A    between atoms: CAV_3  and  SBB_4 
REMARK    2  A    between atoms: SBB_4  and  NAB_7 
REMARK    3  A    between atoms: CAU_10  and  CBA_11 
REMARK    4  A    between atoms: CBA_11  and  CAA_12 
REMARK    5  A    between atoms: CBA_11  and  NAR_13 
REMARK       I    between atoms: NAR_13  and  CAT_14 
REMARK    6  A    between atoms: CAT_14  and  CAO_16 
REMARK    7  A    between atoms: CAO_16  and  CAP_17 
REMARK    8  A    between atoms: CAP_17  and  CAW_18 
ROOT
ATOM      1  NAR 1VB d   1      22.220  -3.920  13.905  0.00  0.00    -0.353 N 
ATOM      2  CAT 1VB d   1      20.929  -3.814  13.825  0.00  0.00     0.218 C 
ATOM      3  OAC 1VB d   1      20.295  -2.858  14.280  0.00  0.00    -0.274 OA
ATOM      4  H   1VB d   1      22.674  -4.695  13.465  0.00  0.00     0.163 HD
ENDROOT
BRANCH   1   5
ATOM      5  CBA 1VB d   1      23.030  -2.933  14.624  0.00  0.00     0.034 C 
ATOM      6  H   1VB d   1      22.425  -2.412  15.380  0.00  0.00     0.079 H 
BRANCH   5   7
ATOM      7  CAU 1VB d   1      23.631  -1.970  13.765  0.00  0.00    -0.036 A 
ATOM      8  CAI 1VB d   1      24.352  -2.381  12.639  0.00  0.00    -0.073 A 
ATOM      9  CAK 1VB d   1      24.955  -1.452  11.786  0.00  0.00    -0.060 A 
ATOM     10  H   1VB d   1      24.445  -3.439  12.424  0.00  0.00     0.084 H 
ATOM     11  CAV 1VB d   1      24.854  -0.084  12.085  0.00  0.00     0.079 A 
ATOM     12  H   1VB d   1      25.493  -1.784  10.905  0.00  0.00     0.085 H 
ATOM     13  CAL 1VB d   1      24.188   0.337  13.232  0.00  0.00    -0.060 A 
ATOM     14  CAJ 1VB d   1      23.551  -0.603  14.051  0.00  0.00    -0.073 A 
ATOM     15  H   1VB d   1      24.163   1.389  13.491  0.00  0.00     0.085 H 
ATOM     16  H   1VB d   1      22.990  -0.268  14.916  0.00  0.00     0.084 H 
BRANCH  11  17
ATOM     17  SBB 1VB d   1      25.696   1.148  11.032  0.00  0.00     0.256 S 
ATOM     18  OAE 1VB d   1      26.931   0.403  10.512  0.00  0.00    -0.201 OA
ATOM     19  OAF 1VB d   1      24.799   1.660   9.906  0.00  0.00    -0.201 OA
BRANCH  17  20
ATOM     20  NAB 1VB d   1      26.182   2.381  12.016  0.00  0.00    -0.324 N 
ATOM     21  H   1VB d   1      26.668   3.166  11.631  0.00  0.00     0.169 HD
ATOM     22  H   1VB d   1      25.990   2.343  12.997  0.00  0.00     0.169 HD
ENDBRANCH  17  20
ENDBRANCH  11  17
ENDBRANCH   5   7
BRANCH   5  23
ATOM     23  CAA 1VB d   1      24.098  -3.801  15.275  0.00  0.00    -0.053 C 
ATOM     24  H   1VB d   1      23.619  -4.539  15.935  0.00  0.00     0.030 H 
ATOM     25  H   1VB d   1      24.776  -3.167  15.865  0.00  0.00     0.030 H 
ATOM     26  H   1VB d   1      24.671  -4.324  14.495  0.00  0.00     0.030 H 
ENDBRANCH   5  23
ENDBRANCH   1   5
BRANCH   2  27
ATOM     27  CAO 1VB d   1      20.303  -4.980  13.079  0.00  0.00     0.015 C 
ATOM     28  H   1VB d   1      20.529  -5.931  13.582  0.00  0.00     0.047 H 
ATOM     29  H   1VB d   1      20.666  -5.019  12.041  0.00  0.00     0.047 H 
BRANCH  27  30
ATOM     30  CAP 1VB d   1      18.836  -4.696  13.117  0.00  0.00    -0.002 C 
ATOM     31  H   1VB d   1      18.662  -3.709  12.664  0.00  0.00     0.045 H 
ATOM     32  H   1VB d   1      18.513  -4.680  14.168  0.00  0.00     0.045 H 
BRANCH  30  33
ATOM     33  CAW 1VB d   1      18.051  -5.652  12.422  0.00  0.00     0.107 A 
ATOM     34  NAQ 1VB d   1      18.453  -6.889  12.078  0.00  0.00    -0.235 NA
ATOM     35  CAY 1VB d   1      17.594  -7.726  11.381  0.00  0.00     0.074 A 
ATOM     36  CAM 1VB d   1      18.006  -9.047  11.091  0.00  0.00    -0.054 A 
ATOM     37  CAZ 1VB d   1      16.331  -7.312  11.040  0.00  0.00     0.061 A 
ATOM     38  CAG 1VB d   1      17.170  -9.900  10.409  0.00  0.00    -0.081 A 
ATOM     39  H   1VB d   1      18.985  -9.389  11.408  0.00  0.00     0.087 H 
ATOM     40  CAH 1VB d   1      15.903  -9.488  10.051  0.00  0.00    -0.082 A 
ATOM     41  H   1VB d   1      17.507 -10.898  10.152  0.00  0.00     0.083 H 
ATOM     42  CAN 1VB d   1      15.467  -8.168  10.392  0.00  0.00    -0.065 A 
ATOM     43  H   1VB d   1      15.242 -10.159   9.515  0.00  0.00     0.083 H 
ATOM     44  H   1VB d   1      14.463  -7.844  10.142  0.00  0.00     0.085 H 
ATOM     45  CAX 1VB d   1      15.893  -6.023  11.391  0.00  0.00     0.259 A 
ATOM     46  OAD 1VB d   1      14.729  -5.621  11.179  0.00  0.00    -0.267 OA
ATOM     47  NAS 1VB d   1      16.778  -5.222  12.081  0.00  0.00    -0.311 N 
ATOM     48  H   1VB d   1      16.492  -4.301  12.344  0.00  0.00     0.170 HD
ENDBRANCH  30  33
ENDBRANCH  27  30
ENDBRANCH   2  27
TORSDOF 8
