REMARK  7 active torsions:
REMARK  status: ('A' for Active; 'I' for Inactive)
REMARK    1  A    between atoms: NBC_5  and  CAW_6 
REMARK    2  A    between atoms: CAV_11  and  CBB_12 
REMARK    3  A    between atoms: CBB_12  and  CAA_13 
REMARK    4  A    between atoms: CBB_12  and  NAS_14 
REMARK       I    between atoms: NAS_14  and  CAU_15 
REMARK    5  A    between atoms: CAU_15  and  CAO_17 
REMARK    6  A    between atoms: CAO_17  and  CAP_18 
REMARK    7  A    between atoms: CAP_18  and  CAX_19 
ROOT
ATOM      1  NAS 1VD d   1      22.108  -3.311  13.890  0.00  0.00    -0.353 N 
ATOM      2  CAU 1VD d   1      20.789  -3.170  13.721  0.00  0.00     0.218 C 
ATOM      3  OAB 1VD d   1      20.156  -2.188  14.110  0.00  0.00    -0.274 OA
ATOM      4  H   1VD d   1      22.553  -4.120  13.506  0.00  0.00     0.163 HD
ENDROOT
BRANCH   1   5
ATOM      5  CBB 1VD d   1      22.940  -2.329  14.617  0.00  0.00     0.034 C 
ATOM      6  H   1VD d   1      22.311  -1.744  15.304  0.00  0.00     0.079 H 
BRANCH   5   7
ATOM      7  CAV 1VD d   1      23.679  -1.432  13.772  0.00  0.00    -0.036 A 
ATOM      8  CAH 1VD d   1      24.298  -1.902  12.587  0.00  0.00    -0.073 A 
ATOM      9  CAJ 1VD d   1      25.029  -1.031  11.774  0.00  0.00    -0.056 A 
ATOM     10  H   1VD d   1      24.204  -2.945  12.309  0.00  0.00     0.084 H 
ATOM     11  CAW 1VD d   1      25.154   0.329  12.169  0.00  0.00     0.039 A 
ATOM     12  H   1VD d   1      25.492  -1.386  10.860  0.00  0.00     0.087 H 
ATOM     13  CAI 1VD d   1      24.554   0.773  13.359  0.00  0.00    -0.056 A 
ATOM     14  CAG 1VD d   1      23.822  -0.101  14.134  0.00  0.00    -0.073 A 
ATOM     15  H   1VD d   1      24.667   1.806  13.669  0.00  0.00     0.087 H 
ATOM     16  H   1VD d   1      23.350   0.258  15.041  0.00  0.00     0.084 H 
BRANCH  11  17
ATOM     17  NBC 1VD d   1      25.896   1.142  11.425  0.00  0.00    -0.315 N 
ATOM     18  CAM 1VD d   1      26.014   1.262  10.083  0.00  0.00     0.003 A 
ATOM     19  CAF 1VD d   1      26.975   2.183   9.820  0.00  0.00     0.019 A 
ATOM     20  H   1VD d   1      25.436   0.713   9.341  0.00  0.00     0.114 H 
ATOM     21  NAQ 1VD d   1      27.449   2.613  11.010  0.00  0.00    -0.254 NA
ATOM     22  H   1VD d   1      27.303   2.513   8.835  0.00  0.00     0.117 H 
ATOM     23  CAN 1VD d   1      26.814   1.958  11.985  0.00  0.00     0.070 A 
ATOM     24  H   1VD d   1      27.005   2.064  13.052  0.00  0.00     0.144 H 
ENDBRANCH  11  17
ENDBRANCH   5   7
BRANCH   5  25
ATOM     25  CAA 1VD d   1      23.963  -3.189  15.389  0.00  0.00    -0.053 C 
ATOM     26  H   1VD d   1      23.430  -3.890  16.048  0.00  0.00     0.030 H 
ATOM     27  H   1VD d   1      24.609  -2.536  15.994  0.00  0.00     0.030 H 
ATOM     28  H   1VD d   1      24.580  -3.755  14.675  0.00  0.00     0.030 H 
ENDBRANCH   5  25
ENDBRANCH   1   5
BRANCH   2  29
ATOM     29  CAO 1VD d   1      20.125  -4.385  12.993  0.00  0.00     0.015 C 
ATOM     30  H   1VD d   1      20.552  -5.325  13.371  0.00  0.00     0.047 H 
ATOM     31  H   1VD d   1      20.301  -4.312  11.910  0.00  0.00     0.047 H 
BRANCH  29  32
ATOM     32  CAP 1VD d   1      18.631  -4.347  13.276  0.00  0.00    -0.002 C 
ATOM     33  H   1VD d   1      18.237  -3.376  12.942  0.00  0.00     0.045 H 
ATOM     34  H   1VD d   1      18.479  -4.451  14.360  0.00  0.00     0.045 H 
BRANCH  32  35
ATOM     35  CAX 1VD d   1      17.909  -5.374  12.620  0.00  0.00     0.107 A 
ATOM     36  NAR 1VD d   1      18.365  -6.604  12.364  0.00  0.00    -0.235 NA
ATOM     37  CAZ 1VD d   1      17.592  -7.525  11.686  0.00  0.00     0.074 A 
ATOM     38  CAK 1VD d   1      18.084  -8.802  11.472  0.00  0.00    -0.054 A 
ATOM     39  CBA 1VD d   1      16.285  -7.235  11.332  0.00  0.00     0.061 A 
ATOM     40  CAD 1VD d   1      17.281  -9.760  10.831  0.00  0.00    -0.081 A 
ATOM     41  H   1VD d   1      19.085  -9.061  11.798  0.00  0.00     0.087 H 
ATOM     42  CAE 1VD d   1      15.996  -9.449  10.437  0.00  0.00    -0.082 A 
ATOM     43  H   1VD d   1      17.675 -10.753  10.644  0.00  0.00     0.083 H 
ATOM     44  CAL 1VD d   1      15.488  -8.167  10.687  0.00  0.00    -0.065 A 
ATOM     45  H   1VD d   1      15.384 -10.191   9.938  0.00  0.00     0.083 H 
ATOM     46  H   1VD d   1      14.482  -7.907  10.379  0.00  0.00     0.085 H 
ATOM     47  CAY 1VD d   1      15.809  -5.940  11.601  0.00  0.00     0.259 A 
ATOM     48  OAC 1VD d   1      14.671  -5.550  11.318  0.00  0.00    -0.267 OA
ATOM     49  NAT 1VD d   1      16.642  -5.062  12.238  0.00  0.00    -0.311 N 
ATOM     50  H   1VD d   1      16.301  -4.142  12.433  0.00  0.00     0.170 HD
ENDBRANCH  32  35
ENDBRANCH  29  32
ENDBRANCH   2  29
TORSDOF 7
