REMARK  8 active torsions:
REMARK  status: ('A' for Active; 'I' for Inactive)
REMARK    1  A    between atoms: CAA_1  and  CAI_2 
REMARK    2  A    between atoms: CAI_2  and  CAU_3 
REMARK    3  A    between atoms: CAU_3  and  CAJ_4 
REMARK    4  A    between atoms: CAU_3  and  NAN_6 
REMARK    5  A    between atoms: CAJ_4  and  OAD_5 
REMARK       I    between atoms: NAN_6  and  CAP_7 
REMARK    6  A    between atoms: CAP_7  and  CAK_9 
REMARK    7  A    between atoms: CAK_9  and  CAL_10 
REMARK    8  A    between atoms: CAL_10  and  CAQ_11 
ROOT
ATOM      1  CAK M00 d   1      19.846  -3.932  12.582  0.00  0.00     0.015 C 
ATOM      2  H   M00 d   1      20.549  -4.248  11.797  0.00  0.00     0.047 H 
ATOM      3  H   M00 d   1      19.085  -3.268  12.147  0.00  0.00     0.047 H 
ENDROOT
BRANCH   1   4
ATOM      4  CAP M00 d   1      20.580  -3.247  13.735  0.00  0.00     0.218 C 
ATOM      5  NAN M00 d   1      21.897  -3.126  13.487  0.00  0.00    -0.354 N 
ATOM      6  H   M00 d   1      22.261  -3.468  12.621  0.00  0.00     0.162 HD
ATOM      7  OAB M00 d   1      20.025  -2.847  14.808  0.00  0.00    -0.274 OA
BRANCH   5   8
ATOM      8  CAU M00 d   1      22.848  -2.485  14.485  0.00  0.00     0.032 C 
ATOM      9  H   M00 d   1      22.235  -2.173  15.343  0.00  0.00     0.075 H 
BRANCH   8  10
ATOM     10  CAI M00 d   1      23.812  -3.537  15.035  0.00  0.00    -0.048 C 
ATOM     11  H   M00 d   1      24.165  -3.232  16.031  0.00  0.00     0.035 H 
ATOM     12  H   M00 d   1      23.300  -4.508  15.108  0.00  0.00     0.035 H 
BRANCH  10  13
ATOM     13  CAA M00 d   1      24.969  -3.649  14.105  0.00  0.00    -0.075 C 
ATOM     14  H   M00 d   1      25.674  -4.403  14.486  0.00  0.00     0.027 H 
ATOM     15  H   M00 d   1      25.477  -2.676  14.032  0.00  0.00     0.027 H 
ATOM     16  H   M00 d   1      24.611  -3.951  13.110  0.00  0.00     0.027 H 
ENDBRANCH  10  13
ENDBRANCH   8  10
BRANCH   8  17
ATOM     17  CAJ M00 d   1      23.467  -1.181  13.941  0.00  0.00     0.035 C 
ATOM     18  H   M00 d   1      24.163  -1.394  13.116  0.00  0.00     0.077 H 
ATOM     19  H   M00 d   1      23.998  -0.640  14.738  0.00  0.00     0.077 H 
BRANCH  17  20
ATOM     20  OAD M00 d   1      22.324  -0.411  13.467  0.00  0.00    -0.399 OA
ATOM     21  H   M00 d   1      21.872  -0.901  12.790  0.00  0.00     0.209 HD
ENDBRANCH  17  20
ENDBRANCH   8  17
ENDBRANCH   5   8
ENDBRANCH   1   4
BRANCH   1  22
ATOM     22  CAL M00 d   1      19.213  -5.114  13.245  0.00  0.00    -0.002 C 
ATOM     23  H   M00 d   1      18.692  -4.755  14.145  0.00  0.00     0.045 H 
ATOM     24  H   M00 d   1      20.017  -5.805  13.538  0.00  0.00     0.045 H 
BRANCH  22  25
ATOM     25  CAQ M00 d   1      18.300  -5.827  12.485  0.00  0.00     0.107 A 
ATOM     26  NAM M00 d   1      18.690  -7.068  12.134  0.00  0.00    -0.235 NA
ATOM     27  CAS M00 d   1      17.869  -7.856  11.418  0.00  0.00     0.074 A 
ATOM     28  CAG M00 d   1      18.310  -9.138  11.130  0.00  0.00    -0.054 A 
ATOM     29  CAT M00 d   1      16.541  -7.383  11.004  0.00  0.00     0.061 A 
ATOM     30  CAE M00 d   1      17.440  -9.967  10.431  0.00  0.00    -0.081 A 
ATOM     31  H   M00 d   1      19.292  -9.480  11.437  0.00  0.00     0.087 H 
ATOM     32  CAF M00 d   1      16.226  -9.518   9.986  0.00  0.00    -0.082 A 
ATOM     33  H   M00 d   1      17.730 -10.993  10.234  0.00  0.00     0.083 H 
ATOM     34  CAH M00 d   1      15.752  -8.240  10.283  0.00  0.00    -0.065 A 
ATOM     35  H   M00 d   1      15.613 -10.177   9.383  0.00  0.00     0.083 H 
ATOM     36  H   M00 d   1      14.770  -7.928   9.947  0.00  0.00     0.085 H 
ATOM     37  CAR M00 d   1      16.121  -6.082  11.364  0.00  0.00     0.259 A 
ATOM     38  OAC M00 d   1      15.004  -5.606  11.107  0.00  0.00    -0.267 OA
ATOM     39  NAO M00 d   1      17.019  -5.351  12.096  0.00  0.00    -0.311 N 
ATOM     40  H   M00 d   1      16.757  -4.427  12.373  0.00  0.00     0.170 HD
ENDBRANCH  22  25
ENDBRANCH   1  22
TORSDOF 8
