REMARK  9 active torsions:
REMARK  status: ('A' for Active; 'I' for Inactive)
REMARK    1  A    between atoms: CG_6  and  CB_7 
REMARK    2  A    between atoms: CB_7  and  CA_8 
REMARK    3  A    between atoms: CA_8  and  C_9 
REMARK    4  A    between atoms: CA_8  and  N_13 
REMARK    5  A    between atoms: C_9  and  OAT_11 
REMARK    6  A    between atoms: OAT_11  and  CAA_12 
REMARK       I    between atoms: N_13  and  CAU_14 
REMARK    7  A    between atoms: CAU_14  and  CAN_16 
REMARK    8  A    between atoms: CAN_16  and  CAO_17 
REMARK    9  A    between atoms: CAO_17  and  CAX_18 
ROOT
ATOM      1  N   1VC d   1      20.565  -3.968  14.008  0.00  0.00    -0.347 N 
ATOM      2  CAU 1VC d   1      19.855  -3.498  12.992  0.00  0.00     0.218 C 
ATOM      3  OAB 1VC d   1      19.607  -2.356  12.640  0.00  0.00    -0.274 OA
ATOM      4  H   1VC d   1      20.626  -4.964  14.071  0.00  0.00     0.163 HD
ENDROOT
BRANCH   1   5
ATOM      5  CA  1VC d   1      21.254  -3.240  15.024  0.00  0.00     0.100 C 
ATOM      6  H   1VC d   1      21.355  -3.945  15.863  0.00  0.00     0.088 H 
BRANCH   5   7
ATOM      7  CB  1VC d   1      22.741  -3.168  14.596  0.00  0.00    -0.013 C 
ATOM      8  H   1VC d   1      23.388  -3.208  15.485  0.00  0.00     0.043 H 
ATOM      9  H   1VC d   1      22.979  -4.011  13.931  0.00  0.00     0.043 H 
BRANCH   7  10
ATOM     10  CG  1VC d   1      22.923  -2.047  13.969  0.00  0.00    -0.056 A 
ATOM     11  CD1 1VC d   1      23.397  -1.018  14.725  0.00  0.00    -0.077 A 
ATOM     12  CE1 1VC d   1      23.612   0.228  14.150  0.00  0.00    -0.082 A 
ATOM     13  H   1VC d   1      23.607  -1.172  15.777  0.00  0.00     0.084 H 
ATOM     14  CZ  1VC d   1      23.322   0.417  12.819  0.00  0.00    -0.083 A 
ATOM     15  H   1VC d   1      24.005   1.044  14.745  0.00  0.00     0.083 H 
ATOM     16  CE2 1VC d   1      22.821  -0.644  12.058  0.00  0.00    -0.082 A 
ATOM     17  H   1VC d   1      23.481   1.386  12.361  0.00  0.00     0.083 H 
ATOM     18  CD2 1VC d   1      22.642  -1.889  12.628  0.00  0.00    -0.077 A 
ATOM     19  H   1VC d   1      22.572  -0.488  11.015  0.00  0.00     0.083 H 
ATOM     20  H   1VC d   1      22.288  -2.724  12.034  0.00  0.00     0.084 H 
ENDBRANCH   7  10
ENDBRANCH   5   7
BRANCH   5  21
ATOM     21  C   1VC d   1      20.186  -2.262  15.652  0.00  0.00     0.281 C 
ATOM     22  O   1VC d   1      19.264  -2.771  16.369  0.00  0.00    -0.263 OA
BRANCH  21  23
ATOM     23  OAT 1VC d   1      20.267  -0.912  15.430  0.00  0.00    -0.325 OA
BRANCH  23  24
ATOM     24  CAA 1VC d   1      20.626  -0.293  16.678  0.00  0.00     0.013 C 
ATOM     25  H   1VC d   1      20.701   0.796  16.539  0.00  0.00     0.067 H 
ATOM     26  H   1VC d   1      21.595  -0.687  17.017  0.00  0.00     0.067 H 
ATOM     27  H   1VC d   1      19.856  -0.514  17.432  0.00  0.00     0.067 H 
ENDBRANCH  23  24
ENDBRANCH  21  23
ENDBRANCH   5  21
ENDBRANCH   1   5
BRANCH   2  28
ATOM     28  CAN 1VC d   1      19.300  -4.522  12.180  0.00  0.00     0.015 C 
ATOM     29  H   1VC d   1      20.084  -5.185  11.785  0.00  0.00     0.047 H 
ATOM     30  H   1VC d   1      18.723  -4.099  11.345  0.00  0.00     0.047 H 
BRANCH  28  31
ATOM     31  CAO 1VC d   1      18.424  -5.236  13.126  0.00  0.00    -0.002 C 
ATOM     32  H   1VC d   1      17.799  -4.524  13.685  0.00  0.00     0.045 H 
ATOM     33  H   1VC d   1      19.022  -5.831  13.832  0.00  0.00     0.045 H 
BRANCH  31  34
ATOM     34  CAX 1VC d   1      17.696  -5.999  12.400  0.00  0.00     0.107 A 
ATOM     35  NAQ 1VC d   1      18.231  -7.205  12.162  0.00  0.00    -0.235 NA
ATOM     36  CAZ 1VC d   1      17.485  -8.031  11.464  0.00  0.00     0.074 A 
ATOM     37  CAL 1VC d   1      18.015  -9.279  11.253  0.00  0.00    -0.054 A 
ATOM     38  CBA 1VC d   1      16.197  -7.674  10.962  0.00  0.00     0.061 A 
ATOM     39  CAH 1VC d   1      17.253 -10.193  10.540  0.00  0.00    -0.081 A 
ATOM     40  H   1VC d   1      18.996  -9.542  11.631  0.00  0.00     0.087 H 
ATOM     41  CAI 1VC d   1      15.986  -9.873  10.056  0.00  0.00    -0.082 A 
ATOM     42  H   1VC d   1      17.654 -11.183  10.354  0.00  0.00     0.083 H 
ATOM     43  CAM 1VC d   1      15.496  -8.605  10.260  0.00  0.00    -0.065 A 
ATOM     44  H   1VC d   1      15.396 -10.613   9.527  0.00  0.00     0.083 H 
ATOM     45  H   1VC d   1      14.527  -8.340   9.852  0.00  0.00     0.085 H 
ATOM     46  CAY 1VC d   1      15.649  -6.384  11.190  0.00  0.00     0.259 A 
ATOM     47  OAD 1VC d   1      14.558  -5.991  10.761  0.00  0.00    -0.267 OA
ATOM     48  NAS 1VC d   1      16.418  -5.526  11.947  0.00  0.00    -0.311 N 
ATOM     49  H   1VC d   1      16.097  -4.606  12.173  0.00  0.00     0.170 HD
ENDBRANCH  31  34
ENDBRANCH  28  31
ENDBRANCH   2  28
TORSDOF 9
