REMARK  8 active torsions:
REMARK  status: ('A' for Active; 'I' for Inactive)
REMARK    1  A    between atoms: CAT_20  and  CAW_23 
REMARK    2  A    between atoms: OBB_28  and  CAT_20 
REMARK    3  A    between atoms: CAW_23  and  NBP_42 
REMARK       I    between atoms: NAY_25  and  CBD_30 
REMARK    4  A    between atoms: CBL_38  and  NAY_25 
REMARK    5  A    between atoms: NAZ_26  and  CBF_32 
REMARK    6  A    between atoms: CBG_33  and  NAZ_26 
REMARK    7  A    between atoms: CBI_35  and  OBB_28 
REMARK    8  A    between atoms: CBD_30  and  CBJ_36 
ROOT
ATOM      1  OAB F46 d   1      -2.263   3.917 -23.132  0.00  0.00    -0.287 OA
ATOM      2  CAJ F46 d   1      -2.766   1.172 -20.254  0.00  0.00    -0.056 A 
ATOM      3  CAL F46 d   1      -1.637   1.861 -27.515  0.00  0.00    -0.050 A 
ATOM      4  CAM F46 d   1      -0.804   1.175 -26.640  0.00  0.00    -0.071 A 
ATOM      5  CAN F46 d   1      -2.642   2.123 -21.276  0.00  0.00    -0.064 A 
ATOM      6  CAP F46 d   1      -1.639  -0.459 -21.651  0.00  0.00    -0.024 A 
ATOM      7  CAQ F46 d   1      -2.616   3.098 -25.665  0.00  0.00    -0.036 A 
ATOM      8  CAX F46 d   1      -0.013   0.694 -24.525  0.00  0.00     0.051 C 
ATOM      9  OBC F46 d   1      -0.841  -0.140 -23.723  0.00  0.00    -0.346 OA
ATOM     10  CBE F46 d   1      -1.973   2.771 -23.439  0.00  0.00     0.195 C 
ATOM     11  CBG F46 d   1      -2.260  -0.121 -20.456  0.00  0.00     0.035 A 
ATOM     12  CBI F46 d   1      -2.537   2.816 -27.027  0.00  0.00     0.069 A 
ATOM     13  CBK F46 d   1      -0.886   1.468 -25.275  0.00  0.00    -0.020 A 
ATOM     14  CBM F46 d   1      -1.497   0.468 -22.667  0.00  0.00     0.085 A 
ATOM     15  CBN F46 d   1      -2.002   1.768 -22.479  0.00  0.00     0.048 A 
ATOM     16  CBO F46 d   1      -1.771   2.428 -24.784  0.00  0.00     0.026 A 
ATOM     17  H7  F46 d   1      -3.247   1.432 -19.318  0.00  0.00     0.086 H 
ATOM     18  H9  F46 d   1      -1.590   1.656 -28.578  0.00  0.00     0.087 H 
ATOM     19  H10 F46 d   1      -0.107   0.430 -27.007  0.00  0.00     0.084 H 
ATOM     20  H11 F46 d   1      -3.036   3.124 -21.141  0.00  0.00     0.085 H 
ATOM     21  H13 F46 d   1      -1.260  -1.465 -21.790  0.00  0.00     0.091 H 
ATOM     22  H14 F46 d   1      -3.326   3.829 -25.296  0.00  0.00     0.089 H 
ATOM     23  H27 F46 d   1       0.624   0.085 -25.183  0.00  0.00     0.082 H 
ATOM     24  H28 F46 d   1       0.620   1.333 -23.891  0.00  0.00     0.082 H 
ENDROOT
BRANCH  11  25
ATOM     25  NAZ F46 d   1      -2.289  -1.149 -19.603  0.00  0.00    -0.356 N 
ATOM     26  H30 F46 d   1      -1.712  -1.966 -19.849  0.00  0.00     0.166 HD
BRANCH  25  27
ATOM     27  CBF F46 d   1      -2.978  -1.232 -18.476  0.00  0.00     0.034 A 
ATOM     28  CAI F46 d   1      -4.205  -0.610 -18.234  0.00  0.00    -0.054 A 
ATOM     29  CAK F46 d   1      -4.822  -0.784 -16.992  0.00  0.00    -0.041 A 
ATOM     30  H6  F46 d   1      -4.672  -0.001 -18.999  0.00  0.00     0.087 H 
ATOM     31  CBH F46 d   1      -4.201  -1.598 -16.034  0.00  0.00     0.143 A 
ATOM     32  H8  F46 d   1      -5.766  -0.297 -16.773  0.00  0.00     0.088 H 
ATOM     33  FAC F46 d   1      -4.776  -1.766 -14.909  0.00  0.00    -0.204 F 
ATOM     34  CBL F46 d   1      -2.975  -2.217 -16.293  0.00  0.00     0.076 A 
ATOM     35  CAO F46 d   1      -2.375  -2.032 -17.526  0.00  0.00    -0.028 A 
ATOM     36  H12 F46 d   1      -1.430  -2.516 -17.746  0.00  0.00     0.090 H 
BRANCH  34  37
ATOM     37  NAY F46 d   1      -2.422  -3.015 -15.337  0.00  0.00    -0.320 N 
ATOM     38  CBD F46 d   1      -1.118  -2.890 -14.950  0.00  0.00     0.256 C 
ATOM     39  OAA F46 d   1      -0.360  -1.984 -15.316  0.00  0.00    -0.267 OA
ATOM     40  H29 F46 d   1      -2.990  -3.715 -14.904  0.00  0.00     0.169 HD
BRANCH  38  41
ATOM     41  CBJ F46 d   1      -0.704  -3.796 -13.961  0.00  0.00     0.032 A 
ATOM     42  CAG F46 d   1      -0.843  -5.171 -14.125  0.00  0.00    -0.068 A 
ATOM     43  CAE F46 d   1      -0.449  -6.069 -13.122  0.00  0.00    -0.082 A 
ATOM     44  H4  F46 d   1      -1.264  -5.556 -15.047  0.00  0.00     0.085 H 
ATOM     45  CAD F46 d   1       0.125  -5.579 -11.955  0.00  0.00    -0.083 A 
ATOM     46  H2  F46 d   1      -0.591  -7.135 -13.256  0.00  0.00     0.083 H 
ATOM     47  CAF F46 d   1       0.277  -4.197 -11.791  0.00  0.00    -0.082 A 
ATOM     48  H1  F46 d   1       0.452  -6.261 -11.178  0.00  0.00     0.083 H 
ATOM     49  CAH F46 d   1      -0.134  -3.312 -12.791  0.00  0.00    -0.068 A 
ATOM     50  H3  F46 d   1       0.718  -3.810 -10.880  0.00  0.00     0.083 H 
ATOM     51  H5  F46 d   1      -0.007  -2.244 -12.653  0.00  0.00     0.085 H 
ENDBRANCH  38  41
ENDBRANCH  34  37
ENDBRANCH  25  27
ENDBRANCH  11  25
BRANCH  12  52
ATOM     52  OBB F46 d   1      -3.348   3.500 -27.881  0.00  0.00    -0.349 OA
BRANCH  52  53
ATOM     53  CAT F46 d   1      -3.194   3.035 -29.243  0.00  0.00     0.049 C 
ATOM     54  H19 F46 d   1      -2.496   3.697 -29.776  0.00  0.00     0.077 H 
ATOM     55  H20 F46 d   1      -2.793   2.011 -29.234  0.00  0.00     0.077 H 
BRANCH  53  56
ATOM     56  CAW F46 d   1      -4.551   3.042 -29.963  0.00  0.00     0.103 C 
ATOM     57  H25 F46 d   1      -5.282   2.467 -29.375  0.00  0.00     0.079 H 
ATOM     58  H26 F46 d   1      -4.441   2.587 -30.958  0.00  0.00     0.079 H 
BRANCH  56  59
ATOM     59  NBP F46 d   1      -5.017   4.428 -30.106  0.00  0.00    -0.065 N 
ATOM     60  CAU F46 d   1      -6.098   4.756 -29.158  0.00  0.00     0.103 C 
ATOM     61  CAR F46 d   1      -6.277   6.277 -29.113  0.00  0.00     0.042 C 
ATOM     62  H21 F46 d   1      -7.035   4.284 -29.489  0.00  0.00     0.079 H 
ATOM     63  H22 F46 d   1      -5.835   4.386 -28.156  0.00  0.00     0.079 H 
ATOM     64  OBA F46 d   1      -5.581   6.896 -30.234  0.00  0.00    -0.388 OA
ATOM     65  H15 F46 d   1      -5.864   6.664 -28.170  0.00  0.00     0.076 H 
ATOM     66  H16 F46 d   1      -7.348   6.519 -29.171  0.00  0.00     0.076 H 
ATOM     67  CAS F46 d   1      -5.859   6.233 -31.528  0.00  0.00     0.042 C 
ATOM     68  CAV F46 d   1      -5.432   4.758 -31.479  0.00  0.00     0.103 C 
ATOM     69  H17 F46 d   1      -6.937   6.291 -31.740  0.00  0.00     0.076 H 
ATOM     70  H18 F46 d   1      -5.300   6.745 -32.325  0.00  0.00     0.076 H 
ATOM     71  H23 F46 d   1      -4.591   4.594 -32.169  0.00  0.00     0.079 H 
ATOM     72  H24 F46 d   1      -6.277   4.119 -31.773  0.00  0.00     0.079 H 
ATOM     73  H31 F46 d   1      -4.233   5.021 -29.883  0.00  0.00     0.280 HD
ENDBRANCH  56  59
ENDBRANCH  53  56
ENDBRANCH  52  53
ENDBRANCH  12  52
TORSDOF 8
