REMARK  23 active torsions:
REMARK  status: ('A' for Active; 'I' for Inactive)
REMARK    1  A    between atoms: C2_2  and  C1_1 
REMARK    2  A    between atoms: O3_40  and  C2_2 
REMARK    3  A    between atoms: C4_4  and  O4_15 
REMARK    4  A    between atoms: C5_5  and  N5_12 
REMARK    5  A    between atoms: C6_6  and  C7_7 
REMARK    6  A    between atoms: C7_7  and  C8_8 
REMARK    7  A    between atoms: C7_7  and  O7_17 
REMARK    8  A    between atoms: C8_8  and  C9_9 
REMARK    9  A    between atoms: C8_8  and  O8_18 
REMARK   10  A    between atoms: C9_9  and  O9_19 
REMARK   11  A    between atoms: C10_10  and  C11_11 
REMARK       I    between atoms: N5_12  and  C10_10 
REMARK   12  A    between atoms: C2_21  and  O2_28 
REMARK   13  A    between atoms: C3_22  and  O3_29 
REMARK   14  A    between atoms: O4_30  and  C4_23 
REMARK   15  A    between atoms: C5_24  and  C6_25 
REMARK   16  A    between atoms: C6_25  and  O6_32 
REMARK   17  A    between atoms: C1_26  and  O1_27 
REMARK   18  A    between atoms: C1_33  and  O4_30 
REMARK   19  A    between atoms: C2_34  and  O2_39 
REMARK   20  A    between atoms: C3_35  and  O3_40 
REMARK   21  A    between atoms: C4_36  and  O4_41 
REMARK   22  A    between atoms: C5_37  and  C6_38 
REMARK   23  A    between atoms: C6_38  and  O6_43 
ROOT
ATOM      1  H   SIA d   1      -2.394  -8.939   2.557  0.00  0.00     0.133 H 
ATOM      2  H   SIA d   1      -0.461  -9.854   0.379  0.00  0.00     0.094 H 
ATOM      3  H   SIA d   1       0.104  -8.219   2.897  0.00  0.00     0.091 H 
ATOM      4  H   SIA d   1       0.468  -6.338   1.424  0.00  0.00     0.091 H 
ATOM      5  H   SIA d   1      -1.807  -6.641   2.184  0.00  0.00     0.090 H 
ATOM      6  C1  GAL d   1      -2.121  -9.141   1.511  0.00  0.00     0.159 C 
ATOM      7  C2  GAL d   1      -0.678  -9.575   1.421  0.00  0.00     0.110 C 
ATOM      8  C3  GAL d   1       0.243  -8.439   1.828  0.00  0.00     0.099 C 
ATOM      9  C4  GAL d   1      -0.100  -7.186   1.014  0.00  0.00     0.090 C 
ATOM     10  C5  GAL d   1      -1.595  -6.858   1.127  0.00  0.00     0.089 C 
ATOM     11  O5  GAL d   1      -2.354  -7.978   0.734  0.00  0.00    -0.348 OA
ENDROOT
BRANCH   8  12
ATOM     12  O3  GAL d   1       1.583  -8.846   1.609  0.00  0.00    -0.336 OA
BRANCH  12  13
ATOM     13  C2  SIA d   1       2.325  -8.965   2.854  0.00  0.00     0.259 C 
ATOM     14  C3  SIA d   1       3.750  -9.178   2.337  0.00  0.00     0.024 C 
ATOM     15  C4  SIA d   1       4.660  -9.800   3.399  0.00  0.00     0.063 C 
ATOM     16  H   SIA d   1       4.168  -8.206   2.037  0.00  0.00     0.045 H 
ATOM     17  H   SIA d   1       3.715  -9.847   1.464  0.00  0.00     0.045 H 
ATOM     18  C5  SIA d   1       3.959 -11.023   3.982  0.00  0.00     0.064 C 
ATOM     19  H   SIA d   1       4.840  -9.071   4.203  0.00  0.00     0.086 H 
ATOM     20  C6  SIA d   1       2.621 -10.604   4.583  0.00  0.00     0.091 C 
ATOM     21  H   SIA d   1       3.740 -11.685   3.131  0.00  0.00     0.080 H 
ATOM     22  O6  SIA d   1       1.814 -10.115   3.511  0.00  0.00    -0.336 OA
ATOM     23  H   SIA d   1       2.778  -9.815   5.333  0.00  0.00     0.090 H 
BRANCH  13  24
ATOM     24  C1  SIA d   1       2.178  -7.778   3.784  0.00  0.00     0.239 C 
ATOM     25  O1A SIA d   1       2.856  -6.755   3.558  0.00  0.00    -0.644 OA
ATOM     26  O1B SIA d   1       1.379  -7.884   4.748  0.00  0.00    -0.644 OA
ENDBRANCH  13  24
BRANCH  15  27
ATOM     27  O4  SIA d   1       5.916 -10.148   2.796  0.00  0.00    -0.393 OA
ATOM     28  H   SIA d   1       5.767 -10.772   2.095  0.00  0.00     0.210 HD
ENDBRANCH  15  27
BRANCH  18  29
ATOM     29  N5  SIA d   1       4.736 -11.829   4.926  0.00  0.00    -0.352 N 
ATOM     30  C10 SIA d   1       5.799 -11.431   5.621  0.00  0.00     0.214 C 
ATOM     31  O10 SIA d   1       6.409 -12.223   6.320  0.00  0.00    -0.274 OA
ATOM     32  H   SIA d   1       4.438 -12.774   5.062  0.00  0.00     0.163 HD
BRANCH  30  33
ATOM     33  C11 SIA d   1       6.164  -9.978   5.605  0.00  0.00    -0.003 C 
ATOM     34  H   SIA d   1       7.059  -9.818   6.224  0.00  0.00     0.040 H 
ATOM     35  H   SIA d   1       5.329  -9.386   6.008  0.00  0.00     0.040 H 
ATOM     36  H   SIA d   1       6.372  -9.664   4.572  0.00  0.00     0.040 H 
ENDBRANCH  30  33
ENDBRANCH  18  29
BRANCH  20  37
ATOM     37  C7  SIA d   1       1.922 -11.791   5.231  0.00  0.00     0.089 C 
ATOM     38  H   SIA d   1       2.432 -12.022   6.178  0.00  0.00     0.091 H 
BRANCH  37  39
ATOM     39  C8  SIA d   1       0.444 -11.549   5.524  0.00  0.00     0.083 C 
ATOM     40  H   SIA d   1      -0.133 -11.691   4.598  0.00  0.00     0.090 H 
BRANCH  39  41
ATOM     41  C9  SIA d   1      -0.047 -12.551   6.572  0.00  0.00     0.043 C 
ATOM     42  H   SIA d   1       0.290 -12.226   7.567  0.00  0.00     0.078 H 
ATOM     43  H   SIA d   1       0.374 -13.542   6.348  0.00  0.00     0.078 H 
BRANCH  41  44
ATOM     44  O9  SIA d   1      -1.479 -12.636   6.566  0.00  0.00    -0.398 OA
ATOM     45  H   SIA d   1      -1.761 -13.262   7.223  0.00  0.00     0.209 HD
ENDBRANCH  41  44
ENDBRANCH  39  41
BRANCH  39  46
ATOM     46  O8  SIA d   1       0.253 -10.206   5.988  0.00  0.00    -0.391 OA
ATOM     47  H   SIA d   1       0.562  -9.597   5.328  0.00  0.00     0.210 HD
ENDBRANCH  39  46
ENDBRANCH  37  39
BRANCH  37  48
ATOM     48  O7  SIA d   1       2.029 -12.908   4.344  0.00  0.00    -0.390 OA
ATOM     49  H   SIA d   1       2.945 -13.072   4.152  0.00  0.00     0.210 HD
ENDBRANCH  37  48
ENDBRANCH  20  37
ENDBRANCH  12  13
ENDBRANCH   8  12
BRANCH   7  50
ATOM     50  O2  GAL d   1      -0.430 -10.697   2.256  0.00  0.00    -0.388 OA
ATOM     51  H   SIA d   1       0.475 -10.969   2.159  0.00  0.00     0.210 HD
ENDBRANCH   7  50
BRANCH   9  52
ATOM     52  O4  GAL d   1       0.285  -7.368  -0.328  0.00  0.00    -0.390 OA
ATOM     53  H   SIA d   1       1.213  -7.569  -0.366  0.00  0.00     0.210 HD
ENDBRANCH   9  52
BRANCH   6  54
ATOM     54  O4  BGC d   1      -2.874 -10.240   1.004  0.00  0.00    -0.348 OA
BRANCH  54  55
ATOM     55  C4  BGC d   1      -4.257 -10.121   1.269  0.00  0.00     0.096 C 
ATOM     56  C3  BGC d   1      -5.027 -10.481   0.000  0.00  0.00     0.092 C 
ATOM     57  C2  BGC d   1      -6.520 -10.559   0.316  0.00  0.00     0.110 C 
ATOM     58  H   SIA d   1      -4.697 -11.480  -0.322  0.00  0.00     0.091 H 
ATOM     59  C1  BGC d   1      -6.749 -11.466   1.529  0.00  0.00     0.156 C 
ATOM     60  H   SIA d   1      -6.903  -9.553   0.541  0.00  0.00     0.094 H 
ATOM     61  O5  BGC d   1      -6.009 -10.963   2.640  0.00  0.00    -0.349 OA
ATOM     62  H   SIA d   1      -6.400 -12.481   1.287  0.00  0.00     0.133 H 
ATOM     63  C5  BGC d   1      -4.617 -11.104   2.372  0.00  0.00     0.089 C 
ATOM     64  H   SIA d   1      -4.424 -12.122   2.004  0.00  0.00     0.090 H 
ATOM     65  H   SIA d   1      -4.500  -9.095   1.581  0.00  0.00     0.091 H 
BRANCH  56  66
ATOM     66  O3  BGC d   1      -4.757  -9.570  -1.084  0.00  0.00    -0.390 OA
ATOM     67  H   SIA d   1      -5.008  -8.691  -0.827  0.00  0.00     0.210 HD
ENDBRANCH  56  66
BRANCH  57  68
ATOM     68  O2  BGC d   1      -7.192 -11.078  -0.834  0.00  0.00    -0.388 OA
ATOM     69  H   SIA d   1      -6.858 -11.945  -1.030  0.00  0.00     0.210 HD
ENDBRANCH  57  68
BRANCH  59  70
ATOM     70  O1  BGC d   1      -8.133 -11.520   1.878  0.00  0.00    -0.369 OA
ATOM     71  H   SIA d   1      -8.631 -11.854   1.142  0.00  0.00     0.212 HD
ENDBRANCH  59  70
BRANCH  63  72
ATOM     72  C6  BGC d   1      -3.811 -10.910   3.655  0.00  0.00     0.043 C 
ATOM     73  H   SIA d   1      -2.737 -10.902   3.417  0.00  0.00     0.078 H 
ATOM     74  H   SIA d   1      -4.026 -11.733   4.353  0.00  0.00     0.078 H 
BRANCH  72  75
ATOM     75  O6  BGC d   1      -4.179  -9.663   4.256  0.00  0.00    -0.398 OA
ATOM     76  H   SIA d   1      -3.680  -9.538   5.055  0.00  0.00     0.209 HD
ENDBRANCH  72  75
ENDBRANCH  63  72
ENDBRANCH  54  55
ENDBRANCH   6  54
BRANCH  10  77
ATOM     77  C6  GAL d   1      -2.050  -5.651   0.303  0.00  0.00     0.043 C 
ATOM     78  H   SIA d   1      -1.879  -5.847  -0.766  0.00  0.00     0.078 H 
ATOM     79  H   SIA d   1      -1.482  -4.760   0.608  0.00  0.00     0.078 H 
BRANCH  77  80
ATOM     80  O6  GAL d   1      -3.434  -5.435   0.532  0.00  0.00    -0.398 OA
ATOM     81  H   SIA d   1      -3.922  -6.207   0.269  0.00  0.00     0.209 HD
ENDBRANCH  77  80
ENDBRANCH  10  77
TORSDOF 23
