REMARK  23 active torsions:
REMARK  status: ('A' for Active; 'I' for Inactive)
REMARK    1  A    between atoms: C2_1  and  O2_8 
REMARK    2  A    between atoms: C3_2  and  O3_9 
REMARK    3  A    between atoms: O4_10  and  C4_3 
REMARK    4  A    between atoms: C5_4  and  C6_5 
REMARK    5  A    between atoms: C6_5  and  O6_12 
REMARK    6  A    between atoms: C1_6  and  O1_7 
REMARK    7  A    between atoms: C1_13  and  O4_10 
REMARK    8  A    between atoms: C2_14  and  O2_19 
REMARK    9  A    between atoms: O3_20  and  C3_15 
REMARK   10  A    between atoms: C4_16  and  O4_21 
REMARK   11  A    between atoms: C5_17  and  C6_18 
REMARK   12  A    between atoms: C6_18  and  O6_23 
REMARK   13  A    between atoms: C2_25  and  O3_20 
REMARK   14  A    between atoms: C2_25  and  C1_24 
REMARK   15  A    between atoms: C4_27  and  O4_38 
REMARK   16  A    between atoms: N5_35  and  C5_28 
REMARK   17  A    between atoms: C6_29  and  C7_30 
REMARK   18  A    between atoms: C7_30  and  C8_31 
REMARK   19  A    between atoms: C7_30  and  O7_40 
REMARK   20  A    between atoms: C8_31  and  C9_32 
REMARK   21  A    between atoms: C8_31  and  O8_41 
REMARK   22  A    between atoms: C9_32  and  O9_42 
REMARK   23  A    between atoms: C10_33  and  C11_34 
REMARK       I    between atoms: C10_33  and  N5_35 
ROOT
ATOM      1  H   BGC d   1      20.657  -8.769  -2.147  0.00  0.00     0.133 H 
ATOM      2  H   BGC d   1      18.698  -9.841  -0.057  0.00  0.00     0.094 H 
ATOM      3  H   BGC d   1      18.084  -8.152  -2.508  0.00  0.00     0.091 H 
ATOM      4  H   BGC d   1      17.723  -6.255  -1.069  0.00  0.00     0.091 H 
ATOM      5  H   BGC d   1      20.028  -6.539  -1.790  0.00  0.00     0.090 H 
ATOM      6  C1  GAL d   1      20.382  -9.016  -1.111  0.00  0.00     0.159 C 
ATOM      7  C2  GAL d   1      18.932  -9.489  -1.072  0.00  0.00     0.110 C 
ATOM      8  C3  GAL d   1      17.970  -8.365  -1.435  0.00  0.00     0.099 C 
ATOM      9  C4  GAL d   1      18.296  -7.098  -0.655  0.00  0.00     0.090 C 
ATOM     10  C5  GAL d   1      19.788  -6.758  -0.739  0.00  0.00     0.089 C 
ATOM     11  O5  GAL d   1      20.557  -7.864  -0.311  0.00  0.00    -0.348 OA
ENDROOT
BRANCH   8  12
ATOM     12  O3  GAL d   1      16.614  -8.736  -1.192  0.00  0.00    -0.336 OA
BRANCH  12  13
ATOM     13  C2  SIA d   1      15.940  -8.886  -2.463  0.00  0.00     0.259 C 
ATOM     14  C3  SIA d   1      14.686  -9.369  -1.727  0.00  0.00     0.024 C 
ATOM     15  C4  SIA d   1      13.574  -9.731  -2.706  0.00  0.00     0.063 C 
ATOM     16  H   BGC d   1      14.331  -8.569  -1.061  0.00  0.00     0.045 H 
ATOM     17  H   BGC d   1      14.941 -10.257  -1.130  0.00  0.00     0.045 H 
ATOM     18  C5  SIA d   1      14.067 -10.722  -3.753  0.00  0.00     0.064 C 
ATOM     19  H   BGC d   1      13.235  -8.816  -3.214  0.00  0.00     0.086 H 
ATOM     20  C6  SIA d   1      15.404 -10.299  -4.373  0.00  0.00     0.091 C 
ATOM     21  H   BGC d   1      14.207 -11.699  -3.268  0.00  0.00     0.080 H 
ATOM     22  O6  SIA d   1      16.360  -9.904  -3.376  0.00  0.00    -0.336 OA
ATOM     23  H   BGC d   1      15.214  -9.439  -5.032  0.00  0.00     0.090 H 
BRANCH  13  24
ATOM     24  C1  SIA d   1      15.676  -7.552  -3.143  0.00  0.00     0.239 C 
ATOM     25  O1A SIA d   1      16.263  -7.290  -4.216  0.00  0.00    -0.644 OA
ATOM     26  O1B SIA d   1      14.884  -6.747  -2.602  0.00  0.00    -0.644 OA
ENDBRANCH  13  24
BRANCH  15  27
ATOM     27  O4  SIA d   1      12.476 -10.306  -1.986  0.00  0.00    -0.393 OA
ATOM     28  H   BGC d   1      11.772 -10.505  -2.591  0.00  0.00     0.210 HD
ENDBRANCH  15  27
BRANCH  18  29
ATOM     29  N5  SIA d   1      13.058 -10.853  -4.793  0.00  0.00    -0.352 N 
ATOM     30  C10 SIA d   1      12.136 -11.819  -4.802  0.00  0.00     0.214 C 
ATOM     31  O10 SIA d   1      12.057 -12.680  -3.940  0.00  0.00    -0.274 OA
ATOM     32  H   BGC d   1      13.055 -10.186  -5.538  0.00  0.00     0.163 HD
BRANCH  30  33
ATOM     33  C11 SIA d   1      11.184 -11.780  -5.962  0.00  0.00    -0.003 C 
ATOM     34  H   BGC d   1      10.469 -12.612  -5.878  0.00  0.00     0.040 H 
ATOM     35  H   BGC d   1      11.747 -11.875  -6.902  0.00  0.00     0.040 H 
ATOM     36  H   BGC d   1      10.638 -10.825  -5.956  0.00  0.00     0.040 H 
ENDBRANCH  30  33
ENDBRANCH  18  29
BRANCH  20  37
ATOM     37  C7  SIA d   1      16.012 -11.429  -5.209  0.00  0.00     0.089 C 
ATOM     38  H   BGC d   1      15.313 -11.667  -6.024  0.00  0.00     0.091 H 
BRANCH  37  39
ATOM     39  C8  SIA d   1      17.351 -11.018  -5.837  0.00  0.00     0.083 C 
ATOM     40  H   BGC d   1      17.555  -9.975  -5.555  0.00  0.00     0.090 H 
BRANCH  39  41
ATOM     41  C9  SIA d   1      18.527 -11.878  -5.372  0.00  0.00     0.043 C 
ATOM     42  H   BGC d   1      18.575 -11.865  -4.273  0.00  0.00     0.078 H 
ATOM     43  H   BGC d   1      19.461 -11.470  -5.785  0.00  0.00     0.078 H 
BRANCH  41  44
ATOM     44  O9  SIA d   1      18.361 -13.228  -5.822  0.00  0.00    -0.398 OA
ATOM     45  H   BGC d   1      17.555 -13.583  -5.465  0.00  0.00     0.209 HD
ENDBRANCH  41  44
ENDBRANCH  39  41
BRANCH  39  46
ATOM     46  O8  SIA d   1      17.250 -11.106  -7.264  0.00  0.00    -0.391 OA
ATOM     47  H   BGC d   1      17.107 -12.011  -7.515  0.00  0.00     0.210 HD
ENDBRANCH  39  46
ENDBRANCH  37  39
BRANCH  37  48
ATOM     48  O7  SIA d   1      16.174 -12.599  -4.395  0.00  0.00    -0.390 OA
ATOM     49  H   BGC d   1      16.495 -13.314  -4.931  0.00  0.00     0.210 HD
ENDBRANCH  37  48
ENDBRANCH  20  37
ENDBRANCH  12  13
ENDBRANCH   8  12
BRANCH   7  50
ATOM     50  O2  GAL d   1      18.777 -10.556  -1.984  0.00  0.00    -0.388 OA
ATOM     51  H   BGC d   1      17.884 -10.878  -1.944  0.00  0.00     0.210 HD
ENDBRANCH   7  50
BRANCH   9  52
ATOM     52  O4  GAL d   1      17.891  -7.332   0.674  0.00  0.00    -0.390 OA
ATOM     53  H   BGC d   1      16.964  -7.539   0.690  0.00  0.00     0.210 HD
ENDBRANCH   9  52
BRANCH   6  54
ATOM     54  O4  BGC d   1      21.203 -10.100  -0.648  0.00  0.00    -0.348 OA
BRANCH  54  55
ATOM     55  C4  BGC d   1      22.604  -9.838  -0.806  0.00  0.00     0.096 C 
ATOM     56  C3  BGC d   1      23.326 -10.177   0.497  0.00  0.00     0.092 C 
ATOM     57  C2  BGC d   1      24.840 -10.106   0.329  0.00  0.00     0.110 C 
ATOM     58  H   BGC d   1      23.053 -11.204   0.783  0.00  0.00     0.091 H 
ATOM     59  C1  BGC d   1      25.286 -10.905  -0.890  0.00  0.00     0.156 C 
ATOM     60  H   BGC d   1      25.134  -9.055   0.195  0.00  0.00     0.094 H 
ATOM     61  O5  BGC d   1      24.568 -10.461  -2.043  0.00  0.00    -0.349 OA
ATOM     62  H   BGC d   1      25.083 -11.973  -0.721  0.00  0.00     0.133 H 
ATOM     63  C5  BGC d   1      23.165 -10.693  -1.945  0.00  0.00     0.089 C 
ATOM     64  H   BGC d   1      22.988 -11.751  -1.702  0.00  0.00     0.090 H 
ATOM     65  H   BGC d   1      22.753  -8.774  -1.042  0.00  0.00     0.091 H 
BRANCH  56  66
ATOM     66  O3  BGC d   1      22.929  -9.286   1.550  0.00  0.00    -0.390 OA
ATOM     67  H   BGC d   1      23.143  -8.393   1.305  0.00  0.00     0.210 HD
ENDBRANCH  56  66
BRANCH  57  68
ATOM     68  O2  BGC d   1      25.483 -10.630   1.499  0.00  0.00    -0.388 OA
ATOM     69  H   BGC d   1      26.425 -10.560   1.399  0.00  0.00     0.210 HD
ENDBRANCH  57  68
BRANCH  59  70
ATOM     70  O1  BGC d   1      26.690 -10.715  -1.101  0.00  0.00    -0.369 OA
ATOM     71  H   BGC d   1      27.167 -11.010  -0.334  0.00  0.00     0.212 HD
ENDBRANCH  59  70
BRANCH  63  72
ATOM     72  C6  BGC d   1      22.527 -10.399  -3.300  0.00  0.00     0.043 C 
ATOM     73  H   BGC d   1      21.446 -10.594  -3.242  0.00  0.00     0.078 H 
ATOM     74  H   BGC d   1      22.977 -11.053  -4.062  0.00  0.00     0.078 H 
BRANCH  72  75
ATOM     75  O6  BGC d   1      22.741  -9.030  -3.666  0.00  0.00    -0.398 OA
ATOM     76  H   BGC d   1      23.674  -8.860  -3.719  0.00  0.00     0.209 HD
ENDBRANCH  72  75
ENDBRANCH  63  72
ENDBRANCH  54  55
ENDBRANCH   6  54
BRANCH  10  77
ATOM     77  C6  GAL d   1      20.185  -5.546   0.109  0.00  0.00     0.043 C 
ATOM     78  H   BGC d   1      19.916  -5.729   1.160  0.00  0.00     0.078 H 
ATOM     79  H   BGC d   1      19.655  -4.653  -0.255  0.00  0.00     0.078 H 
BRANCH  77  80
ATOM     80  O6  GAL d   1      21.584  -5.341   0.007  0.00  0.00    -0.398 OA
ATOM     81  H   BGC d   1      22.040  -6.113   0.321  0.00  0.00     0.209 HD
ENDBRANCH  77  80
ENDBRANCH  10  77
TORSDOF 23
