REMARK  2 active torsions:
REMARK  status: ('A' for Active; 'I' for Inactive)
REMARK    1  A    between atoms: C1_1  and  C10_10 
REMARK    2  A    between atoms: C14_14  and  C16_16 
ROOT
ATOM      1  C1  1WP d   1      23.399  14.351   8.659  0.00  0.00     0.087 C 
ATOM      2  C2  1WP d   1      23.081  15.464   7.621  0.00  0.00     0.076 C 
ATOM      3  C3  1WP d   1      22.337  14.953   6.369  0.00  0.00    -0.038 C 
ATOM      4  C4  1WP d   1      21.136  14.035   6.678  0.00  0.00    -0.063 C 
ATOM      5  C5  1WP d   1      21.239  13.157   7.951  0.00  0.00    -0.062 C 
ATOM      6  C6  1WP d   1      22.699  12.984   8.451  0.00  0.00    -0.035 C 
ATOM      7  N7  1WP d   1      22.816  14.857   9.882  0.00  0.00    -0.341 N 
ATOM      8  C8  1WP d   1      22.135  15.969   9.621  0.00  0.00     0.214 C 
ATOM      9  O9  1WP d   1      22.139  16.321   8.311  0.00  0.00    -0.314 OA
ATOM     10  N17 1WP d   1      21.282  16.558  10.449  0.00  0.00    -0.365 N 
ATOM     11  H1  1WP d   1      23.998  15.998   7.330  0.00  0.00     0.088 H 
ATOM     12  H2  1WP d   1      23.051  14.390   5.749  0.00  0.00     0.036 H 
ATOM     13  H3  1WP d   1      21.970  15.824   5.806  0.00  0.00     0.036 H 
ATOM     14  H4  1WP d   1      21.002  13.361   5.819  0.00  0.00     0.033 H 
ATOM     15  H5  1WP d   1      20.247  14.674   6.785  0.00  0.00     0.033 H 
ATOM     16  H6  1WP d   1      20.825  12.163   7.726  0.00  0.00     0.033 H 
ATOM     17  H7  1WP d   1      20.648  13.628   8.751  0.00  0.00     0.033 H 
ATOM     18  H8  1WP d   1      22.686  12.441   9.407  0.00  0.00     0.037 H 
ATOM     19  H9  1WP d   1      23.264  12.403   7.707  0.00  0.00     0.037 H 
ATOM     20  H10 1WP d   1      22.913  14.423  10.811  0.00  0.00     0.164 HD
ATOM     21  H15 1WP d   1      20.797  17.420  10.162  0.00  0.00     0.159 HD
ATOM     22  H16 1WP d   1      21.104  16.153  11.379  0.00  0.00     0.159 HD
ENDROOT
BRANCH   1  23
ATOM     23  C10 1WP d   1      24.930  14.291   8.790  0.00  0.00    -0.027 A 
ATOM     24  C11 1WP d   1      25.683  13.150   8.412  0.00  0.00    -0.074 A 
ATOM     25  C12 1WP d   1      27.094  13.151   8.529  0.00  0.00    -0.082 A 
ATOM     26  H11 1WP d   1      25.175  12.271   8.031  0.00  0.00     0.084 H 
ATOM     27  C13 1WP d   1      27.784  14.287   9.015  0.00  0.00    -0.072 A 
ATOM     28  H12 1WP d   1      27.654  12.268   8.242  0.00  0.00     0.083 H 
ATOM     29  C14 1WP d   1      27.043  15.435   9.397  0.00  0.00    -0.024 A 
ATOM     30  H13 1WP d   1      28.865  14.280   9.094  0.00  0.00     0.084 H 
ATOM     31  C15 1WP d   1      25.627  15.424   9.277  0.00  0.00    -0.064 A 
ATOM     32  H14 1WP d   1      25.066  16.305   9.566  0.00  0.00     0.085 H 
BRANCH  29  33
ATOM     33  C16 1WP d   1      27.653  16.629   9.841  0.00  0.00    -0.007 A 
ATOM     34  C18 1WP d   1      28.856  17.095   9.250  0.00  0.00     0.013 A 
ATOM     35  N19 1WP d   1      29.436  18.265   9.610  0.00  0.00    -0.271 NA
ATOM     36  H17 1WP d   1      29.328  16.493   8.482  0.00  0.00     0.116 H 
ATOM     37  C20 1WP d   1      28.850  19.054  10.534  0.00  0.00     0.023 A 
ATOM     38  C21 1WP d   1      27.633  18.690  11.156  0.00  0.00     0.052 A 
ATOM     39  H18 1WP d   1      29.324  19.990  10.807  0.00  0.00     0.117 H 
ATOM     40  C22 1WP d   1      27.023  17.463  10.802  0.00  0.00    -0.048 A 
ATOM     41 CL1  1WP d   1      26.922  19.736  12.310  0.00  0.00    -0.083 Cl
ATOM     42  H19 1WP d   1      26.087  17.164  11.259  0.00  0.00     0.087 H 
ENDBRANCH  29  33
ENDBRANCH   1  23
TORSDOF 2
