REMARK  5 active torsions:
REMARK  status: ('A' for Active; 'I' for Inactive)
REMARK    1  A    between atoms: O4_1  and  C4_2 
REMARK    2  A    between atoms: C5_3  and  C6_4 
REMARK    3  A    between atoms: C3_5  and  O3_6 
REMARK    4  A    between atoms: C2_7  and  O2_8 
REMARK    5  A    between atoms: C1_9  and  O1_11 
ROOT
ATOM      1  C4  XXR d   1      12.641  39.258  -1.155  0.00  0.00     0.087 C 
ATOM      2  C5  XXR d   1      12.694  38.317  -2.360  0.00  0.00     0.065 C 
ATOM      3  C3  XXR d   1      11.332  40.030  -1.117  0.00  0.00     0.092 C 
ATOM      4  C2  XXR d   1      10.198  38.998  -1.052  0.00  0.00     0.110 C 
ATOM      5  C1  XXR d   1      10.324  38.078  -2.279  0.00  0.00     0.156 C 
ATOM      6  O5  XXR d   1      11.587  37.455  -2.398  0.00  0.00    -0.351 OA
ATOM      7  H   XXR d   1      12.728  38.667  -0.231  0.00  0.00     0.091 H 
ATOM      8  H   XXR d   1      12.740  38.920  -3.279  0.00  0.00     0.086 H 
ATOM      9  H   XXR d   1      11.234  40.573  -2.069  0.00  0.00     0.091 H 
ATOM     10  H   XXR d   1       9.241  39.537  -1.107  0.00  0.00     0.094 H 
ATOM     11  H   XXR d   1       9.521  37.327  -2.237  0.00  0.00     0.133 H 
ENDROOT
BRANCH   2  12
ATOM     12  C6  XXR d   1      13.889  37.373  -2.285  0.00  0.00    -0.050 C 
ATOM     13  H   XXR d   1      13.892  36.715  -3.166  0.00  0.00     0.031 H 
ATOM     14  H   XXR d   1      13.818  36.763  -1.372  0.00  0.00     0.031 H 
ATOM     15  H   XXR d   1      14.819  37.960  -2.263  0.00  0.00     0.031 H 
ENDBRANCH   2  12
BRANCH   1  16
ATOM     16  O4  XXR d   1      13.742  40.147  -1.248  0.00  0.00    -0.390 OA
ATOM     17  H   XXR d   1      13.730  40.743  -0.508  0.00  0.00     0.210 HD
ENDBRANCH   1  16
BRANCH   3  18
ATOM     18  O3  XXR d   1      11.287  41.030  -0.067  0.00  0.00    -0.390 OA
ATOM     19  H   XXR d   1      11.395  40.607   0.777  0.00  0.00     0.210 HD
ENDBRANCH   3  18
BRANCH   5  20
ATOM     20  O1  XXR d   1      10.279  38.810  -3.497  0.00  0.00    -0.369 OA
ATOM     21  H   XXR d   1      10.341  38.208  -4.229  0.00  0.00     0.212 HD
ENDBRANCH   5  20
BRANCH   4  22
ATOM     22  O2  XXR d   1      10.192  38.218   0.150  0.00  0.00    -0.388 OA
ATOM     23  H   XXR d   1      10.093  38.794   0.899  0.00  0.00     0.210 HD
ENDBRANCH   4  22
TORSDOF 5
