REMARK  6 active torsions:
REMARK  status: ('A' for Active; 'I' for Inactive)
REMARK    1  A    between atoms: C9_5  and  B_7 
REMARK    2  A    between atoms: C10_6  and  C18_11 
REMARK    3  A    between atoms: B_7  and  O21_14 
REMARK    4  A    between atoms: B_7  and  O22_15 
REMARK    5  A    between atoms: C18_11  and  C19_12 
REMARK    6  A    between atoms: C19_12  and  C20_13 
ROOT
ATOM      1  C16 2GK d   1      -8.732  51.672  12.134  0.00  0.00    -0.082 A 
ATOM      2  C15 2GK d   1      -7.532  50.934  11.983  0.00  0.00    -0.082 A 
ATOM      3  C14 2GK d   1      -6.309  51.413  12.442  0.00  0.00    -0.071 A 
ATOM      4  C12 2GK d   1      -7.511  53.447  13.252  0.00  0.00     0.015 A 
ATOM      5  C9  2GK d   1      -5.559  54.717  14.211  0.00  0.00     0.021 A 
ATOM      6  C10 2GK d   1      -5.119  53.455  13.692  0.00  0.00    -0.017 A 
ATOM      7  C11 2GK d   1      -6.301  52.698  13.115  0.00  0.00    -0.009 A 
ATOM      8  S13 2GK d   1      -7.227  54.931  14.029  0.00  0.00    -0.100 SA
ATOM      9  C17 2GK d   1      -8.735  52.901  12.764  0.00  0.00    -0.066 A 
ATOM     10  H1  2GK d   1      -9.661  51.266  11.750  0.00  0.00     0.083 H 
ATOM     11  H2  2GK d   1      -7.568  49.967  11.495  0.00  0.00     0.083 H 
ATOM     12  H3  2GK d   1      -5.395  50.847  12.302  0.00  0.00     0.084 H 
ATOM     13  H5  2GK d   1      -9.663  53.448  12.887  0.00  0.00     0.085 H 
ENDROOT
BRANCH   6  14
ATOM     14  C18 2GK d   1      -3.808  52.855  13.605  0.00  0.00    -0.066 C 
ATOM     15  H6  2GK d   1      -3.629  51.828  13.921  0.00  0.00     0.085 H 
BRANCH  14  16
ATOM     16  C19 2GK d   1      -2.835  53.611  13.124  0.00  0.00    -0.009 C 
ATOM     17  H7  2GK d   1      -2.884  54.694  13.025  0.00  0.00     0.094 H 
BRANCH  16  18
ATOM     18  C20 2GK d   1      -1.691  52.798  12.746  0.00  0.00     0.198 C 
ATOM     19  O23 2GK d   1      -0.756  53.359  12.132  0.00  0.00    -0.645 OA
ATOM     20  O24 2GK d   1      -1.733  51.550  12.916  0.00  0.00    -0.645 OA
ENDBRANCH  16  18
ENDBRANCH  14  16
ENDBRANCH   6  14
BRANCH   5  21
ATOM     21  B   2GK d   1      -4.626  55.869  14.846  0.00  0.00     0.537 B 
BRANCH  21  22
ATOM     22  O21 2GK d   1      -3.856  56.336  13.636  0.00  0.00    -0.433 OA
ATOM     23  H8  2GK d   1      -4.465  56.612  12.961  0.00  0.00     0.185 HD
ENDBRANCH  21  22
BRANCH  21  24
ATOM     24  O22 2GK d   1      -5.538  56.945  15.473  0.00  0.00    -0.433 OA
ATOM     25  H11 2GK d   1      -5.987  56.578  16.226  0.00  0.00     0.185 HD
ENDBRANCH  21  24
ENDBRANCH   5  21
TORSDOF 6
