REMARK WARNING: 32 MAX_TORS EXCEEDED!!!
REMARK  46 active torsions:
REMARK  status: ('A' for Active; 'I' for Inactive)
REMARK    1  A    between atoms: N_1  and  CA_2 
REMARK    2  A    between atoms: CA_2  and  C_3 
REMARK    3  A    between atoms: CA_2  and  CB_5 
REMARK       I    between atoms: C_3  and  N_6 
REMARK    4  A    between atoms: N_6  and  CA_7 
REMARK    5  A    between atoms: CA_7  and  C_8 
REMARK    6  A    between atoms: CA_7  and  CB_10 
REMARK       I    between atoms: C_8  and  N_13 
REMARK    7  A    between atoms: CB_10  and  OG1_11 
REMARK    8  A    between atoms: CB_10  and  CG2_12 
REMARK    9  A    between atoms: CA_14  and  C_15 
REMARK       I    between atoms: C_15  and  N_20 
REMARK   10  A    between atoms: N_20  and  CA_21 
REMARK   11  A    between atoms: CA_21  and  C_22 
REMARK   12  A    between atoms: CA_21  and  CB_24 
REMARK       I    between atoms: C_22  and  N_27 
REMARK   13  A    between atoms: CB_24  and  CG_25 
REMARK   14  A    between atoms: CG_25  and  CD_26 
REMARK   15  A    between atoms: N_27  and  CA_28 
REMARK   16  A    between atoms: CA_28  and  C_29 
REMARK   17  A    between atoms: CA_28  and  CB_31 
REMARK       I    between atoms: C_29  and  N_35 
REMARK   18  A    between atoms: CB_31  and  CG_32 
REMARK   19  A    between atoms: CG_32  and  CD1_33 
REMARK   20  A    between atoms: CG_32  and  CD2_34 
REMARK   21  A    between atoms: CA_36  and  C_37 
REMARK       I    between atoms: C_37  and  N_42 
REMARK   22  A    between atoms: N_42  and  CA_43 
REMARK   23  A    between atoms: CA_43  and  C_44 
REMARK   24  A    between atoms: CA_43  and  CB_46 
REMARK       I    between atoms: C_44  and  N_49 
REMARK   25  A    between atoms: CB_46  and  OG1_47 
REMARK   26  A    between atoms: CB_46  and  CG2_48 
REMARK   27  A    between atoms: N_49  and  CA_50 
REMARK   28  A    between atoms: CA_50  and  C_51 
REMARK   29  A    between atoms: CA_50  and  CB_53 
REMARK       I    between atoms: C_51  and  N_57 
REMARK   30  A    between atoms: CB_53  and  CG_54 
REMARK   31  A    between atoms: CG_54  and  CD1_55 
REMARK   32  A    between atoms: CG_54  and  CD2_56 
REMARK   33  A    between atoms: CA_58  and  C_59 
REMARK       I    between atoms: C_59  and  N_64 
REMARK   34  A    between atoms: N_64  and  CA_65 
REMARK   35  A    between atoms: CA_65  and  C_66 
REMARK   36  A    between atoms: CA_65  and  CB_68 
REMARK       I    between atoms: C_66  and  N_71 
REMARK   37  A    between atoms: CB_68  and  CG_69 
REMARK   38  A    between atoms: CG_69  and  CD_70 
REMARK   39  A    between atoms: N_71  and  CA_72 
REMARK   40  A    between atoms: CA_72  and  C_73 
REMARK   41  A    between atoms: CA_72  and  CB_75 
REMARK       I    between atoms: C_73  and  N_76 
REMARK   42  A    between atoms: N_76  and  CA_77 
REMARK   43  A    between atoms: CA_77  and  C_78 
REMARK   44  A    between atoms: CA_77  and  CB_80 
REMARK       I    between atoms: C_78  and  N_83 
REMARK   45  A    between atoms: CB_80  and  CG1_81 
REMARK   46  A    between atoms: CB_80  and  CG2_82 
ROOT
ATOM      1  CA  THR d   1      15.694  -0.697   0.325  0.00  0.00     0.113 C 
ATOM      2  H50 THR d   1      15.380   0.285   0.708  0.00  0.00     0.091 H 
ENDROOT
BRANCH   1   3
ATOM      3  N   THR d   1      16.120  -1.533   1.438  0.00  0.00    -0.344 N 
ATOM      4  C   PRO d   1      15.370  -1.748   2.516  0.00  0.00     0.241 C 
ATOM      5  O   PRO d   1      14.316  -1.133   2.738  0.00  0.00    -0.271 OA
ATOM      6  H49 THR d   1      17.020  -1.967   1.390  0.00  0.00     0.163 HD
BRANCH   4   7
ATOM      7  CA  PRO d   1      15.891  -2.806   3.495  0.00  0.00     0.091 C 
ATOM      8  N   PRO d   1      15.585  -2.530   4.911  0.00  0.00    -0.337 N 
ATOM      9  C   LEU d   1      16.104  -1.464   5.498  0.00  0.00     0.243 C 
ATOM     10  CD  PRO d   1      14.616  -3.482   5.479  0.00  0.00    -0.001 C 
ATOM     11  O   LEU d   1      16.936  -0.783   4.966  0.00  0.00    -0.271 OA
ATOM     12  CG  PRO d   1      14.079  -4.176   4.274  0.00  0.00    -0.048 C 
ATOM     13  H47 PRO d   1      13.816  -2.956   6.021  0.00  0.00     0.064 H 
ATOM     14  H48 PRO d   1      15.111  -4.193   6.156  0.00  0.00     0.064 H 
ATOM     15  CB  PRO d   1      15.177  -4.122   3.244  0.00  0.00    -0.036 C 
ATOM     16  H45 PRO d   1      13.829  -5.220   4.513  0.00  0.00     0.035 H 
ATOM     17  H46 PRO d   1      13.181  -3.660   3.904  0.00  0.00     0.035 H 
ATOM     18  H43 PRO d   1      15.869  -4.967   3.373  0.00  0.00     0.036 H 
ATOM     19  H44 PRO d   1      14.755  -4.145   2.228  0.00  0.00     0.036 H 
ATOM     20  H42 PRO d   1      16.977  -2.912   3.357  0.00  0.00     0.087 H 
BRANCH   9  21
ATOM     21  CA  LEU d   1      15.643  -1.137   6.905  0.00  0.00     0.090 C 
ATOM     22  H32 LEU d   1      15.364  -2.061   7.433  0.00  0.00     0.087 H 
BRANCH  21  23
ATOM     23  N   LEU d   1      16.774  -0.515   7.549  0.00  0.00    -0.346 N 
ATOM     24  C   ARG d   1      17.614  -1.222   8.257  0.00  0.00     0.241 C 
ATOM     25  O   ARG d   1      17.464  -2.409   8.459  0.00  0.00    -0.271 OA
ATOM     26  H31 LEU d   1      16.917   0.470   7.452  0.00  0.00     0.163 HD
BRANCH  24  27
ATOM     27  CA  ARG d   1      18.750  -0.467   8.850  0.00  0.00     0.089 C 
ATOM     28  H23 ARG d   1      18.349   0.480   9.241  0.00  0.00     0.087 H 
BRANCH  27  29
ATOM     29  N   ARG d   1      19.283  -1.213   9.984  0.00  0.00    -0.346 N 
ATOM     30  C   PRO d   1      19.514  -0.606  11.131  0.00  0.00     0.241 C 
ATOM     31  O   PRO d   1      19.351   0.610  11.269  0.00  0.00    -0.271 OA
ATOM     32  H22 ARG d   1      19.474  -2.190   9.891  0.00  0.00     0.163 HD
BRANCH  30  33
ATOM     33  CA  PRO d   1      20.094  -1.470  12.291  0.00  0.00     0.091 C 
ATOM     34  N   PRO d   1      20.968  -0.661  13.125  0.00  0.00    -0.337 N 
ATOM     35  C   THR d   1      22.002  -0.121  12.452  0.00  0.00     0.245 C 
ATOM     36  CD  PRO d   1      20.580  -0.635  14.544  0.00  0.00    -0.001 C 
ATOM     37  O   THR d   1      22.282  -0.450  11.278  0.00  0.00    -0.271 OA
ATOM     38  CG  PRO d   1      19.255  -1.324  14.560  0.00  0.00    -0.048 C 
ATOM     39  H20 PRO d   1      20.489   0.399  14.907  0.00  0.00     0.064 H 
ATOM     40  H21 PRO d   1      21.312  -1.177  15.161  0.00  0.00     0.064 H 
ATOM     41  CB  PRO d   1      19.022  -1.984  13.261  0.00  0.00    -0.036 C 
ATOM     42  H18 PRO d   1      19.245  -2.078  15.361  0.00  0.00     0.035 H 
ATOM     43  H19 PRO d   1      18.461  -0.585  14.742  0.00  0.00     0.035 H 
ATOM     44  H16 PRO d   1      19.107  -3.075  13.372  0.00  0.00     0.036 H 
ATOM     45  H17 PRO d   1      18.020  -1.730  12.884  0.00  0.00     0.036 H 
ATOM     46  H15 PRO d   1      20.646  -2.318  11.859  0.00  0.00     0.087 H 
BRANCH  35  47
ATOM     47  CA  THR d   1      22.883   0.879  13.198  0.00  0.00     0.114 C 
ATOM     48  H9  THR d   1      22.786   0.743  14.285  0.00  0.00     0.091 H 
BRANCH  47  49
ATOM     49  N   THR d   1      24.238   0.540  12.772  0.00  0.00    -0.344 N 
ATOM     50  C   HIS d   1      24.675  -0.706  12.938  0.00  0.00     0.248 C 
ATOM     51  O   HIS d   1      24.144  -1.502  13.752  0.00  0.00    -0.271 OA
ATOM     52  H8  THR d   1      24.829   1.234  12.361  0.00  0.00     0.163 HD
BRANCH  50  53
ATOM     53  CA  HIS d   1      25.880  -1.124  12.086  0.00  0.00     0.172 C 
ATOM     54  H4  HIS d   1      26.549  -0.258  11.977  0.00  0.00     0.098 H 
BRANCH  53  55
ATOM     55  N   HIS d   1      26.639  -2.231  12.754  0.00  0.00    -0.067 N 
ATOM     56  H1  HIS d   1      27.426  -2.492  12.181  0.00  0.00     0.275 HD
ATOM     57  H2  HIS d   1      26.033  -3.027  12.876  0.00  0.00     0.275 HD
ATOM     58  H3  HIS d   1      26.968  -1.918  13.654  0.00  0.00     0.275 HD
ENDBRANCH  53  55
BRANCH  53  59
ATOM     59  CB  HIS d   1      25.410  -1.565  10.678  0.00  0.00    -0.042 C 
ATOM     60  H5  HIS d   1      24.856  -0.743  10.202  0.00  0.00     0.030 H 
ATOM     61  H6  HIS d   1      24.755  -2.444  10.769  0.00  0.00     0.030 H 
ATOM     62  H7  HIS d   1      26.285  -1.821  10.063  0.00  0.00     0.030 H 
ENDBRANCH  53  59
ENDBRANCH  50  53
ENDBRANCH  47  49
BRANCH  47  63
ATOM     63  CB  THR d   1      22.477   2.320  12.843  0.00  0.00     0.060 C 
ATOM     64  H10 THR d   1      22.321   2.392  11.757  0.00  0.00     0.086 H 
BRANCH  63  65
ATOM     65  OG1 THR d   1      23.524   3.206  13.235  0.00  0.00    -0.393 OA
ATOM     66  H11 THR d   1      23.280   4.098  13.019  0.00  0.00     0.210 HD
ENDBRANCH  63  65
BRANCH  63  67
ATOM     67  CG2 THR d   1      21.170   2.732  13.572  0.00  0.00    -0.050 C 
ATOM     68  H12 THR d   1      20.907   3.764  13.298  0.00  0.00     0.031 H 
ATOM     69  H13 THR d   1      21.321   2.668  14.660  0.00  0.00     0.031 H 
ATOM     70  H14 THR d   1      20.355   2.055  13.275  0.00  0.00     0.031 H 
ENDBRANCH  63  67
ENDBRANCH  47  63
ENDBRANCH  35  47
ENDBRANCH  30  33
ENDBRANCH  27  29
BRANCH  27  71
ATOM     71  CB  ARG d   1      19.828  -0.094   7.801  0.00  0.00    -0.038 C 
ATOM     72  H24 ARG d   1      20.595   0.507   8.312  0.00  0.00     0.036 H 
ATOM     73  H25 ARG d   1      19.341   0.516   7.026  0.00  0.00     0.036 H 
BRANCH  71  74
ATOM     74  CG  ARG d   1      20.537  -1.247   7.101  0.00  0.00    -0.066 C 
ATOM     75  H26 ARG d   1      19.971  -1.518   6.197  0.00  0.00     0.032 H 
ATOM     76  H27 ARG d   1      20.575  -2.110   7.783  0.00  0.00     0.032 H 
BRANCH  74  77
ATOM     77  CD  ARG d   1      21.971  -0.867   6.697  0.00  0.00    -0.076 C 
ATOM     78  H28 ARG d   1      22.449  -1.722   6.196  0.00  0.00     0.027 H 
ATOM     79  H29 ARG d   1      22.546  -0.600   7.596  0.00  0.00     0.027 H 
ATOM     80  H30 ARG d   1      21.943  -0.008   6.010  0.00  0.00     0.027 H 
ENDBRANCH  74  77
ENDBRANCH  71  74
ENDBRANCH  27  71
ENDBRANCH  24  27
ENDBRANCH  21  23
BRANCH  21  81
ATOM     81  CB  LEU d   1      14.455  -0.191   6.901  0.00  0.00    -0.035 C 
ATOM     82  H33 LEU d   1      13.677  -0.607   6.243  0.00  0.00     0.037 H 
ATOM     83  H34 LEU d   1      14.783   0.783   6.510  0.00  0.00     0.037 H 
BRANCH  81  84
ATOM     84  CG  LEU d   1      13.858   0.017   8.290  0.00  0.00    -0.059 C 
ATOM     85  H35 LEU d   1      14.687   0.128   9.004  0.00  0.00     0.038 H 
BRANCH  84  86
ATOM     86  CD1 LEU d   1      13.022   1.259   8.349  0.00  0.00    -0.073 C 
ATOM     87  H36 LEU d   1      12.610   1.376   9.362  0.00  0.00     0.028 H 
ATOM     88  H37 LEU d   1      12.198   1.181   7.625  0.00  0.00     0.028 H 
ATOM     89  H38 LEU d   1      13.645   2.132   8.104  0.00  0.00     0.028 H 
ENDBRANCH  84  86
BRANCH  84  90
ATOM     90  CD2 LEU d   1      13.037  -1.183   8.698  0.00  0.00    -0.073 C 
ATOM     91  H39 LEU d   1      13.661  -2.087   8.651  0.00  0.00     0.028 H 
ATOM     92  H40 LEU d   1      12.182  -1.292   8.015  0.00  0.00     0.028 H 
ATOM     93  H41 LEU d   1      12.670  -1.044   9.726  0.00  0.00     0.028 H 
ENDBRANCH  84  90
ENDBRANCH  81  84
ENDBRANCH  21  81
ENDBRANCH   9  21
ENDBRANCH   4   7
ENDBRANCH   1   3
BRANCH   1  94
ATOM     94  C   THR d   1      14.521  -1.350  -0.395  0.00  0.00     0.243 C 
ATOM     95  O   THR d   1      14.612  -2.510  -0.827  0.00  0.00    -0.271 OA
ATOM     96  N   LEU d   1      13.404  -0.641  -0.518  0.00  0.00    -0.346 N 
ATOM     97  H56 LEU d   1      13.332   0.258  -0.087  0.00  0.00     0.163 HD
BRANCH  96  98
ATOM     98  CA  LEU d   1      12.272  -1.181  -1.290  0.00  0.00     0.090 C 
ATOM     99  H57 LEU d   1      12.310  -2.279  -1.226  0.00  0.00     0.087 H 
BRANCH  98 100
ATOM    100  C   LEU d   1      12.349  -0.777  -2.791  0.00  0.00     0.243 C 
ATOM    101  O   LEU d   1      13.026   0.218  -3.143  0.00  0.00    -0.271 OA
ATOM    102  N   PRO d   1      11.658  -1.526  -3.680  0.00  0.00    -0.337 N 
ATOM    103  CA  PRO d   1      11.640  -1.113  -5.094  0.00  0.00     0.091 C 
ATOM    104  CD  PRO d   1      10.954  -2.813  -3.472  0.00  0.00    -0.001 C 
ATOM    105  CB  PRO d   1      10.637  -2.104  -5.737  0.00  0.00    -0.036 C 
ATOM    106  H67 PRO d   1      12.642  -1.236  -5.531  0.00  0.00     0.087 H 
ATOM    107  CG  PRO d   1      10.759  -3.327  -4.890  0.00  0.00    -0.048 C 
ATOM    108  H68 PRO d   1      10.912  -2.320  -6.780  0.00  0.00     0.036 H 
ATOM    109  H69 PRO d   1       9.613  -1.704  -5.703  0.00  0.00     0.036 H 
ATOM    110  H70 PRO d   1      11.624  -3.929  -5.204  0.00  0.00     0.035 H 
ATOM    111  H71 PRO d   1       9.845  -3.935  -4.957  0.00  0.00     0.035 H 
ATOM    112  H72 PRO d   1       9.987  -2.659  -2.971  0.00  0.00     0.064 H 
ATOM    113  H73 PRO d   1      11.567  -3.508  -2.880  0.00  0.00     0.064 H 
BRANCH 103 114
ATOM    114  C   PRO d   1      11.182   0.335  -5.326  0.00  0.00     0.241 C 
ATOM    115  O   PRO d   1      10.212   0.802  -4.673  0.00  0.00    -0.271 OA
ATOM    116  N   LYS d   1      11.875   1.051  -6.223  0.00  0.00    -0.346 N 
ATOM    117  H74 LYS d   1      12.735   0.690  -6.585  0.00  0.00     0.163 HD
BRANCH 116 118
ATOM    118  CA  LYS d   1      11.387   2.362  -6.683  0.00  0.00     0.089 C 
ATOM    119  H75 LYS d   1      10.880   2.838  -5.831  0.00  0.00     0.087 H 
BRANCH 118 120
ATOM    120  C   LYS d   1      10.332   2.190  -7.806  0.00  0.00     0.241 C 
ATOM    121  O   LYS d   1       9.727   3.171  -8.255  0.00  0.00    -0.271 OA
ATOM    122  N   ARG d   1      10.087   0.953  -8.244  0.00  0.00    -0.346 N 
ATOM    123  H83 ARG d   1      10.638   0.193  -7.898  0.00  0.00     0.163 HD
BRANCH 122 124
ATOM    124  CA  ARG d   1       9.034   0.686  -9.216  0.00  0.00     0.086 C 
ATOM    125  H84 ARG d   1       8.090   1.100  -8.832  0.00  0.00     0.086 H 
BRANCH 124 126
ATOM    126  C   ARG d   1       8.871  -0.820  -9.389  0.00  0.00     0.240 C 
ATOM    127  O   ARG d   1       9.843  -1.564  -9.319  0.00  0.00    -0.271 OA
ATOM    128  N   VAL d   1       7.627  -1.263  -9.573  0.00  0.00    -0.346 N 
ATOM    129  H88 VAL d   1       6.863  -0.649  -9.374  0.00  0.00     0.163 HD
BRANCH 128 130
ATOM    130  CA  VAL d   1       7.333  -2.629 -10.060  0.00  0.00     0.092 C 
ATOM    131  H89 VAL d   1       8.273  -3.061 -10.433  0.00  0.00     0.088 H 
BRANCH 130 132
ATOM    132  C   VAL d   1       6.334  -2.568 -11.234  0.00  0.00     0.243 C 
ATOM    133  O   VAL d   1       5.609  -1.583 -11.373  0.00  0.00    -0.271 OA
ATOM    134  N   PRO d   1       6.290  -3.621 -12.079  0.00  0.00    -0.350 N 
ATOM    135  CA  PRO d   1       5.316  -3.607 -13.187  0.00  0.00    -0.002 C 
ATOM    136  CD  PRO d   1       7.062  -4.881 -12.038  0.00  0.00    -0.002 C 
ATOM    137  CB  PRO d   1       5.732  -4.810 -14.035  0.00  0.00    -0.049 C 
ATOM    138  H97 PRO d   1       5.389  -2.674 -13.764  0.00  0.00     0.064 H 
ATOM    139  H98 PRO d   1       4.289  -3.726 -12.811  0.00  0.00     0.064 H 
ATOM    140  CG  PRO d   1       6.394  -5.743 -13.078  0.00  0.00    -0.049 C 
ATOM    141  H99 PRO d   1       6.434  -4.503 -14.824  0.00  0.00     0.035 H 
ATOM    142 0H10 PRO d   1       4.851  -5.285 -14.492  0.00  0.00     0.035 H 
ATOM    143 1H10 PRO d   1       7.142  -6.357 -13.601  0.00  0.00     0.035 H 
ATOM    144 2H10 PRO d   1       5.647  -6.398 -12.606  0.00  0.00     0.035 H 
ATOM    145 3H10 PRO d   1       7.000  -5.347 -11.043  0.00  0.00     0.064 H 
ATOM    146 4H10 PRO d   1       8.117  -4.703 -12.294  0.00  0.00     0.064 H 
ENDBRANCH 130 132
BRANCH 130 147
ATOM    147  CB  VAL d   1       6.802  -3.557  -8.940  0.00  0.00    -0.033 C 
ATOM    148  H90 VAL d   1       6.490  -4.502  -9.408  0.00  0.00     0.042 H 
BRANCH 147 149
ATOM    149  CG1 VAL d   1       7.917  -3.870  -7.951  0.00  0.00    -0.071 C 
ATOM    150  H91 VAL d   1       7.531  -4.529  -7.160  0.00  0.00     0.028 H 
ATOM    151  H92 VAL d   1       8.283  -2.934  -7.503  0.00  0.00     0.028 H 
ATOM    152  H93 VAL d   1       8.743  -4.372  -8.476  0.00  0.00     0.028 H 
ENDBRANCH 147 149
BRANCH 147 153
ATOM    153  CG2 VAL d   1       5.581  -2.968  -8.236  0.00  0.00    -0.071 C 
ATOM    154  H94 VAL d   1       4.798  -2.755  -8.978  0.00  0.00     0.028 H 
ATOM    155  H95 VAL d   1       5.866  -2.036  -7.725  0.00  0.00     0.028 H 
ATOM    156  H96 VAL d   1       5.200  -3.689  -7.498  0.00  0.00     0.028 H 
ENDBRANCH 147 153
ENDBRANCH 130 147
ENDBRANCH 128 130
ENDBRANCH 124 126
BRANCH 124 157
ATOM    157  CB  ARG d   1       9.344   1.360 -10.576  0.00  0.00    -0.049 C 
ATOM    158  H85 ARG d   1       8.534   1.141 -11.287  0.00  0.00     0.030 H 
ATOM    159  H86 ARG d   1      10.293   0.969 -10.971  0.00  0.00     0.030 H 
ATOM    160  H87 ARG d   1       9.425   2.448 -10.436  0.00  0.00     0.030 H 
ENDBRANCH 124 157
ENDBRANCH 122 124
ENDBRANCH 118 120
BRANCH 118 161
ATOM    161  CB  LYS d   1      12.542   3.301  -7.102  0.00  0.00    -0.038 C 
ATOM    162  H76 LYS d   1      12.147   4.040  -7.815  0.00  0.00     0.036 H 
ATOM    163  H77 LYS d   1      13.319   2.697  -7.593  0.00  0.00     0.036 H 
BRANCH 161 164
ATOM    164  CG  LYS d   1      13.185   4.056  -5.930  0.00  0.00    -0.066 C 
ATOM    165  H78 LYS d   1      14.001   3.440  -5.524  0.00  0.00     0.032 H 
ATOM    166  H79 LYS d   1      12.421   4.210  -5.154  0.00  0.00     0.032 H 
BRANCH 164 167
ATOM    167  CD  LYS d   1      13.759   5.425  -6.328  0.00  0.00    -0.076 C 
ATOM    168  H80 LYS d   1      14.202   5.908  -5.444  0.00  0.00     0.027 H 
ATOM    169  H81 LYS d   1      12.953   6.059  -6.727  0.00  0.00     0.027 H 
ATOM    170  H82 LYS d   1      14.533   5.288  -7.098  0.00  0.00     0.027 H 
ENDBRANCH 164 167
ENDBRANCH 161 164
ENDBRANCH 118 161
ENDBRANCH 116 118
ENDBRANCH 103 114
ENDBRANCH  98 100
BRANCH  98 171
ATOM    171  CB  LEU d   1      10.939  -0.706  -0.701  0.00  0.00    -0.035 C 
ATOM    172  H58 LEU d   1      10.128  -1.141  -1.303  0.00  0.00     0.037 H 
ATOM    173  H59 LEU d   1      10.905   0.391  -0.778  0.00  0.00     0.037 H 
BRANCH 171 174
ATOM    174  CG  LEU d   1      10.695  -1.086   0.771  0.00  0.00    -0.059 C 
ATOM    175  H60 LEU d   1      11.586  -0.817   1.357  0.00  0.00     0.038 H 
BRANCH 174 176
ATOM    176  CD1 LEU d   1       9.505  -0.301   1.303  0.00  0.00    -0.073 C 
ATOM    177  H61 LEU d   1       9.329  -0.571   2.355  0.00  0.00     0.028 H 
ATOM    178  H62 LEU d   1       8.612  -0.541   0.708  0.00  0.00     0.028 H 
ATOM    179  H63 LEU d   1       9.715   0.776   1.231  0.00  0.00     0.028 H 
ENDBRANCH 174 176
BRANCH 174 180
ATOM    180  CD2 LEU d   1      10.460  -2.583   0.913  0.00  0.00    -0.073 C 
ATOM    181  H64 LEU d   1      11.331  -3.130   0.523  0.00  0.00     0.028 H 
ATOM    182  H65 LEU d   1       9.563  -2.869   0.344  0.00  0.00     0.028 H 
ATOM    183  H66 LEU d   1      10.316  -2.833   1.975  0.00  0.00     0.028 H 
ENDBRANCH 174 180
ENDBRANCH 171 174
ENDBRANCH  98 171
ENDBRANCH  96  98
ENDBRANCH   1  94
BRANCH   1 184
ATOM    184  CB  THR d   1      16.877  -0.508  -0.651  0.00  0.00     0.060 C 
ATOM    185  H51 THR d   1      17.211  -1.490  -1.017  0.00  0.00     0.086 H 
BRANCH 184 186
ATOM    186  OG1 THR d   1      17.929   0.132   0.062  0.00  0.00    -0.393 OA
ATOM    187  H52 THR d   1      18.671   0.260  -0.518  0.00  0.00     0.210 HD
ENDBRANCH 184 186
BRANCH 184 188
ATOM    188  CG2 THR d   1      16.498   0.352  -1.816  0.00  0.00    -0.050 C 
ATOM    189  H53 THR d   1      17.363   0.463  -2.486  0.00  0.00     0.031 H 
ATOM    190  H54 THR d   1      16.185   1.342  -1.454  0.00  0.00     0.031 H 
ATOM    191  H55 THR d   1      15.668  -0.118  -2.364  0.00  0.00     0.031 H 
ENDBRANCH 184 188
ENDBRANCH   1 184
TORSDOF 46
