REMARK  9 active torsions:
REMARK  status: ('A' for Active; 'I' for Inactive)
REMARK    1  A    between atoms: N2_1  and  C1_2 
REMARK    2  A    between atoms: N2_1  and  C3_3 
REMARK    3  A    between atoms: C3_3  and  C5_4 
REMARK    4  A    between atoms: C3_3  and  C6_5 
REMARK       I    between atoms: C6_5  and  N8_7 
REMARK    5  A    between atoms: N8_7  and  C9_8 
REMARK    6  A    between atoms: C9_8  and  C17_9 
REMARK    7  A    between atoms: C9_8  and  C11_11 
REMARK       I    between atoms: C17_9  and  N19_17 
REMARK    8  A    between atoms: C30_26  and  C32_27 
REMARK       I    between atoms: C32_27  and  N34_29 
REMARK    9  A    between atoms: N34_29  and  C35_30 
ROOT
ATOM      1  C17 1Y0 d   1     -22.485  10.938 -14.289  0.00  0.00     0.243 C 
ATOM      2  O18 1Y0 d   1     -21.639  11.382 -13.496  0.00  0.00    -0.271 OA
ATOM      3  N19 1Y0 d   1     -22.365  11.243 -15.597  0.00  0.00    -0.333 N 
ATOM      4  C20 1Y0 d   1     -23.380  10.810 -16.631  0.00  0.00     0.025 C 
ATOM      5  C21 1Y0 d   1     -22.718  10.615 -17.986  0.00  0.00     0.120 C 
ATOM      6  C23 1Y0 d   1     -23.715  10.430 -19.158  0.00  0.00    -0.031 C 
ATOM      7  C24 1Y0 d   1     -22.855  10.913 -20.359  0.00  0.00    -0.022 A 
ATOM      8  C26 1Y0 d   1     -21.390  10.454 -20.435  0.00  0.00    -0.033 A 
ATOM      9  C27 1Y0 d   1     -21.746  11.819 -19.773  0.00  0.00     0.108 A 
ATOM     10  N28 1Y0 d   1     -22.031  11.895 -18.340  0.00  0.00    -0.058 N 
ATOM     11  C29 1Y0 d   1     -20.864  12.061 -17.477  0.00  0.00     0.111 C 
ATOM     12  C30 1Y0 d   1     -21.324  12.201 -16.005  0.00  0.00     0.115 C 
ATOM     13  H23 1Y0 d   1     -24.159  11.582 -16.718  0.00  0.00     0.067 H 
ATOM     14  H24 1Y0 d   1     -23.837   9.861 -16.313  0.00  0.00     0.067 H 
ATOM     15  H25 1Y0 d   1     -22.016   9.770 -17.937  0.00  0.00     0.087 H 
ATOM     16  H26 1Y0 d   1     -24.612  11.053 -19.027  0.00  0.00     0.036 H 
ATOM     17  H27 1Y0 d   1     -24.013   9.377 -19.272  0.00  0.00     0.036 H 
ATOM     18  H28 1Y0 d   1     -23.439  11.127 -21.266  0.00  0.00     0.043 H 
ATOM     19  H29 1Y0 d   1     -20.870  10.432 -21.404  0.00  0.00     0.036 H 
ATOM     20  H30 1Y0 d   1     -21.044   9.615 -19.814  0.00  0.00     0.036 H 
ATOM     21  H31 1Y0 d   1     -21.389  12.767 -20.201  0.00  0.00     0.085 H 
ATOM     22  H32 1Y0 d   1     -22.651  12.673 -18.178  0.00  0.00     0.281 HD
ATOM     23  H33 1Y0 d   1     -20.313  12.965 -17.776  0.00  0.00     0.080 H 
ATOM     24  H34 1Y0 d   1     -20.209  11.183 -17.574  0.00  0.00     0.080 H 
ATOM     25  H35 1Y0 d   1     -20.439  12.009 -15.381  0.00  0.00     0.090 H 
ENDROOT
BRANCH   1  26
ATOM     26  C9  1Y0 d   1     -23.571  10.007 -13.770  0.00  0.00     0.093 C 
ATOM     27  H11 1Y0 d   1     -23.696   9.162 -14.463  0.00  0.00     0.088 H 
BRANCH  26  28
ATOM     28  N8  1Y0 d   1     -23.120   9.498 -12.480  0.00  0.00    -0.346 N 
ATOM     29  C6  1Y0 d   1     -23.008   8.205 -12.194  0.00  0.00     0.248 C 
ATOM     30  O7  1Y0 d   1     -23.322   7.335 -13.011  0.00  0.00    -0.271 OA
ATOM     31  H10 1Y0 d   1     -22.881  10.160 -11.770  0.00  0.00     0.163 HD
BRANCH  29  32
ATOM     32  C3  1Y0 d   1     -22.547   7.826 -10.813  0.00  0.00     0.174 C 
ATOM     33  H6  1Y0 d   1     -23.011   8.515 -10.092  0.00  0.00     0.098 H 
BRANCH  32  34
ATOM     34  N2  1Y0 d   1     -22.955   6.451 -10.469  0.00  0.00    -0.067 N 
ATOM     35  H1  1Y0 d   1     -22.659   5.839 -11.213  0.00  0.00     0.277 HD
ATOM     36  H2  1Y0 d   1     -22.490   6.189  -9.614  0.00  0.00     0.277 HD
BRANCH  34  37
ATOM     37  C1  1Y0 d   1     -24.410   6.274 -10.276  0.00  0.00     0.066 C 
ATOM     38  H3  1Y0 d   1     -24.621   5.224 -10.024  0.00  0.00     0.067 H 
ATOM     39  H4  1Y0 d   1     -24.938   6.542 -11.203  0.00  0.00     0.067 H 
ATOM     40  H5  1Y0 d   1     -24.753   6.924  -9.457  0.00  0.00     0.067 H 
ENDBRANCH  34  37
ENDBRANCH  32  34
BRANCH  32  41
ATOM     41  C5  1Y0 d   1     -21.027   7.966 -10.711  0.00  0.00    -0.041 C 
ATOM     42  H7  1Y0 d   1     -20.735   8.995 -10.970  0.00  0.00     0.030 H 
ATOM     43  H8  1Y0 d   1     -20.546   7.263 -11.407  0.00  0.00     0.030 H 
ATOM     44  H9  1Y0 d   1     -20.706   7.741  -9.683  0.00  0.00     0.030 H 
ENDBRANCH  32  41
ENDBRANCH  29  32
ENDBRANCH  26  28
BRANCH  26  45
ATOM     45  C11 1Y0 d   1     -24.930  10.783 -13.685  0.00  0.00    -0.026 C 
ATOM     46  C12 1Y0 d   1     -24.729  12.080 -12.863  0.00  0.00    -0.059 C 
ATOM     47  C13 1Y0 d   1     -26.088  12.805 -12.713  0.00  0.00    -0.065 C 
ATOM     48  H13 1Y0 d   1     -24.017  12.738 -13.383  0.00  0.00     0.033 H 
ATOM     49  H14 1Y0 d   1     -24.335  11.827 -11.867  0.00  0.00     0.033 H 
ATOM     50  C14 1Y0 d   1     -27.095  11.873 -12.035  0.00  0.00    -0.065 C 
ATOM     51  H15 1Y0 d   1     -26.463  13.088 -13.707  0.00  0.00     0.033 H 
ATOM     52  H16 1Y0 d   1     -25.955  13.709 -12.100  0.00  0.00     0.033 H 
ATOM     53  C15 1Y0 d   1     -27.333  10.618 -12.904  0.00  0.00    -0.065 C 
ATOM     54  H17 1Y0 d   1     -28.048  12.406 -11.898  0.00  0.00     0.033 H 
ATOM     55  H18 1Y0 d   1     -26.702  11.566 -11.054  0.00  0.00     0.033 H 
ATOM     56  C16 1Y0 d   1     -26.009   9.844 -13.107  0.00  0.00    -0.059 C 
ATOM     57  H19 1Y0 d   1     -27.727  10.925 -13.884  0.00  0.00     0.033 H 
ATOM     58  H20 1Y0 d   1     -28.062   9.964 -12.404  0.00  0.00     0.033 H 
ATOM     59  H21 1Y0 d   1     -25.667   9.448 -12.139  0.00  0.00     0.033 H 
ATOM     60  H22 1Y0 d   1     -26.178   9.011 -13.805  0.00  0.00     0.033 H 
ATOM     61  H12 1Y0 d   1     -25.239  11.071 -14.701  0.00  0.00     0.043 H 
ENDBRANCH  26  45
ENDBRANCH   1  26
BRANCH  12  62
ATOM     62  C32 1Y0 d   1     -21.818  13.590 -15.690  0.00  0.00     0.242 C 
ATOM     63  O33 1Y0 d   1     -23.018  13.820 -15.515  0.00  0.00    -0.271 OA
ATOM     64  N34 1Y0 d   1     -20.863  14.520 -15.581  0.00  0.00    -0.350 N 
ATOM     65  H36 1Y0 d   1     -19.916  14.256 -15.762  0.00  0.00     0.163 HD
BRANCH  64  66
ATOM     66  C35 1Y0 d   1     -21.144  15.911 -15.208  0.00  0.00     0.042 C 
ATOM     67  C37 1Y0 d   1     -21.557  16.671 -16.484  0.00  0.00    -0.022 C 
ATOM     68  C38 1Y0 d   1     -20.327  17.233 -17.220  0.00  0.00     0.028 C 
ATOM     69  H38 1Y0 d   1     -22.221  17.503 -16.207  0.00  0.00     0.039 H 
ATOM     70  H39 1Y0 d   1     -22.093  15.982 -17.154  0.00  0.00     0.039 H 
ATOM     71  O39 1Y0 d   1     -19.570  18.064 -16.305  0.00  0.00    -0.350 OA
ATOM     72  H40 1Y0 d   1     -20.655  17.835 -18.080  0.00  0.00     0.075 H 
ATOM     73  H41 1Y0 d   1     -19.697  16.403 -17.572  0.00  0.00     0.075 H 
ATOM     74  C40 1Y0 d   1     -19.222  17.534 -15.087  0.00  0.00     0.077 A 
ATOM     75  C41 1Y0 d   1     -18.102  18.054 -14.415  0.00  0.00    -0.050 A 
ATOM     76  C45 1Y0 d   1     -19.922  16.497 -14.504  0.00  0.00    -0.002 A 
ATOM     77  C42 1Y0 d   1     -17.712  17.538 -13.178  0.00  0.00    -0.080 A 
ATOM     78  H42 1Y0 d   1     -17.536  18.863 -14.862  0.00  0.00     0.087 H 
ATOM     79  C43 1Y0 d   1     -18.398  16.490 -12.610  0.00  0.00    -0.082 A 
ATOM     80  H43 1Y0 d   1     -16.861  17.967 -12.661  0.00  0.00     0.083 H 
ATOM     81  C44 1Y0 d   1     -19.503  15.984 -13.273  0.00  0.00    -0.072 A 
ATOM     82  H44 1Y0 d   1     -18.080  16.069 -11.663  0.00  0.00     0.083 H 
ATOM     83  H45 1Y0 d   1     -20.058  15.168 -12.825  0.00  0.00     0.084 H 
ATOM     84  H37 1Y0 d   1     -21.988  15.935 -14.503  0.00  0.00     0.080 H 
ENDBRANCH  64  66
ENDBRANCH  12  62
TORSDOF 9
