REMARK  8 active torsions:
REMARK  status: ('A' for Active; 'I' for Inactive)
REMARK    1  A    between atoms: C20_1  and  C19_2 
REMARK    2  A    between atoms: C19_2  and  C21_3 
REMARK    3  A    between atoms: C19_2  and  C22_4 
REMARK    4  A    between atoms: C19_2  and  N7_5 
REMARK    5  A    between atoms: C5_11  and  N10_12 
REMARK    6  A    between atoms: C9_14  and  C11_15 
REMARK    7  A    between atoms: C11_15  and  C12_16 
REMARK    8  A    between atoms: C14_21  and  C18_22 
ROOT
ATOM      1  N7  VGG d   1      -5.698  -5.410  -7.585  0.00  0.00    -0.242 N 
ATOM      2  N8  VGG d   1      -4.521  -5.826  -7.130  0.00  0.00    -0.173 NA
ATOM      3  C3  VGG d   1      -6.707  -5.857  -6.779  0.00  0.00     0.164 A 
ATOM      4  N2  VGG d   1      -8.072  -5.693  -6.831  0.00  0.00    -0.222 NA
ATOM      5  C1  VGG d   1      -8.873  -6.240  -5.909  0.00  0.00     0.091 A 
ATOM      6  N6  VGG d   1      -8.365  -6.971  -4.895  0.00  0.00    -0.224 NA
ATOM      7  C5  VGG d   1      -7.033  -7.178  -4.773  0.00  0.00     0.138 A 
ATOM      8  C4  VGG d   1      -6.137  -6.611  -5.739  0.00  0.00     0.084 A 
ATOM      9  C9  VGG d   1      -4.702  -6.558  -6.021  0.00  0.00     0.077 A 
ATOM     10  H10 VGG d   1      -9.945  -6.094  -5.978  0.00  0.00     0.146 H 
ENDROOT
BRANCH   9  11
ATOM     11  C11 VGG d   1      -3.544  -7.157  -5.288  0.00  0.00     0.002 C 
ATOM     12  H13 VGG d   1      -3.426  -6.638  -4.325  0.00  0.00     0.049 H 
ATOM     13  H14 VGG d   1      -2.634  -7.023  -5.891  0.00  0.00     0.049 H 
BRANCH  11  14
ATOM     14  C12 VGG d   1      -3.741  -8.614  -5.029  0.00  0.00    -0.052 A 
ATOM     15  C13 VGG d   1      -3.310  -9.153  -3.825  0.00  0.00    -0.071 A 
ATOM     16  C14 VGG d   1      -3.479 -10.505  -3.568  0.00  0.00    -0.061 A 
ATOM     17  H15 VGG d   1      -2.840  -8.516  -3.084  0.00  0.00     0.085 H 
ATOM     18  C15 VGG d   1      -4.078 -11.321  -4.516  0.00  0.00    -0.077 A 
ATOM     19  C16 VGG d   1      -4.509 -10.783  -5.722  0.00  0.00    -0.082 A 
ATOM     20  H18 VGG d   1      -4.210 -12.378  -4.316  0.00  0.00     0.084 H 
ATOM     21  C17 VGG d   1      -4.337  -9.430  -5.981  0.00  0.00    -0.076 A 
ATOM     22  H17 VGG d   1      -4.980 -11.420  -6.462  0.00  0.00     0.083 H 
ATOM     23  H16 VGG d   1      -4.667  -9.011  -6.925  0.00  0.00     0.084 H 
BRANCH  16  24
ATOM     24  C18 VGG d   1      -3.012 -11.073  -2.271  0.00  0.00    -0.051 C 
ATOM     25  H19 VGG d   1      -2.568 -10.274  -1.659  0.00  0.00     0.033 H 
ATOM     26  H20 VGG d   1      -2.257 -11.850  -2.462  0.00  0.00     0.033 H 
ATOM     27  H21 VGG d   1      -3.865 -11.514  -1.735  0.00  0.00     0.033 H 
ENDBRANCH  16  24
ENDBRANCH  11  14
ENDBRANCH   9  11
BRANCH   1  28
ATOM     28  C19 VGG d   1      -5.867  -4.597  -8.756  0.00  0.00     0.047 C 
BRANCH  28  29
ATOM     29  C20 VGG d   1      -4.544  -4.353  -9.404  0.00  0.00    -0.052 C 
ATOM     30  H1  VGG d   1      -4.684  -3.730 -10.300  0.00  0.00     0.030 H 
ATOM     31  H2  VGG d   1      -4.094  -5.314  -9.693  0.00  0.00     0.030 H 
ATOM     32  H3  VGG d   1      -3.879  -3.835  -8.697  0.00  0.00     0.030 H 
ENDBRANCH  28  29
BRANCH  28  33
ATOM     33  C21 VGG d   1      -6.460  -3.283  -8.368  0.00  0.00    -0.052 C 
ATOM     34  H4  VGG d   1      -7.436  -3.449  -7.889  0.00  0.00     0.030 H 
ATOM     35  H5  VGG d   1      -6.593  -2.661  -9.266  0.00  0.00     0.030 H 
ATOM     36  H6  VGG d   1      -5.788  -2.771  -7.664  0.00  0.00     0.030 H 
ENDBRANCH  28  33
BRANCH  28  37
ATOM     37  C22 VGG d   1      -6.768  -5.282  -9.729  0.00  0.00    -0.052 C 
ATOM     38  H7  VGG d   1      -6.331  -6.250 -10.015  0.00  0.00     0.030 H 
ATOM     39  H8  VGG d   1      -6.886  -4.654 -10.625  0.00  0.00     0.030 H 
ATOM     40  H9  VGG d   1      -7.752  -5.447  -9.265  0.00  0.00     0.030 H 
ENDBRANCH  28  37
ENDBRANCH   1  28
BRANCH   7  41
ATOM     41  N10 VGG d   1      -6.606  -7.967  -3.656  0.00  0.00    -0.383 N 
ATOM     42  H11 VGG d   1      -5.604  -8.157  -3.513  0.00  0.00     0.157 HD
ATOM     43  H12 VGG d   1      -7.301  -8.344  -2.996  0.00  0.00     0.157 HD
ENDBRANCH   7  41
TORSDOF 8
