REMARK  7 active torsions:
REMARK  status: ('A' for Active; 'I' for Inactive)
REMARK    1  A    between atoms: C6_6  and  NAD_22 
REMARK    2  A    between atoms: CAY_19  and  CAA_7 
REMARK    3  A    between atoms: CAY_19  and  CAB_8 
REMARK    4  A    between atoms: CAM_23  and  CAR_15 
REMARK    5  A    between atoms: CAS_16  and  CAM_23 
REMARK    6  A    between atoms: NAX_18  and  CAY_19 
REMARK    7  A    between atoms: CAY_19  and  CAC_20 
ROOT
ATOM      1  N1  0JN d   1      -8.232   4.826  -7.354  0.00  0.00    -0.224 NA
ATOM      2  C2  0JN d   1      -8.644   5.980  -6.713  0.00  0.00     0.091 A 
ATOM      3  N3  0JN d   1      -7.754   6.895  -6.290  0.00  0.00    -0.222 NA
ATOM      4  C4  0JN d   1      -6.399   6.730  -6.482  0.00  0.00     0.164 A 
ATOM      5  C5  0JN d   1      -5.942   5.549  -7.138  0.00  0.00     0.084 A 
ATOM      6  C6  0JN d   1      -6.914   4.589  -7.576  0.00  0.00     0.138 A 
ATOM      7  CAS 0JN d   1      -4.471   5.704  -7.166  0.00  0.00     0.077 A 
ATOM      8  NAX 0JN d   1      -5.296   7.487  -6.157  0.00  0.00    -0.242 N 
ATOM      9  NAP 0JN d   1      -4.147   6.866  -6.569  0.00  0.00    -0.173 NA
ATOM     10  H1  0JN d   1      -9.702   6.150  -6.549  0.00  0.00     0.146 H 
ENDROOT
BRANCH   7  11
ATOM     11  CAM 0JN d   1      -3.441   4.734  -7.747  0.00  0.00     0.003 C 
ATOM     12  H19 0JN d   1      -2.434   5.147  -7.584  0.00  0.00     0.049 H 
ATOM     13  H20 0JN d   1      -3.531   3.769  -7.227  0.00  0.00     0.049 H 
BRANCH  11  14
ATOM     14  CAR 0JN d   1      -3.648   4.500  -9.286  0.00  0.00    -0.041 A 
ATOM     15  CAH 0JN d   1      -4.300   5.530 -10.082  0.00  0.00    -0.076 A 
ATOM     16  CAG 0JN d   1      -4.491   5.343 -11.427  0.00  0.00    -0.082 A 
ATOM     17  H11 0JN d   1      -4.635   6.447  -9.610  0.00  0.00     0.084 H 
ATOM     18  CAJ 0JN d   1      -4.052   4.135 -12.054  0.00  0.00    -0.072 A 
ATOM     19  H10 0JN d   1      -4.976   6.113 -12.016  0.00  0.00     0.083 H 
ATOM     20  CAT 0JN d   1      -3.399   3.097 -11.266  0.00  0.00    -0.025 A 
ATOM     21  H13 0JN d   1      -4.205   3.991 -13.117  0.00  0.00     0.084 H 
ATOM     22  CAI 0JN d   1      -2.984   1.936 -11.906  0.00  0.00    -0.072 A 
ATOM     23  CAU 0JN d   1      -3.201   3.273  -9.919  0.00  0.00    -0.019 A 
ATOM     24  CAE 0JN d   1      -2.352   0.921 -11.155  0.00  0.00    -0.082 A 
ATOM     25  H12 0JN d   1      -3.144   1.811 -12.971  0.00  0.00     0.084 H 
ATOM     26  CAF 0JN d   1      -2.145   1.093  -9.776  0.00  0.00    -0.082 A 
ATOM     27  H8  0JN d   1      -2.026   0.009 -11.642  0.00  0.00     0.083 H 
ATOM     28  CAK 0JN d   1      -2.542   2.212  -9.150  0.00  0.00    -0.072 A 
ATOM     29  H9  0JN d   1      -1.657   0.309  -9.208  0.00  0.00     0.083 H 
ATOM     30  H21 0JN d   1      -2.377   2.331  -8.085  0.00  0.00     0.084 H 
ENDBRANCH  11  14
ENDBRANCH   7  11
BRANCH   6  31
ATOM     31  NAD 0JN d   1      -6.550   3.373  -8.248  0.00  0.00    -0.383 N 
ATOM     32  H17 0JN d   1      -5.559   3.163  -8.432  0.00  0.00     0.157 HD
ATOM     33  H18 0JN d   1      -7.280   2.711  -8.546  0.00  0.00     0.157 HD
ENDBRANCH   6  31
BRANCH   8  34
ATOM     34  CAY 0JN d   1      -5.308   8.828  -5.443  0.00  0.00     0.047 C 
BRANCH  34  35
ATOM     35  CAA 0JN d   1      -3.962   9.444  -5.524  0.00  0.00    -0.052 C 
ATOM     36  H2  0JN d   1      -3.971  10.415  -5.007  0.00  0.00     0.030 H 
ATOM     37  H3  0JN d   1      -3.690   9.593  -6.579  0.00  0.00     0.030 H 
ATOM     38  H4  0JN d   1      -3.226   8.781  -5.046  0.00  0.00     0.030 H 
ENDBRANCH  34  35
BRANCH  34  39
ATOM     39  CAB 0JN d   1      -6.269   9.748  -6.093  0.00  0.00    -0.052 C 
ATOM     40  H5  0JN d   1      -7.279   9.315  -6.048  0.00  0.00     0.030 H 
ATOM     41  H6  0JN d   1      -5.981   9.897  -7.144  0.00  0.00     0.030 H 
ATOM     42  H7  0JN d   1      -6.261  10.716  -5.570  0.00  0.00     0.030 H 
ENDBRANCH  34  39
BRANCH  34  43
ATOM     43  CAC 0JN d   1      -5.697   8.621  -3.963  0.00  0.00    -0.052 C 
ATOM     44  H14 0JN d   1      -4.979   7.937  -3.487  0.00  0.00     0.030 H 
ATOM     45  H15 0JN d   1      -6.707   8.190  -3.906  0.00  0.00     0.030 H 
ATOM     46  H16 0JN d   1      -5.682   9.589  -3.441  0.00  0.00     0.030 H 
ENDBRANCH  34  43
ENDBRANCH   8  34
TORSDOF 7
