REMARK  9 active torsions:
REMARK  status: ('A' for Active; 'I' for Inactive)
REMARK    1  A    between atoms: N2_1  and  C1_2 
REMARK    2  A    between atoms: N2_1  and  C3_3 
REMARK    3  A    between atoms: C3_3  and  C5_4 
REMARK    4  A    between atoms: C3_3  and  C6_5 
REMARK       I    between atoms: C6_5  and  N8_7 
REMARK    5  A    between atoms: N8_7  and  C9_8 
REMARK    6  A    between atoms: C9_8  and  C17_9 
REMARK    7  A    between atoms: C9_8  and  C11_11 
REMARK       I    between atoms: C17_9  and  N19_17 
REMARK    8  A    between atoms: C28_25  and  C30_26 
REMARK       I    between atoms: C30_26  and  N32_28 
REMARK    9  A    between atoms: N32_28  and  C33_29 
ROOT
ATOM      1  C17 1YH d   1      22.709  -9.828 -15.176  0.00  0.00     0.243 C 
ATOM      2  O18 1YH d   1      21.850 -10.244 -14.429  0.00  0.00    -0.271 OA
ATOM      3  N19 1YH d   1      22.578 -10.020 -16.509  0.00  0.00    -0.333 N 
ATOM      4  C20 1YH d   1      23.623  -9.556 -17.466  0.00  0.00     0.025 C 
ATOM      5  C21 1YH d   1      23.030  -9.273 -18.841  0.00  0.00     0.119 C 
ATOM      6  C23 1YH d   1      24.098  -9.282 -19.952  0.00  0.00    -0.035 C 
ATOM      7  C24 1YH d   1      23.261  -9.612 -21.222  0.00  0.00    -0.040 C 
ATOM      8  C25 1YH d   1      21.850  -9.959 -20.660  0.00  0.00     0.084 C 
ATOM      9  N26 1YH d   1      22.120 -10.362 -19.259  0.00  0.00    -0.063 N 
ATOM     10  C27 1YH d   1      20.929 -10.476 -18.414  0.00  0.00     0.111 C 
ATOM     11  C28 1YH d   1      21.410 -10.797 -16.953  0.00  0.00     0.115 C 
ATOM     12  H23 1YH d   1      24.393 -10.336 -17.562  0.00  0.00     0.067 H 
ATOM     13  H24 1YH d   1      24.081  -8.635 -17.077  0.00  0.00     0.067 H 
ATOM     14  H25 1YH d   1      22.504  -8.307 -18.814  0.00  0.00     0.087 H 
ATOM     15  H26 1YH d   1      24.859 -10.054 -19.766  0.00  0.00     0.036 H 
ATOM     16  H27 1YH d   1      24.586  -8.300 -20.042  0.00  0.00     0.036 H 
ATOM     17  H28 1YH d   1      23.689 -10.470 -21.761  0.00  0.00     0.035 H 
ATOM     18  H29 1YH d   1      23.212  -8.743 -21.895  0.00  0.00     0.035 H 
ATOM     19  H30 1YH d   1      21.395 -10.786 -21.225  0.00  0.00     0.076 H 
ATOM     20  H31 1YH d   1      21.187  -9.082 -20.695  0.00  0.00     0.076 H 
ATOM     21  H32 1YH d   1      22.598 -11.249 -19.238  0.00  0.00     0.280 HD
ATOM     22  H33 1YH d   1      20.284 -11.287 -18.783  0.00  0.00     0.080 H 
ATOM     23  H34 1YH d   1      20.370  -9.529 -18.425  0.00  0.00     0.080 H 
ATOM     24  H35 1YH d   1      20.573 -10.569 -16.276  0.00  0.00     0.090 H 
ENDROOT
BRANCH   1  25
ATOM     25  C9  1YH d   1      23.863  -9.065 -14.564  0.00  0.00     0.093 C 
ATOM     26  H11 1YH d   1      24.190  -8.263 -15.242  0.00  0.00     0.088 H 
BRANCH  25  27
ATOM     27  N8  1YH d   1      23.432  -8.609 -13.265  0.00  0.00    -0.346 N 
ATOM     28  C6  1YH d   1      23.569  -7.353 -12.850  0.00  0.00     0.248 C 
ATOM     29  O7  1YH d   1      24.017  -6.502 -13.580  0.00  0.00    -0.271 OA
ATOM     30  H10 1YH d   1      23.009  -9.270 -12.646  0.00  0.00     0.163 HD
BRANCH  28  31
ATOM     31  C3  1YH d   1      23.110  -7.042 -11.458  0.00  0.00     0.174 C 
ATOM     32  H6  1YH d   1      23.335  -7.898 -10.805  0.00  0.00     0.098 H 
BRANCH  31  33
ATOM     33  N2  1YH d   1      23.785  -5.861 -10.907  0.00  0.00    -0.067 N 
ATOM     34  H1  1YH d   1      23.661  -5.089 -11.543  0.00  0.00     0.277 HD
ATOM     35  H2  1YH d   1      23.368  -5.634 -10.018  0.00  0.00     0.277 HD
BRANCH  33  36
ATOM     36  C1  1YH d   1      25.226  -6.088 -10.712  0.00  0.00     0.066 C 
ATOM     37  H3  1YH d   1      25.688  -5.179 -10.299  0.00  0.00     0.067 H 
ATOM     38  H4  1YH d   1      25.693  -6.330 -11.678  0.00  0.00     0.067 H 
ATOM     39  H5  1YH d   1      25.374  -6.925 -10.013  0.00  0.00     0.067 H 
ENDBRANCH  33  36
ENDBRANCH  31  33
BRANCH  31  40
ATOM     40  C5  1YH d   1      21.596  -6.854 -11.531  0.00  0.00    -0.041 C 
ATOM     41  H7  1YH d   1      21.134  -7.761 -11.948  0.00  0.00     0.030 H 
ATOM     42  H8  1YH d   1      21.364  -5.994 -12.176  0.00  0.00     0.030 H 
ATOM     43  H9  1YH d   1      21.200  -6.672 -10.521  0.00  0.00     0.030 H 
ENDBRANCH  31  40
ENDBRANCH  28  31
ENDBRANCH  25  27
BRANCH  25  44
ATOM     44  C11 1YH d   1      25.039  -9.905 -14.043  0.00  0.00    -0.026 C 
ATOM     45  C12 1YH d   1      24.935 -11.417 -14.273  0.00  0.00    -0.059 C 
ATOM     46  C13 1YH d   1      26.056 -12.157 -13.527  0.00  0.00    -0.065 C 
ATOM     47  H13 1YH d   1      25.019 -11.625 -15.350  0.00  0.00     0.033 H 
ATOM     48  H14 1YH d   1      23.961 -11.772 -13.906  0.00  0.00     0.033 H 
ATOM     49  C14 1YH d   1      27.432 -11.463 -13.389  0.00  0.00    -0.065 C 
ATOM     50  H15 1YH d   1      26.223 -13.109 -14.053  0.00  0.00     0.033 H 
ATOM     51  H16 1YH d   1      25.691 -12.360 -12.509  0.00  0.00     0.033 H 
ATOM     52  C15 1YH d   1      27.532  -9.951 -13.688  0.00  0.00    -0.065 C 
ATOM     53  H17 1YH d   1      28.123 -11.975 -14.074  0.00  0.00     0.033 H 
ATOM     54  H18 1YH d   1      27.767 -11.611 -12.352  0.00  0.00     0.033 H 
ATOM     55  C16 1YH d   1      26.374  -9.345 -14.506  0.00  0.00    -0.059 C 
ATOM     56  H19 1YH d   1      28.464  -9.779 -14.246  0.00  0.00     0.033 H 
ATOM     57  H20 1YH d   1      27.578  -9.420 -12.726  0.00  0.00     0.033 H 
ATOM     58  H21 1YH d   1      26.372  -8.253 -14.375  0.00  0.00     0.033 H 
ATOM     59  H22 1YH d   1      26.518  -9.587 -15.569  0.00  0.00     0.033 H 
ATOM     60  H12 1YH d   1      25.021  -9.780 -12.950  0.00  0.00     0.043 H 
ENDBRANCH  25  44
ENDBRANCH   1  25
BRANCH  11  61
ATOM     61  C30 1YH d   1      21.763 -12.260 -16.811  0.00  0.00     0.242 C 
ATOM     62  O31 1YH d   1      22.920 -12.694 -16.738  0.00  0.00    -0.271 OA
ATOM     63  N32 1YH d   1      20.718 -13.075 -16.730  0.00  0.00    -0.350 N 
ATOM     64  H36 1YH d   1      19.802 -12.677 -16.771  0.00  0.00     0.163 HD
BRANCH  63  65
ATOM     65  C33 1YH d   1      20.838 -14.513 -16.585  0.00  0.00     0.042 C 
ATOM     66  C35 1YH d   1      20.834 -15.042 -18.022  0.00  0.00    -0.022 C 
ATOM     67  C36 1YH d   1      20.493 -16.531 -17.971  0.00  0.00     0.028 C 
ATOM     68  H38 1YH d   1      21.826 -14.901 -18.476  0.00  0.00     0.039 H 
ATOM     69  H39 1YH d   1      20.079 -14.506 -18.616  0.00  0.00     0.039 H 
ATOM     70  O37 1YH d   1      19.146 -16.623 -17.493  0.00  0.00    -0.350 OA
ATOM     71  H40 1YH d   1      21.176 -17.054 -17.286  0.00  0.00     0.075 H 
ATOM     72  H41 1YH d   1      20.571 -16.974 -18.975  0.00  0.00     0.075 H 
ATOM     73  C38 1YH d   1      18.845 -16.016 -16.302  0.00  0.00     0.077 A 
ATOM     74  C39 1YH d   1      17.722 -16.439 -15.572  0.00  0.00    -0.050 A 
ATOM     75  C43 1YH d   1      19.627 -14.982 -15.817  0.00  0.00    -0.002 A 
ATOM     76  C40 1YH d   1      17.409 -15.822 -14.367  0.00  0.00    -0.080 A 
ATOM     77  H42 1YH d   1      17.101 -17.244 -15.948  0.00  0.00     0.087 H 
ATOM     78  C41 1YH d   1      18.210 -14.795 -13.878  0.00  0.00    -0.082 A 
ATOM     79  H43 1YH d   1      16.538 -16.142 -13.806  0.00  0.00     0.083 H 
ATOM     80  C42 1YH d   1      19.313 -14.381 -14.605  0.00  0.00    -0.072 A 
ATOM     81  H44 1YH d   1      17.972 -14.321 -12.932  0.00  0.00     0.083 H 
ATOM     82  H45 1YH d   1      19.937 -13.581 -14.225  0.00  0.00     0.084 H 
ATOM     83  H37 1YH d   1      21.762 -14.799 -16.061  0.00  0.00     0.080 H 
ENDBRANCH  63  65
ENDBRANCH  11  61
TORSDOF 9
