REMARK  3 active torsions:
REMARK  status: ('A' for Active; 'I' for Inactive)
REMARK    1  A    between atoms: C1_1  and  C2_4 
REMARK    2  A    between atoms: C2_4  and  C3_5 
REMARK    3  A    between atoms: C3_5  and  C4_6 
ROOT
ATOM      1  C2  SIN d   1      19.130   1.825  -2.328  0.00  0.00     0.025 C 
ATOM      2  H1  SIN d   1      18.202   1.249  -2.197  0.00  0.00     0.049 H 
ATOM      3  H2  SIN d   1      19.074   2.750  -1.736  0.00  0.00     0.049 H 
ENDROOT
BRANCH   1   4
ATOM      4  C1  SIN d   1      19.287   2.182  -3.788  0.00  0.00     0.173 C 
ATOM      5  O1  SIN d   1      20.256   1.777  -4.480  0.00  0.00    -0.648 OA
ATOM      6  O2  SIN d   1      18.428   2.913  -4.322  0.00  0.00    -0.648 OA
ENDBRANCH   1   4
BRANCH   1   7
ATOM      7  C3  SIN d   1      20.306   0.992  -1.838  0.00  0.00     0.025 C 
ATOM      8  H3  SIN d   1      20.476   1.196  -0.770  0.00  0.00     0.049 H 
ATOM      9  H4  SIN d   1      21.206   1.262  -2.410  0.00  0.00     0.049 H 
BRANCH   7  10
ATOM     10  C4  SIN d   1      20.019  -0.481  -2.025  0.00  0.00     0.173 C 
ATOM     11  O3  SIN d   1      19.207  -0.847  -2.894  0.00  0.00    -0.648 OA
ATOM     12  O4  SIN d   1      20.577  -1.357  -1.317  0.00  0.00    -0.648 OA
ENDBRANCH   7  10
ENDBRANCH   1   7
TORSDOF 3
