REMARK  9 active torsions:
REMARK  status: ('A' for Active; 'I' for Inactive)
REMARK    1  A    between atoms: C1_1  and  C7_7 
REMARK    2  A    between atoms: C2_2  and  C18_18 
REMARK    3  A    between atoms: C3_3  and  C17_17 
REMARK    4  A    between atoms: C18_18  and  C19_19 
REMARK    5  A    between atoms: C18_18  and  O22_22 
REMARK    6  A    between atoms: O22_22  and  C23_23 
REMARK    7  A    between atoms: C23_23  and  C24_24 
REMARK    8  A    between atoms: C23_23  and  C25_25 
REMARK    9  A    between atoms: C23_23  and  C26_26 
ROOT
ATOM      1  C1  LF0 d   1       9.718 -47.196 -15.909  0.00  0.00    -0.006 C 
ATOM      2  C2  LF0 d   1      11.153 -47.536 -15.737  0.00  0.00     0.017 C 
ATOM      3  C3  LF0 d   1      11.599 -48.955 -15.916  0.00  0.00     0.041 C 
ATOM      4  N1  LF0 d   1      10.707 -49.919 -16.090  0.00  0.00    -0.257 NA
ATOM      5  C5  LF0 d   1       9.400 -49.713 -16.136  0.00  0.00     0.042 C 
ATOM      6  C6  LF0 d   1       8.815 -48.369 -16.005  0.00  0.00    -0.022 C 
ATOM      7  C13 LF0 d   1       7.322 -48.159 -16.103  0.00  0.00    -0.038 C 
ATOM      8  C14 LF0 d   1       6.612 -49.445 -15.698  0.00  0.00    -0.061 C 
ATOM      9  C15 LF0 d   1       7.084 -50.585 -16.585  0.00  0.00    -0.060 C 
ATOM     10  C16 LF0 d   1       8.557 -50.957 -16.361  0.00  0.00    -0.024 C 
ATOM     11  H4  LF0 d   1       7.053 -47.900 -17.138  0.00  0.00     0.040 H 
ATOM     12  H5  LF0 d   1       7.019 -47.343 -15.430  0.00  0.00     0.040 H 
ATOM     13  H6  LF0 d   1       5.526 -49.316 -15.813  0.00  0.00     0.033 H 
ATOM     14  H7  LF0 d   1       6.844 -49.677 -14.648  0.00  0.00     0.033 H 
ATOM     15  H8  LF0 d   1       6.955 -50.287 -17.636  0.00  0.00     0.033 H 
ATOM     16  H9  LF0 d   1       6.465 -51.470 -16.376  0.00  0.00     0.033 H 
ATOM     17  H10 LF0 d   1       8.634 -51.609 -15.479  0.00  0.00     0.042 H 
ATOM     18  H11 LF0 d   1       8.932 -51.492 -17.246  0.00  0.00     0.042 H 
ENDROOT
BRANCH   1  19
ATOM     19  C7  LF0 d   1       9.151 -45.797 -15.808  0.00  0.00    -0.024 A 
ATOM     20  C8  LF0 d   1       9.224 -45.880 -14.523  0.00  0.00    -0.070 A 
ATOM     21  C9  LF0 d   1       8.865 -44.976 -13.711  0.00  0.00    -0.049 A 
ATOM     22  H1  LF0 d   1       9.624 -46.796 -14.104  0.00  0.00     0.085 H 
ATOM     23  C10 LF0 d   1       8.447 -43.842 -14.084  0.00  0.00     0.075 A 
ATOM     24  H2  LF0 d   1       8.918 -45.184 -12.649  0.00  0.00     0.087 H 
ATOM     25  C11 LF0 d   1       8.301 -43.573 -15.423  0.00  0.00    -0.024 A 
ATOM     26  O27 LF0 d   1       8.150 -43.249 -12.825  0.00  0.00    -0.351 OA
ATOM     27  C12 LF0 d   1       8.657 -44.579 -16.460  0.00  0.00    -0.063 A 
ATOM     28  C21 LF0 d   1       7.746 -42.256 -15.324  0.00  0.00    -0.036 C 
ATOM     29  H3  LF0 d   1       8.566 -44.434 -17.530  0.00  0.00     0.085 H 
ATOM     30  C20 LF0 d   1       8.064 -41.473 -14.105  0.00  0.00    -0.041 C 
ATOM     31  H29 LF0 d   1       6.652 -42.354 -15.377  0.00  0.00     0.040 H 
ATOM     32  H30 LF0 d   1       8.105 -41.680 -16.189  0.00  0.00     0.040 H 
ATOM     33  C4  LF0 d   1       7.471 -42.032 -12.821  0.00  0.00     0.026 C 
ATOM     34  H27 LF0 d   1       9.158 -41.442 -13.993  0.00  0.00     0.036 H 
ATOM     35  H28 LF0 d   1       7.681 -40.451 -14.244  0.00  0.00     0.036 H 
ATOM     36  H25 LF0 d   1       7.718 -41.417 -11.943  0.00  0.00     0.075 H 
ATOM     37  H26 LF0 d   1       6.380 -42.160 -12.884  0.00  0.00     0.075 H 
ENDBRANCH   1  19
BRANCH   2  38
ATOM     38  C18 LF0 d   1      12.124 -46.450 -15.495  0.00  0.00     0.151 C 
ATOM     39  H15 LF0 d   1      11.595 -45.494 -15.624  0.00  0.00     0.108 H 
BRANCH  38  40
ATOM     40  C19 LF0 d   1      12.676 -46.545 -14.071  0.00  0.00     0.208 C 
ATOM     41  O20 LF0 d   1      13.776 -46.125 -13.779  0.00  0.00    -0.646 OA
ATOM     42  O21 LF0 d   1      11.956 -47.020 -13.073  0.00  0.00    -0.646 OA
ENDBRANCH  38  40
BRANCH  38  43
ATOM     43  O22 LF0 d   1      13.242 -46.454 -16.327  0.00  0.00    -0.360 OA
BRANCH  43  44
ATOM     44  C23 LF0 d   1      13.070 -45.779 -17.581  0.00  0.00     0.051 C 
BRANCH  44  45
ATOM     45  C24 LF0 d   1      12.585 -44.337 -17.412  0.00  0.00    -0.048 C 
ATOM     46  H16 LF0 d   1      12.471 -43.870 -18.401  0.00  0.00     0.031 H 
ATOM     47  H17 LF0 d   1      13.320 -43.770 -16.821  0.00  0.00     0.031 H 
ATOM     48  H18 LF0 d   1      11.616 -44.335 -16.892  0.00  0.00     0.031 H 
ENDBRANCH  44  45
BRANCH  44  49
ATOM     49  C25 LF0 d   1      12.133 -46.565 -18.474  0.00  0.00    -0.048 C 
ATOM     50  H19 LF0 d   1      12.010 -46.037 -19.431  0.00  0.00     0.031 H 
ATOM     51  H20 LF0 d   1      11.154 -46.664 -17.982  0.00  0.00     0.031 H 
ATOM     52  H21 LF0 d   1      12.554 -47.564 -18.658  0.00  0.00     0.031 H 
ENDBRANCH  44  49
BRANCH  44  53
ATOM     53  C26 LF0 d   1      14.458 -45.823 -18.227  0.00  0.00    -0.048 C 
ATOM     54  H22 LF0 d   1      14.423 -45.322 -19.206  0.00  0.00     0.031 H 
ATOM     55  H23 LF0 d   1      14.767 -46.870 -18.362  0.00  0.00     0.031 H 
ATOM     56  H24 LF0 d   1      15.181 -45.308 -17.578  0.00  0.00     0.031 H 
ENDBRANCH  44  53
ENDBRANCH  43  44
ENDBRANCH  38  43
ENDBRANCH   2  38
BRANCH   3  57
ATOM     57  C17 LF0 d   1      13.041 -49.429 -15.827  0.00  0.00    -0.035 C 
ATOM     58  H12 LF0 d   1      13.081 -50.515 -15.999  0.00  0.00     0.035 H 
ATOM     59  H13 LF0 d   1      13.441 -49.201 -14.828  0.00  0.00     0.035 H 
ATOM     60  H14 LF0 d   1      13.644 -48.915 -16.590  0.00  0.00     0.035 H 
ENDBRANCH   3  57
TORSDOF 9
