REMARK  2 active torsions:
REMARK  status: ('A' for Active; 'I' for Inactive)
REMARK    1  A    between atoms: C7_5  and  N8_10 
REMARK    2  A    between atoms: C4_8  and  C9_6 
REMARK       I    between atoms: C9_6  and  N11_12 
ROOT
ATOM      1  C1  1X7 d   1      21.606  34.765  20.202  0.00  0.00    -0.044 A 
ATOM      2  C2  1X7 d   1      20.963  34.559  18.915  0.00  0.00     0.029 A 
ATOM      3  C3  1X7 d   1      20.337  33.305  18.852  0.00  0.00     0.037 A 
ATOM      4  N6  1X7 d   1      20.227  35.029  16.680  0.00  0.00    -0.242 NA
ATOM      5  C7  1X7 d   1      20.887  35.404  17.768  0.00  0.00     0.132 A 
ATOM      6  C13 1X7 d   1      21.468  33.763  21.057  0.00  0.00     0.053 A 
ATOM      7  C4  1X7 d   1      19.659  32.949  17.652  0.00  0.00     0.067 A 
ATOM      8  C5  1X7 d   1      19.619  33.859  16.595  0.00  0.00     0.021 A 
ATOM      9  S12 1X7 d   1      20.563  32.434  20.371  0.00  0.00    -0.081 SA
ATOM     10 BR1  1X7 d   1      22.152  33.715  22.814  0.00  0.00    -0.043 Br
ATOM     11  H1  1X7 d   1      22.158  35.672  20.444  0.00  0.00     0.087 H 
ATOM     12  H2  1X7 d   1      19.081  33.602  15.690  0.00  0.00     0.116 H 
ENDROOT
BRANCH   7  13
ATOM     13  C9  1X7 d   1      18.958  31.659  17.537  0.00  0.00     0.252 C 
ATOM     14  O10 1X7 d   1      19.067  30.832  18.412  0.00  0.00    -0.268 OA
ATOM     15  N11 1X7 d   1      18.178  31.397  16.471  0.00  0.00    -0.366 N 
ATOM     16  H5  1X7 d   1      17.706  30.518  16.401  0.00  0.00     0.159 HD
ATOM     17  H6  1X7 d   1      18.071  32.081  15.749  0.00  0.00     0.159 HD
ENDBRANCH   7  13
BRANCH   5  18
ATOM     18  N8  1X7 d   1      21.498  36.642  17.785  0.00  0.00    -0.383 N 
ATOM     19  H3  1X7 d   1      21.445  37.254  16.958  0.00  0.00     0.157 HD
ATOM     20  H4  1X7 d   1      22.007  36.953  18.624  0.00  0.00     0.157 HD
ENDBRANCH   5  18
TORSDOF 2
