REMARK  3 active torsions:
REMARK  status: ('A' for Active; 'I' for Inactive)
REMARK    1  A    between atoms: C4_4  and  C9_9 
REMARK    2  A    between atoms: C7_7  and  N8_8 
REMARK       I    between atoms: C9_9  and  N11_11 
REMARK    3  A    between atoms: C13_13  and  C14_14 
REMARK       I    between atoms: C14_14  and  N16_16 
ROOT
ATOM      1  C1  1X8 d   1      21.426  34.620  19.974  0.00  0.00    -0.046 A 
ATOM      2  C2  1X8 d   1      20.770  34.532  18.738  0.00  0.00     0.029 A 
ATOM      3  C3  1X8 d   1      20.089  33.315  18.577  0.00  0.00     0.037 A 
ATOM      4  C4  1X8 d   1      19.368  33.053  17.382  0.00  0.00     0.067 A 
ATOM      5  C5  1X8 d   1      19.335  34.039  16.403  0.00  0.00     0.021 A 
ATOM      6  N6  1X8 d   1      19.985  35.176  16.567  0.00  0.00    -0.242 NA
ATOM      7  C7  1X8 d   1      20.688  35.462  17.655  0.00  0.00     0.132 A 
ATOM      8  S12 1X8 d   1      20.315  32.307  19.997  0.00  0.00    -0.083 SA
ATOM      9  C13 1X8 d   1      21.270  33.549  20.773  0.00  0.00     0.074 A 
ATOM     10  H1  1X8 d   1      22.016  35.488  20.265  0.00  0.00     0.087 H 
ATOM     11  H2  1X8 d   1      18.769  33.872  15.494  0.00  0.00     0.116 H 
ENDROOT
BRANCH   4  12
ATOM     12  C9  1X8 d   1      18.621  31.779  17.238  0.00  0.00     0.252 C 
ATOM     13  O10 1X8 d   1      18.919  30.824  17.932  0.00  0.00    -0.268 OA
ATOM     14  N11 1X8 d   1      17.577  31.650  16.389  0.00  0.00    -0.366 N 
ATOM     15  H5  1X8 d   1      17.096  30.776  16.317  0.00  0.00     0.159 HD
ATOM     16  H6  1X8 d   1      17.286  32.428  15.833  0.00  0.00     0.159 HD
ENDBRANCH   4  12
BRANCH   7  17
ATOM     17  N8  1X8 d   1      21.334  36.671  17.717  0.00  0.00    -0.383 N 
ATOM     18  H3  1X8 d   1      21.267  37.332  16.930  0.00  0.00     0.157 HD
ATOM     19  H4  1X8 d   1      21.886  36.918  18.551  0.00  0.00     0.157 HD
ENDBRANCH   7  17
BRANCH   9  20
ATOM     20  C14 1X8 d   1      21.792  33.354  22.126  0.00  0.00     0.256 C 
ATOM     21  O15 1X8 d   1      21.427  32.356  22.746  0.00  0.00    -0.267 OA
ATOM     22  N16 1X8 d   1      22.581  34.278  22.709  0.00  0.00    -0.366 N 
ATOM     23  H7  1X8 d   1      22.928  34.127  23.634  0.00  0.00     0.159 HD
ATOM     24  H8  1X8 d   1      22.819  35.115  22.216  0.00  0.00     0.159 HD
ENDBRANCH   9  20
TORSDOF 3
