REMARK  9 active torsions:
REMARK  status: ('A' for Active; 'I' for Inactive)
REMARK    1  A    between atoms: PB_1  and  O3A_5 
REMARK    2  A    between atoms: O3A_5  and  PA_6 
REMARK    3  A    between atoms: PA_6  and  O5'_9 
REMARK    4  A    between atoms: O5'_9  and  C5'_10 
REMARK    5  A    between atoms: C5'_10  and  C4'_11 
REMARK    6  A    between atoms: C3'_13  and  O3'_14 
REMARK    7  A    between atoms: C2'_15  and  O2'_16 
REMARK    8  A    between atoms: C1'_17  and  N9_18 
REMARK    9  A    between atoms: C2_25  and  N2_26 
ROOT
ATOM      1  C4' GDP d   1      20.550  43.696  38.711  0.00  0.00     0.089 C 
ATOM      2  O4' GDP d   1      20.129  42.553  37.964  0.00  0.00    -0.353 OA
ATOM      3  C3' GDP d   1      19.265  44.346  39.187  0.00  0.00     0.091 C 
ATOM      4  C2' GDP d   1      18.246  43.232  39.130  0.00  0.00     0.105 C 
ATOM      5  C1' GDP d   1      18.693  42.525  37.871  0.00  0.00     0.139 C 
ATOM      6  H3  GDP d   1      21.098  44.395  38.062  0.00  0.00     0.090 H 
ATOM      7  H4  GDP d   1      19.365  44.753  40.204  0.00  0.00     0.091 H 
ATOM      8  H6  GDP d   1      18.335  42.581  40.012  0.00  0.00     0.093 H 
ATOM      9  H8  GDP d   1      18.354  43.078  36.982  0.00  0.00     0.122 H 
ENDROOT
BRANCH   5  10
ATOM     10  N9  GDP d   1      18.183  41.141  37.791  0.00  0.00    -0.295 N 
ATOM     11  C8  GDP d   1      18.320  40.243  38.775  0.00  0.00     0.071 A 
ATOM     12  N7  GDP d   1      17.789  39.052  38.428  0.00  0.00    -0.234 NA
ATOM     13  H9  GDP d   1      18.798  40.447  39.732  0.00  0.00     0.144 H 
ATOM     14  C5  GDP d   1      17.308  39.185  37.200  0.00  0.00     0.171 A 
ATOM     15  C6  GDP d   1      16.624  38.269  36.283  0.00  0.00     0.292 A 
ATOM     16  C4  GDP d   1      17.569  40.564  36.765  0.00  0.00     0.161 A 
ATOM     17  O6  GDP d   1      16.381  37.094  36.620  0.00  0.00    -0.265 OA
ATOM     18  N1  GDP d   1      16.277  38.757  35.079  0.00  0.00    -0.154 N 
ATOM     19  C2  GDP d   1      16.546  40.040  34.729  0.00  0.00     0.680 A 
ATOM     20  H10 GDP d   1      15.810  38.160  34.426  0.00  0.00     0.187 HD
ATOM     21  N3  GDP d   1      17.180  40.942  35.531  0.00  0.00    -0.174 N 
ATOM     22  H13 GDP d   1      17.359  41.900  35.198  0.00  0.00     0.186 HD
BRANCH  19  23
ATOM     23  N2  GDP d   1      16.137  40.403  33.503  0.00  0.00    -0.234 N 
ATOM     24  H11 GDP d   1      16.306  41.362  33.167  0.00  0.00     0.174 HD
ATOM     25  H12 GDP d   1      15.654  39.723  32.899  0.00  0.00     0.174 HD
ENDBRANCH  19  23
ENDBRANCH   5  10
BRANCH   4  26
ATOM     26  O2' GDP d   1      16.890  43.655  39.013  0.00  0.00    -0.388 OA
ATOM     27  H7  GDP d   1      16.785  44.160  38.215  0.00  0.00     0.210 HD
ENDBRANCH   4  26
BRANCH   1  28
ATOM     28  C5' GDP d   1      21.467  43.269  39.849  0.00  0.00     0.058 C 
ATOM     29  H1  GDP d   1      22.503  43.242  39.480  0.00  0.00     0.079 H 
ATOM     30  H2  GDP d   1      21.387  44.003  40.665  0.00  0.00     0.079 H 
BRANCH  28  31
ATOM     31  O5' GDP d   1      21.119  41.970  40.356  0.00  0.00    -0.287 OA
BRANCH  31  32
ATOM     32  PA  GDP d   1      21.540  41.498  41.855  0.00  0.00     0.418 P 
ATOM     33  O1A GDP d   1      20.502  40.560  42.435  0.00  0.00    -0.624 OA
ATOM     34  O2A GDP d   1      22.017  42.720  42.604  0.00  0.00    -0.624 OA
BRANCH  32  35
ATOM     35  O3A GDP d   1      22.850  40.597  41.642  0.00  0.00    -0.173 OA
BRANCH  35  36
ATOM     36  PB  GDP d   1      23.816  40.233  42.869  0.00  0.00     0.431 P 
ATOM     37  O1B GDP d   1      24.673  41.466  42.988  0.00  0.00    -0.616 OA
ATOM     38  O2B GDP d   1      24.621  39.032  42.448  0.00  0.00    -0.616 OA
ATOM     39  O3B GDP d   1      22.818  39.925  43.949  0.00  0.00    -0.616 OA
ENDBRANCH  35  36
ENDBRANCH  32  35
ENDBRANCH  31  32
ENDBRANCH  28  31
ENDBRANCH   1  28
BRANCH   3  40
ATOM     40  O3' GDP d   1      18.902  45.371  38.267  0.00  0.00    -0.390 OA
ATOM     41  H5  GDP d   1      18.097  45.785  38.557  0.00  0.00     0.210 HD
ENDBRANCH   3  40
TORSDOF 9
