REMARK  8 active torsions:
REMARK  status: ('A' for Active; 'I' for Inactive)
REMARK    1  A    between atoms: C2_1  and  N7_24 
REMARK    2  A    between atoms: C22_17  and  C3_2 
REMARK    3  A    between atoms: N7_24  and  C8_5 
REMARK    4  A    between atoms: C11_6  and  N16_28 
REMARK    5  A    between atoms: O14_8  and  C15_9 
REMARK    6  A    between atoms: C10_25  and  O14_8 
REMARK    7  A    between atoms: C17_10  and  C19_11 
REMARK       I    between atoms: N16_28  and  C17_10 
REMARK    8  A    between atoms: C19_11  and  C20_30 
ROOT
ATOM      1  C8  1WY d   1      52.253   0.450 -17.007  0.00  0.00     0.084 A 
ATOM      2  C11 1WY d   1      50.820   2.341 -16.508  0.00  0.00     0.037 A 
ATOM      3  C12 1WY d   1      50.983   0.484 -14.970  0.00  0.00    -0.046 A 
ATOM      4  C10 1WY d   1      51.876  -0.160 -15.815  0.00  0.00     0.095 A 
ATOM      5  C13 1WY d   1      50.459   1.716 -15.319  0.00  0.00    -0.054 A 
ATOM      6  C9  1WY d   1      51.723   1.700 -17.358  0.00  0.00    -0.028 A 
ATOM      7  H2  1WY d   1      50.695   0.020 -14.034  0.00  0.00     0.087 H 
ATOM      8  H15 1WY d   1      49.755   2.203 -14.654  0.00  0.00     0.087 H 
ATOM      9  H16 1WY d   1      52.015   2.169 -18.291  0.00  0.00     0.090 H 
ENDROOT
BRANCH   1  10
ATOM     10  N7  1WY d   1      53.099  -0.322 -17.842  0.00  0.00    -0.185 N 
ATOM     11  H14 1WY d   1      53.702  -1.022 -17.386  0.00  0.00     0.184 HD
BRANCH  10  12
ATOM     12  C2  1WY d   1      53.182  -0.212 -19.231  0.00  0.00     0.727 A 
ATOM     13  N1  1WY d   1      52.417   0.682 -19.927  0.00  0.00    -0.060 NA
ATOM     14  C3  1WY d   1      52.523   0.814 -21.284  0.00  0.00     0.111 A 
ATOM     15  C5  1WY d   1      53.428  -0.008 -21.944  0.00  0.00     0.082 A 
ATOM     16  C6  1WY d   1      54.194  -0.925 -21.254  0.00  0.00     0.044 A 
ATOM     17 CL1  1WY d   1      53.646   0.060 -23.626  0.00  0.00    -0.080 Cl
ATOM     18  N4  1WY d   1      54.070  -1.033 -19.892  0.00  0.00    -0.073 NA
ATOM     19  H1  1WY d   1      54.893  -1.559 -21.787  0.00  0.00     0.118 H 
BRANCH  14  20
ATOM     20  C22 1WY d   1      51.654   1.814 -21.931  0.00  0.00     0.023 A 
ATOM     21  C23 1WY d   1      51.832   2.440 -23.157  0.00  0.00    -0.009 A 
ATOM     22  N25 1WY d   1      50.795   3.274 -23.378  0.00  0.00    -0.364 N 
ATOM     23  H8  1WY d   1      52.673   2.283 -23.831  0.00  0.00     0.112 H 
ATOM     24  C26 1WY d   1      49.953   3.192 -22.342  0.00  0.00     0.043 A 
ATOM     25  H13 1WY d   1      50.672   3.874 -24.206  0.00  0.00     0.165 HD
ATOM     26  C24 1WY d   1      50.453   2.288 -21.435  0.00  0.00     0.004 A 
ATOM     27  C29 1WY d   1      48.757   3.855 -22.125  0.00  0.00    -0.056 A 
ATOM     28  C27 1WY d   1      49.760   2.018 -20.262  0.00  0.00    -0.070 A 
ATOM     29  C28 1WY d   1      48.552   2.678 -20.021  0.00  0.00    -0.082 A 
ATOM     30  H9  1WY d   1      50.150   1.306 -19.544  0.00  0.00     0.084 H 
ATOM     31  C30 1WY d   1      48.048   3.593 -20.951  0.00  0.00    -0.081 A 
ATOM     32  H11 1WY d   1      48.002   2.480 -19.108  0.00  0.00     0.083 H 
ATOM     33  H10 1WY d   1      47.108   4.098 -20.761  0.00  0.00     0.083 H 
ATOM     34  H12 1WY d   1      48.378   4.564 -22.852  0.00  0.00     0.086 H 
ENDBRANCH  14  20
ENDBRANCH  10  12
ENDBRANCH   1  10
BRANCH   4  35
ATOM     35  O14 1WY d   1      52.432  -1.375 -15.526  0.00  0.00    -0.354 OA
BRANCH  35  36
ATOM     36  C15 1WY d   1      51.917  -2.322 -14.597  0.00  0.00     0.010 C 
ATOM     37  H3  1WY d   1      52.572  -3.205 -14.573  0.00  0.00     0.066 H 
ATOM     38  H4  1WY d   1      50.905  -2.624 -14.904  0.00  0.00     0.066 H 
ATOM     39  H5  1WY d   1      51.876  -1.869 -13.596  0.00  0.00     0.066 H 
ENDBRANCH  35  36
ENDBRANCH   4  35
BRANCH   2  40
ATOM     40  N16 1WY d   1      50.246   3.620 -16.772  0.00  0.00    -0.327 N 
ATOM     41  C17 1WY d   1      50.625   4.611 -17.677  0.00  0.00     0.221 C 
ATOM     42  O18 1WY d   1      51.554   4.431 -18.435  0.00  0.00    -0.273 OA
ATOM     43  H17 1WY d   1      49.443   3.842 -16.219  0.00  0.00     0.169 HD
BRANCH  41  44
ATOM     44  C19 1WY d   1      49.852   5.876 -17.722  0.00  0.00     0.006 C 
ATOM     45  H6  1WY d   1      49.175   5.902 -16.856  0.00  0.00     0.046 H 
ATOM     46  H7  1WY d   1      49.261   5.891 -18.650  0.00  0.00     0.046 H 
BRANCH  44  47
ATOM     47  C20 1WY d   1      50.737   7.131 -17.687  0.00  0.00    -0.068 C 
ATOM     48  H18 1WY d   1      50.102   8.028 -17.723  0.00  0.00     0.028 H 
ATOM     49  H19 1WY d   1      51.415   7.126 -18.553  0.00  0.00     0.028 H 
ATOM     50  H20 1WY d   1      51.328   7.137 -16.759  0.00  0.00     0.028 H 
ENDBRANCH  44  47
ENDBRANCH  41  44
ENDBRANCH   2  40
TORSDOF 8
