REMARK  7 active torsions:
REMARK  status: ('A' for Active; 'I' for Inactive)
REMARK    1  A    between atoms: C2_2  and  C9_6 
REMARK    2  A    between atoms: C9_6  and  N12_7 
REMARK    3  A    between atoms: N12_7  and  C13_8 
REMARK       I    between atoms: N12_7  and  C32_20 
REMARK    4  A    between atoms: C13_8  and  C16_9 
REMARK    5  A    between atoms: C32_20  and  C34_22 
REMARK    6  A    between atoms: C34_22  and  C37_23 
REMARK    7  A    between atoms: C37_23  and  C40_24 
ROOT
ATOM      1  N12 1XO d   1     -25.433  -6.063   8.093  0.00  0.00    -0.340 N 
ATOM      2  C32 1XO d   1     -25.818  -5.917   9.393  0.00  0.00     0.220 C 
ATOM      3  O33 1XO d   1     -25.218  -6.492  10.303  0.00  0.00    -0.273 OA
ENDROOT
BRANCH   1   4
ATOM      4  C9  1XO d   1     -26.173  -5.366   7.037  0.00  0.00     0.028 C 
ATOM      5  H4  1XO d   1     -26.304  -6.066   6.199  0.00  0.00     0.072 H 
ATOM      6  H5  1XO d   1     -27.158  -5.090   7.442  0.00  0.00     0.072 H 
BRANCH   4   7
ATOM      7  C2  1XO d   1     -25.530  -4.118   6.498  0.00  0.00     0.000 A 
ATOM      8  S1  1XO d   1     -23.851  -3.988   6.104  0.00  0.00    -0.105 SA
ATOM      9  C7  1XO d   1     -24.084  -2.356   5.582  0.00  0.00    -0.044 A 
ATOM     10  C5  1XO d   1     -25.347  -1.948   5.695  0.00  0.00    -0.076 A 
ATOM     11  H3  1XO d   1     -23.281  -1.727   5.200  0.00  0.00     0.095 H 
ATOM     12  C3  1XO d   1     -26.209  -3.000   6.241  0.00  0.00    -0.068 A 
ATOM     13  H2  1XO d   1     -25.696  -0.955   5.416  0.00  0.00     0.084 H 
ATOM     14  H1  1XO d   1     -27.277  -2.882   6.416  0.00  0.00     0.085 H 
ENDBRANCH   4   7
ENDBRANCH   1   4
BRANCH   1  15
ATOM     15  C13 1XO d   1     -24.287  -6.912   7.763  0.00  0.00     0.052 C 
ATOM     16  H6  1XO d   1     -23.459  -6.612   8.422  0.00  0.00     0.076 H 
ATOM     17  H7  1XO d   1     -24.018  -6.703   6.717  0.00  0.00     0.076 H 
BRANCH  15  18
ATOM     18  C16 1XO d   1     -24.441  -8.398   7.893  0.00  0.00     0.125 A 
ATOM     19  N17 1XO d   1     -25.529  -8.975   7.544  0.00  0.00    -0.233 NA
ATOM     20  C18 1XO d   1     -25.682 -10.313   7.637  0.00  0.00     0.074 A 
ATOM     21  C19 1XO d   1     -24.612 -11.106   8.086  0.00  0.00     0.061 A 
ATOM     22  C26 1XO d   1     -26.907 -10.890   7.287  0.00  0.00    -0.054 A 
ATOM     23  C20 1XO d   1     -24.764 -12.492   8.192  0.00  0.00    -0.065 A 
ATOM     24  C28 1XO d   1     -23.323 -10.394   8.421  0.00  0.00     0.259 A 
ATOM     25  C22 1XO d   1     -25.993 -13.065   7.841  0.00  0.00    -0.082 A 
ATOM     26  H8  1XO d   1     -23.945 -13.112   8.540  0.00  0.00     0.085 H 
ATOM     27  C24 1XO d   1     -27.061 -12.276   7.391  0.00  0.00    -0.081 A 
ATOM     28  H9  1XO d   1     -26.121 -14.139   7.919  0.00  0.00     0.083 H 
ATOM     29  H10 1XO d   1     -28.004 -12.739   7.124  0.00  0.00     0.083 H 
ATOM     30  N29 1XO d   1     -23.336  -9.055   8.300  0.00  0.00    -0.309 N 
ATOM     31  O31 1XO d   1     -22.307 -11.012   8.764  0.00  0.00    -0.267 OA
ATOM     32  H12 1XO d   1     -22.509  -8.536   8.516  0.00  0.00     0.170 HD
ATOM     33  H11 1XO d   1     -27.726 -10.271   6.940  0.00  0.00     0.087 H 
ENDBRANCH  15  18
ENDBRANCH   1  15
BRANCH   2  34
ATOM     34  C34 1XO d   1     -26.959  -5.004   9.808  0.00  0.00     0.013 C 
ATOM     35  H13 1XO d   1     -27.344  -5.321  10.789  0.00  0.00     0.047 H 
ATOM     36  H14 1XO d   1     -27.765  -5.063   9.062  0.00  0.00     0.047 H 
BRANCH  34  37
ATOM     37  C37 1XO d   1     -26.444  -3.530   9.903  0.00  0.00    -0.033 C 
ATOM     38  H15 1XO d   1     -27.294  -2.872  10.137  0.00  0.00     0.040 H 
ATOM     39  H16 1XO d   1     -26.014  -3.242   8.932  0.00  0.00     0.040 H 
BRANCH  37  40
ATOM     40  C40 1XO d   1     -25.364  -3.357  10.997  0.00  0.00    -0.058 A 
ATOM     41  C41 1XO d   1     -25.707  -2.809  12.245  0.00  0.00    -0.077 A 
ATOM     42  C43 1XO d   1     -24.738  -2.647  13.247  0.00  0.00    -0.082 A 
ATOM     43  H17 1XO d   1     -26.731  -2.508  12.435  0.00  0.00     0.084 H 
ATOM     44  C45 1XO d   1     -23.414  -3.034  13.006  0.00  0.00    -0.083 A 
ATOM     45  H18 1XO d   1     -25.014  -2.223  14.206  0.00  0.00     0.083 H 
ATOM     46  C47 1XO d   1     -23.059  -3.579  11.771  0.00  0.00    -0.082 A 
ATOM     47  H19 1XO d   1     -22.664  -2.910  13.779  0.00  0.00     0.083 H 
ATOM     48  C49 1XO d   1     -24.029  -3.735  10.778  0.00  0.00    -0.077 A 
ATOM     49  H20 1XO d   1     -22.035  -3.880  11.583  0.00  0.00     0.083 H 
ATOM     50  H21 1XO d   1     -23.746  -4.156   9.820  0.00  0.00     0.084 H 
ENDBRANCH  37  40
ENDBRANCH  34  37
ENDBRANCH   2  34
TORSDOF 7
