REMARK  8 active torsions:
REMARK  status: ('A' for Active; 'I' for Inactive)
REMARK    1  A    between atoms: C1_1  and  C4_4 
REMARK    2  A    between atoms: C2_2  and  O1_6 
REMARK       I    between atoms: C4_4  and  N1_8 
REMARK    3  A    between atoms: O1_6  and  C8_11 
REMARK    4  A    between atoms: N1_8  and  C10_13 
REMARK    5  A    between atoms: C10_13  and  C11_16 
REMARK    6  A    between atoms: C11_16  and  N3_17 
REMARK    7  A    between atoms: C16_22  and  C17_23 
REMARK    8  A    between atoms: C17_23  and  C18_24 
ROOT
ATOM      1  C1  1XP d   1     -24.961  -6.905   7.517  0.00  0.00     0.066 A 
ATOM      2  C2  1XP d   1     -26.228  -7.483   7.122  0.00  0.00     0.085 A 
ATOM      3  C3  1XP d   1     -23.844  -7.814   7.908  0.00  0.00    -0.043 A 
ATOM      4  C5  1XP d   1     -26.365  -8.936   7.108  0.00  0.00    -0.027 A 
ATOM      5  C6  1XP d   1     -24.001  -9.228   7.892  0.00  0.00     0.067 A 
ATOM      6  C7  1XP d   1     -25.278  -9.794   7.483  0.00  0.00     0.057 A 
ATOM      7  C9  1XP d   1     -22.892 -10.109   8.275  0.00  0.00     0.101 C 
ATOM      8 CL1  1XP d   1     -25.541 -11.520   7.435  0.00  0.00    -0.083 Cl
ATOM      9  N2  1XP d   1     -22.057 -10.855   8.562  0.00  0.00    -0.191 NA
ATOM     10  H1  1XP d   1     -22.894  -7.388   8.210  0.00  0.00     0.087 H 
ATOM     11  H2  1XP d   1     -27.309  -9.377   6.808  0.00  0.00     0.090 H 
ENDROOT
BRANCH   1  12
ATOM     12  C4  1XP d   1     -24.729  -5.421   7.544  0.00  0.00     0.254 C 
ATOM     13  N1  1XP d   1     -25.764  -4.598   7.440  0.00  0.00    -0.355 N 
ATOM     14  H3  1XP d   1     -26.670  -5.011   7.351  0.00  0.00     0.162 HD
ATOM     15  O2  1XP d   1     -23.587  -4.971   7.659  0.00  0.00    -0.268 OA
BRANCH  13  16
ATOM     16  C10 1XP d   1     -25.692  -3.133   7.445  0.00  0.00     0.018 C 
ATOM     17  H7  1XP d   1     -26.310  -2.748   6.621  0.00  0.00     0.066 H 
ATOM     18  H8  1XP d   1     -24.645  -2.832   7.291  0.00  0.00     0.066 H 
BRANCH  16  19
ATOM     19  C11 1XP d   1     -26.198  -2.510   8.780  0.00  0.00     0.098 C 
ATOM     20  H9  1XP d   1     -27.154  -2.992   9.032  0.00  0.00     0.078 H 
ATOM     21  H10 1XP d   1     -26.363  -1.437   8.606  0.00  0.00     0.078 H 
BRANCH  19  22
ATOM     22  N3  1XP d   1     -25.301  -2.643   9.959  0.00  0.00    -0.070 N 
ATOM     23  C12 1XP d   1     -25.927  -1.901  11.076  0.00  0.00     0.084 C 
ATOM     24  C14 1XP d   1     -25.101  -1.907  12.373  0.00  0.00    -0.032 C 
ATOM     25  H12 1XP d   1     -26.906  -2.356  11.288  0.00  0.00     0.076 H 
ATOM     26  H13 1XP d   1     -26.068  -0.857  10.761  0.00  0.00     0.076 H 
ATOM     27  C16 1XP d   1     -23.723  -1.308  12.098  0.00  0.00     0.012 C 
ATOM     28  H16 1XP d   1     -24.987  -2.941  12.731  0.00  0.00     0.036 H 
ATOM     29  H17 1XP d   1     -25.616  -1.308  13.139  0.00  0.00     0.036 H 
ATOM     30  C15 1XP d   1     -23.014  -2.165  10.994  0.00  0.00    -0.032 C 
ATOM     31  H20 1XP d   1     -23.858  -0.287  11.712  0.00  0.00     0.052 H 
ATOM     32  C13 1XP d   1     -23.946  -2.102   9.718  0.00  0.00     0.084 C 
ATOM     33  H18 1XP d   1     -22.024  -1.746  10.764  0.00  0.00     0.036 H 
ATOM     34  H19 1XP d   1     -22.902  -3.205  11.333  0.00  0.00     0.036 H 
ATOM     35  H14 1XP d   1     -24.040  -1.052   9.405  0.00  0.00     0.076 H 
ATOM     36  H15 1XP d   1     -23.475  -2.684   8.912  0.00  0.00     0.076 H 
ATOM     37  H11 1XP d   1     -25.220  -3.618  10.201  0.00  0.00     0.279 HD
BRANCH  27  38
ATOM     38  C17 1XP d   1     -22.860  -1.218  13.401  0.00  0.00     0.163 C 
ATOM     39  O3  1XP d   1     -22.907  -2.093  14.270  0.00  0.00    -0.292 OA
BRANCH  38  40
ATOM     40  C18 1XP d   1     -22.035   0.063  13.595  0.00  0.00     0.010 A 
ATOM     41  C19 1XP d   1     -21.321   0.339  14.849  0.00  0.00    -0.067 A 
ATOM     42  C21 1XP d   1     -20.594   1.563  14.957  0.00  0.00    -0.045 A 
ATOM     43  H21 1XP d   1     -21.346  -0.368  15.670  0.00  0.00     0.085 H 
ATOM     44  C23 1XP d   1     -20.549   2.520  13.869  0.00  0.00     0.116 A 
ATOM     45  H23 1XP d   1     -20.062   1.782  15.876  0.00  0.00     0.088 H 
ATOM     46  C22 1XP d   1     -21.230   2.246  12.664  0.00  0.00    -0.045 A 
ATOM     47  F1  1XP d   1     -19.863   3.692  13.970  0.00  0.00    -0.206 F 
ATOM     48  C20 1XP d   1     -21.969   1.028  12.527  0.00  0.00    -0.067 A 
ATOM     49  H24 1XP d   1     -21.194   2.955  11.845  0.00  0.00     0.088 H 
ATOM     50  H22 1XP d   1     -22.491   0.827  11.598  0.00  0.00     0.085 H 
ENDBRANCH  38  40
ENDBRANCH  27  38
ENDBRANCH  19  22
ENDBRANCH  16  19
ENDBRANCH  13  16
ENDBRANCH   1  12
BRANCH   2  51
ATOM     51  O1  1XP d   1     -27.249  -6.592   6.768  0.00  0.00    -0.355 OA
BRANCH  51  52
ATOM     52  C8  1XP d   1     -28.647  -6.903   6.888  0.00  0.00     0.010 C 
ATOM     53  H4  1XP d   1     -29.244  -6.044   6.548  0.00  0.00     0.066 H 
ATOM     54  H5  1XP d   1     -28.885  -7.121   7.939  0.00  0.00     0.066 H 
ATOM     55  H6  1XP d   1     -28.882  -7.781   6.269  0.00  0.00     0.066 H 
ENDBRANCH  51  52
ENDBRANCH   2  51
TORSDOF 8
