REMARK  8 active torsions:
REMARK  status: ('A' for Active; 'I' for Inactive)
REMARK    1  A    between atoms: C8_11  and  C6_8 
REMARK    2  A    between atoms: N3_12  and  C8_11 
REMARK       I    between atoms: C9_14  and  N3_12 
REMARK    3  A    between atoms: N3_12  and  C23_32 
REMARK    4  A    between atoms: C10_16  and  C9_14 
REMARK    5  A    between atoms: N4_17  and  C10_16 
REMARK    6  A    between atoms: C16_23  and  C13_20 
REMARK    7  A    between atoms: C17_25  and  C16_23 
REMARK    8  A    between atoms: C23_32  and  C24_33 
ROOT
ATOM      1  N3  1XQ d   1     -25.635  -5.984   7.986  0.00  0.00    -0.339 N 
ATOM      2  C9  1XQ d   1     -25.736  -6.000   9.341  0.00  0.00     0.246 C 
ATOM      3  O3  1XQ d   1     -25.060  -6.766  10.042  0.00  0.00    -0.272 OA
ENDROOT
BRANCH   2   4
ATOM      4  C10 1XQ d   1     -26.704  -5.044  10.054  0.00  0.00     0.156 C 
ATOM      5  H10 1XQ d   1     -27.477  -5.618  10.587  0.00  0.00     0.090 H 
ATOM      6  H11 1XQ d   1     -27.182  -4.377   9.322  0.00  0.00     0.090 H 
BRANCH   4   7
ATOM      7  N4  1XQ d   1     -25.900  -4.246  11.024  0.00  0.00    -0.063 N 
ATOM      8  C11 1XQ d   1     -26.628  -3.112  11.597  0.00  0.00     0.085 C 
ATOM      9  C12 1XQ d   1     -25.803  -2.571  12.775  0.00  0.00    -0.032 C 
ATOM     10  H13 1XQ d   1     -27.615  -3.442  11.952  0.00  0.00     0.076 H 
ATOM     11  H14 1XQ d   1     -26.755  -2.327  10.837  0.00  0.00     0.076 H 
ATOM     12  C13 1XQ d   1     -24.387  -2.117  12.352  0.00  0.00     0.012 C 
ATOM     13  H15 1XQ d   1     -25.707  -3.364  13.531  0.00  0.00     0.036 H 
ATOM     14  H16 1XQ d   1     -26.333  -1.711  13.210  0.00  0.00     0.036 H 
ATOM     15  C14 1XQ d   1     -23.701  -3.224  11.517  0.00  0.00    -0.032 C 
ATOM     16  H17 1XQ d   1     -24.493  -1.222  11.721  0.00  0.00     0.052 H 
ATOM     17  C15 1XQ d   1     -24.631  -3.794  10.437  0.00  0.00     0.085 C 
ATOM     18  H18 1XQ d   1     -23.398  -4.039  12.190  0.00  0.00     0.036 H 
ATOM     19  H19 1XQ d   1     -22.810  -2.800  11.030  0.00  0.00     0.036 H 
ATOM     20  H20 1XQ d   1     -24.837  -3.013   9.691  0.00  0.00     0.076 H 
ATOM     21  H21 1XQ d   1     -24.136  -4.646   9.949  0.00  0.00     0.076 H 
ATOM     22  H12 1XQ d   1     -25.673  -4.864  11.787  0.00  0.00     0.280 HD
BRANCH  12  23
ATOM     23  C16 1XQ d   1     -23.506  -1.743  13.560  0.00  0.00     0.163 C 
ATOM     24  O4  1XQ d   1     -23.502  -2.492  14.536  0.00  0.00    -0.292 OA
BRANCH  23  25
ATOM     25  C17 1XQ d   1     -22.667  -0.502  13.484  0.00  0.00     0.010 A 
ATOM     26  C18 1XQ d   1     -21.716  -0.232  14.504  0.00  0.00    -0.067 A 
ATOM     27  C21 1XQ d   1     -20.912   0.931  14.454  0.00  0.00    -0.045 A 
ATOM     28  H22 1XQ d   1     -21.605  -0.925  15.330  0.00  0.00     0.085 H 
ATOM     29  C19 1XQ d   1     -21.048   1.831  13.371  0.00  0.00     0.116 A 
ATOM     30  H24 1XQ d   1     -20.195   1.132  15.242  0.00  0.00     0.088 H 
ATOM     31  C20 1XQ d   1     -21.982   1.568  12.357  0.00  0.00    -0.045 A 
ATOM     32  F1  1XQ d   1     -20.287   2.950  13.288  0.00  0.00    -0.206 F 
ATOM     33  C22 1XQ d   1     -22.784   0.416  12.418  0.00  0.00    -0.067 A 
ATOM     34  H23 1XQ d   1     -22.085   2.255  11.525  0.00  0.00     0.088 H 
ATOM     35  H25 1XQ d   1     -23.506   0.229  11.632  0.00  0.00     0.085 H 
ENDBRANCH  23  25
ENDBRANCH  12  23
ENDBRANCH   4   7
ENDBRANCH   2   4
BRANCH   1  36
ATOM     36  C8  1XQ d   1     -24.668  -6.845   7.295  0.00  0.00     0.053 C 
ATOM     37  H8  1XQ d   1     -24.763  -6.644   6.218  0.00  0.00     0.076 H 
ATOM     38  H9  1XQ d   1     -23.665  -6.549   7.636  0.00  0.00     0.076 H 
BRANCH  36  39
ATOM     39  C6  1XQ d   1     -24.782  -8.336   7.483  0.00  0.00     0.125 A 
ATOM     40  N1  1XQ d   1     -25.859  -9.004   7.231  0.00  0.00    -0.237 NA
ATOM     41  C5  1XQ d   1     -25.826 -10.382   7.436  0.00  0.00     0.052 A 
ATOM     42  C2  1XQ d   1     -27.087 -11.161   7.136  0.00  0.00    -0.004 C 
ATOM     43  C4  1XQ d   1     -24.702 -11.006   7.875  0.00  0.00     0.058 A 
ATOM     44  C1  1XQ d   1     -26.724 -12.623   6.838  0.00  0.00     0.025 C 
ATOM     45  H3  1XQ d   1     -27.760 -11.120   8.005  0.00  0.00     0.045 H 
ATOM     46  H4  1XQ d   1     -27.590 -10.722   6.262  0.00  0.00     0.045 H 
ATOM     47  O1  1XQ d   1     -25.970 -13.114   7.942  0.00  0.00    -0.386 OA
ATOM     48  H1  1XQ d   1     -27.640 -13.219   6.715  0.00  0.00     0.074 H 
ATOM     49  H2  1XQ d   1     -26.123 -12.680   5.918  0.00  0.00     0.074 H 
ATOM     50  C3  1XQ d   1     -24.680 -12.513   8.088  0.00  0.00     0.050 C 
ATOM     51  H5  1XQ d   1     -23.998 -12.962   7.351  0.00  0.00     0.082 H 
ATOM     52  H6  1XQ d   1     -24.310 -12.719   9.103  0.00  0.00     0.082 H 
ATOM     53  C7  1XQ d   1     -23.486 -10.226   8.149  0.00  0.00     0.257 A 
ATOM     54  N2  1XQ d   1     -23.599  -8.910   7.937  0.00  0.00    -0.310 N 
ATOM     55  O2  1XQ d   1     -22.427 -10.691   8.548  0.00  0.00    -0.267 OA
ATOM     56  H7  1XQ d   1     -22.809  -8.321   8.110  0.00  0.00     0.170 HD
ENDBRANCH  36  39
ENDBRANCH   1  36
BRANCH   1  57
ATOM     57  C23 1XQ d   1     -26.358  -5.115   7.040  0.00  0.00     0.028 C 
ATOM     58  H26 1XQ d   1     -27.301  -4.813   7.519  0.00  0.00     0.072 H 
ATOM     59  H27 1XQ d   1     -26.577  -5.710   6.141  0.00  0.00     0.072 H 
BRANCH  57  60
ATOM     60  C24 1XQ d   1     -25.656  -3.872   6.600  0.00  0.00     0.000 A 
ATOM     61  C25 1XQ d   1     -26.112  -2.575   6.626  0.00  0.00    -0.068 A 
ATOM     62  C26 1XQ d   1     -25.168  -1.644   6.096  0.00  0.00    -0.076 A 
ATOM     63  H28 1XQ d   1     -27.090  -2.288   7.010  0.00  0.00     0.085 H 
ATOM     64  C27 1XQ d   1     -24.016  -2.249   5.667  0.00  0.00    -0.044 A 
ATOM     65  H29 1XQ d   1     -25.344  -0.571   6.039  0.00  0.00     0.084 H 
ATOM     66  S1  1XQ d   1     -24.057  -3.974   5.904  0.00  0.00    -0.105 SA
ATOM     67  H30 1XQ d   1     -23.174  -1.714   5.229  0.00  0.00     0.095 H 
ENDBRANCH  57  60
ENDBRANCH   1  57
TORSDOF 8
