REMARK  4 active torsions:
REMARK  status: ('A' for Active; 'I' for Inactive)
REMARK    1  A    between atoms: PA_1  and  O3A_4 
REMARK    2  A    between atoms: O3A_4  and  PB_6 
REMARK    3  A    between atoms: PB_6  and  O3B_9 
REMARK    4  A    between atoms: O3B_9  and  PG_10 
ROOT
ATOM      1  PB  UTP d   1      12.450  59.615   7.854  0.00  0.00     0.428 P 
ATOM      2  O1B UTP d   1      13.338  58.740   8.739  0.00  0.00    -0.624 OA
ATOM      3  O2B UTP d   1      12.906  60.996   7.982  0.00  0.00    -0.624 OA
ENDROOT
BRANCH   1   4
ATOM      4  O3A UTP d   1      12.624  59.177   6.342  0.00  0.00    -0.173 OA
BRANCH   4   5
ATOM      5  PA  UTP d   1      13.392  57.898   5.887  0.00  0.00     0.431 P 
ATOM      6  O1A UTP d   1      13.769  57.084   7.077  0.00  0.00    -0.616 OA
ATOM      7  O2A UTP d   1      12.470  57.081   4.949  0.00  0.00    -0.616 OA
ATOM      8  O5' UTP d   1      14.704  58.275   5.112  0.00  0.00    -0.616 OA
ENDBRANCH   4   5
ENDBRANCH   1   4
BRANCH   1   9
ATOM      9  O3B UTP d   1      10.925  59.538   8.312  0.00  0.00    -0.173 OA
BRANCH   9  10
ATOM     10  PG  UTP d   1      10.082  58.254   8.663  0.00  0.00     0.431 P 
ATOM     11  O1G UTP d   1       9.428  58.395  10.064  0.00  0.00    -0.616 OA
ATOM     12  O2G UTP d   1      10.993  57.025   8.650  0.00  0.00    -0.616 OA
ATOM     13  O3G UTP d   1       8.961  58.063   7.669  0.00  0.00    -0.616 OA
ENDBRANCH   9  10
ENDBRANCH   1   9
TORSDOF 4
