REMARK  6 active torsions:
REMARK  status: ('A' for Active; 'I' for Inactive)
REMARK    1  A    between atoms: C2'_10  and  O2'_11 
REMARK    2  A    between atoms: C1'_12  and  N9_13 
REMARK    3  A    between atoms: C2_20  and  N2_21 
REMARK    4  A    between atoms: C2A_33  and  O2A_34 
REMARK    5  A    between atoms: C1A_35  and  N91_36 
REMARK    6  A    between atoms: C21_43  and  N21_44 
ROOT
ATOM      1  P1  C2E d   1      14.008   5.266  24.800  0.00  0.00     0.408 P 
ATOM      2  O2P C2E d   1      13.897   3.775  24.826  0.00  0.00    -0.624 OA
ATOM      3  O1P C2E d   1      12.749   6.018  25.129  0.00  0.00    -0.624 OA
ATOM      4  O5' C2E d   1      15.201   5.702  25.748  0.00  0.00    -0.287 OA
ATOM      5  C5' C2E d   1      15.230   6.914  26.496  0.00  0.00     0.058 C 
ATOM      6  C4' C2E d   1      15.766   8.064  25.692  0.00  0.00     0.090 C 
ATOM      7  O4' C2E d   1      15.473   9.254  26.413  0.00  0.00    -0.353 OA
ATOM      8  C3' C2E d   1      17.277   8.022  25.519  0.00  0.00     0.106 C 
ATOM      9  O3' C2E d   1      17.703   8.726  24.357  0.00  0.00    -0.279 OA
ATOM     10  C2' C2E d   1      17.739   8.717  26.790  0.00  0.00     0.106 C 
ATOM     11  C1' C2E d   1      16.717   9.837  26.781  0.00  0.00     0.139 C 
ATOM     12  P11 C2E d   1      18.758   8.094  23.341  0.00  0.00     0.408 P 
ATOM     13  O21 C2E d   1      18.990   9.166  22.300  0.00  0.00    -0.624 OA
ATOM     14  O11 C2E d   1      19.795   7.286  23.997  0.00  0.00    -0.624 OA
ATOM     15  O5A C2E d   1      17.792   6.994  22.682  0.00  0.00    -0.287 OA
ATOM     16  C5A C2E d   1      16.743   7.369  21.817  0.00  0.00     0.058 C 
ATOM     17  C4A C2E d   1      15.919   6.141  21.500  0.00  0.00     0.090 C 
ATOM     18  O4A C2E d   1      16.760   5.257  20.731  0.00  0.00    -0.353 OA
ATOM     19  C3A C2E d   1      15.437   5.292  22.658  0.00  0.00     0.106 C 
ATOM     20  O3A C2E d   1      14.293   5.845  23.332  0.00  0.00    -0.279 OA
ATOM     21  C2A C2E d   1      15.259   3.960  21.929  0.00  0.00     0.106 C 
ATOM     22  C1A C2E d   1      16.347   3.921  20.859  0.00  0.00     0.139 C 
ATOM     23  H   C2E d   1      15.870   6.770  27.379  0.00  0.00     0.079 H 
ATOM     24  H   C2E d   1      14.207   7.155  26.820  0.00  0.00     0.079 H 
ATOM     25  H   C2E d   1      15.282   8.077  24.704  0.00  0.00     0.090 H 
ATOM     26  H   C2E d   1      17.645   6.986  25.471  0.00  0.00     0.092 H 
ATOM     27  H   C2E d   1      17.607   8.060  27.663  0.00  0.00     0.093 H 
ATOM     28  H   C2E d   1      17.019  10.596  26.044  0.00  0.00     0.122 H 
ATOM     29  H   C2E d   1      17.159   7.786  20.888  0.00  0.00     0.079 H 
ATOM     30  H   C2E d   1      16.110   8.124  22.307  0.00  0.00     0.079 H 
ATOM     31  H   C2E d   1      15.045   6.459  20.912  0.00  0.00     0.090 H 
ATOM     32  H   C2E d   1      16.230   5.191  23.413  0.00  0.00     0.092 H 
ATOM     33  H   C2E d   1      15.366   3.116  22.627  0.00  0.00     0.093 H 
ATOM     34  H   C2E d   1      15.956   3.531  19.908  0.00  0.00     0.122 H 
ENDROOT
BRANCH  11  35
ATOM     35  N9  C2E d   1      16.534  10.481  28.079  0.00  0.00    -0.295 N 
ATOM     36  C8  C2E d   1      16.591   9.894  29.306  0.00  0.00     0.071 A 
ATOM     37  N7  C2E d   1      16.377  10.780  30.285  0.00  0.00    -0.234 NA
ATOM     38  H   C2E d   1      16.786   8.835  29.470  0.00  0.00     0.144 H 
ATOM     39  C5  C2E d   1      16.119  11.952  29.639  0.00  0.00     0.171 A 
ATOM     40  C6  C2E d   1      15.799  13.291  30.106  0.00  0.00     0.292 A 
ATOM     41  C4  C2E d   1      16.231  11.750  28.196  0.00  0.00     0.161 A 
ATOM     42  O6  C2E d   1      15.726  13.497  31.329  0.00  0.00    -0.265 OA
ATOM     43  N1  C2E d   1      15.663  14.233  29.186  0.00  0.00    -0.154 N 
ATOM     44  C2  C2E d   1      15.762  13.986  27.860  0.00  0.00     0.680 A 
ATOM     45  H   C2E d   1      15.479  15.169  29.485  0.00  0.00     0.187 HD
ATOM     46  N3  C2E d   1      16.049  12.776  27.306  0.00  0.00    -0.174 N 
ATOM     47  H   C2E d   1      16.124  12.641  26.288  0.00  0.00     0.186 HD
BRANCH  44  48
ATOM     48  N2  C2E d   1      15.557  15.003  27.032  0.00  0.00    -0.234 N 
ATOM     49  H   C2E d   1      15.623  14.860  26.014  0.00  0.00     0.174 HD
ATOM     50  H   C2E d   1      15.332  15.935  27.407  0.00  0.00     0.174 HD
ENDBRANCH  44  48
ENDBRANCH  11  35
BRANCH  10  51
ATOM     51  O2' C2E d   1      19.102   9.193  26.800  0.00  0.00    -0.388 OA
ATOM     52  H   C2E d   1      19.221   9.823  26.099  0.00  0.00     0.210 HD
ENDBRANCH  10  51
BRANCH  21  53
ATOM     53  O2A C2E d   1      13.977   3.919  21.305  0.00  0.00    -0.388 OA
ATOM     54  H   C2E d   1      13.301   4.009  21.966  0.00  0.00     0.210 HD
ENDBRANCH  21  53
BRANCH  22  55
ATOM     55  N91 C2E d   1      17.472   3.100  21.318  0.00  0.00    -0.295 N 
ATOM     56  C81 C2E d   1      18.472   3.475  22.153  0.00  0.00     0.071 A 
ATOM     57  N71 C2E d   1      19.312   2.444  22.382  0.00  0.00    -0.234 NA
ATOM     58  H   C2E d   1      18.582   4.471  22.580  0.00  0.00     0.144 H 
ATOM     59  C51 C2E d   1      18.811   1.395  21.699  0.00  0.00     0.171 A 
ATOM     60  C61 C2E d   1      19.163  -0.013  21.474  0.00  0.00     0.292 A 
ATOM     61  C41 C2E d   1      17.599   1.842  21.005  0.00  0.00     0.161 A 
ATOM     62  O61 C2E d   1      20.183  -0.504  22.002  0.00  0.00    -0.265 OA
ATOM     63  N11 C2E d   1      18.382  -0.751  20.664  0.00  0.00    -0.154 N 
ATOM     64  C21 C2E d   1      17.271  -0.288  20.075  0.00  0.00     0.680 A 
ATOM     65  H   C2E d   1      18.646  -1.700  20.492  0.00  0.00     0.187 HD
ATOM     66  N31 C2E d   1      16.863   0.987  20.233  0.00  0.00    -0.174 N 
ATOM     67  H   C2E d   1      16.001   1.315  19.774  0.00  0.00     0.186 HD
BRANCH  64  68
ATOM     68  N21 C2E d   1      16.565  -1.139  19.300  0.00  0.00    -0.234 N 
ATOM     69  H   C2E d   1      15.706  -0.817  18.832  0.00  0.00     0.174 HD
ATOM     70  H   C2E d   1      16.886  -2.110  19.177  0.00  0.00     0.174 HD
ENDBRANCH  64  68
ENDBRANCH  22  55
TORSDOF 6
