REMARK  12 active torsions:
REMARK  status: ('A' for Active; 'I' for Inactive)
REMARK    1  A    between atoms: SBA_2  and  CAW_5 
REMARK    2  A    between atoms: CAX_10  and  CAS_11 
REMARK    3  A    between atoms: CAS_11  and  CBE_12 
REMARK    4  A    between atoms: CAS_11  and  CAM_20 
REMARK    5  A    between atoms: CBB_16  and  OBH_17 
REMARK    6  A    between atoms: CAP_26  and  O1_27 
REMARK    7  A    between atoms: O1_27  and  C1_28 
REMARK    8  A    between atoms: C2_29  and  O2_34 
REMARK    9  A    between atoms: C3_30  and  O3_35 
REMARK   10  A    between atoms: C4_31  and  O4_36 
REMARK   11  A    between atoms: C5_32  and  C6_33 
REMARK   12  A    between atoms: C6_33  and  O6_38 
ROOT
ATOM      1  CAM LRD d   1     -23.920  41.002 -44.289  0.00  0.00    -0.043 A 
ATOM      2  CAN LRD d   1     -23.454  39.896 -44.997  0.00  0.00    -0.052 A 
ATOM      3  CAO LRD d   1     -22.210  39.312 -44.674  0.00  0.00     0.068 A 
ATOM      4 CLA  LRD d   1     -21.641  37.935 -45.564  0.00  0.00    -0.081 Cl
ATOM      5  CAR LRD d   1     -23.149  41.547 -43.243  0.00  0.00    -0.073 A 
ATOM      6  CAQ LRD d   1     -21.901  40.967 -42.921  0.00  0.00    -0.048 A 
ATOM      7  CAP LRD d   1     -21.437  39.851 -43.637  0.00  0.00     0.093 A 
ATOM      8  H10 LRD d   1     -24.051  39.481 -45.801  0.00  0.00     0.087 H 
ATOM      9  H11 LRD d   1     -23.511  42.406 -42.689  0.00  0.00     0.084 H 
ATOM     10  H12 LRD d   1     -21.301  41.384 -42.120  0.00  0.00     0.087 H 
ENDROOT
BRANCH   1  11
ATOM     11  CAS LRD d   1     -25.308  41.585 -44.700  0.00  0.00     0.024 C 
ATOM     12  H5  LRD d   1     -25.943  40.696 -44.831  0.00  0.00     0.062 H 
BRANCH  11  13
ATOM     13  CAX LRD d   1     -25.239  42.200 -46.119  0.00  0.00    -0.021 A 
ATOM     14  CAW LRD d   1     -24.429  43.292 -46.475  0.00  0.00     0.088 A 
ATOM     15  CAV LRD d   1     -24.449  43.743 -47.791  0.00  0.00    -0.059 A 
ATOM     16  CAU LRD d   1     -25.253  43.127 -48.749  0.00  0.00    -0.081 A 
ATOM     17  H1  LRD d   1     -23.830  44.586 -48.076  0.00  0.00     0.086 H 
ATOM     18  CAZ LRD d   1     -26.051  42.052 -48.395  0.00  0.00    -0.082 A 
ATOM     19  H2  LRD d   1     -25.253  43.489 -49.771  0.00  0.00     0.083 H 
ATOM     20  CAY LRD d   1     -26.036  41.591 -47.079  0.00  0.00    -0.074 A 
ATOM     21  H3  LRD d   1     -26.682  41.573 -49.135  0.00  0.00     0.083 H 
ATOM     22  H4  LRD d   1     -26.655  40.745 -46.802  0.00  0.00     0.084 H 
BRANCH  14  23
ATOM     23  SBA LRD d   1     -23.366  44.141 -45.355  0.00  0.00     0.138 S 
ATOM     24  OBL LRD d   1     -23.980  44.291 -44.032  0.00  0.00    -0.591 OA
ATOM     25  OBJ LRD d   1     -22.109  43.388 -45.232  0.00  0.00    -0.591 OA
ATOM     26  OBK LRD d   1     -23.075  45.474 -45.885  0.00  0.00    -0.591 OA
ENDBRANCH  14  23
ENDBRANCH  11  13
BRANCH  11  27
ATOM     27  CBE LRD d   1     -26.058  42.380 -43.612  0.00  0.00    -0.043 A 
ATOM     28  CBF LRD d   1     -26.072  41.881 -42.308  0.00  0.00    -0.052 A 
ATOM     29  CBG LRD d   1     -26.757  42.570 -41.288  0.00  0.00     0.067 A 
ATOM     30  H6  LRD d   1     -25.552  40.958 -42.079  0.00  0.00     0.087 H 
ATOM     31 CLB  LRD d   1     -26.750  41.940 -39.678  0.00  0.00    -0.081 Cl
ATOM     32  CBB LRD d   1     -27.436  43.750 -41.586  0.00  0.00     0.087 A 
ATOM     33  CBC LRD d   1     -27.432  44.248 -42.896  0.00  0.00    -0.049 A 
ATOM     34  CBD LRD d   1     -26.746  43.557 -43.916  0.00  0.00    -0.073 A 
ATOM     35  H8  LRD d   1     -27.958  45.167 -43.126  0.00  0.00     0.087 H 
ATOM     36  H9  LRD d   1     -26.753  43.937 -44.931  0.00  0.00     0.084 H 
BRANCH  32  37
ATOM     37  OBH LRD d   1     -28.108  44.428 -40.590  0.00  0.00    -0.359 OA
ATOM     38  H7  LRD d   1     -28.514  45.205 -40.956  0.00  0.00     0.217 HD
ENDBRANCH  32  37
ENDBRANCH  11  27
ENDBRANCH   1  11
BRANCH   7  39
ATOM     39  O1  LRD d   1     -20.195  39.255 -43.334  0.00  0.00    -0.316 OA
BRANCH  39  40
ATOM     40  C1  GAL d   1     -19.861  39.477 -42.044  0.00  0.00     0.164 C 
ATOM     41  C2  GAL d   1     -19.620  38.158 -41.392  0.00  0.00     0.110 C 
ATOM     42  C3  GAL d   1     -18.996  38.275 -40.118  0.00  0.00     0.092 C 
ATOM     43  H14 LRD d   1     -18.961  37.566 -42.044  0.00  0.00     0.094 H 
ATOM     44  C4  GAL d   1     -17.797  39.111 -40.168  0.00  0.00     0.090 C 
ATOM     45  H15 LRD d   1     -19.711  38.728 -39.415  0.00  0.00     0.091 H 
ATOM     46  C5  GAL d   1     -18.104  40.471 -40.744  0.00  0.00     0.089 C 
ATOM     47  H16 LRD d   1     -17.408  39.236 -39.147  0.00  0.00     0.091 H 
ATOM     48  O5  GAL d   1     -18.676  40.369 -42.014  0.00  0.00    -0.348 OA
ATOM     49  H17 LRD d   1     -18.807  40.989 -40.075  0.00  0.00     0.090 H 
ATOM     50  H13 LRD d   1     -20.692  39.979 -41.528  0.00  0.00     0.134 H 
BRANCH  41  51
ATOM     51  O2  GAL d   1     -20.872  37.471 -41.246  0.00  0.00    -0.388 OA
ATOM     52  H20 LRD d   1     -20.717  36.605 -40.887  0.00  0.00     0.210 HD
ENDBRANCH  41  51
BRANCH  42  53
ATOM     53  O3  GAL d   1     -18.639  36.948 -39.649  0.00  0.00    -0.390 OA
ATOM     54  H21 LRD d   1     -18.259  37.012 -38.781  0.00  0.00     0.210 HD
ENDBRANCH  42  53
BRANCH  44  55
ATOM     55  O4  GAL d   1     -16.822  38.484 -40.963  0.00  0.00    -0.390 OA
ATOM     56  H22 LRD d   1     -16.033  39.014 -40.971  0.00  0.00     0.210 HD
ENDBRANCH  44  55
BRANCH  46  57
ATOM     57  C6  GAL d   1     -16.845  41.270 -40.855  0.00  0.00     0.043 C 
ATOM     58  H18 LRD d   1     -16.002  40.564 -40.852  0.00  0.00     0.078 H 
ATOM     59  H19 LRD d   1     -16.783  41.919 -39.969  0.00  0.00     0.078 H 
BRANCH  57  60
ATOM     60  O6  GAL d   1     -16.713  42.079 -41.978  0.00  0.00    -0.398 OA
ATOM     61  H23 LRD d   1     -15.881  42.536 -41.942  0.00  0.00     0.209 HD
ENDBRANCH  57  60
ENDBRANCH  46  57
ENDBRANCH  39  40
ENDBRANCH   7  39
TORSDOF 12
