REMARK  23 active torsions:
REMARK  status: ('A' for Active; 'I' for Inactive)
REMARK    1  A    between atoms: N_1  and  CA_2 
REMARK       I    between atoms: C1'_39  and  N_1 
REMARK    2  A    between atoms: CA_2  and  C_3 
REMARK    3  A    between atoms: CA_2  and  CB_5 
REMARK       I    between atoms: C_3  and  N_10 
REMARK    4  A    between atoms: CB_5  and  CG_6 
REMARK    5  A    between atoms: CG_6  and  CD_7 
REMARK       I    between atoms: CD_7  and  NE2_9 
REMARK    6  A    between atoms: N_10  and  CA_11 
REMARK    7  A    between atoms: CA_11  and  C_12 
REMARK    8  A    between atoms: CA_11  and  CB_14 
REMARK       I    between atoms: C_12  and  N_21 
REMARK    9  A    between atoms: CB_14  and  CG_15 
REMARK   10  A    between atoms: CG_15  and  CD_16 
REMARK   11  A    between atoms: CD_16  and  NE_17 
REMARK       I    between atoms: NE_17  and  CZ_18 
REMARK       I    between atoms: CZ_18  and  NH1_19 
REMARK   12  A    between atoms: N_21  and  CA_22 
REMARK   13  A    between atoms: CA_22  and  C_23 
REMARK   14  A    between atoms: CA_22  and  CB_25 
REMARK       I    between atoms: C_23  and  N_27 
REMARK   15  A    between atoms: CB_25  and  OG_26 
REMARK   16  A    between atoms: O4_47  and  C1_28 
REMARK   17  A    between atoms: C2_29  and  O2_34 
REMARK   18  A    between atoms: C3_30  and  O3_35 
REMARK   19  A    between atoms: C4_31  and  O4_36 
REMARK   20  A    between atoms: C5_32  and  C6_33 
REMARK   21  A    between atoms: C6_33  and  O6_38 
REMARK   22  A    between atoms: C1_41  and  C1'_39 
REMARK   23  A    between atoms: C4_44  and  O4_47 
ROOT
ATOM      1  CA  GLN d   1     -19.130  19.685  21.789  0.00  0.00     0.090 C 
ATOM      2  H2  GLN d   1     -18.953  20.189  20.827  0.00  0.00     0.087 H 
ENDROOT
BRANCH   1   3
ATOM      3  N   GLN d   1     -19.420  20.701  22.795  0.00  0.00    -0.344 N 
ATOM      4  C1' PHB d   1     -20.147  21.540  22.058  0.00  0.00     0.252 C 
ATOM      5  O1' PHB d   1     -20.127  21.540  20.826  0.00  0.00    -0.268 OA
ATOM      6  H1  GLN d   1     -19.151  20.753  23.757  0.00  0.00     0.163 HD
BRANCH   4   7
ATOM      7  C1  PHB d   1     -21.014  22.514  22.803  0.00  0.00     0.032 A 
ATOM      8  C2  PHB d   1     -22.410  22.317  22.881  0.00  0.00    -0.065 A 
ATOM      9  C3  PHB d   1     -23.221  23.232  23.577  0.00  0.00    -0.050 A 
ATOM     10  H40 GLN d   1     -22.860  21.455  22.401  0.00  0.00     0.085 H 
ATOM     11  C4  PHB d   1     -22.662  24.364  24.204  0.00  0.00     0.072 A 
ATOM     12  H41 GLN d   1     -24.291  23.064  23.632  0.00  0.00     0.087 H 
ATOM     13  C5  PHB d   1     -21.260  24.561  24.122  0.00  0.00    -0.050 A 
ATOM     14  C6  PHB d   1     -20.448  23.647  23.430  0.00  0.00    -0.065 A 
ATOM     15  H42 GLN d   1     -20.811  25.425  24.598  0.00  0.00     0.087 H 
ATOM     16  H43 GLN d   1     -19.378  23.812  23.377  0.00  0.00     0.085 H 
BRANCH  11  17
ATOM     17  O4  PHB d   1     -23.548  25.202  24.859  0.00  0.00    -0.318 OA
BRANCH  17  18
ATOM     18  C1  GAL d   1     -24.937  25.013  24.814  0.00  0.00     0.164 C 
ATOM     19  C2  GAL d   1     -25.608  25.896  25.898  0.00  0.00     0.110 C 
ATOM     20  C3  GAL d   1     -27.102  25.550  25.869  0.00  0.00     0.092 C 
ATOM     21  H30 GLN d   1     -25.442  26.961  25.677  0.00  0.00     0.094 H 
ATOM     22  C4  GAL d   1     -27.683  25.832  24.471  0.00  0.00     0.090 C 
ATOM     23  H31 GLN d   1     -27.225  24.477  26.080  0.00  0.00     0.091 H 
ATOM     24  C5  GAL d   1     -26.888  25.022  23.415  0.00  0.00     0.089 C 
ATOM     25  H32 GLN d   1     -28.734  25.508  24.454  0.00  0.00     0.091 H 
ATOM     26  O5  GAL d   1     -25.482  25.272  23.550  0.00  0.00    -0.348 OA
ATOM     27  H33 GLN d   1     -27.080  23.953  23.590  0.00  0.00     0.090 H 
ATOM     28  H29 GLN d   1     -25.142  23.959  25.053  0.00  0.00     0.134 H 
BRANCH  19  29
ATOM     29  O2  GAL d   1     -25.135  25.591  27.202  0.00  0.00    -0.388 OA
ATOM     30  H36 GLN d   1     -24.209  25.794  27.257  0.00  0.00     0.210 HD
ENDBRANCH  19  29
BRANCH  20  31
ATOM     31  O3  GAL d   1     -27.752  26.286  26.895  0.00  0.00    -0.390 OA
ATOM     32  H37 GLN d   1     -27.357  26.076  27.733  0.00  0.00     0.210 HD
ENDBRANCH  20  31
BRANCH  22  33
ATOM     33  O4  GAL d   1     -27.632  27.221  24.159  0.00  0.00    -0.390 OA
ATOM     34  H38 GLN d   1     -28.013  27.366  23.301  0.00  0.00     0.210 HD
ENDBRANCH  22  33
BRANCH  24  35
ATOM     35  C6  GAL d   1     -27.293  25.360  21.969  0.00  0.00     0.043 C 
ATOM     36  H34 GLN d   1     -26.931  26.367  21.713  0.00  0.00     0.078 H 
ATOM     37  H35 GLN d   1     -28.389  25.330  21.878  0.00  0.00     0.078 H 
BRANCH  35  38
ATOM     38  O6  GAL d   1     -26.720  24.413  21.085  0.00  0.00    -0.398 OA
ATOM     39  H39 GLN d   1     -25.774  24.440  21.164  0.00  0.00     0.209 HD
ENDBRANCH  35  38
ENDBRANCH  24  35
ENDBRANCH  17  18
ENDBRANCH  11  17
ENDBRANCH   4   7
ENDBRANCH   1   3
BRANCH   1  40
ATOM     40  C   GLN d   1     -20.322  18.744  21.631  0.00  0.00     0.241 C 
ATOM     41  O   GLN d   1     -20.396  17.704  22.283  0.00  0.00    -0.271 OA
ATOM     42  N   ARG d   1     -21.251  19.121  20.756  0.00  0.00    -0.346 N 
ATOM     43  H9  ARG d   1     -21.087  19.933  20.196  0.00  0.00     0.163 HD
BRANCH  42  44
ATOM     44  CA  ARG d   1     -22.501  18.389  20.587  0.00  0.00     0.089 C 
ATOM     45  H10 ARG d   1     -23.189  18.991  19.975  0.00  0.00     0.087 H 
BRANCH  44  46
ATOM     46  C   ARG d   1     -23.126  18.165  21.958  0.00  0.00     0.241 C 
ATOM     47  O   ARG d   1     -23.509  17.044  22.303  0.00  0.00    -0.271 OA
ATOM     48  N   SER d   1     -23.216  19.248  22.728  0.00  0.00    -0.344 N 
ATOM     49  H22 SER d   1     -22.926  20.125  22.344  0.00  0.00     0.163 HD
BRANCH  48  50
ATOM     50  CA  SER d   1     -23.714  19.229  24.102  0.00  0.00     0.109 C 
ATOM     51  H23 SER d   1     -23.907  20.269  24.404  0.00  0.00     0.090 H 
BRANCH  50  52
ATOM     52  C   SER d   1     -22.652  18.656  25.035  0.00  0.00     0.240 C 
ATOM     53  O   SER d   1     -21.970  17.690  24.691  0.00  0.00    -0.271 OA
ATOM     54  N   ALA d   1     -22.508  19.262  26.210  0.00  0.00    -0.368 N 
ATOM     55  H27 ALA d   1     -21.827  18.931  26.863  0.00  0.00     0.159 HD
ATOM     56  H28 ALA d   1     -23.081  20.049  26.440  0.00  0.00     0.159 HD
ENDBRANCH  50  52
BRANCH  50  57
ATOM     57  CB  SER d   1     -25.026  18.461  24.232  0.00  0.00     0.044 C 
ATOM     58  H24 SER d   1     -25.398  18.558  25.263  0.00  0.00     0.077 H 
ATOM     59  H25 SER d   1     -24.845  17.400  24.006  0.00  0.00     0.077 H 
BRANCH  57  60
ATOM     60  OG  SER d   1     -25.997  18.959  23.346  0.00  0.00    -0.398 OA
ATOM     61  H26 SER d   1     -26.801  18.464  23.448  0.00  0.00     0.209 HD
ENDBRANCH  57  60
ENDBRANCH  50  57
ENDBRANCH  48  50
ENDBRANCH  44  46
BRANCH  44  62
ATOM     62  CB  ARG d   1     -22.253  17.055  19.872  0.00  0.00    -0.036 C 
ATOM     63  H11 ARG d   1     -23.213  16.684  19.484  0.00  0.00     0.036 H 
ATOM     64  H12 ARG d   1     -21.851  16.338  20.603  0.00  0.00     0.036 H 
BRANCH  62  65
ATOM     65  CG  ARG d   1     -21.275  17.161  18.715  0.00  0.00    -0.048 C 
ATOM     66  H13 ARG d   1     -21.244  16.199  18.182  0.00  0.00     0.035 H 
ATOM     67  H14 ARG d   1     -20.275  17.393  19.111  0.00  0.00     0.035 H 
BRANCH  65  68
ATOM     68  CD  ARG d   1     -21.688  18.253  17.742  0.00  0.00     0.009 C 
ATOM     69  H15 ARG d   1     -22.093  19.103  18.311  0.00  0.00     0.064 H 
ATOM     70  H16 ARG d   1     -22.465  17.857  17.072  0.00  0.00     0.064 H 
BRANCH  68  71
ATOM     71  NE  ARG d   1     -20.561  18.717  16.937  0.00  0.00    -0.227 N 
ATOM     72  CZ  ARG d   1     -19.783  19.744  17.265  0.00  0.00     0.665 C 
ATOM     73  NH1 ARG d   1     -20.011  20.419  18.383  0.00  0.00    -0.235 N 
ATOM     74  NH2 ARG d   1     -18.777  20.097  16.477  0.00  0.00    -0.235 N 
ATOM     75  H18 ARG d   1     -19.408  21.215  18.636  0.00  0.00     0.174 HD
ATOM     76  H19 ARG d   1     -20.791  20.148  18.998  0.00  0.00     0.174 HD
ATOM     77  H20 ARG d   1     -18.596  19.575  15.607  0.00  0.00     0.174 HD
ATOM     78  H21 ARG d   1     -18.176  20.893  16.734  0.00  0.00     0.174 HD
ATOM     79  H17 ARG d   1     -20.356  18.217  16.060  0.00  0.00     0.177 HD
ENDBRANCH  68  71
ENDBRANCH  65  68
ENDBRANCH  62  65
ENDBRANCH  44  62
ENDBRANCH  42  44
ENDBRANCH   1  40
BRANCH   1  80
ATOM     80  CB  GLN d   1     -17.871  18.896  22.160  0.00  0.00    -0.030 C 
ATOM     81  H3  GLN d   1     -18.171  18.041  22.783  0.00  0.00     0.037 H 
ATOM     82  H4  GLN d   1     -17.207  19.556  22.738  0.00  0.00     0.037 H 
BRANCH  80  83
ATOM     83  CG  GLN d   1     -17.092  18.365  20.961  0.00  0.00     0.011 C 
ATOM     84  H5  GLN d   1     -17.791  17.844  20.290  0.00  0.00     0.047 H 
ATOM     85  H6  GLN d   1     -16.333  17.655  21.321  0.00  0.00     0.047 H 
BRANCH  83  86
ATOM     86  CD  GLN d   1     -16.395  19.466  20.177  0.00  0.00     0.215 C 
ATOM     87  OE1 GLN d   1     -16.893  20.588  20.076  0.00  0.00    -0.274 OA
ATOM     88  NE2 GLN d   1     -15.230  19.149  19.625  0.00  0.00    -0.370 N 
ATOM     89  H7  GLN d   1     -14.725  19.832  19.097  0.00  0.00     0.159 HD
ATOM     90  H8  GLN d   1     -14.858  18.228  19.737  0.00  0.00     0.159 HD
ENDBRANCH  83  86
ENDBRANCH  80  83
ENDBRANCH   1  80
TORSDOF 23
