REMARK  14 active torsions:
REMARK  status: ('A' for Active; 'I' for Inactive)
REMARK    1  A    between atoms: N_1  and  CA_2 
REMARK       I    between atoms: C1'_31  and  N_1 
REMARK    2  A    between atoms: CA_2  and  C_3 
REMARK    3  A    between atoms: CA_2  and  CB_5 
REMARK       I    between atoms: C_3  and  N_15 
REMARK    4  A    between atoms: CB_5  and  CG_6 
REMARK    5  A    between atoms: N_15  and  CA_16 
REMARK    6  A    between atoms: CA_16  and  C_17 
REMARK       I    between atoms: C_17  and  N_19 
REMARK    7  A    between atoms: O4_39  and  C1_20 
REMARK    8  A    between atoms: C2_21  and  O2_26 
REMARK    9  A    between atoms: C3_22  and  O3_27 
REMARK   10  A    between atoms: C4_23  and  O4_28 
REMARK   11  A    between atoms: C5_24  and  C6_25 
REMARK   12  A    between atoms: C6_25  and  O6_30 
REMARK   13  A    between atoms: C1_33  and  C1'_31 
REMARK   14  A    between atoms: C4_36  and  O4_39 
ROOT
ATOM      1  N   TRP d   1      21.422 -40.319  29.662  0.00  0.00    -0.343 N 
ATOM      2  H1  TRP d   1      21.030 -41.221  29.481  0.00  0.00     0.163 HD
ATOM      3  C1' PHB d   1      21.122 -39.315  28.995  0.00  0.00     0.252 C 
ATOM      4  O1' PHB d   1      21.379 -38.163  29.355  0.00  0.00    -0.268 OA
ENDROOT
BRANCH   3   5
ATOM      5  C1  PHB d   1      20.074 -39.522  27.948  0.00  0.00     0.032 A 
ATOM      6  C2  PHB d   1      20.088 -40.649  27.102  0.00  0.00    -0.065 A 
ATOM      7  C3  PHB d   1      19.082 -40.796  26.122  0.00  0.00    -0.050 A 
ATOM      8  H27 TRP d   1      20.865 -41.398  27.203  0.00  0.00     0.085 H 
ATOM      9  C4  PHB d   1      18.075 -39.811  25.988  0.00  0.00     0.072 A 
ATOM     10  H28 TRP d   1      19.081 -41.664  25.472  0.00  0.00     0.087 H 
ATOM     11  C5  PHB d   1      18.074 -38.684  26.841  0.00  0.00    -0.050 A 
ATOM     12  C6  PHB d   1      19.072 -38.543  27.806  0.00  0.00    -0.065 A 
ATOM     13  H29 TRP d   1      17.300 -37.931  26.746  0.00  0.00     0.087 H 
ATOM     14  H30 TRP d   1      19.076 -37.672  28.452  0.00  0.00     0.085 H 
BRANCH   9  15
ATOM     15  O4  PHB d   1      17.129 -40.008  25.019  0.00  0.00    -0.318 OA
BRANCH  15  16
ATOM     16  C1  GAL d   1      17.183 -41.064  24.112  0.00  0.00     0.164 C 
ATOM     17  C2  GAL d   1      15.758 -41.182  23.519  0.00  0.00     0.110 C 
ATOM     18  C3  GAL d   1      15.765 -42.327  22.497  0.00  0.00     0.092 C 
ATOM     19  H17 TRP d   1      15.475 -40.239  23.028  0.00  0.00     0.094 H 
ATOM     20  C4  GAL d   1      16.828 -42.052  21.429  0.00  0.00     0.090 C 
ATOM     21  H18 TRP d   1      15.982 -43.281  23.000  0.00  0.00     0.091 H 
ATOM     22  C5  GAL d   1      18.214 -41.834  22.091  0.00  0.00     0.089 C 
ATOM     23  H19 TRP d   1      16.898 -42.926  20.765  0.00  0.00     0.091 H 
ATOM     24  O5  GAL d   1      18.138 -40.837  23.125  0.00  0.00    -0.348 OA
ATOM     25  H20 TRP d   1      18.533 -42.788  22.535  0.00  0.00     0.090 H 
ATOM     26  H16 TRP d   1      17.441 -41.994  24.640  0.00  0.00     0.134 H 
BRANCH  17  27
ATOM     27  O2  GAL d   1      14.828 -41.482  24.558  0.00  0.00    -0.388 OA
ATOM     28  H23 TRP d   1      14.823 -40.774  25.191  0.00  0.00     0.210 HD
ENDBRANCH  17  27
BRANCH  18  29
ATOM     29  O3  GAL d   1      14.484 -42.377  21.890  0.00  0.00    -0.390 OA
ATOM     30  H24 TRP d   1      13.826 -42.548  22.554  0.00  0.00     0.210 HD
ENDBRANCH  18  29
BRANCH  20  31
ATOM     31  O4  GAL d   1      16.423 -40.920  20.649  0.00  0.00    -0.390 OA
ATOM     32  H25 TRP d   1      17.060 -40.766  19.962  0.00  0.00     0.210 HD
ENDBRANCH  20  31
BRANCH  22  33
ATOM     33  C6  GAL d   1      19.287 -41.375  21.085  0.00  0.00     0.043 C 
ATOM     34  H21 TRP d   1      19.082 -40.339  20.778  0.00  0.00     0.078 H 
ATOM     35  H22 TRP d   1      19.266 -42.030  20.202  0.00  0.00     0.078 H 
BRANCH  33  36
ATOM     36  O6  GAL d   1      20.567 -41.444  21.696  0.00  0.00    -0.398 OA
ATOM     37  H26 TRP d   1      20.742 -42.339  21.961  0.00  0.00     0.209 HD
ENDBRANCH  33  36
ENDBRANCH  22  33
ENDBRANCH  15  16
ENDBRANCH   9  15
ENDBRANCH   3   5
BRANCH   1  38
ATOM     38  CA  TRP d   1      22.389 -40.084  30.729  0.00  0.00     0.093 C 
ATOM     39  H2  TRP d   1      22.980 -39.188  30.488  0.00  0.00     0.088 H 
BRANCH  38  40
ATOM     40  C   TRP d   1      23.319 -41.283  30.831  0.00  0.00     0.241 C 
ATOM     41  O   TRP d   1      22.865 -42.420  30.961  0.00  0.00    -0.271 OA
ATOM     42  N   ARG d   1      24.620 -41.027  30.755  0.00  0.00    -0.351 N 
ATOM     43  H11 ARG d   1      24.925 -40.083  30.628  0.00  0.00     0.163 HD
BRANCH  42  44
ATOM     44  CA  ARG d   1      25.616 -42.089  30.852  0.00  0.00     0.069 C 
ATOM     45  H12 ARG d   1      26.237 -42.087  29.944  0.00  0.00     0.078 H 
ATOM     46  H13 ARG d   1      25.105 -43.058  30.945  0.00  0.00     0.078 H 
BRANCH  44  47
ATOM     47  C   ARG d   1      26.507 -41.872  32.072  0.00  0.00     0.233 C 
ATOM     48  O   ARG d   1      26.838 -40.734  32.420  0.00  0.00    -0.272 OA
ATOM     49  N   ILE d   1      26.891 -42.968  32.719  0.00  0.00    -0.369 N 
ATOM     50  H14 ILE d   1      27.476 -42.893  33.527  0.00  0.00     0.159 HD
ATOM     51  H15 ILE d   1      26.595 -43.868  32.398  0.00  0.00     0.159 HD
ENDBRANCH  44  47
ENDBRANCH  42  44
ENDBRANCH  38  40
BRANCH  38  52
ATOM     52  CB  TRP d   1      21.668 -39.858  32.061  0.00  0.00    -0.012 C 
ATOM     53  H3  TRP d   1      21.224 -40.813  32.378  0.00  0.00     0.044 H 
ATOM     54  H4  TRP d   1      20.869 -39.119  31.898  0.00  0.00     0.044 H 
BRANCH  52  55
ATOM     55  CG  TRP d   1      22.547 -39.360  33.170  0.00  0.00    -0.028 A 
ATOM     56  CD1 TRP d   1      22.793 -38.052  33.506  0.00  0.00    -0.015 A 
ATOM     57  NE1 TRP d   1      23.642 -37.995  34.584  0.00  0.00    -0.365 N 
ATOM     58  H5  TRP d   1      22.376 -37.187  32.993  0.00  0.00     0.112 H 
ATOM     59  CE2 TRP d   1      23.954 -39.272  34.974  0.00  0.00     0.042 A 
ATOM     60  H6  TRP d   1      23.988 -37.133  35.028  0.00  0.00     0.165 HD
ATOM     61  CD2 TRP d   1      23.281 -40.158  34.108  0.00  0.00    -0.002 A 
ATOM     62  CZ2 TRP d   1      24.773 -39.719  36.011  0.00  0.00    -0.056 A 
ATOM     63  CE3 TRP d   1      23.437 -41.534  34.296  0.00  0.00    -0.070 A 
ATOM     64  CZ3 TRP d   1      24.251 -41.979  35.332  0.00  0.00    -0.082 A 
ATOM     65  H7  TRP d   1      22.933 -42.241  33.647  0.00  0.00     0.084 H 
ATOM     66  CH2 TRP d   1      24.907 -41.073  36.175  0.00  0.00    -0.081 A 
ATOM     67  H9  TRP d   1      24.380 -43.044  35.490  0.00  0.00     0.083 H 
ATOM     68  H10 TRP d   1      25.534 -41.451  36.974  0.00  0.00     0.083 H 
ATOM     69  H8  TRP d   1      25.285 -39.021  36.663  0.00  0.00     0.086 H 
ENDBRANCH  52  55
ENDBRANCH  38  52
ENDBRANCH   1  38
TORSDOF 14
