REMARK  24 active torsions:
REMARK  status: ('A' for Active; 'I' for Inactive)
REMARK    1  A    between atoms: N_1  and  CA_2 
REMARK       I    between atoms: C1'_48  and  N_1 
REMARK    2  A    between atoms: CA_2  and  C_3 
REMARK    3  A    between atoms: CA_2  and  CB_5 
REMARK       I    between atoms: C_3  and  N_15 
REMARK    4  A    between atoms: CB_5  and  CG_6 
REMARK    5  A    between atoms: N_15  and  CA_16 
REMARK    6  A    between atoms: CA_16  and  C_17 
REMARK    7  A    between atoms: CA_16  and  CB_19 
REMARK       I    between atoms: C_17  and  N_24 
REMARK    8  A    between atoms: CB_19  and  CG_20 
REMARK    9  A    between atoms: CG_20  and  CD_21 
REMARK   10  A    between atoms: CD_21  and  CE_22 
REMARK   11  A    between atoms: CE_22  and  NZ_23 
REMARK   12  A    between atoms: N_24  and  CA_25 
REMARK   13  A    between atoms: CA_25  and  C_26 
REMARK   14  A    between atoms: CA_25  and  CB_28 
REMARK       I    between atoms: C_26  and  N_36 
REMARK   15  A    between atoms: CB_28  and  CG_29 
REMARK   16  A    between atoms: CZ_34  and  OH_35 
REMARK   17  A    between atoms: O4_56  and  C1_37 
REMARK   18  A    between atoms: C2_38  and  O2_43 
REMARK   19  A    between atoms: C3_39  and  O3_44 
REMARK   20  A    between atoms: C4_40  and  O4_45 
REMARK   21  A    between atoms: C5_41  and  C6_42 
REMARK   22  A    between atoms: C6_42  and  O6_47 
REMARK   23  A    between atoms: C1_50  and  C1'_48 
REMARK   24  A    between atoms: C4_53  and  O4_56 
ROOT
ATOM      1  CA  TRP d   1      -3.318  -2.166  10.948  0.00  0.00     0.093 C 
ATOM      2  H2  TRP d   1      -3.359  -2.986  11.680  0.00  0.00     0.088 H 
ENDROOT
BRANCH   1   3
ATOM      3  N   TRP d   1      -4.326  -1.176  11.340  0.00  0.00    -0.343 N 
ATOM      4  C1' PHB d   1      -4.707  -1.329  12.615  0.00  0.00     0.252 C 
ATOM      5  O1' PHB d   1      -3.913  -1.690  13.488  0.00  0.00    -0.268 OA
ATOM      6  H1  TRP d   1      -4.686  -0.471  10.729  0.00  0.00     0.163 HD
BRANCH   4   7
ATOM      7  C1  PHB d   1      -5.759  -0.315  12.962  0.00  0.00     0.032 A 
ATOM      8  C2  PHB d   1      -6.139   0.648  12.008  0.00  0.00    -0.065 A 
ATOM      9  C3  PHB d   1      -7.108   1.607  12.343  0.00  0.00    -0.050 A 
ATOM     10  H46 TRP d   1      -5.687   0.649  11.023  0.00  0.00     0.085 H 
ATOM     11  C4  PHB d   1      -7.716   1.607  13.616  0.00  0.00     0.072 A 
ATOM     12  H47 TRP d   1      -7.393   2.357  11.614  0.00  0.00     0.087 H 
ATOM     13  C5  PHB d   1      -7.341   0.644  14.571  0.00  0.00    -0.050 A 
ATOM     14  C6  PHB d   1      -6.354  -0.310  14.238  0.00  0.00    -0.065 A 
ATOM     15  H48 TRP d   1      -7.804   0.634  15.551  0.00  0.00     0.087 H 
ATOM     16  H49 TRP d   1      -6.051  -1.047  14.973  0.00  0.00     0.085 H 
BRANCH  11  17
ATOM     17  O4  PHB d   1      -8.660   2.534  13.992  0.00  0.00    -0.318 OA
BRANCH  17  18
ATOM     18  C1  GAL d   1      -9.312   2.481  15.219  0.00  0.00     0.164 C 
ATOM     19  C2  GAL d   1      -9.845   3.906  15.526  0.00  0.00     0.110 C 
ATOM     20  C3  GAL d   1     -10.558   3.883  16.885  0.00  0.00     0.092 C 
ATOM     21  H36 TRP d   1     -10.553   4.202  14.738  0.00  0.00     0.094 H 
ATOM     22  C4  GAL d   1     -11.678   2.835  16.851  0.00  0.00     0.090 C 
ATOM     23  H37 TRP d   1      -9.842   3.628  17.680  0.00  0.00     0.091 H 
ATOM     24  C5  GAL d   1     -11.104   1.461  16.417  0.00  0.00     0.089 C 
ATOM     25  H38 TRP d   1     -12.108   2.731  17.858  0.00  0.00     0.091 H 
ATOM     26  O5  GAL d   1     -10.371   1.565  15.188  0.00  0.00    -0.348 OA
ATOM     27  H39 TRP d   1     -10.416   1.122  17.205  0.00  0.00     0.090 H 
ATOM     28  H35 TRP d   1      -8.600   2.176  16.000  0.00  0.00     0.134 H 
BRANCH  19  29
ATOM     29  O2  GAL d   1      -8.795   4.861  15.594  0.00  0.00    -0.388 OA
ATOM     30  H42 TRP d   1      -8.341   4.890  14.760  0.00  0.00     0.210 HD
ENDBRANCH  19  29
BRANCH  20  31
ATOM     31  O3  GAL d   1     -11.095   5.187  17.121  0.00  0.00    -0.390 OA
ATOM     32  H43 TRP d   1     -10.388   5.821  17.139  0.00  0.00     0.210 HD
ENDBRANCH  20  31
BRANCH  22  33
ATOM     33  O4  GAL d   1     -12.695   3.295  15.962  0.00  0.00    -0.390 OA
ATOM     34  H44 TRP d   1     -13.408   2.667  15.946  0.00  0.00     0.210 HD
ENDBRANCH  22  33
BRANCH  24  35
ATOM     35  C6  GAL d   1     -12.205   0.394  16.245  0.00  0.00     0.043 C 
ATOM     36  H40 TRP d   1     -12.863   0.681  15.412  0.00  0.00     0.078 H 
ATOM     37  H41 TRP d   1     -12.794   0.326  17.171  0.00  0.00     0.078 H 
BRANCH  35  38
ATOM     38  O6  GAL d   1     -11.621  -0.865  15.968  0.00  0.00    -0.398 OA
ATOM     39  H45 TRP d   1     -11.053  -1.115  16.688  0.00  0.00     0.209 HD
ENDBRANCH  35  38
ENDBRANCH  24  35
ENDBRANCH  17  18
ENDBRANCH  11  17
ENDBRANCH   4   7
ENDBRANCH   1   3
BRANCH   1  40
ATOM     40  C   TRP d   1      -1.902  -1.596  10.957  0.00  0.00     0.241 C 
ATOM     41  O   TRP d   1      -1.657  -0.484  10.483  0.00  0.00    -0.271 OA
ATOM     42  N   LYS d   1      -0.977  -2.371  11.514  0.00  0.00    -0.346 N 
ATOM     43  H11 LYS d   1      -1.269  -3.170  12.040  0.00  0.00     0.163 HD
BRANCH  42  44
ATOM     44  CA  LYS d   1       0.444  -2.097  11.385  0.00  0.00     0.089 C 
ATOM     45  H12 LYS d   1       0.689  -1.073  11.703  0.00  0.00     0.087 H 
BRANCH  44  46
ATOM     46  C   LYS d   1       0.716  -2.297   9.907  0.00  0.00     0.241 C 
ATOM     47  O   LYS d   1       0.327  -3.323   9.355  0.00  0.00    -0.271 OA
ATOM     48  N   TYR d   1       1.340  -1.310   9.265  0.00  0.00    -0.346 N 
ATOM     49  H24 TYR d   1       1.649  -0.517   9.789  0.00  0.00     0.163 HD
BRANCH  48  50
ATOM     50  CA  TYR d   1       1.592  -1.341   7.815  0.00  0.00     0.093 C 
ATOM     51  H25 TYR d   1       2.537  -0.802   7.649  0.00  0.00     0.088 H 
BRANCH  50  52
ATOM     52  C   TYR d   1       0.523  -0.619   6.993  0.00  0.00     0.238 C 
ATOM     53  O   TYR d   1       0.122  -1.090   5.926  0.00  0.00    -0.271 OA
ATOM     54  N   LEU d   1       0.081   0.534   7.490  0.00  0.00    -0.368 N 
ATOM     55  H33 LEU d   1      -0.618   1.054   7.000  0.00  0.00     0.159 HD
ATOM     56  H34 LEU d   1       0.448   0.880   8.354  0.00  0.00     0.159 HD
ENDBRANCH  50  52
BRANCH  50  57
ATOM     57  CB  TYR d   1       1.795  -2.779   7.308  0.00  0.00    -0.014 C 
ATOM     58  H26 TYR d   1       1.959  -2.755   6.221  0.00  0.00     0.043 H 
ATOM     59  H27 TYR d   1       0.892  -3.367   7.530  0.00  0.00     0.043 H 
BRANCH  57  60
ATOM     60  CG  TYR d   1       2.980  -3.434   7.967  0.00  0.00    -0.056 A 
ATOM     61  CD1 TYR d   1       4.266  -3.024   7.655  0.00  0.00    -0.074 A 
ATOM     62  CE1 TYR d   1       5.350  -3.588   8.253  0.00  0.00    -0.051 A 
ATOM     63  H28 TYR d   1       4.411  -2.240   6.921  0.00  0.00     0.084 H 
ATOM     64  CZ  TYR d   1       5.172  -4.571   9.191  0.00  0.00     0.065 A 
ATOM     65  H30 TYR d   1       6.349  -3.261   7.989  0.00  0.00     0.087 H 
ATOM     66  CE2 TYR d   1       3.910  -5.005   9.538  0.00  0.00    -0.051 A 
ATOM     67  CD2 TYR d   1       2.817  -4.430   8.926  0.00  0.00    -0.074 A 
ATOM     68  H31 TYR d   1       3.780  -5.785  10.279  0.00  0.00     0.087 H 
ATOM     69  H29 TYR d   1       1.819  -4.757   9.194  0.00  0.00     0.084 H 
BRANCH  64  70
ATOM     70  OH  TYR d   1       6.287  -5.110   9.769  0.00  0.00    -0.361 OA
ATOM     71  H32 TYR d   1       7.061  -4.692   9.411  0.00  0.00     0.217 HD
ENDBRANCH  64  70
ENDBRANCH  57  60
ENDBRANCH  50  57
ENDBRANCH  48  50
ENDBRANCH  44  46
BRANCH  44  72
ATOM     72  CB  LYS d   1       1.235  -3.113  12.213  0.00  0.00    -0.038 C 
ATOM     73  H13 LYS d   1       1.051  -4.111  11.787  0.00  0.00     0.036 H 
ATOM     74  H14 LYS d   1       0.853  -3.078  13.244  0.00  0.00     0.036 H 
BRANCH  72  75
ATOM     75  CG  LYS d   1       2.739  -2.899  12.266  0.00  0.00    -0.061 C 
ATOM     76  H15 LYS d   1       2.954  -1.913  12.704  0.00  0.00     0.033 H 
ATOM     77  H16 LYS d   1       3.152  -2.946  11.248  0.00  0.00     0.033 H 
BRANCH  75  78
ATOM     78  CD  LYS d   1       3.381  -3.992  13.128  0.00  0.00    -0.043 C 
ATOM     79  H17 LYS d   1       3.399  -4.930  12.554  0.00  0.00     0.035 H 
ATOM     80  H18 LYS d   1       2.774  -4.129  14.035  0.00  0.00     0.035 H 
BRANCH  78  81
ATOM     81  CE  LYS d   1       4.805  -3.645  13.541  0.00  0.00     0.080 C 
ATOM     82  H19 LYS d   1       4.826  -2.621  13.943  0.00  0.00     0.075 H 
ATOM     83  H20 LYS d   1       5.462  -3.707  12.661  0.00  0.00     0.075 H 
BRANCH  81  84
ATOM     84  NZ  LYS d   1       5.294  -4.595  14.589  0.00  0.00    -0.079 N 
ATOM     85  H21 LYS d   1       6.237  -4.351  14.850  0.00  0.00     0.274 HD
ATOM     86  H22 LYS d   1       5.279  -5.535  14.224  0.00  0.00     0.274 HD
ATOM     87  H23 LYS d   1       4.696  -4.539  15.399  0.00  0.00     0.274 HD
ENDBRANCH  81  84
ENDBRANCH  78  81
ENDBRANCH  75  78
ENDBRANCH  72  75
ENDBRANCH  44  72
ENDBRANCH  42  44
ENDBRANCH   1  40
BRANCH   1  88
ATOM     88  CB  TRP d   1      -3.605  -2.748   9.561  0.00  0.00    -0.012 C 
ATOM     89  H3  TRP d   1      -3.538  -1.940   8.818  0.00  0.00     0.044 H 
ATOM     90  H4  TRP d   1      -4.622  -3.167   9.557  0.00  0.00     0.044 H 
BRANCH  88  91
ATOM     91  CG  TRP d   1      -2.625  -3.843   9.181  0.00  0.00    -0.028 A 
ATOM     92  CD1 TRP d   1      -1.973  -4.694  10.036  0.00  0.00    -0.015 A 
ATOM     93  NE1 TRP d   1      -1.156  -5.550   9.328  0.00  0.00    -0.365 N 
ATOM     94  H5  TRP d   1      -2.084  -4.694  11.119  0.00  0.00     0.112 H 
ATOM     95  CE2 TRP d   1      -1.267  -5.263   7.992  0.00  0.00     0.042 A 
ATOM     96  H6  TRP d   1      -0.560  -6.285   9.736  0.00  0.00     0.165 HD
ATOM     97  CD2 TRP d   1      -2.180  -4.191   7.860  0.00  0.00    -0.002 A 
ATOM     98  CZ2 TRP d   1      -0.640  -5.851   6.893  0.00  0.00    -0.056 A 
ATOM     99  CE3 TRP d   1      -2.465  -3.704   6.580  0.00  0.00    -0.070 A 
ATOM    100  CZ3 TRP d   1      -1.839  -4.291   5.490  0.00  0.00    -0.082 A 
ATOM    101  H7  TRP d   1      -3.161  -2.884   6.443  0.00  0.00     0.084 H 
ATOM    102  CH2 TRP d   1      -0.940  -5.353   5.655  0.00  0.00    -0.081 A 
ATOM    103  H9  TRP d   1      -2.049  -3.921   4.493  0.00  0.00     0.083 H 
ATOM    104  H10 TRP d   1      -0.471  -5.790   4.781  0.00  0.00     0.083 H 
ATOM    105  H8  TRP d   1       0.058  -6.671   7.016  0.00  0.00     0.086 H 
ENDBRANCH  88  91
ENDBRANCH   1  88
TORSDOF 24
