REMARK  24 active torsions:
REMARK  status: ('A' for Active; 'I' for Inactive)
REMARK    1  A    between atoms: C2_2  and  C1_1 
REMARK    2  A    between atoms: O3_28  and  C2_2 
REMARK    3  A    between atoms: C4_4  and  O4_15 
REMARK    4  A    between atoms: C5_5  and  N5_12 
REMARK    5  A    between atoms: C6_6  and  C7_7 
REMARK    6  A    between atoms: C7_7  and  C8_8 
REMARK    7  A    between atoms: C7_7  and  O7_17 
REMARK    8  A    between atoms: C8_8  and  C9_9 
REMARK    9  A    between atoms: C8_8  and  O8_18 
REMARK   10  A    between atoms: C9_9  and  O9_19 
REMARK   11  A    between atoms: C10_10  and  C11_11 
REMARK       I    between atoms: N5_12  and  C10_10 
REMARK   12  A    between atoms: O4_43  and  C1_21 
REMARK   13  A    between atoms: C2_22  and  O2_27 
REMARK   14  A    between atoms: C3_23  and  O3_28 
REMARK   15  A    between atoms: C4_24  and  O4_29 
REMARK   16  A    between atoms: C5_25  and  C6_26 
REMARK   17  A    between atoms: C6_26  and  O6_31 
REMARK   18  A    between atoms: C1_32  and  O1_41 
REMARK   19  A    between atoms: N2_40  and  C2_33 
REMARK   20  A    between atoms: C3_34  and  O3_42 
REMARK   21  A    between atoms: C4_35  and  O4_43 
REMARK   22  A    between atoms: C5_36  and  C6_37 
REMARK   23  A    between atoms: C6_37  and  O6_45 
REMARK   24  A    between atoms: C7_38  and  C8_39 
REMARK       I    between atoms: C7_38  and  N2_40 
ROOT
ATOM      1  H18 SIA d   1      32.705 -19.397  34.683  0.00  0.00     0.133 H 
ATOM      2  H19 SIA d   1      31.128 -19.873  37.256  0.00  0.00     0.094 H 
ATOM      3  H20 SIA d   1      31.237 -21.637  34.782  0.00  0.00     0.091 H 
ATOM      4  H21 SIA d   1      29.068 -20.907  34.143  0.00  0.00     0.091 H 
ATOM      5  H22 SIA d   1      30.832 -19.458  33.352  0.00  0.00     0.090 H 
ATOM      6  C1  GAL d   1      32.127 -19.037  35.547  0.00  0.00     0.159 C 
ATOM      7  C2  GAL d   1      31.641 -20.242  36.356  0.00  0.00     0.110 C 
ATOM      8  C3  GAL d   1      30.672 -21.093  35.553  0.00  0.00     0.099 C 
ATOM      9  C4  GAL d   1      29.583 -20.279  34.885  0.00  0.00     0.090 C 
ATOM     10  C5  GAL d   1      30.194 -19.084  34.167  0.00  0.00     0.089 C 
ATOM     11  O5  GAL d   1      30.994 -18.337  35.063  0.00  0.00    -0.348 OA
ENDROOT
BRANCH   8  12
ATOM     12  O3  GAL d   1      30.045 -22.001  36.411  0.00  0.00    -0.336 OA
BRANCH  12  13
ATOM     13  C2  SIA d   1      30.210 -23.401  36.063  0.00  0.00     0.259 C 
ATOM     14  C3  SIA d   1      29.116 -24.029  36.918  0.00  0.00     0.024 C 
ATOM     15  C4  SIA d   1      29.132 -25.548  36.793  0.00  0.00     0.063 C 
ATOM     16  H1  SIA d   1      28.138 -23.651  36.586  0.00  0.00     0.045 H 
ATOM     17  H2  SIA d   1      29.278 -23.753  37.970  0.00  0.00     0.045 H 
ATOM     18  C5  SIA d   1      30.539 -26.099  36.994  0.00  0.00     0.064 C 
ATOM     19  H3  SIA d   1      28.782 -25.826  35.788  0.00  0.00     0.086 H 
ATOM     20  C6  SIA d   1      31.548 -25.345  36.137  0.00  0.00     0.091 C 
ATOM     21  H4  SIA d   1      30.816 -25.974  38.051  0.00  0.00     0.080 H 
ATOM     22  O6  SIA d   1      31.474 -23.951  36.428  0.00  0.00    -0.336 OA
ATOM     23  H5  SIA d   1      31.303 -25.505  35.077  0.00  0.00     0.090 H 
BRANCH  13  24
ATOM     24  C1  SIA d   1      29.938 -23.689  34.609  0.00  0.00     0.239 C 
ATOM     25  O1A SIA d   1      28.757 -23.648  34.203  0.00  0.00    -0.644 OA
ATOM     26  O1B SIA d   1      30.905 -23.958  33.863  0.00  0.00    -0.644 OA
ENDBRANCH  13  24
BRANCH  15  27
ATOM     27  O4  SIA d   1      28.253 -26.116  37.770  0.00  0.00    -0.393 OA
ATOM     28  H14 SIA d   1      27.377 -25.772  37.644  0.00  0.00     0.210 HD
ENDBRANCH  15  27
BRANCH  18  29
ATOM     29  N5  SIA d   1      30.569 -27.512  36.669  0.00  0.00    -0.352 N 
ATOM     30  C10 SIA d   1      31.252 -28.381  37.408  0.00  0.00     0.214 C 
ATOM     31  O10 SIA d   1      31.907 -28.035  38.377  0.00  0.00    -0.274 OA
ATOM     32  H13 SIA d   1      30.064 -27.840  35.871  0.00  0.00     0.163 HD
BRANCH  30  33
ATOM     33  C11 SIA d   1      31.165 -29.814  36.973  0.00  0.00    -0.003 C 
ATOM     34  H10 SIA d   1      31.764 -30.440  37.651  0.00  0.00     0.040 H 
ATOM     35  H11 SIA d   1      31.552 -29.910  35.948  0.00  0.00     0.040 H 
ATOM     36  H12 SIA d   1      30.116 -30.143  37.001  0.00  0.00     0.040 H 
ENDBRANCH  30  33
ENDBRANCH  18  29
BRANCH  20  37
ATOM     37  C7  SIA d   1      32.965 -25.843  36.396  0.00  0.00     0.089 C 
ATOM     38  H6  SIA d   1      33.095 -26.817  35.902  0.00  0.00     0.091 H 
BRANCH  37  39
ATOM     39  C8  SIA d   1      33.997 -24.868  35.842  0.00  0.00     0.083 C 
ATOM     40  H7  SIA d   1      34.222 -24.114  36.611  0.00  0.00     0.090 H 
BRANCH  39  41
ATOM     41  C9  SIA d   1      35.286 -25.590  35.468  0.00  0.00     0.043 C 
ATOM     42  H8  SIA d   1      35.114 -26.208  34.574  0.00  0.00     0.078 H 
ATOM     43  H9  SIA d   1      35.602 -26.233  36.303  0.00  0.00     0.078 H 
BRANCH  41  44
ATOM     44  O9  SIA d   1      36.310 -24.627  35.193  0.00  0.00    -0.398 OA
ATOM     45  H17 SIA d   1      36.458 -24.094  35.965  0.00  0.00     0.209 HD
ENDBRANCH  41  44
ENDBRANCH  39  41
BRANCH  39  46
ATOM     46  O8  SIA d   1      33.463 -24.214  34.686  0.00  0.00    -0.391 OA
ATOM     47  H16 SIA d   1      32.660 -23.765  34.921  0.00  0.00     0.210 HD
ENDBRANCH  39  46
ENDBRANCH  37  39
BRANCH  37  48
ATOM     48  O7  SIA d   1      33.165 -26.000  37.805  0.00  0.00    -0.390 OA
ATOM     49  H15 SIA d   1      32.521 -26.608  38.149  0.00  0.00     0.210 HD
ENDBRANCH  37  48
ENDBRANCH  20  37
ENDBRANCH  12  13
ENDBRANCH   8  12
BRANCH   7  50
ATOM     50  O2  GAL d   1      32.731 -21.049  36.747  0.00  0.00    -0.388 OA
ATOM     51  H25 SIA d   1      32.415 -21.770  37.279  0.00  0.00     0.210 HD
ENDBRANCH   7  50
BRANCH   9  52
ATOM     52  O4  GAL d   1      28.653 -19.876  35.860  0.00  0.00    -0.390 OA
ATOM     53  H26 SIA d   1      28.292 -20.643  36.288  0.00  0.00     0.210 HD
ENDBRANCH   9  52
BRANCH   6  54
ATOM     54  O4  NAG d   1      33.002 -18.217  36.358  0.00  0.00    -0.348 OA
BRANCH  54  55
ATOM     55  C4  NAG d   1      34.318 -17.930  35.927  0.00  0.00     0.095 C 
ATOM     56  C3  NAG d   1      34.377 -16.429  35.623  0.00  0.00     0.087 C 
ATOM     57  C2  NAG d   1      35.716 -15.734  35.895  0.00  0.00     0.086 C 
ATOM     58  H30 SIA d   1      33.623 -15.942  36.259  0.00  0.00     0.090 H 
ATOM     59  C1  NAG d   1      36.513 -16.362  37.036  0.00  0.00     0.151 C 
ATOM     60  H29 SIA d   1      36.329 -15.779  34.983  0.00  0.00     0.084 H 
ATOM     61  O5  NAG d   1      36.544 -17.762  36.892  0.00  0.00    -0.349 OA
ATOM     62  H28 SIA d   1      36.027 -16.109  37.990  0.00  0.00     0.132 H 
ATOM     63  C5  NAG d   1      35.272 -18.350  37.042  0.00  0.00     0.089 C 
ATOM     64  H32 SIA d   1      34.843 -18.032  38.004  0.00  0.00     0.090 H 
ATOM     65  H31 SIA d   1      34.555 -18.496  35.014  0.00  0.00     0.091 H 
BRANCH  56  66
ATOM     66  O3  NAG d   1      34.030 -16.215  34.269  0.00  0.00    -0.391 OA
ATOM     67  H40 SIA d   1      34.066 -15.285  34.077  0.00  0.00     0.210 HD
ENDBRANCH  56  66
BRANCH  57  68
ATOM     68  N2  NAG d   1      35.417 -14.352  36.209  0.00  0.00    -0.349 N 
ATOM     69  C7  NAG d   1      35.845 -13.337  35.464  0.00  0.00     0.214 C 
ATOM     70  O7  NAG d   1      36.959 -13.311  34.939  0.00  0.00    -0.274 OA
ATOM     71  H38 SIA d   1      34.866 -14.153  37.019  0.00  0.00     0.163 HD
BRANCH  69  72
ATOM     72  C8  NAG d   1      34.879 -12.201  35.278  0.00  0.00    -0.003 C 
ATOM     73  H35 SIA d   1      35.341 -11.426  34.649  0.00  0.00     0.040 H 
ATOM     74  H36 SIA d   1      34.623 -11.773  36.258  0.00  0.00     0.040 H 
ATOM     75  H37 SIA d   1      33.965 -12.572  34.791  0.00  0.00     0.040 H 
ENDBRANCH  69  72
ENDBRANCH  57  68
BRANCH  59  76
ATOM     76  O1  NAG d   1      37.834 -15.869  37.048  0.00  0.00    -0.369 OA
ATOM     77  H39 SIA d   1      38.308 -16.255  37.775  0.00  0.00     0.212 HD
ENDBRANCH  59  76
BRANCH  63  78
ATOM     78  C6  NAG d   1      35.451 -19.863  37.051  0.00  0.00     0.043 C 
ATOM     79  H33 SIA d   1      35.989 -20.171  36.142  0.00  0.00     0.078 H 
ATOM     80  H34 SIA d   1      34.463 -20.346  37.074  0.00  0.00     0.078 H 
BRANCH  78  81
ATOM     81  O6  NAG d   1      36.189 -20.259  38.185  0.00  0.00    -0.398 OA
ATOM     82  H41 SIA d   1      36.294 -21.203  38.179  0.00  0.00     0.209 HD
ENDBRANCH  78  81
ENDBRANCH  63  78
ENDBRANCH  54  55
ENDBRANCH   6  54
BRANCH  10  83
ATOM     83  C6  GAL d   1      29.121 -18.186  33.565  0.00  0.00     0.043 C 
ATOM     84  H23 SIA d   1      28.400 -17.897  34.344  0.00  0.00     0.078 H 
ATOM     85  H24 SIA d   1      28.597 -18.723  32.761  0.00  0.00     0.078 H 
BRANCH  83  86
ATOM     86  O6  GAL d   1      29.741 -17.033  33.041  0.00  0.00    -0.398 OA
ATOM     87  H27 SIA d   1      30.194 -16.574  33.738  0.00  0.00     0.209 HD
ENDBRANCH  83  86
ENDBRANCH  10  83
TORSDOF 24
