REMARK  24 active torsions:
REMARK  status: ('A' for Active; 'I' for Inactive)
REMARK    1  A    between atoms: C2_2  and  C1_1 
REMARK    2  A    between atoms: O3_28  and  C2_2 
REMARK    3  A    between atoms: C4_4  and  O4_15 
REMARK    4  A    between atoms: C5_5  and  N5_12 
REMARK    5  A    between atoms: C6_6  and  C7_7 
REMARK    6  A    between atoms: C7_7  and  C8_8 
REMARK    7  A    between atoms: C7_7  and  O7_17 
REMARK    8  A    between atoms: C8_8  and  C9_9 
REMARK    9  A    between atoms: C8_8  and  O8_18 
REMARK   10  A    between atoms: C9_9  and  O9_19 
REMARK   11  A    between atoms: C10_10  and  C11_11 
REMARK       I    between atoms: N5_12  and  C10_10 
REMARK   12  A    between atoms: O4_43  and  C1_21 
REMARK   13  A    between atoms: C2_22  and  O2_27 
REMARK   14  A    between atoms: C3_23  and  O3_28 
REMARK   15  A    between atoms: C4_24  and  O4_29 
REMARK   16  A    between atoms: C5_25  and  C6_26 
REMARK   17  A    between atoms: C6_26  and  O6_31 
REMARK   18  A    between atoms: C1_32  and  O1_41 
REMARK   19  A    between atoms: N2_40  and  C2_33 
REMARK   20  A    between atoms: C3_34  and  O3_42 
REMARK   21  A    between atoms: C4_35  and  O4_43 
REMARK   22  A    between atoms: C5_36  and  C6_37 
REMARK   23  A    between atoms: C6_37  and  O6_45 
REMARK   24  A    between atoms: C7_38  and  C8_39 
REMARK       I    between atoms: C7_38  and  N2_40 
ROOT
ATOM      1  H18 SIA d   1     -41.261  11.790 -40.814  0.00  0.00     0.133 H 
ATOM      2  H19 SIA d   1     -41.167  11.320 -37.882  0.00  0.00     0.094 H 
ATOM      3  H20 SIA d   1     -43.747  11.669 -39.426  0.00  0.00     0.091 H 
ATOM      4  H21 SIA d   1     -43.987  13.931 -38.775  0.00  0.00     0.091 H 
ATOM      5  H22 SIA d   1     -42.603  13.503 -40.785  0.00  0.00     0.090 H 
ATOM      6  C1  GAL d   1     -40.775  12.046 -39.861  0.00  0.00     0.159 C 
ATOM      7  C2  GAL d   1     -41.688  11.332 -38.851  0.00  0.00     0.110 C 
ATOM      8  C3  GAL d   1     -43.062  11.994 -38.629  0.00  0.00     0.099 C 
ATOM      9  C4  GAL d   1     -42.971  13.523 -38.670  0.00  0.00     0.090 C 
ATOM     10  C5  GAL d   1     -42.153  13.945 -39.884  0.00  0.00     0.089 C 
ATOM     11  O5  GAL d   1     -40.841  13.451 -39.732  0.00  0.00    -0.348 OA
ENDROOT
BRANCH   8  12
ATOM     12  O3  GAL d   1     -43.560  11.541 -37.378  0.00  0.00    -0.336 OA
BRANCH  12  13
ATOM     13  C2  SIA d   1     -44.884  11.071 -37.059  0.00  0.00     0.259 C 
ATOM     14  C3  SIA d   1     -45.278   9.914 -37.969  0.00  0.00     0.024 C 
ATOM     15  C4  SIA d   1     -46.771   9.627 -37.870  0.00  0.00     0.063 C 
ATOM     16  H1  SIA d   1     -44.718   9.015 -37.671  0.00  0.00     0.045 H 
ATOM     17  H2  SIA d   1     -45.029  10.173 -39.009  0.00  0.00     0.045 H 
ATOM     18  C5  SIA d   1     -47.585  10.906 -38.023  0.00  0.00     0.064 C 
ATOM     19  H3  SIA d   1     -46.984   9.186 -36.885  0.00  0.00     0.086 H 
ATOM     20  C6  SIA d   1     -47.051  12.007 -37.113  0.00  0.00     0.091 C 
ATOM     21  H4  SIA d   1     -47.508  11.247 -39.066  0.00  0.00     0.080 H 
ATOM     22  O6  SIA d   1     -45.667  12.218 -37.383  0.00  0.00    -0.336 OA
ATOM     23  H5  SIA d   1     -47.170  11.692 -36.066  0.00  0.00     0.090 H 
BRANCH  13  24
ATOM     24  C1  SIA d   1     -45.127  10.687 -35.623  0.00  0.00     0.239 C 
ATOM     25  O1A SIA d   1     -44.632   9.620 -35.198  0.00  0.00    -0.644 OA
ATOM     26  O1B SIA d   1     -45.816  11.448 -34.910  0.00  0.00    -0.644 OA
ENDBRANCH  13  24
BRANCH  15  27
ATOM     27  O4  SIA d   1     -47.147   8.697 -38.893  0.00  0.00    -0.393 OA
ATOM     28  H14 SIA d   1     -46.639   7.900 -38.797  0.00  0.00     0.210 HD
ENDBRANCH  15  27
BRANCH  18  29
ATOM     29  N5  SIA d   1     -48.979  10.646 -37.720  0.00  0.00    -0.352 N 
ATOM     30  C10 SIA d   1     -49.960  11.230 -38.402  0.00  0.00     0.214 C 
ATOM     31  O10 SIA d   1     -49.749  12.130 -39.199  0.00  0.00    -0.274 OA
ATOM     32  H13 SIA d   1     -49.208  10.013 -36.981  0.00  0.00     0.163 HD
BRANCH  30  33
ATOM     33  C11 SIA d   1     -51.341  10.713 -38.127  0.00  0.00    -0.003 C 
ATOM     34  H10 SIA d   1     -52.068  11.264 -38.742  0.00  0.00     0.040 H 
ATOM     35  H11 SIA d   1     -51.580  10.853 -37.062  0.00  0.00     0.040 H 
ATOM     36  H12 SIA d   1     -51.388   9.642 -38.375  0.00  0.00     0.040 H 
ENDBRANCH  30  33
ENDBRANCH  18  29
BRANCH  20  37
ATOM     37  C7  SIA d   1     -47.815  13.308 -37.325  0.00  0.00     0.089 C 
ATOM     38  H6  SIA d   1     -48.874  13.143 -37.080  0.00  0.00     0.091 H 
BRANCH  37  39
ATOM     39  C8  SIA d   1     -47.268  14.414 -36.429  0.00  0.00     0.083 C 
ATOM     40  H7  SIA d   1     -46.268  14.699 -36.786  0.00  0.00     0.090 H 
BRANCH  39  41
ATOM     41  C9  SIA d   1     -48.172  15.641 -36.463  0.00  0.00     0.043 C 
ATOM     42  H8  SIA d   1     -48.873  15.603 -35.616  0.00  0.00     0.078 H 
ATOM     43  H9  SIA d   1     -48.737  15.654 -37.407  0.00  0.00     0.078 H 
BRANCH  41  44
ATOM     44  O9  SIA d   1     -47.374  16.825 -36.369  0.00  0.00    -0.398 OA
ATOM     45  H17 SIA d   1     -46.886  16.813 -35.554  0.00  0.00     0.209 HD
ENDBRANCH  41  44
ENDBRANCH  39  41
BRANCH  39  46
ATOM     46  O8  SIA d   1     -47.167  13.933 -35.084  0.00  0.00    -0.391 OA
ATOM     47  H16 SIA d   1     -46.603  13.168 -35.064  0.00  0.00     0.210 HD
ENDBRANCH  39  46
ENDBRANCH  37  39
BRANCH  37  48
ATOM     48  O7  SIA d   1     -47.706  13.708 -38.696  0.00  0.00    -0.390 OA
ATOM     49  H15 SIA d   1     -48.047  13.019 -39.254  0.00  0.00     0.210 HD
ENDBRANCH  37  48
ENDBRANCH  20  37
ENDBRANCH  12  13
ENDBRANCH   8  12
BRANCH   7  50
ATOM     50  O2  GAL d   1     -41.876   9.997 -39.283  0.00  0.00    -0.388 OA
ATOM     51  H25 SIA d   1     -41.030   9.588 -39.420  0.00  0.00     0.210 HD
ENDBRANCH   7  50
BRANCH   9  52
ATOM     52  O4  GAL d   1     -42.412  14.034 -37.474  0.00  0.00    -0.390 OA
ATOM     53  H26 SIA d   1     -42.940  13.756 -36.735  0.00  0.00     0.210 HD
ENDBRANCH   9  52
BRANCH   6  54
ATOM     54  O4  NAG d   1     -39.388  11.839 -40.136  0.00  0.00    -0.348 OA
BRANCH  54  55
ATOM     55  C4  NAG d   1     -38.860  11.688 -41.449  0.00  0.00     0.095 C 
ATOM     56  C3  NAG d   1     -38.191  12.995 -41.891  0.00  0.00     0.087 C 
ATOM     57  C2  NAG d   1     -37.285  12.815 -43.119  0.00  0.00     0.086 C 
ATOM     58  H30 SIA d   1     -37.558  13.339 -41.060  0.00  0.00     0.090 H 
ATOM     59  C1  NAG d   1     -36.530  11.478 -43.180  0.00  0.00     0.151 C 
ATOM     60  H29 SIA d   1     -37.907  12.909 -44.022  0.00  0.00     0.084 H 
ATOM     61  O5  NAG d   1     -37.268  10.352 -42.683  0.00  0.00    -0.349 OA
ATOM     62  H28 SIA d   1     -35.621  11.573 -42.568  0.00  0.00     0.132 H 
ATOM     63  C5  NAG d   1     -37.878  10.523 -41.409  0.00  0.00     0.089 C 
ATOM     64  H32 SIA d   1     -37.103  10.710 -40.651  0.00  0.00     0.090 H 
ATOM     65  H31 SIA d   1     -39.673  11.452 -42.151  0.00  0.00     0.091 H 
BRANCH  56  66
ATOM     66  O3  NAG d   1     -39.173  14.007 -42.146  0.00  0.00    -0.391 OA
ATOM     67  H40 SIA d   1     -39.672  14.170 -41.354  0.00  0.00     0.210 HD
ENDBRANCH  56  66
BRANCH  57  68
ATOM     68  N2  NAG d   1     -36.269  13.861 -43.103  0.00  0.00    -0.349 N 
ATOM     69  C7  NAG d   1     -35.857  14.405 -44.271  0.00  0.00     0.214 C 
ATOM     70  O7  NAG d   1     -36.255  14.002 -45.404  0.00  0.00    -0.274 OA
ATOM     71  H38 SIA d   1     -35.880  14.173 -42.236  0.00  0.00     0.163 HD
BRANCH  69  72
ATOM     72  C8  NAG d   1     -34.867  15.554 -44.150  0.00  0.00    -0.003 C 
ATOM     73  H35 SIA d   1     -34.602  15.917 -45.154  0.00  0.00     0.040 H 
ATOM     74  H36 SIA d   1     -33.960  15.204 -43.636  0.00  0.00     0.040 H 
ATOM     75  H37 SIA d   1     -35.323  16.372 -43.573  0.00  0.00     0.040 H 
ENDBRANCH  69  72
ENDBRANCH  57  68
BRANCH  59  76
ATOM     76  O1  NAG d   1     -36.149  11.261 -44.543  0.00  0.00    -0.369 OA
ATOM     77  H39 SIA d   1     -35.662  12.013 -44.858  0.00  0.00     0.212 HD
ENDBRANCH  59  76
BRANCH  63  78
ATOM     78  C6  NAG d   1     -38.678   9.264 -41.047  0.00  0.00     0.043 C 
ATOM     79  H33 SIA d   1     -39.045   9.334 -40.013  0.00  0.00     0.078 H 
ATOM     80  H34 SIA d   1     -38.045   8.370 -41.152  0.00  0.00     0.078 H 
BRANCH  78  81
ATOM     81  O6  NAG d   1     -39.777   9.196 -41.954  0.00  0.00    -0.398 OA
ATOM     82  H41 SIA d   1     -39.449   9.142 -42.844  0.00  0.00     0.209 HD
ENDBRANCH  78  81
ENDBRANCH  63  78
ENDBRANCH  54  55
ENDBRANCH   6  54
BRANCH  10  83
ATOM     83  C6  GAL d   1     -42.123  15.460 -40.053  0.00  0.00     0.043 C 
ATOM     84  H23 SIA d   1     -41.643  15.921 -39.178  0.00  0.00     0.078 H 
ATOM     85  H24 SIA d   1     -43.150  15.843 -40.152  0.00  0.00     0.078 H 
BRANCH  83  86
ATOM     86  O6  GAL d   1     -41.386  15.767 -41.217  0.00  0.00    -0.398 OA
ATOM     87  H27 SIA d   1     -40.501  15.433 -41.128  0.00  0.00     0.209 HD
ENDBRANCH  83  86
ENDBRANCH  10  83
TORSDOF 24
