REMARK  29 active torsions:
REMARK  status: ('A' for Active; 'I' for Inactive)
REMARK    1  A    between atoms: C_1  and  CH3_3 
REMARK       I    between atoms: C_1  and  N_4 
REMARK    2  A    between atoms: CH3_3  and  C1_55 
REMARK    3  A    between atoms: CA_5  and  C_6 
REMARK       I    between atoms: C_6  and  N_11 
REMARK    4  A    between atoms: N_11  and  CA_12 
REMARK    5  A    between atoms: CA_12  and  C_13 
REMARK    6  A    between atoms: CA_12  and  CB_15 
REMARK       I    between atoms: C_13  and  N_19 
REMARK    7  A    between atoms: CB_15  and  CG_16 
REMARK    8  A    between atoms: CG_16  and  CD1_17 
REMARK    9  A    between atoms: CG_16  and  CD2_18 
REMARK   10  A    between atoms: N_19  and  CA_20 
REMARK   11  A    between atoms: CA_20  and  C_21 
REMARK   12  A    between atoms: CA_20  and  CB_23 
REMARK       I    between atoms: C_21  and  N_29 
REMARK   13  A    between atoms: CB_23  and  CG_24 
REMARK   14  A    between atoms: N_29  and  CA_30 
REMARK   15  A    between atoms: CA_30  and  C_31 
REMARK   16  A    between atoms: CA_30  and  CB_33 
REMARK       I    between atoms: C_31  and  N_35 
REMARK   17  A    between atoms: CB_33  and  OG_34 
REMARK   18  A    between atoms: N_35  and  CA_36 
REMARK   19  A    between atoms: CA_36  and  CB_37 
REMARK   20  A    between atoms: CA_36  and  C_44 
REMARK   21  A    between atoms: CB_37  and  CG2_38 
REMARK   22  A    between atoms: CB_37  and  OG1_39 
REMARK   23  A    between atoms: OG1_39  and  P_40 
REMARK       I    between atoms: C_44  and  N_46 
REMARK   24  A    between atoms: N_46  and  CA_47 
REMARK   25  A    between atoms: CA_47  and  C_48 
REMARK   26  A    between atoms: CA_47  and  CB_50 
REMARK       I    between atoms: C_48  and  N_54 
REMARK   27  A    between atoms: CB_50  and  CG_51 
REMARK   28  A    between atoms: CG_51  and  SD_52 
REMARK   29  A    between atoms: SD_52  and  CE_53 
ROOT
ATOM      1  C   LEU d   1      10.825  14.483  11.517  0.00  0.00     0.241 C 
ATOM      2  O   LEU d   1      11.009  13.888  10.457  0.00  0.00    -0.271 OA
ATOM      3  N   HIS d   1      11.451  14.162  12.643  0.00  0.00    -0.346 N 
ATOM      4  H21 HIS d   1      11.280  14.703  13.466  0.00  0.00     0.163 HD
ENDROOT
BRANCH   3   5
ATOM      5  CA  HIS d   1      12.380  13.042  12.711  0.00  0.00     0.094 C 
ATOM      6  H22 HIS d   1      11.996  12.211  12.101  0.00  0.00     0.088 H 
BRANCH   5   7
ATOM      7  C   HIS d   1      12.468  12.606  14.161  0.00  0.00     0.241 C 
ATOM      8  O   HIS d   1      12.035  13.331  15.060  0.00  0.00    -0.271 OA
ATOM      9  N   SER d   1      13.013  11.419  14.392  0.00  0.00    -0.344 N 
ATOM     10  H28 SER d   1      13.340  10.867  13.625  0.00  0.00     0.163 HD
BRANCH   9  11
ATOM     11  CA  SER d   1      13.140  10.910  15.750  0.00  0.00     0.109 C 
ATOM     12  H29 SER d   1      12.181  11.062  16.268  0.00  0.00     0.090 H 
BRANCH  11  13
ATOM     13  C   SER d   1      14.225  11.667  16.519  0.00  0.00     0.243 C 
ATOM     14  O   SER d   1      14.856  12.583  15.990  0.00  0.00    -0.271 OA
ATOM     15  N   TPO d   1      14.450  11.290  17.784  0.00  0.00    -0.344 N 
ATOM     16  H33 TPO d   1      14.189  10.371  18.080  0.00  0.00     0.163 HD
BRANCH  15  17
ATOM     17  CA  TPO d   1      15.073  12.207  18.736  0.00  0.00     0.114 C 
ATOM     18  H34 TPO d   1      14.580  13.187  18.659  0.00  0.00     0.091 H 
BRANCH  17  19
ATOM     19  CB  TPO d   1      14.956  11.692  20.192  0.00  0.00     0.076 C 
ATOM     20  H35 TPO d   1      15.475  10.729  20.308  0.00  0.00     0.087 H 
BRANCH  19  21
ATOM     21  CG2 TPO d   1      15.492  12.680  21.201  0.00  0.00    -0.049 C 
ATOM     22  H36 TPO d   1      15.384  12.265  22.214  0.00  0.00     0.031 H 
ATOM     23  H37 TPO d   1      14.927  13.621  21.129  0.00  0.00     0.031 H 
ATOM     24  H38 TPO d   1      16.555  12.874  20.995  0.00  0.00     0.031 H 
ENDBRANCH  19  21
BRANCH  19  25
ATOM     25  OG1 TPO d   1      13.536  11.549  20.377  0.00  0.00    -0.275 OA
BRANCH  25  26
ATOM     26  P   TPO d   1      12.795  10.157  20.630  0.00  0.00     0.422 P 
ATOM     27  O1P TPO d   1      13.504   9.308  21.644  0.00  0.00    -0.617 OA
ATOM     28  O2P TPO d   1      12.769   9.549  19.233  0.00  0.00    -0.617 OA
ATOM     29  O3P TPO d   1      11.430  10.623  21.071  0.00  0.00    -0.617 OA
ENDBRANCH  25  26
ENDBRANCH  19  25
ENDBRANCH  17  19
BRANCH  17  30
ATOM     30  C   TPO d   1      16.560  12.354  18.413  0.00  0.00     0.243 C 
ATOM     31  O   TPO d   1      17.249  11.389  18.157  0.00  0.00    -0.271 OA
ATOM     32  N   MET d   1      17.048  13.592  18.440  0.00  0.00    -0.346 N 
ATOM     33  H39 MET d   1      16.387  14.342  18.422  0.00  0.00     0.163 HD
BRANCH  32  34
ATOM     34  CA  MET d   1      18.463  13.952  18.493  0.00  0.00     0.090 C 
ATOM     35  H40 MET d   1      19.046  13.129  18.053  0.00  0.00     0.087 H 
BRANCH  34  36
ATOM     36  C   MET d   1      18.939  14.174  19.924  0.00  0.00     0.238 C 
ATOM     37  O   MET d   1      18.164  14.579  20.794  0.00  0.00    -0.271 OA
ATOM     38  N   NH2 d   1      20.220  13.919  20.180  0.00  0.00    -0.368 N 
ATOM     39  H48 NH2 d   1      20.581  14.049  21.104  0.00  0.00     0.159 HD
ATOM     40  H49 NH2 d   1      20.822  13.597  19.449  0.00  0.00     0.159 HD
ENDBRANCH  34  36
BRANCH  34  41
ATOM     41  CB  MET d   1      18.716  15.224  17.686  0.00  0.00    -0.030 C 
ATOM     42  H41 MET d   1      19.793  15.446  17.727  0.00  0.00     0.037 H 
ATOM     43  H42 MET d   1      18.154  16.044  18.157  0.00  0.00     0.037 H 
BRANCH  41  44
ATOM     44  CG  MET d   1      18.309  15.150  16.235  0.00  0.00    -0.021 C 
ATOM     45  H43 MET d   1      17.218  15.023  16.166  0.00  0.00     0.049 H 
ATOM     46  H44 MET d   1      18.809  14.294  15.758  0.00  0.00     0.049 H 
BRANCH  44  47
ATOM     47  SD  MET d   1      18.790  16.670  15.396  0.00  0.00    -0.173 SA
BRANCH  47  48
ATOM     48  CE  MET d   1      19.752  16.021  14.031  0.00  0.00    -0.035 C 
ATOM     49  H45 MET d   1      20.122  16.854  13.415  0.00  0.00     0.041 H 
ATOM     50  H46 MET d   1      19.120  15.363  13.417  0.00  0.00     0.041 H 
ATOM     51  H47 MET d   1      20.605  15.448  14.423  0.00  0.00     0.041 H 
ENDBRANCH  47  48
ENDBRANCH  44  47
ENDBRANCH  41  44
ENDBRANCH  34  41
ENDBRANCH  32  34
ENDBRANCH  17  30
ENDBRANCH  15  17
ENDBRANCH  11  13
BRANCH  11  52
ATOM     52  CB  SER d   1      13.445   9.405  15.725  0.00  0.00     0.044 C 
ATOM     53  H30 SER d   1      12.593   8.879  15.270  0.00  0.00     0.077 H 
ATOM     54  H31 SER d   1      13.582   9.055  16.759  0.00  0.00     0.077 H 
BRANCH  52  55
ATOM     55  OG  SER d   1      14.621   9.105  14.979  0.00  0.00    -0.398 OA
ATOM     56  H32 SER d   1      15.364   9.550  15.369  0.00  0.00     0.209 HD
ENDBRANCH  52  55
ENDBRANCH  11  52
ENDBRANCH   9  11
ENDBRANCH   5   7
BRANCH   5  57
ATOM     57  CB  HIS d   1      13.766  13.445  12.183  0.00  0.00     0.004 C 
ATOM     58  H23 HIS d   1      13.672  13.685  11.114  0.00  0.00     0.046 H 
ATOM     59  H24 HIS d   1      14.445  12.589  12.308  0.00  0.00     0.046 H 
BRANCH  57  60
ATOM     60  CG  HIS d   1      14.367  14.627  12.879  0.00  0.00     0.053 A 
ATOM     61  ND1 HIS d   1      14.752  14.598  14.203  0.00  0.00    -0.247 NA
ATOM     62  CE1 HIS d   1      15.251  15.775  14.540  0.00  0.00     0.064 A 
ATOM     63  NE2 HIS d   1      15.203  16.566  13.483  0.00  0.00    -0.359 N 
ATOM     64  H26 HIS d   1      15.636  16.046  15.522  0.00  0.00     0.143 H 
ATOM     65  CD2 HIS d   1      14.653  15.873  12.431  0.00  0.00     0.002 A 
ATOM     66  H27 HIS d   1      15.525  17.544  13.452  0.00  0.00     0.166 HD
ATOM     67  H25 HIS d   1      14.480  16.254  11.426  0.00  0.00     0.114 H 
ENDBRANCH  57  60
ENDBRANCH   5  57
ENDBRANCH   3   5
BRANCH   1  68
ATOM     68  CA  LEU d   1       9.860  15.659  11.599  0.00  0.00     0.089 C 
ATOM     69  H11 LEU d   1       8.866  15.307  11.288  0.00  0.00     0.087 H 
BRANCH  68  70
ATOM     70  N   LEU d   1       9.750  16.184  12.955  0.00  0.00    -0.346 N 
ATOM     71  C   PRO d   1       8.781  15.797  13.780  0.00  0.00     0.241 C 
ATOM     72  O   PRO d   1       7.919  14.984  13.462  0.00  0.00    -0.271 OA
ATOM     73  H10 LEU d   1      10.421  16.853  13.273  0.00  0.00     0.163 HD
BRANCH  71  74
ATOM     74  CA  PRO d   1       8.781  16.422  15.173  0.00  0.00     0.091 C 
ATOM     75  N   PRO d   1       7.453  16.383  15.788  0.00  0.00    -0.339 N 
ATOM     76  C   ACE d   1       6.491  17.257  15.460  0.00  0.00     0.221 C 
ATOM     77  CD  PRO d   1       7.388  15.334  16.825  0.00  0.00    -0.001 C 
ATOM     78  O   ACE d   1       6.676  18.137  14.616  0.00  0.00    -0.273 OA
ATOM     79  CG  PRO d   1       8.676  14.563  16.597  0.00  0.00    -0.048 C 
ATOM     80  H8  PRO d   1       6.508  14.689  16.683  0.00  0.00     0.064 H 
ATOM     81  H9  PRO d   1       7.361  15.773  17.833  0.00  0.00     0.064 H 
ATOM     82  CB  PRO d   1       9.630  15.635  16.164  0.00  0.00    -0.036 C 
ATOM     83  H6  PRO d   1       9.018  14.079  17.524  0.00  0.00     0.035 H 
ATOM     84  H7  PRO d   1       8.550  13.803  15.811  0.00  0.00     0.035 H 
ATOM     85  H4  PRO d   1       9.941  16.262  17.013  0.00  0.00     0.036 H 
ATOM     86  H5  PRO d   1      10.520  15.208  15.679  0.00  0.00     0.036 H 
ATOM     87  H3  PRO d   1       9.142  17.458  15.095  0.00  0.00     0.087 H 
BRANCH  76  88
ATOM     88  CH3 ACE d   1       5.154  17.114  16.166  0.00  0.00     0.016 C 
ATOM     89  H1  ACE d   1       5.054  16.064  16.477  0.00  0.00     0.048 H 
ATOM     90  H2  ACE d   1       4.367  17.357  15.437  0.00  0.00     0.048 H 
BRANCH  88  91
ATOM     91  C1  ADM d   1       4.903  18.058  17.505  0.00  0.00    -0.031 C 
ATOM     92  C2  ADM d   1       5.201  19.482  17.052  0.00  0.00    -0.054 C 
ATOM     93  C3  ADM d   1       4.898  20.454  18.193  0.00  0.00    -0.053 C 
ATOM     94  H50 ACE d   1       4.573  19.729  16.183  0.00  0.00     0.034 H 
ATOM     95  H51 ACE d   1       6.262  19.564  16.773  0.00  0.00     0.034 H 
ATOM     96  C4  ADM d   1       5.764  20.112  19.398  0.00  0.00    -0.058 C 
ATOM     97  C10 ADM d   1       3.426  20.344  18.579  0.00  0.00    -0.058 C 
ATOM     98  H52 ACE d   1       5.115  21.482  17.866  0.00  0.00     0.040 H 
ATOM     99  C5  ADM d   1       5.466  18.688  19.851  0.00  0.00    -0.053 C 
ATOM    100  H53 ACE d   1       5.543  20.811  20.218  0.00  0.00     0.034 H 
ATOM    101  H54 ACE d   1       6.825  20.194  19.122  0.00  0.00     0.034 H 
ATOM    102  C6  ADM d   1       3.995  18.573  20.237  0.00  0.00    -0.058 C 
ATOM    103  C9  ADM d   1       5.770  17.717  18.712  0.00  0.00    -0.054 C 
ATOM    104  H55 ACE d   1       6.093  18.441  20.720  0.00  0.00     0.040 H 
ATOM    105  C7  ADM d   1       3.124  18.918  19.032  0.00  0.00    -0.053 C 
ATOM    106  H56 ACE d   1       3.776  19.270  21.059  0.00  0.00     0.034 H 
ATOM    107  H57 ACE d   1       3.780  17.544  20.562  0.00  0.00     0.034 H 
ATOM    108  C8  ADM d   1       3.429  17.946  17.889  0.00  0.00    -0.054 C 
ATOM    109  H58 ACE d   1       2.063  18.837  19.310  0.00  0.00     0.040 H 
ATOM    110  H59 ACE d   1       3.212  16.918  18.214  0.00  0.00     0.034 H 
ATOM    111  H60 ACE d   1       2.804  18.195  17.019  0.00  0.00     0.034 H 
ATOM    112  H61 ACE d   1       6.832  17.798  18.435  0.00  0.00     0.034 H 
ATOM    113  H62 ACE d   1       5.554  16.689  19.040  0.00  0.00     0.034 H 
ATOM    114  H63 ACE d   1       2.799  20.593  17.710  0.00  0.00     0.034 H 
ATOM    115  H64 ACE d   1       3.209  21.043  19.400  0.00  0.00     0.034 H 
ENDBRANCH  88  91
ENDBRANCH  76  88
ENDBRANCH  71  74
ENDBRANCH  68  70
BRANCH  68 116
ATOM    116  CB  LEU d   1      10.303  16.768  10.642  0.00  0.00    -0.035 C 
ATOM    117  H12 LEU d   1      10.491  16.320   9.655  0.00  0.00     0.037 H 
ATOM    118  H13 LEU d   1      11.234  17.209  11.028  0.00  0.00     0.037 H 
BRANCH 116 119
ATOM    119  CG  LEU d   1       9.271  17.887  10.477  0.00  0.00    -0.059 C 
ATOM    120  H14 LEU d   1       9.120  18.385  11.446  0.00  0.00     0.038 H 
BRANCH 119 121
ATOM    121  CD1 LEU d   1       9.774  18.910   9.468  0.00  0.00    -0.073 C 
ATOM    122  H15 LEU d   1       9.028  19.710   9.354  0.00  0.00     0.028 H 
ATOM    123  H16 LEU d   1       9.935  18.419   8.497  0.00  0.00     0.028 H 
ATOM    124  H17 LEU d   1      10.722  19.340   9.823  0.00  0.00     0.028 H 
ENDBRANCH 119 121
BRANCH 119 125
ATOM    125  CD2 LEU d   1       7.952  17.291  10.015  0.00  0.00    -0.073 C 
ATOM    126  H18 LEU d   1       7.603  16.555  10.754  0.00  0.00     0.028 H 
ATOM    127  H19 LEU d   1       8.094  16.796   9.043  0.00  0.00     0.028 H 
ATOM    128  H20 LEU d   1       7.204  18.091   9.913  0.00  0.00     0.028 H 
ENDBRANCH 119 125
ENDBRANCH 116 119
ENDBRANCH  68 116
ENDBRANCH   1  68
TORSDOF 29
