REMARK WARNING: 32 MAX_TORS EXCEEDED!!!
REMARK  38 active torsions:
REMARK  status: ('A' for Active; 'I' for Inactive)
REMARK    1  A    between atoms: CH3_3  and  C_1 
REMARK       I    between atoms: C_1  and  N_4 
REMARK    2  A    between atoms: C4_71  and  CH3_3 
REMARK    3  A    between atoms: CA_5  and  C_6 
REMARK       I    between atoms: C_6  and  N_11 
REMARK    4  A    between atoms: N_11  and  CA_12 
REMARK    5  A    between atoms: CA_12  and  C_13 
REMARK    6  A    between atoms: CA_12  and  CB_15 
REMARK       I    between atoms: C_13  and  N_19 
REMARK    7  A    between atoms: CB_15  and  CG_16 
REMARK    8  A    between atoms: CG_16  and  CD1_17 
REMARK    9  A    between atoms: CG_16  and  CD2_18 
REMARK   10  A    between atoms: N_19  and  CA_20 
REMARK   11  A    between atoms: CA_20  and  C_21 
REMARK   12  A    between atoms: CA_20  and  CB_23 
REMARK       I    between atoms: C_21  and  N_29 
REMARK   13  A    between atoms: CB_23  and  CG_24 
REMARK   14  A    between atoms: N_29  and  CA_30 
REMARK   15  A    between atoms: CA_30  and  C_31 
REMARK   16  A    between atoms: CA_30  and  CB_33 
REMARK       I    between atoms: C_31  and  N_35 
REMARK   17  A    between atoms: CB_33  and  OG_34 
REMARK   18  A    between atoms: N_35  and  CA_36 
REMARK   19  A    between atoms: CA_36  and  CB_37 
REMARK   20  A    between atoms: CA_36  and  C_44 
REMARK   21  A    between atoms: CB_37  and  CG2_38 
REMARK   22  A    between atoms: CB_37  and  OG1_39 
REMARK   23  A    between atoms: OG1_39  and  P_40 
REMARK       I    between atoms: C_44  and  N_46 
REMARK   24  A    between atoms: N_46  and  CA_47 
REMARK   25  A    between atoms: CA_47  and  C_48 
REMARK   26  A    between atoms: CA_47  and  CB_50 
REMARK       I    between atoms: C_48  and  N_54 
REMARK   27  A    between atoms: CB_50  and  CG_51 
REMARK   28  A    between atoms: CG_51  and  SD_52 
REMARK   29  A    between atoms: SD_52  and  CE_53 
REMARK   30  A    between atoms: C7_61  and  C1_55 
REMARK   31  A    between atoms: C8_62  and  C7_61 
REMARK   32  A    between atoms: C9_63  and  C8_62 
REMARK   33  A    between atoms: C10_64  and  C9_63 
REMARK   34  A    between atoms: C11_65  and  C10_64 
REMARK       I    between atoms: N_68  and  C11_65 
REMARK   35  A    between atoms: C1_67  and  N_68 
REMARK   36  A    between atoms: C2_69  and  C1_67 
REMARK   37  A    between atoms: C3_70  and  C2_69 
REMARK   38  A    between atoms: C3_70  and  C4_71 
ROOT
ATOM      1  CA  LEU d   1      37.733   6.819  26.271  0.00  0.00     0.089 C 
ATOM      2  H11 LEU d   1      37.672   5.761  25.975  0.00  0.00     0.087 H 
ENDROOT
BRANCH   1   3
ATOM      3  N   LEU d   1      39.109   7.299  26.125  0.00  0.00    -0.346 N 
ATOM      4  C   PRO d   1      40.073   6.547  25.599  0.00  0.00     0.241 C 
ATOM      5  O   PRO d   1      39.890   5.381  25.241  0.00  0.00    -0.271 OA
ATOM      6  H10 LEU d   1      39.332   8.224  26.431  0.00  0.00     0.163 HD
BRANCH   4   7
ATOM      7  CA  PRO d   1      41.465   7.185  25.491  0.00  0.00     0.091 C 
ATOM      8  N   PRO d   1      41.495   8.605  25.110  0.00  0.00    -0.339 N 
ATOM      9  C   ACE d   1      41.138   9.093  23.908  0.00  0.00     0.220 C 
ATOM     10  CD  PRO d   1      42.028   9.427  26.210  0.00  0.00    -0.001 C 
ATOM     11  O   ACE d   1      40.735   8.364  23.000  0.00  0.00    -0.273 OA
ATOM     12  CG  PRO d   1      41.856   8.512  27.403  0.00  0.00    -0.048 C 
ATOM     13  H8  PRO d   1      41.449  10.354  26.332  0.00  0.00     0.064 H 
ATOM     14  H9  PRO d   1      43.087   9.674  26.046  0.00  0.00     0.064 H 
ATOM     15  CB  PRO d   1      42.202   7.175  26.826  0.00  0.00    -0.036 C 
ATOM     16  H6  PRO d   1      42.543   8.785  28.218  0.00  0.00     0.035 H 
ATOM     17  H7  PRO d   1      40.821   8.531  27.774  0.00  0.00     0.035 H 
ATOM     18  H4  PRO d   1      43.288   7.075  26.679  0.00  0.00     0.036 H 
ATOM     19  H5  PRO d   1      41.843   6.360  27.471  0.00  0.00     0.036 H 
ATOM     20  H3  PRO d   1      42.032   6.604  24.749  0.00  0.00     0.087 H 
BRANCH   9  21
ATOM     21  CH3 ACE d   1      41.241  10.592  23.711  0.00  0.00     0.009 C 
ATOM     22  H1  ACE d   1      42.016  10.962  24.398  0.00  0.00     0.047 H 
ATOM     23  H2  ACE d   1      40.269  11.028  23.985  0.00  0.00     0.047 H 
BRANCH  21  24
ATOM     24  C4  ACE d   1      41.620  11.140  22.195  0.00  0.00    -0.057 C 
ATOM     25  H76 ACE d   1      40.862  10.748  21.502  0.00  0.00     0.033 H 
ATOM     26  H77 ACE d   1      42.606  10.729  21.931  0.00  0.00     0.033 H 
BRANCH  24  27
ATOM     27  C3  ACE d   1      41.684  12.651  21.999  0.00  0.00    -0.063 C 
ATOM     28  H74 ACE d   1      40.981  13.125  22.700  0.00  0.00     0.033 H 
ATOM     29  H75 ACE d   1      42.707  12.990  22.220  0.00  0.00     0.033 H 
BRANCH  27  30
ATOM     30  C2  ACE d   1      41.324  13.086  20.583  0.00  0.00    -0.050 C 
ATOM     31  H72 ACE d   1      40.400  12.560  20.300  0.00  0.00     0.035 H 
ATOM     32  H73 ACE d   1      41.136  14.169  20.608  0.00  0.00     0.035 H 
BRANCH  30  33
ATOM     33  C1  ACE d   1      42.352  12.825  19.491  0.00  0.00    -0.005 C 
ATOM     34  H69 ACE d   1      42.989  11.983  19.800  0.00  0.00     0.064 H 
ATOM     35  H70 ACE d   1      41.822  12.562  18.564  0.00  0.00     0.064 H 
BRANCH  33  36
ATOM     36  N   ACE d   1      43.204  13.986  19.231  0.00  0.00    -0.361 N 
ATOM     37  C11 5PV d   1      44.529  13.944  19.291  0.00  0.00     0.217 C 
ATOM     38  O2  5PV d   1      45.138  13.016  19.810  0.00  0.00    -0.274 OA
ATOM     39  H71 ACE d   1      42.766  14.854  18.997  0.00  0.00     0.162 HD
BRANCH  37  40
ATOM     40  C10 5PV d   1      45.267  15.109  18.674  0.00  0.00     0.009 C 
ATOM     41  H67 ACE d   1      45.809  14.751  17.786  0.00  0.00     0.047 H 
ATOM     42  H68 ACE d   1      44.532  15.870  18.373  0.00  0.00     0.047 H 
BRANCH  40  43
ATOM     43  C9  5PV d   1      46.267  15.748  19.629  0.00  0.00    -0.057 C 
ATOM     44  H65 ACE d   1      46.947  14.968  20.001  0.00  0.00     0.033 H 
ATOM     45  H66 ACE d   1      46.845  16.506  19.079  0.00  0.00     0.033 H 
BRANCH  43  46
ATOM     46  C8  5PV d   1      45.598  16.412  20.811  0.00  0.00    -0.064 C 
ATOM     47  H63 ACE d   1      45.020  17.272  20.441  0.00  0.00     0.033 H 
ATOM     48  H64 ACE d   1      44.916  15.684  21.274  0.00  0.00     0.033 H 
BRANCH  46  49
ATOM     49  C7  5PV d   1      46.561  16.910  21.882  0.00  0.00    -0.062 C 
ATOM     50  H61 ACE d   1      45.968  17.410  22.662  0.00  0.00     0.033 H 
ATOM     51  H62 ACE d   1      47.069  16.034  22.312  0.00  0.00     0.033 H 
BRANCH  49  52
ATOM     52  C1  5PV d   1      47.636  17.890  21.408  0.00  0.00    -0.054 C 
ATOM     53  C2  5PV d   1      47.282  18.524  20.069  0.00  0.00    -0.062 C 
ATOM     54  C3  5PV d   1      48.336  19.517  19.600  0.00  0.00    -0.065 C 
ATOM     55  H51 ACE d   1      46.321  19.050  20.170  0.00  0.00     0.033 H 
ATOM     56  H52 ACE d   1      47.187  17.728  19.316  0.00  0.00     0.033 H 
ATOM     57  C4  5PV d   1      48.558  20.599  20.632  0.00  0.00    -0.065 C 
ATOM     58  H53 ACE d   1      48.001  19.980  18.660  0.00  0.00     0.033 H 
ATOM     59  H54 ACE d   1      49.282  18.983  19.429  0.00  0.00     0.033 H 
ATOM     60  C5  5PV d   1      48.942  19.987  21.962  0.00  0.00    -0.065 C 
ATOM     61  H55 ACE d   1      47.632  21.180  20.754  0.00  0.00     0.033 H 
ATOM     62  H56 ACE d   1      49.366  21.264  20.292  0.00  0.00     0.033 H 
ATOM     63  C6  5PV d   1      47.889  18.991  22.430  0.00  0.00    -0.062 C 
ATOM     64  H57 ACE d   1      49.039  20.787  22.711  0.00  0.00     0.033 H 
ATOM     65  H58 ACE d   1      49.906  19.467  21.854  0.00  0.00     0.033 H 
ATOM     66  H59 ACE d   1      48.231  18.530  23.368  0.00  0.00     0.033 H 
ATOM     67  H60 ACE d   1      46.947  19.530  22.608  0.00  0.00     0.033 H 
ATOM     68  H50 ACE d   1      48.569  17.322  21.280  0.00  0.00     0.040 H 
ENDBRANCH  49  52
ENDBRANCH  46  49
ENDBRANCH  43  46
ENDBRANCH  40  43
ENDBRANCH  37  40
ENDBRANCH  33  36
ENDBRANCH  30  33
ENDBRANCH  27  30
ENDBRANCH  24  27
ENDBRANCH  21  24
ENDBRANCH   9  21
ENDBRANCH   4   7
ENDBRANCH   1   3
BRANCH   1  69
ATOM     69  C   LEU d   1      36.867   7.671  25.357  0.00  0.00     0.241 C 
ATOM     70  O   LEU d   1      37.062   8.881  25.265  0.00  0.00    -0.271 OA
ATOM     71  N   HIS d   1      35.906   7.047  24.691  0.00  0.00    -0.346 N 
ATOM     72  H21 HIS d   1      35.764   6.066  24.827  0.00  0.00     0.163 HD
BRANCH  71  73
ATOM     73  CA  HIS d   1      35.056   7.778  23.764  0.00  0.00     0.094 C 
ATOM     74  H22 HIS d   1      34.836   8.768  24.189  0.00  0.00     0.088 H 
BRANCH  73  75
ATOM     75  C   HIS d   1      33.742   7.058  23.498  0.00  0.00     0.241 C 
ATOM     76  O   HIS d   1      33.564   5.898  23.873  0.00  0.00    -0.271 OA
ATOM     77  N   SER d   1      32.828   7.756  22.835  0.00  0.00    -0.344 N 
ATOM     78  H28 SER d   1      33.032   8.697  22.565  0.00  0.00     0.163 HD
BRANCH  77  79
ATOM     79  CA  SER d   1      31.538   7.183  22.493  0.00  0.00     0.109 C 
ATOM     80  H29 SER d   1      31.131   6.655  23.368  0.00  0.00     0.090 H 
BRANCH  79  81
ATOM     81  C   SER d   1      31.729   6.188  21.346  0.00  0.00     0.243 C 
ATOM     82  O   SER d   1      32.855   5.905  20.936  0.00  0.00    -0.271 OA
ATOM     83  N   TPO d   1      30.624   5.646  20.814  0.00  0.00    -0.344 N 
ATOM     84  H33 TPO d   1      29.729   6.036  21.028  0.00  0.00     0.163 HD
BRANCH  83  85
ATOM     85  CA  TPO d   1      30.716   4.491  19.925  0.00  0.00     0.114 C 
ATOM     86  H34 TPO d   1      31.324   3.713  20.409  0.00  0.00     0.091 H 
BRANCH  85  87
ATOM     87  CB  TPO d   1      29.312   3.907  19.593  0.00  0.00     0.076 C 
ATOM     88  H35 TPO d   1      28.671   4.667  19.123  0.00  0.00     0.087 H 
BRANCH  87  89
ATOM     89  CG2 TPO d   1      29.415   2.706  18.676  0.00  0.00    -0.049 C 
ATOM     90  H36 TPO d   1      28.407   2.320  18.463  0.00  0.00     0.031 H 
ATOM     91  H37 TPO d   1      30.012   1.922  19.164  0.00  0.00     0.031 H 
ATOM     92  H38 TPO d   1      29.900   3.004  17.735  0.00  0.00     0.031 H 
ENDBRANCH  87  89
BRANCH  87  93
ATOM     93  OG1 TPO d   1      28.805   3.538  20.899  0.00  0.00    -0.275 OA
BRANCH  93  94
ATOM     94  P   TPO d   1      27.532   4.271  21.560  0.00  0.00     0.422 P 
ATOM     95  O1P TPO d   1      26.353   4.298  20.681  0.00  0.00    -0.617 OA
ATOM     96  O2P TPO d   1      28.034   5.657  21.910  0.00  0.00    -0.617 OA
ATOM     97  O3P TPO d   1      27.328   3.499  22.838  0.00  0.00    -0.617 OA
ENDBRANCH  93  94
ENDBRANCH  87  93
ENDBRANCH  85  87
BRANCH  85  98
ATOM     98  C   TPO d   1      31.394   4.936  18.595  0.00  0.00     0.243 C 
ATOM     99  O   TPO d   1      31.056   5.947  18.034  0.00  0.00    -0.271 OA
ATOM    100  N   MET d   1      32.355   4.148  18.123  0.00  0.00    -0.346 N 
ATOM    101  H39 MET d   1      32.577   3.296  18.598  0.00  0.00     0.163 HD
BRANCH 100 102
ATOM    102  CA  MET d   1      33.092   4.518  16.912  0.00  0.00     0.090 C 
ATOM    103  H40 MET d   1      33.256   5.606  16.925  0.00  0.00     0.087 H 
BRANCH 102 104
ATOM    104  C   MET d   1      32.316   4.159  15.655  0.00  0.00     0.238 C 
ATOM    105  O   MET d   1      31.496   3.243  15.665  0.00  0.00    -0.271 OA
ATOM    106  N   NH2 d   1      32.573   4.870  14.557  0.00  0.00    -0.368 N 
ATOM    107  H48 NH2 d   1      32.087   4.670  13.706  0.00  0.00     0.159 HD
ATOM    108  H49 NH2 d   1      33.252   5.604  14.584  0.00  0.00     0.159 HD
ENDBRANCH 102 104
BRANCH 102 109
ATOM    109  CB  MET d   1      34.450   3.814  16.876  0.00  0.00    -0.030 C 
ATOM    110  H41 MET d   1      34.966   4.104  15.949  0.00  0.00     0.037 H 
ATOM    111  H42 MET d   1      34.277   2.728  16.875  0.00  0.00     0.037 H 
BRANCH 109 112
ATOM    112  CG  MET d   1      35.345   4.152  18.043  0.00  0.00    -0.021 C 
ATOM    113  H43 MET d   1      34.925   3.696  18.952  0.00  0.00     0.049 H 
ATOM    114  H44 MET d   1      35.372   5.245  18.160  0.00  0.00     0.049 H 
BRANCH 112 115
ATOM    115  SD  MET d   1      37.027   3.556  17.825  0.00  0.00    -0.173 SA
BRANCH 115 116
ATOM    116  CE  MET d   1      37.794   5.033  17.202  0.00  0.00    -0.035 C 
ATOM    117  H45 MET d   1      38.859   4.839  17.009  0.00  0.00     0.041 H 
ATOM    118  H46 MET d   1      37.697   5.838  17.945  0.00  0.00     0.041 H 
ATOM    119  H47 MET d   1      37.301   5.336  16.267  0.00  0.00     0.041 H 
ENDBRANCH 115 116
ENDBRANCH 112 115
ENDBRANCH 109 112
ENDBRANCH 102 109
ENDBRANCH 100 102
ENDBRANCH  85  98
ENDBRANCH  83  85
ENDBRANCH  79  81
BRANCH  79 120
ATOM    120  CB  SER d   1      30.563   8.292  22.080  0.00  0.00     0.044 C 
ATOM    121  H30 SER d   1      30.385   8.951  22.943  0.00  0.00     0.077 H 
ATOM    122  H31 SER d   1      29.613   7.834  21.766  0.00  0.00     0.077 H 
BRANCH 120 123
ATOM    123  OG  SER d   1      31.078   9.067  21.007  0.00  0.00    -0.398 OA
ATOM    124  H32 SER d   1      31.230   8.505  20.256  0.00  0.00     0.209 HD
ENDBRANCH 120 123
ENDBRANCH  79 120
ENDBRANCH  77  79
ENDBRANCH  73  75
BRANCH  73 125
ATOM    125  CB  HIS d   1      35.808   7.946  22.448  0.00  0.00     0.004 C 
ATOM    126  H23 HIS d   1      36.646   8.640  22.609  0.00  0.00     0.046 H 
ATOM    127  H24 HIS d   1      35.119   8.370  21.702  0.00  0.00     0.046 H 
BRANCH 125 128
ATOM    128  CG  HIS d   1      36.351   6.658  21.917  0.00  0.00     0.053 A 
ATOM    129  ND1 HIS d   1      35.540   5.605  21.554  0.00  0.00    -0.247 NA
ATOM    130  CE1 HIS d   1      36.287   4.574  21.204  0.00  0.00     0.064 A 
ATOM    131  NE2 HIS d   1      37.556   4.920  21.324  0.00  0.00    -0.359 N 
ATOM    132  H26 HIS d   1      35.919   3.604  20.873  0.00  0.00     0.143 H 
ATOM    133  CD2 HIS d   1      37.624   6.220  21.766  0.00  0.00     0.002 A 
ATOM    134  H27 HIS d   1      38.364   4.314  21.120  0.00  0.00     0.166 HD
ATOM    135  H25 HIS d   1      38.531   6.791  21.959  0.00  0.00     0.114 H 
ENDBRANCH 125 128
ENDBRANCH  73 125
ENDBRANCH  71  73
ENDBRANCH   1  69
BRANCH   1 136
ATOM    136  CB  LEU d   1      37.255   6.971  27.714  0.00  0.00    -0.035 C 
ATOM    137  H12 LEU d   1      36.198   6.668  27.748  0.00  0.00     0.037 H 
ATOM    138  H13 LEU d   1      37.340   8.034  27.983  0.00  0.00     0.037 H 
BRANCH 136 139
ATOM    139  CG  LEU d   1      38.003   6.164  28.776  0.00  0.00    -0.059 C 
ATOM    140  H14 LEU d   1      39.077   6.394  28.715  0.00  0.00     0.038 H 
BRANCH 139 141
ATOM    141  CD1 LEU d   1      37.493   6.548  30.158  0.00  0.00    -0.073 C 
ATOM    142  H15 LEU d   1      38.031   5.967  30.922  0.00  0.00     0.028 H 
ATOM    143  H16 LEU d   1      36.416   6.332  30.225  0.00  0.00     0.028 H 
ATOM    144  H17 LEU d   1      37.663   7.622  30.326  0.00  0.00     0.028 H 
ENDBRANCH 139 141
BRANCH 139 145
ATOM    145  CD2 LEU d   1      37.802   4.674  28.522  0.00  0.00    -0.073 C 
ATOM    146  H18 LEU d   1      38.177   4.419  27.520  0.00  0.00     0.028 H 
ATOM    147  H19 LEU d   1      36.731   4.433  28.585  0.00  0.00     0.028 H 
ATOM    148  H20 LEU d   1      38.353   4.096  29.278  0.00  0.00     0.028 H 
ENDBRANCH 139 145
ENDBRANCH 136 139
ENDBRANCH   1 136
TORSDOF 38
