REMARK  16 active torsions:
REMARK  status: ('A' for Active; 'I' for Inactive)
REMARK    1  A    between atoms: C1_1  and  C2_2 
REMARK    2  A    between atoms: C2_2  and  C3_3 
REMARK    3  A    between atoms: C3_3  and  C4_4 
REMARK    4  A    between atoms: C4_4  and  C5_5 
REMARK    5  A    between atoms: C5_5  and  C6_6 
REMARK    6  A    between atoms: C6_6  and  C7_7 
REMARK    7  A    between atoms: C7_7  and  C8_8 
REMARK    8  A    between atoms: C8_8  and  C9_9 
REMARK    9  A    between atoms: C9_9  and  C10_10 
REMARK   10  A    between atoms: C10_10  and  C11_11 
REMARK   11  A    between atoms: C11_11  and  C12_12 
REMARK   12  A    between atoms: C13_13  and  C14_14 
REMARK   13  A    between atoms: C14_14  and  C15_15 
REMARK   14  A    between atoms: C15_15  and  C16_16 
REMARK   15  A    between atoms: C16_16  and  C17_17 
REMARK   16  A    between atoms: C17_17  and  C18_18 
ROOT
ATOM      1  C9  EIC d   1      38.010  -6.785  -1.021  0.00  0.00    -0.065 C 
ATOM      2  H   EIC d   1      38.400  -6.222  -0.160  0.00  0.00     0.033 H 
ATOM      3  H   EIC d   1      38.585  -6.523  -1.921  0.00  0.00     0.033 H 
ENDROOT
BRANCH   1   4
ATOM      4  C8  EIC d   1      36.618  -6.302  -1.250  0.00  0.00    -0.065 C 
ATOM      5  H   EIC d   1      35.978  -7.151  -1.534  0.00  0.00     0.033 H 
ATOM      6  H   EIC d   1      36.233  -5.845  -0.327  0.00  0.00     0.033 H 
BRANCH   4   7
ATOM      7  C7  EIC d   1      36.613  -5.288  -2.345  0.00  0.00    -0.065 C 
ATOM      8  H   EIC d   1      37.329  -4.487  -2.107  0.00  0.00     0.033 H 
ATOM      9  H   EIC d   1      36.901  -5.769  -3.292  0.00  0.00     0.033 H 
BRANCH   7  10
ATOM     10  C6  EIC d   1      35.245  -4.709  -2.477  0.00  0.00    -0.065 C 
ATOM     11  H   EIC d   1      34.543  -5.287  -1.858  0.00  0.00     0.033 H 
ATOM     12  H   EIC d   1      35.258  -3.663  -2.137  0.00  0.00     0.033 H 
BRANCH  10  13
ATOM     13  C5  EIC d   1      34.805  -4.760  -3.901  0.00  0.00    -0.065 C 
ATOM     14  H   EIC d   1      34.366  -3.792  -4.184  0.00  0.00     0.033 H 
ATOM     15  H   EIC d   1      35.671  -4.973  -4.545  0.00  0.00     0.033 H 
BRANCH  13  16
ATOM     16  C4  EIC d   1      33.785  -5.837  -4.065  0.00  0.00    -0.065 C 
ATOM     17  H   EIC d   1      34.280  -6.818  -4.023  0.00  0.00     0.033 H 
ATOM     18  H   EIC d   1      33.045  -5.765  -3.254  0.00  0.00     0.033 H 
BRANCH  16  19
ATOM     19  C3  EIC d   1      33.096  -5.686  -5.379  0.00  0.00    -0.056 C 
ATOM     20  H   EIC d   1      32.057  -5.362  -5.216  0.00  0.00     0.033 H 
ATOM     21  H   EIC d   1      33.622  -4.936  -5.988  0.00  0.00     0.033 H 
BRANCH  19  22
ATOM     22  C2  EIC d   1      33.106  -7.000  -6.085  0.00  0.00     0.016 C 
ATOM     23  H   EIC d   1      33.785  -6.943  -6.949  0.00  0.00     0.049 H 
ATOM     24  H   EIC d   1      33.456  -7.781  -5.394  0.00  0.00     0.049 H 
BRANCH  22  25
ATOM     25  C1  EIC d   1      31.733  -7.340  -6.558  0.00  0.00     0.172 C 
ATOM     26  O1  EIC d   1      30.735  -6.725  -6.100  0.00  0.00    -0.648 OA
ATOM     27  O2  EIC d   1      31.575  -8.248  -7.416  0.00  0.00    -0.648 OA
ENDBRANCH  22  25
ENDBRANCH  19  22
ENDBRANCH  16  19
ENDBRANCH  13  16
ENDBRANCH  10  13
ENDBRANCH   7  10
ENDBRANCH   4   7
ENDBRANCH   1   4
BRANCH   1  28
ATOM     28  C10 EIC d   1      38.259  -8.105  -0.769  0.00  0.00    -0.062 C 
ATOM     29  H   EIC d   1      39.319  -8.173  -0.483  0.00  0.00     0.033 H 
ATOM     30  H   EIC d   1      38.100  -8.639  -1.718  0.00  0.00     0.033 H 
BRANCH  28  31
ATOM     31  C11 EIC d   1      37.491  -8.852   0.271  0.00  0.00    -0.050 C 
ATOM     32  H   EIC d   1      36.850  -9.604  -0.213  0.00  0.00     0.038 H 
ATOM     33  H   EIC d   1      36.866  -8.150   0.842  0.00  0.00     0.038 H 
BRANCH  31  34
ATOM     34  C12 EIC d   1      38.449  -9.531   1.192  0.00  0.00    -0.107 C 
ATOM     35  C13 EIC d   1      38.034 -10.467   2.099  0.00  0.00    -0.107 C 
ATOM     36  H   EIC d   1      38.667 -10.692   2.956  0.00  0.00     0.076 H 
ATOM     37  H   EIC d   1      39.506  -9.275   1.141  0.00  0.00     0.076 H 
BRANCH  35  38
ATOM     38  C14 EIC d   1      36.736 -11.188   1.944  0.00  0.00    -0.050 C 
ATOM     39  H   EIC d   1      36.151 -10.717   1.140  0.00  0.00     0.038 H 
ATOM     40  H   EIC d   1      36.173 -11.133   2.888  0.00  0.00     0.038 H 
BRANCH  38  41
ATOM     41  C15 EIC d   1      36.985 -12.620   1.600  0.00  0.00    -0.062 C 
ATOM     42  H   EIC d   1      37.872 -12.684   0.952  0.00  0.00     0.033 H 
ATOM     43  H   EIC d   1      36.110 -13.018   1.065  0.00  0.00     0.033 H 
BRANCH  41  44
ATOM     44  C16 EIC d   1      37.218 -13.437   2.827  0.00  0.00    -0.065 C 
ATOM     45  H   EIC d   1      36.532 -13.113   3.624  0.00  0.00     0.033 H 
ATOM     46  H   EIC d   1      38.257 -13.311   3.164  0.00  0.00     0.033 H 
BRANCH  44  47
ATOM     47  C17 EIC d   1      36.966 -14.869   2.498  0.00  0.00    -0.069 C 
ATOM     48  H   EIC d   1      37.421 -15.107   1.525  0.00  0.00     0.032 H 
ATOM     49  H   EIC d   1      35.882 -15.048   2.449  0.00  0.00     0.032 H 
BRANCH  47  50
ATOM     50  C18 EIC d   1      37.565 -15.735   3.551  0.00  0.00    -0.077 C 
ATOM     51  H   EIC d   1      37.378 -16.791   3.307  0.00  0.00     0.027 H 
ATOM     52  H   EIC d   1      37.110 -15.498   4.524  0.00  0.00     0.027 H 
ATOM     53  H   EIC d   1      38.649 -15.556   3.600  0.00  0.00     0.027 H 
ENDBRANCH  47  50
ENDBRANCH  44  47
ENDBRANCH  41  44
ENDBRANCH  38  41
ENDBRANCH  35  38
ENDBRANCH  31  34
ENDBRANCH  28  31
ENDBRANCH   1  28
TORSDOF 16
