REMARK  7 active torsions:
REMARK  status: ('A' for Active; 'I' for Inactive)
REMARK    1  A    between atoms: C5_5  and  C8_8 
REMARK    2  A    between atoms: C6_6  and  O7_7 
REMARK    3  A    between atoms: C10_10  and  N18_18 
REMARK    4  A    between atoms: N18_18  and  C19_19 
REMARK    5  A    between atoms: C19_19  and  C20_20 
REMARK    6  A    between atoms: C20_20  and  C21_21 
REMARK    7  A    between atoms: C21_21  and  N22_22 
ROOT
ATOM      1  C8  Q17 d   1      40.565   2.240  -1.710  0.00  0.00     0.165 A 
ATOM      2  N9  Q17 d   1      40.748   2.036  -0.335  0.00  0.00    -0.210 NA
ATOM      3  C10 Q17 d   1      42.021   1.730   0.043  0.00  0.00     0.138 A 
ATOM      4  C11 Q17 d   1      43.112   1.612  -0.891  0.00  0.00     0.038 A 
ATOM      5  C12 Q17 d   1      42.793   1.844  -2.245  0.00  0.00     0.073 A 
ATOM      6  N13 Q17 d   1      41.511   2.164  -2.672  0.00  0.00    -0.228 NA
ATOM      7  C14 Q17 d   1      43.809   1.767  -3.256  0.00  0.00    -0.054 A 
ATOM      8  C15 Q17 d   1      45.083   1.464  -2.868  0.00  0.00    -0.081 A 
ATOM      9  C16 Q17 d   1      45.400   1.240  -1.494  0.00  0.00    -0.082 A 
ATOM     10  C17 Q17 d   1      44.435   1.312  -0.522  0.00  0.00    -0.067 A 
ATOM     11  H   Q17 d   1      43.572   1.944  -4.299  0.00  0.00     0.087 H 
ATOM     12  H   Q17 d   1      45.865   1.393  -3.615  0.00  0.00     0.083 H 
ATOM     13  H   Q17 d   1      46.421   1.009  -1.214  0.00  0.00     0.083 H 
ATOM     14  H   Q17 d   1      44.689   1.140   0.518  0.00  0.00     0.085 H 
ENDROOT
BRANCH   3  15
ATOM     15  N18 Q17 d   1      42.247   1.521   1.354  0.00  0.00    -0.374 N 
ATOM     16  H   Q17 d   1      43.178   1.192   1.649  0.00  0.00     0.161 HD
BRANCH  15  17
ATOM     17  C19 Q17 d   1      41.215   1.744   2.386  0.00  0.00    -0.004 C 
ATOM     18  H   Q17 d   1      41.530   1.290   3.337  0.00  0.00     0.064 H 
ATOM     19  H   Q17 d   1      40.261   1.300   2.066  0.00  0.00     0.064 H 
BRANCH  17  20
ATOM     20  C20 Q17 d   1      41.052   3.307   2.562  0.00  0.00    -0.028 C 
ATOM     21  H   Q17 d   1      40.872   3.750   1.571  0.00  0.00     0.037 H 
ATOM     22  H   Q17 d   1      41.988   3.708   2.978  0.00  0.00     0.037 H 
BRANCH  20  23
ATOM     23  C21 Q17 d   1      39.896   3.715   3.491  0.00  0.00     0.081 C 
ATOM     24  H   Q17 d   1      39.834   3.013   4.336  0.00  0.00     0.075 H 
ATOM     25  H   Q17 d   1      38.949   3.701   2.932  0.00  0.00     0.075 H 
BRANCH  23  26
ATOM     26  N22 Q17 d   1      40.154   5.074   3.994  0.00  0.00    -0.079 N 
ATOM     27  H   Q17 d   1      39.403   5.354   4.605  0.00  0.00     0.274 HD
ATOM     28  H   Q17 d   1      40.212   5.714   3.218  0.00  0.00     0.274 HD
ATOM     29  H   Q17 d   1      41.023   5.084   4.504  0.00  0.00     0.274 HD
ENDBRANCH  23  26
ENDBRANCH  20  23
ENDBRANCH  17  20
ENDBRANCH  15  17
ENDBRANCH   3  15
BRANCH   1  30
ATOM     30  C5  Q17 d   1      39.179   2.604  -2.158  0.00  0.00     0.045 A 
ATOM     31  C4  Q17 d   1      38.180   2.728  -1.191  0.00  0.00    -0.067 A 
ATOM     32  C3  Q17 d   1      36.880   3.093  -1.552  0.00  0.00    -0.082 A 
ATOM     33  H   Q17 d   1      38.415   2.539  -0.150  0.00  0.00     0.085 H 
ATOM     34  C2  Q17 d   1      36.552   3.339  -2.883  0.00  0.00    -0.080 A 
ATOM     35  H   Q17 d   1      36.118   3.186  -0.787  0.00  0.00     0.083 H 
ATOM     36  C1  Q17 d   1      37.506   3.239  -3.886  0.00  0.00    -0.050 A 
ATOM     37  H   Q17 d   1      35.535   3.613  -3.140  0.00  0.00     0.083 H 
ATOM     38  C6  Q17 d   1      38.816   2.898  -3.544  0.00  0.00     0.079 A 
ATOM     39  H   Q17 d   1      37.238   3.423  -4.920  0.00  0.00     0.087 H 
BRANCH  38  40
ATOM     40  O7  Q17 d   1      39.775   2.824  -4.504  0.00  0.00    -0.360 OA
ATOM     41  H   Q17 d   1      39.395   3.039  -5.347  0.00  0.00     0.217 HD
ENDBRANCH  38  40
ENDBRANCH   1  30
TORSDOF 7
