REMARK  5 active torsions:
REMARK  status: ('A' for Active; 'I' for Inactive)
REMARK    1  A    between atoms: C18_2  and  C15_3 
REMARK       I    between atoms: C18_2  and  N19_20 
REMARK    2  A    between atoms: C10_10  and  N9_11 
REMARK    3  A    between atoms: N9_11  and  C5_12 
REMARK    4  A    between atoms: C22_22  and  O24_24 
REMARK    5  A    between atoms: C22_22  and  C25_25 
ROOT
ATOM      1  O20 EUI d   1      31.077  29.645 -15.367  0.00  0.00    -0.274 OA
ATOM      2  C18 EUI d   1      31.566  30.147 -14.375  0.00  0.00     0.235 C 
ATOM      3  N19 EUI d   1      30.718  30.371 -13.274  0.00  0.00    -0.243 NA
ATOM      4  C23 EUI d   1      30.947  29.901 -11.881  0.00  0.00     0.018 C 
ATOM      5  C22 EUI d   1      29.470  29.676 -11.683  0.00  0.00     0.110 C 
ATOM      6  C21 EUI d   1      29.309  29.903 -13.167  0.00  0.00     0.018 C 
ATOM      7  H7  EUI d   1      31.373  30.668 -11.217  0.00  0.00     0.061 H 
ATOM      8  H8  EUI d   1      31.549  28.983 -11.815  0.00  0.00     0.061 H 
ATOM      9  H9  EUI d   1      29.100  28.986 -13.738  0.00  0.00     0.061 H 
ATOM     10  H10 EUI d   1      28.564  30.671 -13.422  0.00  0.00     0.061 H 
ENDROOT
BRANCH   2  11
ATOM     11  C15 EUI d   1      33.020  30.561 -14.307  0.00  0.00     0.056 A 
ATOM     12  C14 EUI d   1      33.375  31.531 -13.363  0.00  0.00    -0.063 A 
ATOM     13  C13 EUI d   1      34.689  31.955 -13.191  0.00  0.00    -0.042 A 
ATOM     14  H1  EUI d   1      32.599  31.967 -12.744  0.00  0.00     0.085 H 
ATOM     15  C12 EUI d   1      35.664  31.430 -14.008  0.00  0.00     0.157 A 
ATOM     16  H2  EUI d   1      34.940  32.684 -12.429  0.00  0.00     0.088 H 
ATOM     17  F17 EUI d   1      36.930  31.879 -13.903  0.00  0.00    -0.203 F 
ATOM     18  C11 EUI d   1      35.322  30.505 -14.993  0.00  0.00     0.182 A 
ATOM     19  F16 EUI d   1      36.324  30.044 -15.748  0.00  0.00    -0.200 F 
ATOM     20  C10 EUI d   1      34.015  30.008 -15.124  0.00  0.00     0.090 A 
BRANCH  20  21
ATOM     21  N9  EUI d   1      33.674  29.082 -16.071  0.00  0.00    -0.350 N 
ATOM     22  H3  EUI d   1      32.812  29.285 -16.597  0.00  0.00     0.166 HD
BRANCH  21  23
ATOM     23  C5  EUI d   1      34.323  27.911 -16.423  0.00  0.00     0.071 A 
ATOM     24  C4  EUI d   1      35.465  27.433 -15.758  0.00  0.00    -0.053 A 
ATOM     25  C3  EUI d   1      36.125  26.300 -16.191  0.00  0.00    -0.065 A 
ATOM     26  H4  EUI d   1      35.835  27.964 -14.888  0.00  0.00     0.087 H 
ATOM     27  C2  EUI d   1      35.628  25.573 -17.281  0.00  0.00     0.009 A 
ATOM     28  H5  EUI d   1      37.028  25.973 -15.688  0.00  0.00     0.085 H 
ATOM     29  I8  EUI d   1      36.599  23.796 -17.872  0.00  0.00    -0.044 I 
ATOM     30  C1  EUI d   1      34.472  26.016 -17.934  0.00  0.00    -0.027 A 
ATOM     31  C6  EUI d   1      33.834  27.187 -17.519  0.00  0.00     0.144 A 
ATOM     32  H6  EUI d   1      34.070  25.448 -18.765  0.00  0.00     0.090 H 
ATOM     33  F7  EUI d   1      32.719  27.598 -18.155  0.00  0.00    -0.204 F 
ENDBRANCH  21  23
ENDBRANCH  20  21
ENDBRANCH   2  11
BRANCH   5  34
ATOM     34  O24 EUI d   1      29.224  28.319 -11.327  0.00  0.00    -0.385 OA
ATOM     35  H11 EUI d   1      29.334  28.214 -10.389  0.00  0.00     0.210 HD
ENDBRANCH   5  34
BRANCH   5  36
ATOM     36  C25 EUI d   1      28.738  30.708 -10.795  0.00  0.00     0.133 C 
ATOM     37  C30 EUI d   1      29.073  32.203 -11.066  0.00  0.00    -0.035 C 
ATOM     38  C29 EUI d   1      28.298  33.132 -10.133  0.00  0.00    -0.062 C 
ATOM     39  H13 EUI d   1      28.812  32.444 -12.107  0.00  0.00     0.036 H 
ATOM     40  H14 EUI d   1      30.151  32.361 -10.912  0.00  0.00     0.036 H 
ATOM     41  C28 EUI d   1      28.395  32.734  -8.650  0.00  0.00    -0.042 C 
ATOM     42  H15 EUI d   1      27.239  33.117 -10.429  0.00  0.00     0.033 H 
ATOM     43  H16 EUI d   1      28.697  34.151 -10.247  0.00  0.00     0.033 H 
ATOM     44  C27 EUI d   1      28.147  31.238  -8.406  0.00  0.00     0.082 C 
ATOM     45  H17 EUI d   1      27.647  33.309  -8.084  0.00  0.00     0.035 H 
ATOM     46  H18 EUI d   1      29.402  32.985  -8.286  0.00  0.00     0.035 H 
ATOM     47  N26 EUI d   1      28.900  30.427  -9.355  0.00  0.00    -0.068 N 
ATOM     48  H19 EUI d   1      27.074  31.026  -8.523  0.00  0.00     0.075 H 
ATOM     49  H20 EUI d   1      28.462  30.982  -7.384  0.00  0.00     0.075 H 
ATOM     50  H21 EUI d   1      29.877  30.541  -9.136  0.00  0.00     0.277 HD
ATOM     51  H22 EUI d   1      28.632  29.467  -9.206  0.00  0.00     0.277 HD
ATOM     52  H12 EUI d   1      27.669  30.588 -11.025  0.00  0.00     0.089 H 
ENDBRANCH   5  36
TORSDOF 5
