REMARK  32 active torsions:
REMARK  status: ('A' for Active; 'I' for Inactive)
REMARK    1  A    between atoms: N_1  and  CA_2 
REMARK    2  A    between atoms: CA_2  and  C_3 
REMARK    3  A    between atoms: CA_2  and  CB_5 
REMARK       I    between atoms: C_3  and  N_9 
REMARK    4  A    between atoms: CB_5  and  CG_6 
REMARK    5  A    between atoms: CG_6  and  CD1_7 
REMARK    6  A    between atoms: CG_6  and  CD2_8 
REMARK    7  A    between atoms: N_9  and  CA_10 
REMARK    8  A    between atoms: CA_10  and  C_11 
REMARK    9  A    between atoms: CA_10  and  CB_13 
REMARK       I    between atoms: C_11  and  N_14 
REMARK   10  A    between atoms: CA_15  and  C_16 
REMARK       I    between atoms: C_16  and  N_21 
REMARK   11  A    between atoms: CA_22  and  C_23 
REMARK       I    between atoms: C_23  and  N_28 
REMARK   12  A    between atoms: N_28  and  CA_29 
REMARK   13  A    between atoms: CA_29  and  C_30 
REMARK   14  A    between atoms: CA_29  and  CB_32 
REMARK       I    between atoms: C_30  and  N_37 
REMARK   15  A    between atoms: CB_32  and  CG_33 
REMARK   16  A    between atoms: CG_33  and  CD_34 
REMARK   17  A    between atoms: CD_34  and  CE_35 
REMARK   18  A    between atoms: CE_35  and  NZ_36 
REMARK   19  A    between atoms: CA_38  and  C_39 
REMARK       I    between atoms: C_39  and  N_44 
REMARK   20  A    between atoms: CA_45  and  C_46 
REMARK       I    between atoms: C_46  and  N_51 
REMARK   21  A    between atoms: N_51  and  CA_52 
REMARK   22  A    between atoms: CA_52  and  C_53 
REMARK   23  A    between atoms: CA_52  and  CB_55 
REMARK       I    between atoms: C_53  and  N_59 
REMARK   24  A    between atoms: CB_55  and  CG_56 
REMARK   25  A    between atoms: CG_56  and  CD1_57 
REMARK   26  A    between atoms: CG_56  and  CD2_58 
REMARK   27  A    between atoms: CA_60  and  C_61 
REMARK       I    between atoms: C_61  and  N_66 
REMARK   28  A    between atoms: N_66  and  CA_67 
REMARK   29  A    between atoms: CA_67  and  C_68 
REMARK   30  A    between atoms: CA_67  and  CB_70 
REMARK   31  A    between atoms: CB_70  and  CG_71 
REMARK   32  A    between atoms: CG_71  and  CD_72 
ROOT
ATOM      1  CA  LYS d   1      13.800  -1.474 -17.266  0.00  0.00     0.089 C 
ATOM      2  H   LYS d   1      13.520  -1.830 -16.263  0.00  0.00     0.087 H 
ENDROOT
BRANCH   1   3
ATOM      3  N   LYS d   1      14.261  -2.591 -18.068  0.00  0.00    -0.346 N 
ATOM      4  C   PRO d   1      13.576  -3.723 -18.114  0.00  0.00     0.241 C 
ATOM      5  O   PRO d   1      12.539  -3.908 -17.472  0.00  0.00    -0.271 OA
ATOM      6  H   LYS d   1      15.108  -2.505 -18.593  0.00  0.00     0.163 HD
BRANCH   4   7
ATOM      7  CA  PRO d   1      14.139  -4.811 -19.016  0.00  0.00     0.091 C 
ATOM      8  N   PRO d   1      13.880  -6.136 -18.469  0.00  0.00    -0.337 N 
ATOM      9  C   PRO d   1      14.406  -6.434 -17.282  0.00  0.00     0.243 C 
ATOM     10  CD  PRO d   1      13.096  -6.963 -19.395  0.00  0.00    -0.001 C 
ATOM     11  O   PRO d   1      15.125  -5.640 -16.681  0.00  0.00    -0.271 OA
ATOM     12  CG  PRO d   1      13.301  -6.276 -20.711  0.00  0.00    -0.048 C 
ATOM     13  H   PRO d   1      12.032  -6.972 -19.114  0.00  0.00     0.064 H 
ATOM     14  H   PRO d   1      13.476  -7.995 -19.424  0.00  0.00     0.064 H 
ATOM     15  CB  PRO d   1      13.401  -4.831 -20.355  0.00  0.00    -0.036 C 
ATOM     16  H   PRO d   1      14.226  -6.624 -21.193  0.00  0.00     0.035 H 
ATOM     17  H   PRO d   1      12.448  -6.455 -21.382  0.00  0.00     0.035 H 
ATOM     18  H   PRO d   1      13.970  -4.282 -21.120  0.00  0.00     0.036 H 
ATOM     19  H   PRO d   1      12.400  -4.387 -20.253  0.00  0.00     0.036 H 
ATOM     20  H   PRO d   1      15.217  -4.649 -19.160  0.00  0.00     0.087 H 
BRANCH   9  21
ATOM     21  CA  PRO d   1      14.074  -7.802 -16.676  0.00  0.00     0.092 C 
ATOM     22  N   PRO d   1      15.078  -8.202 -15.699  0.00  0.00    -0.337 N 
ATOM     23  C   ALA d   1      16.357  -8.322 -16.081  0.00  0.00     0.243 C 
ATOM     24  CD  PRO d   1      14.479  -8.471 -14.384  0.00  0.00    -0.001 C 
ATOM     25  O   ALA d   1      16.708  -8.174 -17.254  0.00  0.00    -0.271 OA
ATOM     26  CG  PRO d   1      13.031  -8.690 -14.714  0.00  0.00    -0.048 C 
ATOM     27  H   PRO d   1      14.605  -7.612 -13.708  0.00  0.00     0.064 H 
ATOM     28  H   PRO d   1      14.920  -9.368 -13.924  0.00  0.00     0.064 H 
ATOM     29  CB  PRO d   1      12.780  -7.755 -15.853  0.00  0.00    -0.036 C 
ATOM     30  H   PRO d   1      12.851  -9.732 -15.016  0.00  0.00     0.035 H 
ATOM     31  H   PRO d   1      12.391  -8.441 -13.854  0.00  0.00     0.035 H 
ATOM     32  H   PRO d   1      11.924  -8.095 -16.454  0.00  0.00     0.036 H 
ATOM     33  H   PRO d   1      12.589  -6.736 -15.485  0.00  0.00     0.036 H 
ATOM     34  H   PRO d   1      13.996  -8.546 -17.483  0.00  0.00     0.087 H 
BRANCH  23  35
ATOM     35  CA  ALA d   1      17.382  -8.654 -15.015  0.00  0.00     0.086 C 
ATOM     36  H   ALA d   1      17.002  -9.476 -14.390  0.00  0.00     0.086 H 
BRANCH  35  37
ATOM     37  N   ALA d   1      18.606  -9.077 -15.673  0.00  0.00    -0.346 N 
ATOM     38  C   LEU d   1      19.524  -9.796 -15.048  0.00  0.00     0.248 C 
ATOM     39  O   LEU d   1      19.398 -10.196 -13.897  0.00  0.00    -0.271 OA
ATOM     40  H   ALA d   1      18.759  -8.817 -16.626  0.00  0.00     0.163 HD
BRANCH  38  41
ATOM     41  CA  LEU d   1      20.770 -10.123 -15.844  0.00  0.00     0.176 C 
ATOM     42  H   LEU d   1      20.728  -9.597 -16.809  0.00  0.00     0.099 H 
BRANCH  41  43
ATOM     43  N   LEU d   1      21.966  -9.669 -15.101  0.00  0.00    -0.066 N 
ATOM     44  H   LEU d   1      22.794  -9.887 -15.632  0.00  0.00     0.275 HD
ATOM     45  H   LEU d   1      22.006 -10.137 -14.209  0.00  0.00     0.275 HD
ATOM     46  H   LEU d   1      21.913  -8.673 -14.955  0.00  0.00     0.275 HD
ENDBRANCH  41  43
BRANCH  41  47
ATOM     47  CB  LEU d   1      20.839 -11.618 -16.101  0.00  0.00    -0.028 C 
ATOM     48  H   LEU d   1      20.896 -12.132 -15.130  0.00  0.00     0.037 H 
ATOM     49  H   LEU d   1      21.751 -11.826 -16.680  0.00  0.00     0.037 H 
BRANCH  47  50
ATOM     50  CG  LEU d   1      19.644 -12.182 -16.871  0.00  0.00    -0.059 C 
ATOM     51  H   LEU d   1      18.734 -11.966 -16.292  0.00  0.00     0.038 H 
BRANCH  50  52
ATOM     52  CD1 LEU d   1      19.475 -11.554 -18.246  0.00  0.00    -0.073 C 
ATOM     53  H   LEU d   1      18.603 -11.999 -18.748  0.00  0.00     0.028 H 
ATOM     54  H   LEU d   1      20.378 -11.739 -18.847  0.00  0.00     0.028 H 
ATOM     55  H   LEU d   1      19.322 -10.470 -18.138  0.00  0.00     0.028 H 
ENDBRANCH  50  52
BRANCH  50  56
ATOM     56  CD2 LEU d   1      19.796 -13.684 -16.982  0.00  0.00    -0.073 C 
ATOM     57  H   LEU d   1      19.917 -14.116 -15.977  0.00  0.00     0.028 H 
ATOM     58  H   LEU d   1      20.682 -13.919 -17.591  0.00  0.00     0.028 H 
ATOM     59  H   LEU d   1      18.900 -14.109 -17.459  0.00  0.00     0.028 H 
ENDBRANCH  50  56
ENDBRANCH  47  50
ENDBRANCH  41  47
ENDBRANCH  38  41
ENDBRANCH  35  37
BRANCH  35  60
ATOM     60  CB  ALA d   1      17.646  -7.444 -14.128  0.00  0.00    -0.049 C 
ATOM     61  H   ALA d   1      16.710  -7.137 -13.638  0.00  0.00     0.030 H 
ATOM     62  H   ALA d   1      18.027  -6.615 -14.742  0.00  0.00     0.030 H 
ATOM     63  H   ALA d   1      18.392  -7.706 -13.363  0.00  0.00     0.030 H 
ENDBRANCH  35  60
ENDBRANCH  23  35
ENDBRANCH   9  21
ENDBRANCH   4   7
ENDBRANCH   1   3
BRANCH   1  64
ATOM     64  C   LYS d   1      12.582  -0.843 -17.944  0.00  0.00     0.243 C 
ATOM     65  O   LYS d   1      12.660  -0.470 -19.119  0.00  0.00    -0.271 OA
ATOM     66  N   PRO d   1      11.463  -0.693 -17.228  0.00  0.00    -0.337 N 
ATOM     67  CA  PRO d   1      10.321  -0.011 -17.838  0.00  0.00     0.092 C 
ATOM     68  CD  PRO d   1      11.184  -1.140 -15.857  0.00  0.00    -0.001 C 
ATOM     69  CB  PRO d   1       9.193  -0.241 -16.829  0.00  0.00    -0.036 C 
ATOM     70  H   PRO d   1      10.071  -0.459 -18.811  0.00  0.00     0.087 H 
ATOM     71  CG  PRO d   1       9.891  -0.468 -15.536  0.00  0.00    -0.048 C 
ATOM     72  H   PRO d   1       8.595  -1.121 -17.108  0.00  0.00     0.036 H 
ATOM     73  H   PRO d   1       8.540   0.642 -16.768  0.00  0.00     0.036 H 
ATOM     74  H   PRO d   1       9.281  -1.111 -14.884  0.00  0.00     0.035 H 
ATOM     75  H   PRO d   1      10.078   0.492 -15.033  0.00  0.00     0.035 H 
ATOM     76  H   PRO d   1      11.978  -0.817 -15.168  0.00  0.00     0.064 H 
ATOM     77  H   PRO d   1      11.082  -2.234 -15.812  0.00  0.00     0.064 H 
BRANCH  67  78
ATOM     78  C   PRO d   1      10.610   1.472 -18.028  0.00  0.00     0.243 C 
ATOM     79  O   PRO d   1      11.518   2.018 -17.394  0.00  0.00    -0.271 OA
ATOM     80  N   PRO d   1       9.836   2.139 -18.891  0.00  0.00    -0.337 N 
ATOM     81  CA  PRO d   1       9.943   3.587 -18.966  0.00  0.00     0.091 C 
ATOM     82  CD  PRO d   1       8.699   1.619 -19.665  0.00  0.00    -0.001 C 
ATOM     83  CB  PRO d   1       8.931   3.964 -20.050  0.00  0.00    -0.036 C 
ATOM     84  H   PRO d   1      10.959   3.899 -19.250  0.00  0.00     0.087 H 
ATOM     85  CG  PRO d   1       7.937   2.861 -20.044  0.00  0.00    -0.048 C 
ATOM     86  H   PRO d   1       9.423   4.036 -21.031  0.00  0.00     0.036 H 
ATOM     87  H   PRO d   1       8.447   4.923 -19.811  0.00  0.00     0.036 H 
ATOM     88  H   PRO d   1       7.489   2.745 -21.042  0.00  0.00     0.035 H 
ATOM     89  H   PRO d   1       7.146   3.064 -19.308  0.00  0.00     0.035 H 
ATOM     90  H   PRO d   1       8.079   0.949 -19.052  0.00  0.00     0.064 H 
ATOM     91  H   PRO d   1       9.045   1.081 -20.560  0.00  0.00     0.064 H 
BRANCH  81  92
ATOM     92  C   PRO d   1       9.573   4.201 -17.619  0.00  0.00     0.241 C 
ATOM     93  O   PRO d   1       8.696   3.685 -16.922  0.00  0.00    -0.271 OA
ATOM     94  N   LEU d   1      10.243   5.288 -17.257  0.00  0.00    -0.346 N 
ATOM     95  H   LEU d   1      10.952   5.649 -17.862  0.00  0.00     0.163 HD
BRANCH  94  96
ATOM     96  CA  LEU d   1       9.968   5.968 -15.996  0.00  0.00     0.090 C 
ATOM     97  H   LEU d   1      10.067   5.235 -15.182  0.00  0.00     0.087 H 
BRANCH  96  98
ATOM     98  C   LEU d   1       8.556   6.535 -15.971  0.00  0.00     0.243 C 
ATOM     99  O   LEU d   1       7.972   6.794 -17.016  0.00  0.00    -0.271 OA
ATOM    100  N   PRO d   1       8.019   6.774 -14.766  0.00  0.00    -0.337 N 
ATOM    101  CA  PRO d   1       6.741   7.468 -14.653  0.00  0.00     0.091 C 
ATOM    102  CD  PRO d   1       8.576   6.433 -13.446  0.00  0.00    -0.001 C 
ATOM    103  CB  PRO d   1       6.465   7.484 -13.141  0.00  0.00    -0.036 C 
ATOM    104  H   PRO d   1       5.953   6.922 -15.193  0.00  0.00     0.087 H 
ATOM    105  CG  PRO d   1       7.363   6.446 -12.560  0.00  0.00    -0.048 C 
ATOM    106  H   PRO d   1       5.412   7.237 -12.940  0.00  0.00     0.036 H 
ATOM    107  H   PRO d   1       6.697   8.473 -12.719  0.00  0.00     0.036 H 
ATOM    108  H   PRO d   1       6.870   5.463 -12.566  0.00  0.00     0.035 H 
ATOM    109  H   PRO d   1       7.641   6.710 -11.529  0.00  0.00     0.035 H 
ATOM    110  H   PRO d   1       9.312   7.183 -13.121  0.00  0.00     0.064 H 
ATOM    111  H   PRO d   1       9.046   5.439 -13.459  0.00  0.00     0.064 H 
BRANCH 101 112
ATOM    112  C   PRO d   1       6.826   8.904 -15.187  0.00  0.00     0.241 C 
ATOM    113  O   PRO d   1       7.902   9.419 -15.468  0.00  0.00    -0.271 OA
ATOM    114  N   GLU d   1       5.676   9.554 -15.281  0.00  0.00    -0.345 N 
ATOM    115  H   GLU d   1       4.821   9.069 -15.099  0.00  0.00     0.163 HD
BRANCH 114 116
ATOM    116  CA  GLU d   1       5.635  10.964 -15.645  0.00  0.00     0.097 C 
ATOM    117  H   GLU d   1       6.341  11.103 -16.477  0.00  0.00     0.089 H 
BRANCH 116 118
ATOM    118  C   GLU d   1       6.073  11.903 -14.530  0.00  0.00     0.196 C 
ATOM    119  O   GLU d   1       6.103  11.513 -13.355  0.00  0.00    -0.646 OA
ATOM    120  OXT GLU d   1       6.389  13.059 -14.860  0.00  0.00    -0.646 OA
ENDBRANCH 116 118
BRANCH 116 121
ATOM    121  CB  GLU d   1       4.240  11.337 -16.152  0.00  0.00    -0.028 C 
ATOM    122  H   GLU d   1       4.221  12.415 -16.372  0.00  0.00     0.037 H 
ATOM    123  H   GLU d   1       3.506  11.110 -15.365  0.00  0.00     0.037 H 
BRANCH 121 124
ATOM    124  CG  GLU d   1       3.859  10.580 -17.403  0.00  0.00     0.018 C 
ATOM    125  H   GLU d   1       2.934  11.009 -17.816  0.00  0.00     0.049 H 
ATOM    126  H   GLU d   1       3.691   9.523 -17.148  0.00  0.00     0.049 H 
BRANCH 124 127
ATOM    127  CD  GLU d   1       4.953  10.670 -18.441  0.00  0.00     0.172 C 
ATOM    128  OE1 GLU d   1       5.164  11.770 -18.991  0.00  0.00    -0.648 OA
ATOM    129  OE2 GLU d   1       5.633   9.652 -18.687  0.00  0.00    -0.648 OA
ENDBRANCH 124 127
ENDBRANCH 121 124
ENDBRANCH 116 121
ENDBRANCH 114 116
ENDBRANCH 101 112
ENDBRANCH  96  98
BRANCH  96 130
ATOM    130  CB  LEU d   1      10.960   7.105 -15.754  0.00  0.00    -0.035 C 
ATOM    131  H   LEU d   1      10.548   7.741 -14.956  0.00  0.00     0.037 H 
ATOM    132  H   LEU d   1      11.033   7.686 -16.685  0.00  0.00     0.037 H 
BRANCH 130 133
ATOM    133  CG  LEU d   1      12.372   6.713 -15.346  0.00  0.00    -0.059 C 
ATOM    134  H   LEU d   1      12.678   5.837 -15.937  0.00  0.00     0.038 H 
BRANCH 133 135
ATOM    135  CD1 LEU d   1      13.327   7.856 -15.650  0.00  0.00    -0.073 C 
ATOM    136  H   LEU d   1      14.347   7.570 -15.354  0.00  0.00     0.028 H 
ATOM    137  H   LEU d   1      13.019   8.750 -15.088  0.00  0.00     0.028 H 
ATOM    138  H   LEU d   1      13.306   8.075 -16.728  0.00  0.00     0.028 H 
ENDBRANCH 133 135
BRANCH 133 139
ATOM    139  CD2 LEU d   1      12.417   6.336 -13.880  0.00  0.00    -0.073 C 
ATOM    140  H   LEU d   1      11.717   5.508 -13.693  0.00  0.00     0.028 H 
ATOM    141  H   LEU d   1      12.130   7.205 -13.269  0.00  0.00     0.028 H 
ATOM    142  H   LEU d   1      13.437   6.021 -13.614  0.00  0.00     0.028 H 
ENDBRANCH 133 139
ENDBRANCH 130 133
ENDBRANCH  96 130
ENDBRANCH  94  96
ENDBRANCH  81  92
ENDBRANCH  67  78
ENDBRANCH   1  64
BRANCH   1 143
ATOM    143  CB  LYS d   1      14.907  -0.448 -17.147  0.00  0.00    -0.038 C 
ATOM    144  H   LYS d   1      15.088  -0.025 -18.146  0.00  0.00     0.036 H 
ATOM    145  H   LYS d   1      15.814  -0.964 -16.798  0.00  0.00     0.036 H 
BRANCH 143 146
ATOM    146  CG  LYS d   1      14.625   0.694 -16.199  0.00  0.00    -0.061 C 
ATOM    147  H   LYS d   1      14.618   0.322 -15.164  0.00  0.00     0.033 H 
ATOM    148  H   LYS d   1      13.647   1.137 -16.436  0.00  0.00     0.033 H 
BRANCH 146 149
ATOM    149  CD  LYS d   1      15.710   1.742 -16.355  0.00  0.00    -0.043 C 
ATOM    150  H   LYS d   1      15.598   2.228 -17.335  0.00  0.00     0.035 H 
ATOM    151  H   LYS d   1      16.692   1.249 -16.301  0.00  0.00     0.035 H 
BRANCH 149 152
ATOM    152  CE  LYS d   1      15.631   2.794 -15.276  0.00  0.00     0.080 C 
ATOM    153  H   LYS d   1      15.726   2.313 -14.291  0.00  0.00     0.075 H 
ATOM    154  H   LYS d   1      14.661   3.309 -15.341  0.00  0.00     0.075 H 
BRANCH 152 155
ATOM    155  NZ  LYS d   1      16.728   3.785 -15.448  0.00  0.00    -0.079 N 
ATOM    156  H   LYS d   1      16.667   4.483 -14.723  0.00  0.00     0.274 HD
ATOM    157  H   LYS d   1      16.642   4.228 -16.349  0.00  0.00     0.274 HD
ATOM    158  H   LYS d   1      17.618   3.315 -15.388  0.00  0.00     0.274 HD
ENDBRANCH 152 155
ENDBRANCH 149 152
ENDBRANCH 146 149
ENDBRANCH 143 146
ENDBRANCH   1 143
TORSDOF 32
