REMARK  4 active torsions:
REMARK  status: ('A' for Active; 'I' for Inactive)
REMARK    1  A    between atoms: O01_1  and  C02_2 
REMARK    2  A    between atoms: C03_3  and  O04_4 
REMARK    3  A    between atoms: C06_6  and  C07_7 
REMARK    4  A    between atoms: C14_14  and  C15_15 
ROOT
ATOM      1  C02 1ZQ d   1       9.916  20.867  -9.244  0.00  0.00     0.196 A 
ATOM      2  C03 1ZQ d   1      10.309  22.121  -8.816  0.00  0.00     0.119 A 
ATOM      3  C05 1ZQ d   1      10.913  22.990  -9.716  0.00  0.00    -0.034 A 
ATOM      4  C06 1ZQ d   1      11.097  22.548 -11.016  0.00  0.00     0.007 A 
ATOM      5  C14 1ZQ d   1      10.679  21.265 -11.388  0.00  0.00     0.081 A 
ATOM      6  N22 1ZQ d   1      10.118  20.463 -10.477  0.00  0.00    -0.221 NA
ATOM      7  H3  1ZQ d   1      11.230  23.981  -9.411  0.00  0.00     0.089 H 
ENDROOT
BRANCH   4   8
ATOM      8  C07 1ZQ d   1      11.756  23.507 -11.940  0.00  0.00    -0.023 A 
ATOM      9  C08 1ZQ d   1      13.043  23.233 -12.395  0.00  0.00    -0.069 A 
ATOM     10  C09 1ZQ d   1      13.669  24.145 -13.243  0.00  0.00    -0.045 A 
ATOM     11  H4  1ZQ d   1      13.551  22.324 -12.094  0.00  0.00     0.085 H 
ATOM     12  C10 1ZQ d   1      13.018  25.313 -13.612  0.00  0.00     0.116 A 
ATOM     13  H5  1ZQ d   1      14.667  23.941 -13.615  0.00  0.00     0.088 H 
ATOM     14  F11 1ZQ d   1      13.628  26.176 -14.429  0.00  0.00    -0.206 F 
ATOM     15  C12 1ZQ d   1      11.737  25.578 -13.134  0.00  0.00    -0.045 A 
ATOM     16  C13 1ZQ d   1      11.100  24.681 -12.277  0.00  0.00    -0.069 A 
ATOM     17  H6  1ZQ d   1      11.231  26.489 -13.431  0.00  0.00     0.088 H 
ATOM     18  H7  1ZQ d   1      10.114  24.897 -11.883  0.00  0.00     0.085 H 
ENDBRANCH   4   8
BRANCH   5  19
ATOM     19  C15 1ZQ d   1      10.859  20.686 -12.751  0.00  0.00    -0.006 A 
ATOM     20  C16 1ZQ d   1      11.443  19.422 -12.860  0.00  0.00    -0.068 A 
ATOM     21  C17 1ZQ d   1      11.648  18.815 -14.104  0.00  0.00    -0.045 A 
ATOM     22  H8  1ZQ d   1      11.745  18.899 -11.960  0.00  0.00     0.085 H 
ATOM     23  C18 1ZQ d   1      11.259  19.496 -15.245  0.00  0.00     0.116 A 
ATOM     24  H9  1ZQ d   1      12.102  17.833 -14.173  0.00  0.00     0.088 H 
ATOM     25  F19 1ZQ d   1      11.427  18.952 -16.462  0.00  0.00    -0.206 F 
ATOM     26  C20 1ZQ d   1      10.674  20.751 -15.132  0.00  0.00    -0.045 A 
ATOM     27  C21 1ZQ d   1      10.469  21.363 -13.907  0.00  0.00    -0.068 A 
ATOM     28  H10 1ZQ d   1      10.368  21.269 -16.034  0.00  0.00     0.088 H 
ATOM     29  H11 1ZQ d   1      10.016  22.346 -13.847  0.00  0.00     0.085 H 
ENDBRANCH   5  19
BRANCH   2  30
ATOM     30  O04 1ZQ d   1      10.101  22.433  -7.489  0.00  0.00    -0.357 OA
ATOM     31  H2  1ZQ d   1      10.577  21.819  -6.942  0.00  0.00     0.218 HD
ENDBRANCH   2  30
BRANCH   1  32
ATOM     32  O01 1ZQ d   1       9.357  20.057  -8.303  0.00  0.00    -0.343 OA
ATOM     33  H1  1ZQ d   1       9.294  20.526  -7.479  0.00  0.00     0.219 HD
ENDBRANCH   1  32
TORSDOF 4
