REMARK  18 active torsions:
REMARK  status: ('A' for Active; 'I' for Inactive)
REMARK    1  A    between atoms: CBE_2  and  OBD_3 
REMARK       I    between atoms: CBE_2  and  NBL_8 
REMARK    2  A    between atoms: OBD_3  and  CBP_4 
REMARK    3  A    between atoms: CBP_4  and  CAC_5 
REMARK    4  A    between atoms: CBP_4  and  CAD_6 
REMARK    5  A    between atoms: CBP_4  and  CAE_7 
REMARK    6  A    between atoms: CBK_13  and  CBB_14 
REMARK    7  A    between atoms: CBB_14  and  NBN_15 
REMARK    8  A    between atoms: NBN_15  and  SBQ_16 
REMARK    9  A    between atoms: NBN_15  and  CAZ_26 
REMARK   10  A    between atoms: SBQ_16  and  CBJ_19 
REMARK   11  A    between atoms: CBF_24  and  CAA_25 
REMARK   12  A    between atoms: CAZ_26  and  CAY_27 
REMARK   13  A    between atoms: CAY_27  and  NBM_28 
REMARK   14  A    between atoms: NBM_28  and  CBH_29 
REMARK   15  A    between atoms: NBM_28  and  CBA_37 
REMARK   16  A    between atoms: CBG_34  and  CAJ_35 
REMARK   17  A    between atoms: CBA_37  and  CBI_38 
REMARK   18  A    between atoms: NBO_42  and  CAB_43 
ROOT
ATOM      1  NBN ED5 d   1      24.036  -2.259   0.261  0.00  0.00    -0.204 NA
ENDROOT
BRANCH   1   2
ATOM      2  CBB ED5 d   1      23.419  -0.957   0.755  0.00  0.00    -0.003 C 
ATOM      3  H   ED5 d   1      23.407  -0.988   1.855  0.00  0.00     0.058 H 
ATOM      4  H   ED5 d   1      24.064  -0.132   0.419  0.00  0.00     0.058 H 
BRANCH   2   5
ATOM      5  CBK ED5 d   1      21.981  -0.654   0.277  0.00  0.00    -0.039 C 
ATOM      6  CAV ED5 d   1      21.530   0.647   0.823  0.00  0.00    -0.045 C 
ATOM      7  CAX ED5 d   1      22.205   1.819   0.175  0.00  0.00     0.000 C 
ATOM      8  H   ED5 d   1      20.445   0.736   0.666  0.00  0.00     0.036 H 
ATOM      9  H   ED5 d   1      21.747   0.669   1.901  0.00  0.00     0.036 H 
ATOM     10  NBL ED5 d   1      22.138   1.768  -1.293  0.00  0.00    -0.328 N 
ATOM     11  H   ED5 d   1      21.715   2.742   0.518  0.00  0.00     0.064 H 
ATOM     12  H   ED5 d   1      23.262   1.830   0.479  0.00  0.00     0.064 H 
ATOM     13  CBE ED5 d   1      21.675   2.923  -2.096  0.00  0.00     0.363 C 
ATOM     14  CAW ED5 d   1      22.563   0.496  -1.870  0.00  0.00     0.000 C 
ATOM     15  OAG ED5 d   1      21.333   3.931  -1.516  0.00  0.00    -0.238 OA
ATOM     16  CAU ED5 d   1      21.923  -0.696  -1.207  0.00  0.00    -0.045 C 
ATOM     17  H   ED5 d   1      23.655   0.411  -1.765  0.00  0.00     0.064 H 
ATOM     18  H   ED5 d   1      22.296   0.489  -2.937  0.00  0.00     0.064 H 
ATOM     19  H   ED5 d   1      22.441  -1.604  -1.550  0.00  0.00     0.036 H 
ATOM     20  H   ED5 d   1      20.867  -0.739  -1.513  0.00  0.00     0.036 H 
ATOM     21  H   ED5 d   1      21.312  -1.436   0.666  0.00  0.00     0.042 H 
BRANCH  13  22
ATOM     22  OBD ED5 d   1      22.002   2.994  -3.475  0.00  0.00    -0.294 OA
BRANCH  22  23
ATOM     23  CBP ED5 d   1      23.072   3.798  -3.997  0.00  0.00     0.061 C 
BRANCH  23  24
ATOM     24  CAC ED5 d   1      23.605   3.142  -5.213  0.00  0.00    -0.048 C 
ATOM     25  H   ED5 d   1      24.426   3.746  -5.625  0.00  0.00     0.031 H 
ATOM     26  H   ED5 d   1      22.804   3.052  -5.962  0.00  0.00     0.031 H 
ATOM     27  H   ED5 d   1      23.980   2.141  -4.955  0.00  0.00     0.031 H 
ENDBRANCH  23  24
BRANCH  23  28
ATOM     28  CAD ED5 d   1      22.611   5.162  -4.361  0.00  0.00    -0.048 C 
ATOM     29  H   ED5 d   1      23.458   5.742  -4.755  0.00  0.00     0.031 H 
ATOM     30  H   ED5 d   1      22.207   5.663  -3.469  0.00  0.00     0.031 H 
ATOM     31  H   ED5 d   1      21.826   5.091  -5.129  0.00  0.00     0.031 H 
ENDBRANCH  23  28
BRANCH  23  32
ATOM     32  CAE ED5 d   1      24.197   3.909  -2.958  0.00  0.00    -0.048 C 
ATOM     33  H   ED5 d   1      25.012   4.526  -3.365  0.00  0.00     0.031 H 
ATOM     34  H   ED5 d   1      24.579   2.905  -2.723  0.00  0.00     0.031 H 
ATOM     35  H   ED5 d   1      23.806   4.376  -2.042  0.00  0.00     0.031 H 
ENDBRANCH  23  32
ENDBRANCH  22  23
ENDBRANCH  13  22
ENDBRANCH   2   5
ENDBRANCH   1   2
BRANCH   1  36
ATOM     36  SBQ ED5 d   1      25.697  -2.112   0.062  0.00  0.00     0.244 S 
ATOM     37  OAI ED5 d   1      26.364  -3.375   0.250  0.00  0.00    -0.206 OA
ATOM     38  OAH ED5 d   1      26.217  -1.170   1.018  0.00  0.00    -0.206 OA
BRANCH  36  39
ATOM     39  CBJ ED5 d   1      26.015  -1.469  -1.573  0.00  0.00     0.080 A 
ATOM     40  CAN ED5 d   1      26.631  -0.216  -1.688  0.00  0.00    -0.060 A 
ATOM     41  CAL ED5 d   1      26.900   0.341  -2.970  0.00  0.00    -0.082 A 
ATOM     42  H   ED5 d   1      26.905   0.333  -0.794  0.00  0.00     0.085 H 
ATOM     43  CAK ED5 d   1      26.548  -0.361  -4.120  0.00  0.00    -0.082 A 
ATOM     44  H   ED5 d   1      27.378   1.310  -3.051  0.00  0.00     0.083 H 
ATOM     45  CAM ED5 d   1      25.931  -1.608  -4.014  0.00  0.00    -0.076 A 
ATOM     46  H   ED5 d   1      26.753   0.061  -5.097  0.00  0.00     0.083 H 
ATOM     47  CBF ED5 d   1      25.658  -2.171  -2.733  0.00  0.00    -0.039 A 
ATOM     48  H   ED5 d   1      25.658  -2.152  -4.911  0.00  0.00     0.084 H 
BRANCH  47  49
ATOM     49  CAA ED5 d   1      24.996  -3.507  -2.666  0.00  0.00    -0.050 C 
ATOM     50  H   ED5 d   1      24.858  -3.795  -1.613  0.00  0.00     0.033 H 
ATOM     51  H   ED5 d   1      25.626  -4.254  -3.171  0.00  0.00     0.033 H 
ATOM     52  H   ED5 d   1      24.016  -3.456  -3.164  0.00  0.00     0.033 H 
ENDBRANCH  47  49
ENDBRANCH  36  39
ENDBRANCH   1  36
BRANCH   1  53
ATOM     53  CAZ ED5 d   1      23.616  -3.468   1.093  0.00  0.00     0.008 C 
ATOM     54  H   ED5 d   1      24.266  -4.303   0.792  0.00  0.00     0.059 H 
ATOM     55  H   ED5 d   1      22.575  -3.697   0.820  0.00  0.00     0.059 H 
BRANCH  53  56
ATOM     56  CAY ED5 d   1      23.669  -3.392   2.644  0.00  0.00     0.007 C 
ATOM     57  H   ED5 d   1      23.198  -4.308   3.031  0.00  0.00     0.066 H 
ATOM     58  H   ED5 d   1      23.075  -2.517   2.947  0.00  0.00     0.066 H 
BRANCH  56  59
ATOM     59  NBM ED5 d   1      24.978  -3.272   3.291  0.00  0.00    -0.374 N 
BRANCH  59  60
ATOM     60  CBH ED5 d   1      25.953  -4.411   3.221  0.00  0.00     0.030 A 
ATOM     61  CAQ ED5 d   1      27.300  -4.197   3.534  0.00  0.00    -0.057 A 
ATOM     62  CAO ED5 d   1      28.207  -5.268   3.460  0.00  0.00    -0.070 A 
ATOM     63  H   ED5 d   1      27.642  -3.212   3.831  0.00  0.00     0.086 H 
ATOM     64  CBG ED5 d   1      27.756  -6.545   3.075  0.00  0.00    -0.019 A 
ATOM     65  H   ED5 d   1      29.253  -5.111   3.699  0.00  0.00     0.085 H 
ATOM     66  CAP ED5 d   1      26.407  -6.755   2.762  0.00  0.00    -0.070 A 
ATOM     67  CAR ED5 d   1      25.506  -5.692   2.835  0.00  0.00    -0.057 A 
ATOM     68  H   ED5 d   1      26.064  -7.739   2.464  0.00  0.00     0.085 H 
ATOM     69  H   ED5 d   1      24.461  -5.851   2.595  0.00  0.00     0.086 H 
BRANCH  64  70
ATOM     70  CAJ ED5 d   1      28.712  -7.679   2.990  0.00  0.00     0.004 C 
ATOM     71  NAF ED5 d   1      29.563  -8.684   2.884  0.00  0.00    -0.311 NA
ATOM     72  H   ED5 d   1      29.870  -9.174   3.710  0.00  0.00     0.186 HD
ATOM     73  H   ED5 d   1      28.682  -7.802   4.072  0.00  0.00     0.115 H 
ENDBRANCH  64  70
ENDBRANCH  59  60
BRANCH  59  74
ATOM     74  CBA ED5 d   1      25.340  -2.038   4.018  0.00  0.00     0.035 C 
ATOM     75  H   ED5 d   1      25.205  -1.188   3.333  0.00  0.00     0.073 H 
ATOM     76  H   ED5 d   1      26.399  -2.111   4.306  0.00  0.00     0.073 H 
BRANCH  74  77
ATOM     77  CBI ED5 d   1      24.526  -1.763   5.278  0.00  0.00     0.047 A 
ATOM     78  CAS ED5 d   1      23.386  -0.967   5.381  0.00  0.00     0.027 A 
ATOM     79  NBC ED5 d   1      22.989  -1.005   6.656  0.00  0.00    -0.254 NA
ATOM     80  H   ED5 d   1      22.908  -0.416   4.572  0.00  0.00     0.117 H 
ATOM     81  CAT ED5 d   1      23.821  -1.793   7.329  0.00  0.00     0.065 A 
ATOM     82  NBO ED5 d   1      24.762  -2.258   6.488  0.00  0.00    -0.347 N 
ATOM     83  H   ED5 d   1      23.752  -2.025   8.391  0.00  0.00     0.143 H 
BRANCH  82  84
ATOM     84  CAB ED5 d   1      25.861  -3.146   6.848  0.00  0.00    -0.013 C 
ATOM     85  H   ED5 d   1      26.469  -3.357   5.956  0.00  0.00     0.057 H 
ATOM     86  H   ED5 d   1      25.456  -4.088   7.247  0.00  0.00     0.057 H 
ATOM     87  H   ED5 d   1      26.487  -2.663   7.613  0.00  0.00     0.057 H 
ENDBRANCH  82  84
ENDBRANCH  74  77
ENDBRANCH  59  74
ENDBRANCH  56  59
ENDBRANCH  53  56
ENDBRANCH   1  53
TORSDOF 18
