REMARK  7 active torsions:
REMARK  status: ('A' for Active; 'I' for Inactive)
REMARK    1  A    between atoms: C1_1  and  N1_2 
REMARK    2  A    between atoms: C4_6  and  C5_7 
REMARK    3  A    between atoms: C5_7  and  C6_8 
REMARK    4  A    between atoms: C5_7  and  N3_15 
REMARK    5  A    between atoms: C5_7  and  C12_16 
REMARK    6  A    between atoms: N4_22  and  C18_23 
REMARK    7  A    between atoms: C21_27  and  C22_28 
ROOT
ATOM      1  C12 JAN d   1      24.591  -1.391   2.575  0.00  0.00    -0.036 C 
ATOM      2  C13 JAN d   1      24.274  -2.166   1.654  0.00  0.00    -0.065 C 
ATOM      3  C14 JAN d   1      23.605  -1.564   0.608  0.00  0.00    -0.002 C 
ATOM      4  C15 JAN d   1      24.526  -0.018   2.710  0.00  0.00    -0.037 C 
ATOM      5  C16 JAN d   1      23.572   0.678   1.617  0.00  0.00    -0.022 C 
ATOM      6  C17 JAN d   1      23.101  -0.451   0.658  0.00  0.00     0.025 C 
ATOM      7  N4  JAN d   1      22.362   0.291  -0.373  0.00  0.00    -0.322 N 
ATOM      8  C19 JAN d   1      21.710  -0.482  -1.281  0.00  0.00     0.248 C 
ATOM      9  O1  JAN d   1      20.970   0.128  -2.092  0.00  0.00    -0.268 OA
ATOM     10  C20 JAN d   1      22.126  -1.802  -1.247  0.00  0.00    -0.006 C 
ATOM     11  C21 JAN d   1      23.090  -2.380  -0.495  0.00  0.00    -0.008 C 
ATOM     12  H   JAN d   1      24.505  -3.230   1.672  0.00  0.00     0.085 H 
ATOM     13  H   JAN d   1      25.541   0.393   2.602  0.00  0.00     0.040 H 
ATOM     14  H   JAN d   1      24.140   0.217   3.713  0.00  0.00     0.040 H 
ATOM     15  H   JAN d   1      24.130   1.443   1.058  0.00  0.00     0.042 H 
ATOM     16  H   JAN d   1      22.706   1.143   2.110  0.00  0.00     0.042 H 
ATOM     17  H   JAN d   1      21.600  -2.473  -1.925  0.00  0.00     0.093 H 
ENDROOT
BRANCH   1  18
ATOM     18  C5  JAN d   1      25.599  -1.941   3.594  0.00  0.00     0.196 C 
BRANCH  18  19
ATOM     19  C4  JAN d   1      24.748  -1.734   5.010  0.00  0.00     0.067 C 
ATOM     20  N1  JAN d   1      25.136  -2.249   6.288  0.00  0.00    -0.372 N 
ATOM     21  C2  JAN d   1      24.212  -1.974   7.162  0.00  0.00     0.034 C 
ATOM     22  N2  JAN d   1      23.243  -1.434   6.567  0.00  0.00    -0.384 N 
ATOM     23  H   JAN d   1      24.268  -2.177   8.230  0.00  0.00     0.139 H 
ATOM     24  C3  JAN d   1      23.316  -1.351   5.156  0.00  0.00     0.015 C 
ATOM     25  H   JAN d   1      22.431  -1.068   7.085  0.00  0.00     0.160 HD
ATOM     26  H   JAN d   1      23.115  -0.335   4.786  0.00  0.00     0.067 H 
ATOM     27  H   JAN d   1      22.640  -2.063   4.660  0.00  0.00     0.067 H 
ATOM     28  H   JAN d   1      25.153  -0.722   5.157  0.00  0.00     0.080 H 
BRANCH  20  29
ATOM     29  C1  JAN d   1      26.484  -2.706   6.860  0.00  0.00    -0.018 C 
ATOM     30  H   JAN d   1      26.348  -3.038   7.900  0.00  0.00     0.056 H 
ATOM     31  H   JAN d   1      27.197  -1.869   6.833  0.00  0.00     0.056 H 
ATOM     32  H   JAN d   1      26.874  -3.539   6.258  0.00  0.00     0.056 H 
ENDBRANCH  20  29
ENDBRANCH  18  19
BRANCH  18  33
ATOM     33  C6  JAN d   1      25.976  -3.461   3.611  0.00  0.00    -0.016 C 
ATOM     34  C7  JAN d   1      24.994  -4.361   3.835  0.00  0.00    -0.072 C 
ATOM     35  C8  JAN d   1      25.085  -5.753   3.635  0.00  0.00    -0.061 C 
ATOM     36  H   JAN d   1      24.049  -3.977   4.202  0.00  0.00     0.084 H 
ATOM     37  C9  JAN d   1      26.462  -5.808   2.950  0.00  0.00     0.034 C 
ATOM     38  H   JAN d   1      24.392  -6.547   3.888  0.00  0.00     0.086 H 
ATOM     39 CL1  JAN d   1      26.586  -7.686   2.480  0.00  0.00    -0.084 Cl
ATOM     40  C10 JAN d   1      27.376  -5.046   2.718  0.00  0.00    -0.061 C 
ATOM     41  C11 JAN d   1      27.135  -3.674   3.094  0.00  0.00    -0.072 C 
ATOM     42  H   JAN d   1      28.304  -5.371   2.262  0.00  0.00     0.086 H 
ATOM     43  H   JAN d   1      27.869  -2.889   2.953  0.00  0.00     0.084 H 
ENDBRANCH  18  33
BRANCH  18  44
ATOM     44  N3  JAN d   1      26.818  -1.269   3.906  0.00  0.00    -0.060 N 
ATOM     45  H   JAN d   1      27.441  -1.319   3.115  0.00  0.00     0.276 HD
ATOM     46  H   JAN d   1      27.250  -1.710   4.703  0.00  0.00     0.276 HD
ATOM     47  H   JAN d   1      26.624  -0.303   4.121  0.00  0.00     0.276 HD
ENDBRANCH  18  44
ENDBRANCH   1  18
BRANCH  11  48
ATOM     48  C22 JAN d   1      23.400  -3.811  -0.570  0.00  0.00    -0.023 C 
ATOM     49  C23 JAN d   1      22.900  -4.716   0.472  0.00  0.00    -0.051 C 
ATOM     50  C24 JAN d   1      23.314  -6.004   0.146  0.00  0.00     0.034 C 
ATOM     51  H   JAN d   1      22.314  -4.432   1.339  0.00  0.00     0.087 H 
ATOM     52 CL2  JAN d   1      22.795  -7.213   1.352  0.00  0.00    -0.084 Cl
ATOM     53  C25 JAN d   1      24.228  -6.538  -0.912  0.00  0.00    -0.062 C 
ATOM     54  C26 JAN d   1      24.422  -5.520  -1.923  0.00  0.00    -0.081 C 
ATOM     55  H   JAN d   1      24.673  -7.527  -0.920  0.00  0.00     0.086 H 
ATOM     56  C27 JAN d   1      24.091  -4.294  -1.638  0.00  0.00    -0.072 C 
ATOM     57  H   JAN d   1      24.833  -5.773  -2.894  0.00  0.00     0.083 H 
ATOM     58  H   JAN d   1      24.413  -3.549  -2.356  0.00  0.00     0.084 H 
ENDBRANCH  11  48
BRANCH   7  59
ATOM     59  C18 JAN d   1      21.958   1.797  -0.187  0.00  0.00    -0.011 C 
ATOM     60  H   JAN d   1      22.593   2.254   0.586  0.00  0.00     0.057 H 
ATOM     61  H   JAN d   1      20.904   1.859   0.121  0.00  0.00     0.057 H 
ATOM     62  H   JAN d   1      22.094   2.333  -1.138  0.00  0.00     0.057 H 
ENDBRANCH   7  59
TORSDOF 7
