REMARK  5 active torsions:
REMARK  status: ('A' for Active; 'I' for Inactive)
REMARK    1  A    between atoms: N_1  and  CA_2 
REMARK    2  A    between atoms: CA_2  and  C_3 
REMARK    3  A    between atoms: CA_2  and  CB_5 
REMARK    4  A    between atoms: CB_5  and  CG_6 
REMARK    5  A    between atoms: CG_6  and  CD_7 
REMARK       I    between atoms: CD_7  and  NE2_9 
ROOT
ATOM      1  CB  GLN d   1     -27.914  32.216  30.007  0.00  0.00    -0.021 C 
ATOM      2  H5  GLN d   1     -27.108  31.469  29.966  0.00  0.00     0.037 H 
ATOM      3  H6  GLN d   1     -28.061  32.539  31.048  0.00  0.00     0.037 H 
ENDROOT
BRANCH   1   4
ATOM      4  CA  GLN d   1     -29.192  31.566  29.524  0.00  0.00     0.183 C 
ATOM      5  H4  GLN d   1     -30.034  32.253  29.695  0.00  0.00     0.101 H 
BRANCH   4   6
ATOM      6  N   GLN d   1     -29.432  30.337  30.269  0.00  0.00    -0.065 N 
ATOM      7  H1  GLN d   1     -29.505  30.549  31.252  0.00  0.00     0.275 HD
ATOM      8  H2  GLN d   1     -28.667  29.698  30.119  0.00  0.00     0.275 HD
ATOM      9  H3  GLN d   1     -30.290  29.914  29.952  0.00  0.00     0.275 HD
ENDBRANCH   4   6
BRANCH   4  10
ATOM     10  C   GLN d   1     -29.075  31.294  28.033  0.00  0.00     0.204 C 
ATOM     11  O   GLN d   1     -30.096  31.290  27.295  0.00  0.00    -0.646 OA
ATOM     12  O   GLN d   1     -27.942  31.070  27.529  0.00  0.00    -0.646 OA
ENDBRANCH   4  10
ENDBRANCH   1   4
BRANCH   1  13
ATOM     13  CG  GLN d   1     -27.505  33.383  29.213  0.00  0.00     0.011 C 
ATOM     14  H7  GLN d   1     -28.291  34.150  29.266  0.00  0.00     0.047 H 
ATOM     15  H8  GLN d   1     -27.362  33.076  28.166  0.00  0.00     0.047 H 
BRANCH  13  16
ATOM     16  CD  GLN d   1     -26.234  33.950  29.733  0.00  0.00     0.215 C 
ATOM     17  OE1 GLN d   1     -26.165  34.351  30.889  0.00  0.00    -0.274 OA
ATOM     18  NE2 GLN d   1     -25.208  33.987  28.892  0.00  0.00    -0.370 N 
ATOM     19  H9  GLN d   1     -24.329  34.359  29.191  0.00  0.00     0.159 HD
ATOM     20  H10 GLN d   1     -25.314  33.643  27.959  0.00  0.00     0.159 HD
ENDBRANCH  13  16
ENDBRANCH   1  13
TORSDOF 5
