REMARK  21 active torsions:
REMARK  status: ('A' for Active; 'I' for Inactive)
REMARK    1  A    between atoms: N_1  and  CA_2 
REMARK    2  A    between atoms: CA_2  and  C_3 
REMARK    3  A    between atoms: CA_2  and  CB_5 
REMARK       I    between atoms: C_3  and  N_6 
REMARK    4  A    between atoms: CA_7  and  C_8 
REMARK       I    between atoms: C_8  and  N_13 
REMARK    5  A    between atoms: CA_14  and  C_15 
REMARK       I    between atoms: C_15  and  N_20 
REMARK    6  A    between atoms: CA_21  and  C_22 
REMARK       I    between atoms: C_22  and  N_27 
REMARK    7  A    between atoms: N_27  and  CA_28 
REMARK    8  A    between atoms: CA_28  and  C_29 
REMARK    9  A    between atoms: CA_28  and  CB_31 
REMARK       I    between atoms: C_29  and  N_38 
REMARK   10  A    between atoms: CB_31  and  CG_32 
REMARK   11  A    between atoms: CG_32  and  CD_33 
REMARK   12  A    between atoms: CD_33  and  NE_34 
REMARK       I    between atoms: NE_34  and  CZ_35 
REMARK       I    between atoms: CZ_35  and  NH1_36 
REMARK   13  A    between atoms: CA_39  and  C_40 
REMARK       I    between atoms: C_40  and  N_45 
REMARK   14  A    between atoms: CA_46  and  C_47 
REMARK       I    between atoms: C_47  and  N_52 
REMARK   15  A    between atoms: CA_53  and  C_54 
REMARK       I    between atoms: C_54  and  N_59 
REMARK   16  A    between atoms: CA_60  and  C_61 
REMARK       I    between atoms: C_61  and  N_66 
REMARK   17  A    between atoms: N_66  and  CA_67 
REMARK   18  A    between atoms: CA_67  and  C_68 
REMARK   19  A    between atoms: CA_67  and  CB_70 
REMARK   20  A    between atoms: CB_70  and  CG_71 
REMARK   21  A    between atoms: CG_71  and  CD_72 
ROOT
ATOM      1  CA  ARG d   1       6.166  -3.679   9.209  0.00  0.00     0.089 C 
ATOM      2  H   ARG d   1       6.722  -2.733   9.124  0.00  0.00     0.087 H 
ENDROOT
BRANCH   1   3
ATOM      3  N   ARG d   1       6.651  -4.606   8.196  0.00  0.00    -0.346 N 
ATOM      4  C   PRO d   1       7.938  -4.812   8.013  0.00  0.00     0.241 C 
ATOM      5  O   PRO d   1       8.791  -4.239   8.670  0.00  0.00    -0.271 OA
ATOM      6  H   ARG d   1       5.992  -5.097   7.627  0.00  0.00     0.163 HD
BRANCH   4   7
ATOM      7  CA  PRO d   1       8.303  -5.774   6.872  0.00  0.00     0.091 C 
ATOM      8  N   PRO d   1       9.288  -5.190   5.970  0.00  0.00    -0.337 N 
ATOM      9  C   PRO d   1       9.078  -3.955   5.482  0.00  0.00     0.243 C 
ATOM     10  CD  PRO d   1      10.437  -6.089   5.751  0.00  0.00    -0.001 C 
ATOM     11  O   PRO d   1       8.023  -3.331   5.656  0.00  0.00    -0.271 OA
ATOM     12  CG  PRO d   1       9.971  -7.397   6.321  0.00  0.00    -0.048 C 
ATOM     13  H   PRO d   1      11.329  -5.724   6.282  0.00  0.00     0.064 H 
ATOM     14  H   PRO d   1      10.662  -6.185   4.679  0.00  0.00     0.064 H 
ATOM     15  CB  PRO d   1       9.004  -7.035   7.393  0.00  0.00    -0.036 C 
ATOM     16  H   PRO d   1       9.478  -8.002   5.545  0.00  0.00     0.035 H 
ATOM     17  H   PRO d   1      10.819  -7.959   6.740  0.00  0.00     0.035 H 
ATOM     18  H   PRO d   1       8.278  -7.846   7.551  0.00  0.00     0.036 H 
ATOM     19  H   PRO d   1       9.530  -6.825   8.336  0.00  0.00     0.036 H 
ATOM     20  H   PRO d   1       7.387  -6.040   6.324  0.00  0.00     0.087 H 
BRANCH   9  21
ATOM     21  CA  PRO d   1      10.209  -3.319   4.687  0.00  0.00     0.092 C 
ATOM     22  N   PRO d   1       9.723  -2.264   3.805  0.00  0.00    -0.337 N 
ATOM     23  C   PRO d   1       8.870  -2.571   2.817  0.00  0.00     0.243 C 
ATOM     24  CD  PRO d   1      10.308  -0.955   4.145  0.00  0.00    -0.001 C 
ATOM     25  O   PRO d   1       8.477  -3.717   2.598  0.00  0.00    -0.271 OA
ATOM     26  CG  PRO d   1      11.529  -1.331   4.929  0.00  0.00    -0.048 C 
ATOM     27  H   PRO d   1       9.614  -0.357   4.754  0.00  0.00     0.064 H 
ATOM     28  H   PRO d   1      10.577  -0.393   3.238  0.00  0.00     0.064 H 
ATOM     29  CB  PRO d   1      11.154  -2.581   5.642  0.00  0.00    -0.036 C 
ATOM     30  H   PRO d   1      12.381  -1.509   4.257  0.00  0.00     0.035 H 
ATOM     31  H   PRO d   1      11.788  -0.538   5.647  0.00  0.00     0.035 H 
ATOM     32  H   PRO d   1      12.046  -3.190   5.849  0.00  0.00     0.036 H 
ATOM     33  H   PRO d   1      10.642  -2.347   6.587  0.00  0.00     0.036 H 
ATOM     34  H   PRO d   1      10.742  -4.093   4.115  0.00  0.00     0.087 H 
BRANCH  23  35
ATOM     35  CA  PRO d   1       8.381  -1.430   1.946  0.00  0.00     0.092 C 
ATOM     36  N   PRO d   1       7.764  -1.920   0.715  0.00  0.00    -0.337 N 
ATOM     37  C   VAL d   1       8.625  -2.368  -0.233  0.00  0.00     0.250 C 
ATOM     38  CD  PRO d   1       6.296  -1.794   0.767  0.00  0.00    -0.001 C 
ATOM     39  O   VAL d   1       9.852  -2.310  -0.098  0.00  0.00    -0.271 OA
ATOM     40  CG  PRO d   1       6.022  -1.417   2.200  0.00  0.00    -0.048 C 
ATOM     41  H   PRO d   1       5.811  -2.748   0.512  0.00  0.00     0.064 H 
ATOM     42  H   PRO d   1       5.945  -1.009   0.081  0.00  0.00     0.064 H 
ATOM     43  CB  PRO d   1       7.241  -0.690   2.643  0.00  0.00    -0.036 C 
ATOM     44  H   PRO d   1       5.138  -0.766   2.267  0.00  0.00     0.035 H 
ATOM     45  H   PRO d   1       5.863  -2.316   2.813  0.00  0.00     0.035 H 
ATOM     46  H   PRO d   1       7.206   0.363   2.326  0.00  0.00     0.036 H 
ATOM     47  H   PRO d   1       7.352  -0.741   3.736  0.00  0.00     0.036 H 
ATOM     48  H   PRO d   1       9.218  -0.752   1.723  0.00  0.00     0.087 H 
BRANCH  37  49
ATOM     49  CA  VAL d   1       8.048  -2.947  -1.531  0.00  0.00     0.172 C 
ATOM     50  H   VAL d   1       8.869  -3.473  -2.041  0.00  0.00     0.098 H 
BRANCH  49  51
ATOM     51  N   VAL d   1       6.952  -3.955  -1.344  0.00  0.00    -0.067 N 
ATOM     52  H   VAL d   1       6.636  -4.279  -2.245  0.00  0.00     0.275 HD
ATOM     53  H   VAL d   1       6.183  -3.528  -0.852  0.00  0.00     0.275 HD
ATOM     54  H   VAL d   1       7.301  -4.736  -0.810  0.00  0.00     0.275 HD
ENDBRANCH  49  51
BRANCH  49  55
ATOM     55  CB  VAL d   1       7.607  -1.779  -2.438  0.00  0.00    -0.042 C 
ATOM     56  H   VAL d   1       8.438  -1.066  -2.548  0.00  0.00     0.030 H 
ATOM     57  H   VAL d   1       6.744  -1.269  -1.986  0.00  0.00     0.030 H 
ATOM     58  H   VAL d   1       7.325  -2.169  -3.427  0.00  0.00     0.030 H 
ENDBRANCH  49  55
ENDBRANCH  37  49
ENDBRANCH  23  35
ENDBRANCH   9  21
ENDBRANCH   4   7
ENDBRANCH   1   3
BRANCH   1  59
ATOM     59  C   ARG d   1       6.377  -4.251  10.608  0.00  0.00     0.243 C 
ATOM     60  O   ARG d   1       5.970  -5.376  10.877  0.00  0.00    -0.271 OA
ATOM     61  N   PRO d   1       7.026  -3.481  11.496  0.00  0.00    -0.337 N 
ATOM     62  CA  PRO d   1       7.114  -3.990  12.868  0.00  0.00     0.092 C 
ATOM     63  CD  PRO d   1       7.651  -2.153  11.366  0.00  0.00    -0.001 C 
ATOM     64  CB  PRO d   1       8.139  -3.073  13.525  0.00  0.00    -0.036 C 
ATOM     65  H   PRO d   1       7.451  -5.037  12.875  0.00  0.00     0.087 H 
ATOM     66  CG  PRO d   1       8.022  -1.794  12.782  0.00  0.00    -0.048 C 
ATOM     67  H   PRO d   1       9.153  -3.489  13.426  0.00  0.00     0.036 H 
ATOM     68  H   PRO d   1       7.904  -2.927  14.590  0.00  0.00     0.036 H 
ATOM     69  H   PRO d   1       8.981  -1.256  12.799  0.00  0.00     0.035 H 
ATOM     70  H   PRO d   1       7.240  -1.164  13.231  0.00  0.00     0.035 H 
ATOM     71  H   PRO d   1       6.940  -1.424  10.950  0.00  0.00     0.064 H 
ATOM     72  H   PRO d   1       8.545  -2.201  10.726  0.00  0.00     0.064 H 
BRANCH  62  73
ATOM     73  C   PRO d   1       5.777  -3.873  13.613  0.00  0.00     0.243 C 
ATOM     74  O   PRO d   1       4.972  -2.979  13.297  0.00  0.00    -0.271 OA
ATOM     75  N   PRO d   1       5.536  -4.765  14.591  0.00  0.00    -0.337 N 
ATOM     76  CA  PRO d   1       4.323  -4.623  15.395  0.00  0.00     0.092 C 
ATOM     77  CD  PRO d   1       6.422  -5.817  15.135  0.00  0.00    -0.001 C 
ATOM     78  CB  PRO d   1       4.281  -5.927  16.185  0.00  0.00    -0.036 C 
ATOM     79  H   PRO d   1       3.428  -4.497  14.768  0.00  0.00     0.087 H 
ATOM     80  CG  PRO d   1       5.723  -6.242  16.398  0.00  0.00    -0.048 C 
ATOM     81  H   PRO d   1       3.784  -6.722  15.609  0.00  0.00     0.036 H 
ATOM     82  H   PRO d   1       3.761  -5.790  17.145  0.00  0.00     0.036 H 
ATOM     83  H   PRO d   1       5.859  -7.320  16.568  0.00  0.00     0.035 H 
ATOM     84  H   PRO d   1       6.115  -5.683  17.260  0.00  0.00     0.035 H 
ATOM     85  H   PRO d   1       7.422  -5.415  15.355  0.00  0.00     0.064 H 
ATOM     86  H   PRO d   1       6.511  -6.659  14.432  0.00  0.00     0.064 H 
BRANCH  76  87
ATOM     87  C   PRO d   1       4.480  -3.442  16.343  0.00  0.00     0.243 C 
ATOM     88  O   PRO d   1       5.602  -3.043  16.632  0.00  0.00    -0.271 OA
ATOM     89  N   PRO d   1       3.376  -2.892  16.847  0.00  0.00    -0.337 N 
ATOM     90  CA  PRO d   1       3.453  -1.787  17.799  0.00  0.00     0.092 C 
ATOM     91  CD  PRO d   1       1.987  -3.216  16.477  0.00  0.00    -0.001 C 
ATOM     92  CB  PRO d   1       1.987  -1.544  18.174  0.00  0.00    -0.036 C 
ATOM     93  H   PRO d   1       3.893  -0.896  17.327  0.00  0.00     0.087 H 
ATOM     94  CG  PRO d   1       1.216  -2.047  17.011  0.00  0.00    -0.048 C 
ATOM     95  H   PRO d   1       1.799  -0.472  18.331  0.00  0.00     0.036 H 
ATOM     96  H   PRO d   1       1.722  -2.100  19.085  0.00  0.00     0.036 H 
ATOM     97  H   PRO d   1       1.129  -1.264  16.243  0.00  0.00     0.035 H 
ATOM     98  H   PRO d   1       0.211  -2.364  17.327  0.00  0.00     0.035 H 
ATOM     99  H   PRO d   1       1.660  -4.154  16.949  0.00  0.00     0.064 H 
ATOM    100  H   PRO d   1       1.877  -3.297  15.386  0.00  0.00     0.064 H 
BRANCH  90 101
ATOM    101  C   PRO d   1       4.270  -2.157  19.042  0.00  0.00     0.243 C 
ATOM    102  O   PRO d   1       4.377  -3.347  19.377  0.00  0.00    -0.271 OA
ATOM    103  N   PRO d   1       4.853  -1.152  19.724  0.00  0.00    -0.337 N 
ATOM    104  CA  PRO d   1       5.593  -1.445  20.958  0.00  0.00     0.091 C 
ATOM    105  CD  PRO d   1       4.865   0.283  19.396  0.00  0.00    -0.001 C 
ATOM    106  CB  PRO d   1       5.940  -0.058  21.496  0.00  0.00    -0.036 C 
ATOM    107  H   PRO d   1       6.505  -2.014  20.726  0.00  0.00     0.087 H 
ATOM    108  CG  PRO d   1       5.906   0.843  20.321  0.00  0.00    -0.048 C 
ATOM    109  H   PRO d   1       6.942  -0.061  21.949  0.00  0.00     0.036 H 
ATOM    110  H   PRO d   1       5.200   0.260  22.245  0.00  0.00     0.036 H 
ATOM    111  H   PRO d   1       6.888   0.860  19.825  0.00  0.00     0.035 H 
ATOM    112  H   PRO d   1       5.633   1.863  20.630  0.00  0.00     0.035 H 
ATOM    113  H   PRO d   1       3.882   0.739  19.587  0.00  0.00     0.064 H 
ATOM    114  H   PRO d   1       5.145   0.444  18.345  0.00  0.00     0.064 H 
BRANCH 104 115
ATOM    115  C   PRO d   1       4.775  -2.224  21.994  0.00  0.00     0.241 C 
ATOM    116  O   PRO d   1       3.543  -2.070  22.068  0.00  0.00    -0.271 OA
ATOM    117  N   GLU d   1       5.464  -3.069  22.762  0.00  0.00    -0.345 N 
ATOM    118  H   GLU d   1       6.451  -3.149  22.619  0.00  0.00     0.163 HD
BRANCH 117 119
ATOM    119  CA  GLU d   1       4.839  -3.884  23.804  0.00  0.00     0.097 C 
ATOM    120  H   GLU d   1       4.044  -4.485  23.339  0.00  0.00     0.089 H 
BRANCH 119 121
ATOM    121  C   GLU d   1       4.213  -3.017  24.892  0.00  0.00     0.196 C 
ATOM    122  O   GLU d   1       3.167  -3.361  25.441  0.00  0.00    -0.646 OA
ATOM    123  O1  GLU d   1       4.772  -1.940  25.231  0.00  0.00    -0.646 OA
ENDBRANCH 119 121
BRANCH 119 124
ATOM    124  CB  GLU d   1       5.866  -4.834  24.433  0.00  0.00    -0.028 C 
ATOM    125  H   GLU d   1       5.367  -5.403  25.231  0.00  0.00     0.037 H 
ATOM    126  H   GLU d   1       6.677  -4.229  24.865  0.00  0.00     0.037 H 
BRANCH 124 127
ATOM    127  CG  GLU d   1       6.479  -5.825  23.449  0.00  0.00     0.018 C 
ATOM    128  H   GLU d   1       7.292  -6.367  23.954  0.00  0.00     0.049 H 
ATOM    129  H   GLU d   1       6.887  -5.267  22.593  0.00  0.00     0.049 H 
BRANCH 127 130
ATOM    130  CD  GLU d   1       5.469  -6.831  22.936  0.00  0.00     0.172 C 
ATOM    131  OE1 GLU d   1       4.830  -7.509  23.767  0.00  0.00    -0.648 OA
ATOM    132  OE2 GLU d   1       5.319  -6.944  21.704  0.00  0.00    -0.648 OA
ENDBRANCH 127 130
ENDBRANCH 124 127
ENDBRANCH 119 124
ENDBRANCH 117 119
ENDBRANCH 104 115
ENDBRANCH  90 101
ENDBRANCH  76  87
ENDBRANCH  62  73
ENDBRANCH   1  59
BRANCH   1 133
ATOM    133  CB  ARG d   1       4.679  -3.409   8.977  0.00  0.00    -0.036 C 
ATOM    134  H   ARG d   1       4.120  -4.312   9.261  0.00  0.00     0.036 H 
ATOM    135  H   ARG d   1       4.532  -3.208   7.906  0.00  0.00     0.036 H 
BRANCH 133 136
ATOM    136  CG  ARG d   1       4.115  -2.247   9.752  0.00  0.00    -0.048 C 
ATOM    137  H   ARG d   1       4.613  -1.321   9.428  0.00  0.00     0.035 H 
ATOM    138  H   ARG d   1       4.297  -2.406  10.825  0.00  0.00     0.035 H 
BRANCH 136 139
ATOM    139  CD  ARG d   1       2.621  -2.120   9.513  0.00  0.00     0.009 C 
ATOM    140  H   ARG d   1       2.134  -3.078   9.748  0.00  0.00     0.064 H 
ATOM    141  H   ARG d   1       2.443  -1.868   8.457  0.00  0.00     0.064 H 
BRANCH 139 142
ATOM    142  NE  ARG d   1       2.060  -1.080  10.353  0.00  0.00    -0.227 N 
ATOM    143  CZ  ARG d   1       1.784   0.167   9.979  0.00  0.00     0.665 C 
ATOM    144  NH1 ARG d   1       1.995   0.596   8.734  0.00  0.00    -0.235 N 
ATOM    145  NH2 ARG d   1       1.279   1.005  10.871  0.00  0.00    -0.235 N 
ATOM    146  H   ARG d   1       1.770   1.568   8.479  0.00  0.00     0.174 HD
ATOM    147  H   ARG d   1       2.383  -0.045   8.027  0.00  0.00     0.174 HD
ATOM    148  H   ARG d   1       1.110   0.689  11.837  0.00  0.00     0.174 HD
ATOM    149  H   ARG d   1       1.055   1.973  10.599  0.00  0.00     0.174 HD
ATOM    150  H   ARG d   1       1.856  -1.330  11.331  0.00  0.00     0.177 HD
ENDBRANCH 139 142
ENDBRANCH 136 139
ENDBRANCH 133 136
ENDBRANCH   1 133
TORSDOF 21
