REMARK  6 active torsions:
REMARK  status: ('A' for Active; 'I' for Inactive)
REMARK    1  A    between atoms: C6_3  and  N01_2 
REMARK    2  A    between atoms: N9_10  and  C1'_11 
REMARK    3  A    between atoms: C2'_12  and  O2'_13 
REMARK    4  A    between atoms: C22_22  and  O23_23 
REMARK    5  A    between atoms: C32_32  and  N33_33 
REMARK    6  A    between atoms: C40_40  and  N41_41 
ROOT
ATOM      1  C1' 1SY d   1      39.108  22.029  23.655  0.00  0.00     0.140 C 
ATOM      2  C2' 1SY d   1      38.166  22.011  22.614  0.00  0.00     0.106 C 
ATOM      3  C3' 1SY d   1      38.930  21.232  21.653  0.00  0.00     0.106 C 
ATOM      4  C4' 1SY d   1      39.475  20.104  22.599  0.00  0.00     0.090 C 
ATOM      5  C16 1SY d   1      40.935  19.543  22.273  0.00  0.00     0.058 C 
ATOM      6  O17 1SY d   1      41.815  20.542  21.953  0.00  0.00    -0.287 OA
ATOM      7  P18 1SY d   1      43.113  20.461  21.041  0.00  0.00     0.408 P 
ATOM      8  O19 1SY d   1      43.833  21.598  21.037  0.00  0.00    -0.624 OA
ATOM      9  O20 1SY d   1      42.638  20.317  19.672  0.00  0.00    -0.277 OA
ATOM     10  C21 1SY d   1      41.714  21.097  18.981  0.00  0.00     0.120 C 
ATOM     11  C22 1SY d   1      40.912  20.059  18.245  0.00  0.00     0.092 C 
ATOM     12  C24 1SY d   1      40.325  20.794  17.232  0.00  0.00     0.089 C 
ATOM     13  C25 1SY d   1      39.043  21.023  17.929  0.00  0.00     0.058 C 
ATOM     14  O26 1SY d   1      39.059  22.019  18.837  0.00  0.00    -0.287 OA
ATOM     15  P27 1SY d   1      37.686  22.129  19.720  0.00  0.00     0.408 P 
ATOM     16  O28 1SY d   1      38.000  21.000  20.807  0.00  0.00    -0.279 OA
ATOM     17  O29 1SY d   1      36.700  21.642  19.119  0.00  0.00    -0.624 OA
ATOM     18  O30 1SY d   1      37.582  23.241  20.113  0.00  0.00    -0.624 OA
ATOM     19  O31 1SY d   1      41.012  21.990  16.957  0.00  0.00    -0.353 OA
ATOM     20  C32 1SY d   1      42.025  22.183  17.732  0.00  0.00     0.140 C 
ATOM     21  O44 1SY d   1      43.899  19.287  21.282  0.00  0.00    -0.624 OA
ATOM     22  O4' 1SY d   1      39.703  20.770  23.698  0.00  0.00    -0.353 OA
ATOM     23  H5  1SY d   1      38.547  22.102  24.599  0.00  0.00     0.122 H 
ATOM     24  H6  1SY d   1      37.923  23.010  22.222  0.00  0.00     0.093 H 
ATOM     25  H8  1SY d   1      39.764  21.765  21.173  0.00  0.00     0.092 H 
ATOM     26  H9  1SY d   1      38.747  19.286  22.704  0.00  0.00     0.090 H 
ATOM     27  H10 1SY d   1      40.865  18.847  21.424  0.00  0.00     0.079 H 
ATOM     28  H11 1SY d   1      41.314  19.007  23.156  0.00  0.00     0.079 H 
ATOM     29  H12 1SY d   1      41.120  21.632  19.736  0.00  0.00     0.095 H 
ATOM     30  H13 1SY d   1      40.110  19.739  18.927  0.00  0.00     0.091 H 
ATOM     31  H15 1SY d   1      40.207  20.217  16.303  0.00  0.00     0.090 H 
ATOM     32  H16 1SY d   1      38.765  20.093  18.447  0.00  0.00     0.079 H 
ATOM     33  H17 1SY d   1      38.281  21.263  17.173  0.00  0.00     0.079 H 
ATOM     34  H18 1SY d   1      42.982  21.930  17.253  0.00  0.00     0.123 H 
ENDROOT
BRANCH  20  35
ATOM     35  N33 1SY d   1      41.991  23.694  18.029  0.00  0.00    -0.295 N 
ATOM     36  C34 1SY d   1      41.001  24.410  18.522  0.00  0.00     0.071 A 
ATOM     37  N35 1SY d   1      41.377  25.628  18.724  0.00  0.00    -0.234 NA
ATOM     38  H19 1SY d   1      40.003  24.027  18.730  0.00  0.00     0.144 H 
ATOM     39  C37 1SY d   1      42.639  25.710  18.352  0.00  0.00     0.171 A 
ATOM     40  C36 1SY d   1      42.966  24.532  17.951  0.00  0.00     0.161 A 
ATOM     41  C38 1SY d   1      43.529  26.648  18.350  0.00  0.00     0.292 A 
ATOM     42  N42 1SY d   1      44.203  24.316  17.557  0.00  0.00    -0.174 N 
ATOM     43  C40 1SY d   1      45.098  25.182  17.500  0.00  0.00     0.680 A 
ATOM     44  H23 1SY d   1      44.451  23.357  17.274  0.00  0.00     0.186 HD
ATOM     45  N39 1SY d   1      44.881  26.441  17.920  0.00  0.00    -0.154 N 
ATOM     46  H20 1SY d   1      45.584  27.153  17.931  0.00  0.00     0.187 HD
ATOM     47  O43 1SY d   1      43.260  27.721  18.731  0.00  0.00    -0.265 OA
BRANCH  43  48
ATOM     48  N41 1SY d   1      46.214  24.610  17.037  0.00  0.00    -0.234 N 
ATOM     49  H21 1SY d   1      46.206  23.620  16.754  0.00  0.00     0.174 HD
ATOM     50  H22 1SY d   1      47.082  25.160  16.963  0.00  0.00     0.174 HD
ENDBRANCH  43  48
ENDBRANCH  20  35
BRANCH  11  51
ATOM     51  O23 1SY d   1      41.593  18.731  17.810  0.00  0.00    -0.390 OA
ATOM     52  H14 1SY d   1      41.916  18.276  18.578  0.00  0.00     0.210 HD
ENDBRANCH  11  51
BRANCH   2  53
ATOM     53  O2' 1SY d   1      36.966  21.380  23.144  0.00  0.00    -0.388 OA
ATOM     54  H7  1SY d   1      36.301  21.348  22.467  0.00  0.00     0.210 HD
ENDBRANCH   2  53
BRANCH   1  55
ATOM     55  N9  1SY d   1      39.817  23.167  23.609  0.00  0.00    -0.294 N 
ATOM     56  C4  1SY d   1      39.225  24.226  24.032  0.00  0.00     0.167 A 
ATOM     57  N3  1SY d   1      37.973  24.388  24.427  0.00  0.00    -0.222 NA
ATOM     58  C5  1SY d   1      40.059  25.176  23.958  0.00  0.00     0.149 A 
ATOM     59  C2  1SY d   1      37.586  25.585  24.824  0.00  0.00     0.091 A 
ATOM     60  N1  1SY d   1      38.442  26.577  24.752  0.00  0.00    -0.222 NA
ATOM     61  H1  1SY d   1      36.583  25.746  25.201  0.00  0.00     0.146 H 
ATOM     62  C6  1SY d   1      39.681  26.384  24.321  0.00  0.00     0.155 A 
ATOM     63  N7  1SY d   1      41.171  24.666  23.498  0.00  0.00    -0.236 NA
ATOM     64  C8  1SY d   1      41.019  23.440  23.265  0.00  0.00     0.071 A 
ATOM     65  H4  1SY d   1      41.758  22.753  22.855  0.00  0.00     0.144 H 
BRANCH  62  66
ATOM     66  N01 1SY d   1      40.492  27.307  24.229  0.00  0.00    -0.382 N 
ATOM     67  H2  1SY d   1      41.447  27.122  23.890  0.00  0.00     0.157 HD
ATOM     68  H3  1SY d   1      40.215  28.264  24.491  0.00  0.00     0.157 HD
ENDBRANCH  62  66
ENDBRANCH   1  55
TORSDOF 6
