REMARK  4 active torsions:
REMARK  status: ('A' for Active; 'I' for Inactive)
REMARK    1  A    between atoms: ND1_21  and  CA6_6 
REMARK    2  A    between atoms: CD4_24  and  CB6_12 
REMARK    3  A    between atoms: CD5_25  and  CC2_15 
REMARK    4  A    between atoms: CC4_17  and  NC7_20 
ROOT
ATOM      1  ND1 SB4 d   1       5.984  -8.149  35.880  0.00  0.00    -0.333 N 
ATOM      2  CD2 SB4 d   1       6.421  -9.073  34.987  0.00  0.00     0.067 A 
ATOM      3  ND3 SB4 d   1       7.653  -9.452  35.323  0.00  0.00    -0.241 NA
ATOM      4  CD4 SB4 d   1       7.990  -8.737  36.433  0.00  0.00     0.097 A 
ATOM      5  CD5 SB4 d   1       6.925  -7.981  36.832  0.00  0.00     0.095 A 
ATOM      6  H20 SB4 d   1       5.856  -9.444  34.134  0.00  0.00     0.143 H 
ENDROOT
BRANCH   1   7
ATOM      7  CA6 SB4 d   1       4.644  -7.481  35.864  0.00  0.00     0.021 C 
ATOM      8  CA1 SB4 d   1       3.613  -8.522  35.749  0.00  0.00    -0.023 C 
ATOM      9  CA2 SB4 d   1       2.357  -7.837  36.081  0.00  0.00     0.084 C 
ATOM     10  H1  SB4 d   1       3.578  -8.923  34.725  0.00  0.00     0.038 H 
ATOM     11  H2  SB4 d   1       3.808  -9.341  36.457  0.00  0.00     0.038 H 
ATOM     12  NA3 SB4 d   1       2.027  -6.960  34.947  0.00  0.00    -0.075 N 
ATOM     13  H3  SB4 d   1       2.484  -7.239  36.995  0.00  0.00     0.075 H 
ATOM     14  H4  SB4 d   1       1.555  -8.574  36.233  0.00  0.00     0.075 H 
ATOM     15  CA4 SB4 d   1       3.154  -6.752  34.007  0.00  0.00     0.084 C 
ATOM     16  H5  SB4 d   1       1.746  -6.063  35.310  0.00  0.00     0.277 HD
ATOM     17  H6  SB4 d   1       1.260  -7.372  34.438  0.00  0.00     0.277 HD
ATOM     18  CA5 SB4 d   1       4.462  -6.472  34.770  0.00  0.00    -0.023 C 
ATOM     19  H7  SB4 d   1       2.926  -5.895  33.356  0.00  0.00     0.075 H 
ATOM     20  H8  SB4 d   1       3.282  -7.655  33.393  0.00  0.00     0.075 H 
ATOM     21  H9  SB4 d   1       4.420  -5.464  35.208  0.00  0.00     0.038 H 
ATOM     22  H10 SB4 d   1       5.311  -6.534  34.073  0.00  0.00     0.038 H 
ATOM     23  H11 SB4 d   1       4.516  -6.958  36.823  0.00  0.00     0.073 H 
ENDBRANCH   1   7
BRANCH   5  24
ATOM     24  CC2 SB4 d   1       6.778  -7.045  37.830  0.00  0.00     0.106 A 
ATOM     25  CC1 SB4 d   1       7.851  -6.239  38.207  0.00  0.00    -0.035 A 
ATOM     26  CC6 SB4 d   1       7.696  -5.267  39.200  0.00  0.00     0.023 A 
ATOM     27  H16 SB4 d   1       8.814  -6.367  37.726  0.00  0.00     0.089 H 
ATOM     28  NC5 SB4 d   1       6.454  -5.081  39.788  0.00  0.00    -0.075 NA
ATOM     29  H17 SB4 d   1       8.541  -4.663  39.508  0.00  0.00     0.115 H 
ATOM     30  CC4 SB4 d   1       5.428  -5.870  39.405  0.00  0.00     0.720 A 
ATOM     31  NC3 SB4 d   1       5.591  -6.836  38.464  0.00  0.00    -0.061 NA
BRANCH  30  32
ATOM     32  NC7 SB4 d   1       4.253  -5.676  39.972  0.00  0.00    -0.231 N 
ATOM     33  H18 SB4 d   1       3.449  -6.260  39.703  0.00  0.00     0.174 HD
ATOM     34  H19 SB4 d   1       4.140  -4.940  40.684  0.00  0.00     0.174 HD
ENDBRANCH  30  32
ENDBRANCH   5  24
BRANCH   4  35
ATOM     35  CB6 SB4 d   1       9.171  -8.946  37.042  0.00  0.00    -0.005 A 
ATOM     36  CB1 SB4 d   1       9.260  -9.213  38.425  0.00  0.00    -0.068 A 
ATOM     37  CB2 SB4 d   1      10.499  -9.466  39.023  0.00  0.00    -0.045 A 
ATOM     38  H12 SB4 d   1       8.360  -9.222  39.029  0.00  0.00     0.085 H 
ATOM     39  CB3 SB4 d   1      11.641  -9.490  38.255  0.00  0.00     0.116 A 
ATOM     40  H13 SB4 d   1      10.560  -9.643  40.091  0.00  0.00     0.088 H 
ATOM     41  CB4 SB4 d   1      11.550  -9.287  36.863  0.00  0.00    -0.045 A 
ATOM     42  FB7 SB4 d   1      12.881  -9.743  38.784  0.00  0.00    -0.206 F 
ATOM     43  CB5 SB4 d   1      10.321  -9.035  36.281  0.00  0.00    -0.068 A 
ATOM     44  H14 SB4 d   1      12.443  -9.328  36.249  0.00  0.00     0.088 H 
ATOM     45  H15 SB4 d   1      10.259  -8.905  35.207  0.00  0.00     0.085 H 
ENDBRANCH   4  35
TORSDOF 4
