REMARK  4 active torsions:
REMARK  status: ('A' for Active; 'I' for Inactive)
REMARK    1  A    between atoms: ND1_21  and  CA6_6 
REMARK    2  A    between atoms: CD4_24  and  CB6_12 
REMARK    3  A    between atoms: CD5_25  and  CC2_15 
REMARK    4  A    between atoms: CC4_17  and  NC7_20 
ROOT
ATOM      1  ND1 SB4 d   1       6.288  -7.773  35.377  0.00  0.00    -0.333 N 
ATOM      2  CD2 SB4 d   1       6.859  -8.664  34.559  0.00  0.00     0.067 A 
ATOM      3  ND3 SB4 d   1       7.973  -9.076  35.144  0.00  0.00    -0.241 NA
ATOM      4  CD4 SB4 d   1       8.090  -8.494  36.316  0.00  0.00     0.097 A 
ATOM      5  CD5 SB4 d   1       7.045  -7.669  36.494  0.00  0.00     0.095 A 
ATOM      6  H20 SB4 d   1       6.479  -8.990  33.592  0.00  0.00     0.143 H 
ENDROOT
BRANCH   1   7
ATOM      7  CA6 SB4 d   1       5.030  -7.095  35.032  0.00  0.00     0.021 C 
ATOM      8  CA1 SB4 d   1       4.079  -8.042  34.304  0.00  0.00    -0.023 C 
ATOM      9  CA2 SB4 d   1       2.792  -7.399  34.189  0.00  0.00     0.084 C 
ATOM     10  H1  SB4 d   1       4.473  -8.265  33.302  0.00  0.00     0.038 H 
ATOM     11  H2  SB4 d   1       3.977  -8.977  34.875  0.00  0.00     0.038 H 
ATOM     12  NA3 SB4 d   1       2.958  -5.915  34.122  0.00  0.00    -0.075 N 
ATOM     13  H3  SB4 d   1       2.178  -7.656  35.065  0.00  0.00     0.075 H 
ATOM     14  H4  SB4 d   1       2.291  -7.750  33.275  0.00  0.00     0.075 H 
ATOM     15  CA4 SB4 d   1       4.105  -5.518  33.314  0.00  0.00     0.084 C 
ATOM     16  H5  SB4 d   1       3.083  -5.561  35.057  0.00  0.00     0.277 HD
ATOM     17  H6  SB4 d   1       2.125  -5.514  33.720  0.00  0.00     0.277 HD
ATOM     18  CA5 SB4 d   1       5.333  -5.942  34.132  0.00  0.00    -0.023 C 
ATOM     19  H7  SB4 d   1       4.106  -4.430  33.152  0.00  0.00     0.075 H 
ATOM     20  H8  SB4 d   1       4.091  -6.034  32.343  0.00  0.00     0.075 H 
ATOM     21  H9  SB4 d   1       5.664  -5.090  34.744  0.00  0.00     0.038 H 
ATOM     22  H10 SB4 d   1       6.138  -6.232  33.441  0.00  0.00     0.038 H 
ATOM     23  H11 SB4 d   1       4.549  -6.732  35.952  0.00  0.00     0.073 H 
ENDBRANCH   1   7
BRANCH   5  24
ATOM     24  CC2 SB4 d   1       6.835  -6.785  37.510  0.00  0.00     0.106 A 
ATOM     25  CC1 SB4 d   1       7.829  -5.849  37.737  0.00  0.00    -0.035 A 
ATOM     26  CC6 SB4 d   1       7.638  -4.888  38.713  0.00  0.00     0.023 A 
ATOM     27  H16 SB4 d   1       8.745  -5.869  37.157  0.00  0.00     0.089 H 
ATOM     28  NC5 SB4 d   1       6.480  -4.872  39.515  0.00  0.00    -0.075 NA
ATOM     29  H17 SB4 d   1       8.397  -4.129  38.864  0.00  0.00     0.115 H 
ATOM     30  CC4 SB4 d   1       5.522  -5.757  39.226  0.00  0.00     0.720 A 
ATOM     31  NC3 SB4 d   1       5.724  -6.675  38.253  0.00  0.00    -0.061 NA
BRANCH  30  32
ATOM     32  NC7 SB4 d   1       4.393  -5.700  39.965  0.00  0.00    -0.231 N 
ATOM     33  H18 SB4 d   1       3.624  -6.360  39.782  0.00  0.00     0.174 HD
ATOM     34  H19 SB4 d   1       4.301  -4.996  40.711  0.00  0.00     0.174 HD
ENDBRANCH  30  32
ENDBRANCH   5  24
BRANCH   4  35
ATOM     35  CB6 SB4 d   1       9.183  -8.675  37.065  0.00  0.00    -0.005 A 
ATOM     36  CB1 SB4 d   1       9.205  -8.791  38.448  0.00  0.00    -0.068 A 
ATOM     37  CB2 SB4 d   1      10.430  -8.964  39.073  0.00  0.00    -0.045 A 
ATOM     38  H12 SB4 d   1       8.288  -8.747  39.024  0.00  0.00     0.085 H 
ATOM     39  CB3 SB4 d   1      11.598  -8.996  38.325  0.00  0.00     0.116 A 
ATOM     40  H13 SB4 d   1      10.476  -9.075  40.150  0.00  0.00     0.088 H 
ATOM     41  CB4 SB4 d   1      11.591  -8.874  36.966  0.00  0.00    -0.045 A 
ATOM     42  FB7 SB4 d   1      12.530  -9.109  38.793  0.00  0.00    -0.206 F 
ATOM     43  CB5 SB4 d   1      10.384  -8.716  36.341  0.00  0.00    -0.068 A 
ATOM     44  H14 SB4 d   1      12.514  -8.901  36.398  0.00  0.00     0.088 H 
ATOM     45  H15 SB4 d   1      10.355  -8.620  35.262  0.00  0.00     0.085 H 
ENDBRANCH   4  35
TORSDOF 4
