REMARK  7 active torsions:
REMARK  status: ('A' for Active; 'I' for Inactive)
REMARK    1  A    between atoms: C2_2  and  C1_1 
REMARK    2  A    between atoms: N3_19  and  C2_2 
REMARK    3  A    between atoms: N6_4  and  C7_5 
REMARK       I    between atoms: C4_20  and  N6_4 
REMARK    4  A    between atoms: C9_7  and  C22_15 
REMARK    5  A    between atoms: C10_8  and  C13_10 
REMARK    6  A    between atoms: C15_12  and  C19_14 
REMARK    7  A    between atoms: C24_17  and  C27_18 
REMARK       I    between atoms: N3_19  and  C4_20 
ROOT
ATOM      1  C7  1YM d   1      15.347  30.904   4.869  0.00  0.00     0.132 A 
ATOM      2  C8  1YM d   1      15.781  29.627   5.289  0.00  0.00    -0.025 A 
ATOM      3  C9  1YM d   1      14.956  28.975   6.243  0.00  0.00     0.016 A 
ATOM      4  C10 1YM d   1      13.793  29.599   6.760  0.00  0.00     0.006 A 
ATOM      5  C11 1YM d   1      13.445  30.869   6.288  0.00  0.00     0.016 A 
ATOM      6  N12 1YM d   1      14.254  31.463   5.397  0.00  0.00    -0.242 NA
ATOM      7  H7  1YM d   1      16.688  29.173   4.907  0.00  0.00     0.090 H 
ATOM      8  H8  1YM d   1      12.543  31.362   6.634  0.00  0.00     0.116 H 
ENDROOT
BRANCH   1   9
ATOM      9  N6  1YM d   1      16.010  31.672   3.967  0.00  0.00    -0.293 N 
ATOM     10  C4  1YM d   1      17.255  31.471   3.442  0.00  0.00     0.321 C 
ATOM     11  O5  1YM d   1      17.952  30.526   3.740  0.00  0.00    -0.247 OA
ATOM     12  N3  1YM d   1      17.713  32.400   2.562  0.00  0.00    -0.343 N 
ATOM     13  H11 1YM d   1      17.113  33.160   2.311  0.00  0.00     0.164 HD
ATOM     14  H6  1YM d   1      15.527  32.487   3.647  0.00  0.00     0.172 HD
BRANCH  12  15
ATOM     15  C2  1YM d   1      19.064  32.332   1.960  0.00  0.00    -0.006 C 
ATOM     16  H4  1YM d   1      19.800  31.949   2.682  0.00  0.00     0.063 H 
ATOM     17  H5  1YM d   1      19.066  31.696   1.062  0.00  0.00     0.063 H 
BRANCH  15  18
ATOM     18  C1  1YM d   1      19.356  33.807   1.598  0.00  0.00    -0.061 C 
ATOM     19  H1  1YM d   1      20.351  33.881   1.135  0.00  0.00     0.029 H 
ATOM     20  H2  1YM d   1      19.329  34.421   2.510  0.00  0.00     0.029 H 
ATOM     21  H3  1YM d   1      18.595  34.169   0.891  0.00  0.00     0.029 H 
ENDBRANCH  15  18
ENDBRANCH  12  15
ENDBRANCH   1   9
BRANCH   3  22
ATOM     22  C22 1YM d   1      15.385  27.674   6.718  0.00  0.00     0.109 A 
ATOM     23  N23 1YM d   1      15.201  27.118   7.912  0.00  0.00    -0.236 NA
ATOM     24  C24 1YM d   1      15.747  25.931   8.118  0.00  0.00     0.148 A 
ATOM     25  C25 1YM d   1      16.534  25.313   7.179  0.00  0.00    -0.010 A 
ATOM     26  S26 1YM d   1      16.482  26.559   5.861  0.00  0.00    -0.079 SA
ATOM     27  H13 1YM d   1      17.043  24.351   7.215  0.00  0.00     0.098 H 
BRANCH  24  28
ATOM     28  C27 1YM d   1      15.478  25.239   9.423  0.00  0.00     0.435 C 
ATOM     29  F28 1YM d   1      15.582  26.058  10.549  0.00  0.00    -0.165 F 
ATOM     30  F29 1YM d   1      14.187  24.760   9.413  0.00  0.00    -0.165 F 
ATOM     31  F30 1YM d   1      16.307  24.131   9.462  0.00  0.00    -0.165 F 
ENDBRANCH  24  28
ENDBRANCH   3  22
BRANCH   4  32
ATOM     32  C13 1YM d   1      12.858  28.984   7.714  0.00  0.00    -0.005 A 
ATOM     33  C14 1YM d   1      12.440  27.660   7.491  0.00  0.00    -0.053 A 
ATOM     34  C15 1YM d   1      11.491  27.142   8.410  0.00  0.00     0.059 A 
ATOM     35  H9  1YM d   1      12.820  27.070   6.665  0.00  0.00     0.086 H 
ATOM     36  C16 1YM d   1      11.005  27.940   9.452  0.00  0.00     0.018 A 
ATOM     37  N17 1YM d   1      11.387  29.204   9.618  0.00  0.00    -0.271 NA
ATOM     38  H10 1YM d   1      10.292  27.513  10.149  0.00  0.00     0.116 H 
ATOM     39  C18 1YM d   1      12.285  29.724   8.774  0.00  0.00     0.013 A 
ATOM     40  H12 1YM d   1      12.586  30.757   8.908  0.00  0.00     0.116 H 
BRANCH  34  41
ATOM     41  C19 1YM d   1      10.988  25.746   8.302  0.00  0.00     0.210 C 
ATOM     42  O20 1YM d   1      11.178  25.013   7.333  0.00  0.00    -0.644 OA
ATOM     43  O21 1YM d   1      10.260  25.238   9.312  0.00  0.00    -0.644 OA
ENDBRANCH  34  41
ENDBRANCH   4  32
TORSDOF 7
