REMARK  29 active torsions:
REMARK  status: ('A' for Active; 'I' for Inactive)
REMARK    1  A    between atoms: CCM_1  and  CBW_2 
REMARK    2  A    between atoms: CBW_2  and  OCK_3 
REMARK    3  A    between atoms: OCK_3  and  CDH_4 
REMARK    4  A    between atoms: CCY_6  and  CCN_7 
REMARK    5  A    between atoms: CDE_16  and  NCH_17 
REMARK       I    between atoms: NCH_17  and  CCR_18 
REMARK    6  A    between atoms: CCR_18  and  CDA_20 
REMARK    7  A    between atoms: CDG_22  and  OCJ_23 
REMARK    8  A    between atoms: CDF_30  and  NCF_31 
REMARK       I    between atoms: NCF_31  and  CCQ_32 
REMARK    9  A    between atoms: CCQ_32  and  CCZ_34 
REMARK   10  A    between atoms: CCV_36  and  OAP_37 
REMARK   11  A    between atoms: CDD_44  and  NCG_45 
REMARK       I    between atoms: NCG_45  and  CCS_46 
REMARK   12  A    between atoms: CCS_46  and  CDB_48 
REMARK   13  A    between atoms: CDI_50  and  OCL_51 
REMARK   14  A    between atoms: OCL_51  and  CBX_52 
REMARK   15  A    between atoms: CBX_52  and  CDR_53 
REMARK   16  A    between atoms: CDR_53  and  CAA_54 
REMARK   17  A    between atoms: CDR_53  and  CAB_55 
REMARK   18  A    between atoms: CDC_62  and  NCE_63 
REMARK       I    between atoms: NCE_63  and  CCO_64 
REMARK       I    between atoms: CCO_64  and  NCC_66 
REMARK   19  A    between atoms: NCC_66  and  CBS_67 
REMARK   20  A    between atoms: CBS_67  and  CBQ_68 
REMARK   21  A    between atoms: CBQ_68  and  CBR_69 
REMARK   22  A    between atoms: CBR_69  and  CBU_70 
REMARK   23  A    between atoms: CBU_70  and  OCI_71 
REMARK   24  A    between atoms: OCI_71  and  CCU_72 
REMARK   25  A    between atoms: CCT_77  and  CBV_78 
REMARK   26  A    between atoms: CBV_78  and  NCD_79 
REMARK       I    between atoms: NCD_79  and  CCP_80 
REMARK   27  A    between atoms: CCP_80  and  CCW_82 
REMARK   28  A    between atoms: CCX_85  and  SDS_86 
REMARK   29  A    between atoms: SDS_86  and  NAD_89 
ROOT
ATOM      1  CDB Q4I d   1      -6.207  -2.921  67.436  0.00  0.00     0.128 A 
ATOM      2  CBN Q4I d   1      -7.130  -1.905  67.455  0.00  0.00    -0.017 A 
ATOM      3  CDI Q4I d   1      -8.372  -2.107  68.025  0.00  0.00     0.083 A 
ATOM      4  NCA Q4I d   1      -6.532  -4.098  67.966  0.00  0.00    -0.240 NA
ATOM      5  CDP Q4I d   1      -7.726  -4.292  68.548  0.00  0.00     0.097 A 
ATOM      6  CDM Q4I d   1      -8.673  -3.303  68.578  0.00  0.00     0.028 A 
ATOM      7  CBI Q4I d   1      -9.916  -3.505  69.190  0.00  0.00    -0.068 A 
ATOM      8  CAS Q4I d   1     -10.174  -4.768  69.750  0.00  0.00    -0.080 A 
ATOM      9  CAZ Q4I d   1      -9.199  -5.761  69.720  0.00  0.00    -0.055 A 
ATOM     10  CDC Q4I d   1      -7.965  -5.539  69.120  0.00  0.00     0.066 A 
ATOM     11  H   Q4I d   1      -6.884  -0.942  67.022  0.00  0.00     0.091 H 
ATOM     12  H   Q4I d   1     -10.655  -2.713  69.231  0.00  0.00     0.085 H 
ATOM     13  H   Q4I d   1     -11.136  -4.970  70.207  0.00  0.00     0.083 H 
ATOM     14  H   Q4I d   1      -9.406  -6.724  70.172  0.00  0.00     0.087 H 
ENDROOT
BRANCH   1  15
ATOM     15  CCS Q4I d   1      -4.976  -2.759  66.824  0.00  0.00     0.275 C 
ATOM     16  NCG Q4I d   1      -4.351  -3.922  66.556  0.00  0.00    -0.320 N 
ATOM     17  H   Q4I d   1      -4.817  -4.757  66.847  0.00  0.00     0.169 HD
ATOM     18  OAK Q4I d   1      -4.648  -1.621  66.494  0.00  0.00    -0.266 OA
BRANCH  16  19
ATOM     19  CDD Q4I d   1      -3.151  -4.081  65.930  0.00  0.00     0.065 A 
ATOM     20  CDN Q4I d   1      -2.820  -5.412  65.605  0.00  0.00     0.097 A 
ATOM     21  NBZ Q4I d   1      -3.700  -6.376  65.926  0.00  0.00    -0.240 NA
ATOM     22  CDJ Q4I d   1      -1.632  -5.740  64.934  0.00  0.00     0.028 A 
ATOM     23  CCZ Q4I d   1      -3.467  -7.685  65.613  0.00  0.00     0.128 A 
ATOM     24  CBK Q4I d   1      -2.260  -8.034  64.956  0.00  0.00    -0.017 A 
ATOM     25  CCV Q4I d   1      -1.311  -7.055  64.597  0.00  0.00     0.080 A 
ATOM     26  H   Q4I d   1      -2.063  -9.075  64.725  0.00  0.00     0.091 H 
ATOM     27  CBF Q4I d   1      -0.749  -4.737  64.609  0.00  0.00    -0.068 A 
ATOM     28  CAR Q4I d   1      -1.048  -3.437  64.986  0.00  0.00    -0.080 A 
ATOM     29  H   Q4I d   1       0.164  -4.959  64.068  0.00  0.00     0.085 H 
ATOM     30  CBA Q4I d   1      -2.254  -3.080  65.619  0.00  0.00    -0.055 A 
ATOM     31  H   Q4I d   1      -0.320  -2.660  64.784  0.00  0.00     0.083 H 
ATOM     32  H   Q4I d   1      -2.472  -2.045  65.856  0.00  0.00     0.087 H 
BRANCH  23  33
ATOM     33  CCQ Q4I d   1      -4.467  -8.647  65.991  0.00  0.00     0.275 C 
ATOM     34  NCF Q4I d   1      -5.753  -8.281  65.826  0.00  0.00    -0.320 N 
ATOM     35  H   Q4I d   1      -5.936  -7.463  65.280  0.00  0.00     0.169 HD
ATOM     36  OAI Q4I d   1      -4.148  -9.769  66.296  0.00  0.00    -0.266 OA
BRANCH  34  37
ATOM     37  CDF Q4I d   1      -6.827  -8.946  66.351  0.00  0.00     0.065 A 
ATOM     38  CDQ Q4I d   1      -7.987  -8.161  66.406  0.00  0.00     0.097 A 
ATOM     39  NCB Q4I d   1      -7.928  -6.915  65.903  0.00  0.00    -0.240 NA
ATOM     40  CDK Q4I d   1      -9.183  -8.631  66.950  0.00  0.00     0.028 A 
ATOM     41  CDA Q4I d   1      -8.992  -6.072  65.899  0.00  0.00     0.128 A 
ATOM     42  CBM Q4I d   1     -10.215  -6.461  66.455  0.00  0.00    -0.017 A 
ATOM     43  CDG Q4I d   1     -10.293  -7.778  66.971  0.00  0.00     0.080 A 
ATOM     44  H   Q4I d   1     -11.063  -5.787  66.489  0.00  0.00     0.091 H 
ATOM     45  CBG Q4I d   1      -9.231  -9.938  67.469  0.00  0.00    -0.068 A 
ATOM     46  CAT Q4I d   1      -8.095 -10.737  67.425  0.00  0.00    -0.080 A 
ATOM     47  H   Q4I d   1     -10.149 -10.319  67.901  0.00  0.00     0.085 H 
ATOM     48  CBC Q4I d   1      -6.892 -10.247  66.877  0.00  0.00    -0.055 A 
ATOM     49  H   Q4I d   1      -8.134 -11.747  67.816  0.00  0.00     0.083 H 
ATOM     50  H   Q4I d   1      -6.011 -10.879  66.861  0.00  0.00     0.087 H 
BRANCH  41  51
ATOM     51  CCR Q4I d   1      -8.764  -4.833  65.341  0.00  0.00     0.275 C 
ATOM     52  NCH Q4I d   1      -7.687  -4.794  64.547  0.00  0.00    -0.320 N 
ATOM     53  H   Q4I d   1      -7.314  -5.675  64.255  0.00  0.00     0.169 HD
ATOM     54  OAJ Q4I d   1      -9.639  -4.023  65.359  0.00  0.00    -0.266 OA
BRANCH  52  55
ATOM     55  CDE Q4I d   1      -7.051  -3.687  64.099  0.00  0.00     0.065 A 
ATOM     56  CDO Q4I d   1      -5.797  -3.906  63.481  0.00  0.00     0.097 A 
ATOM     57  NBY Q4I d   1      -5.359  -5.157  63.174  0.00  0.00    -0.239 NA
ATOM     58  CDL Q4I d   1      -5.034  -2.776  63.107  0.00  0.00     0.028 A 
ATOM     59  CCY Q4I d   1      -4.160  -5.263  62.522  0.00  0.00     0.136 A 
ATOM     60  CBL Q4I d   1      -3.418  -4.149  62.164  0.00  0.00    -0.015 A 
ATOM     61  CDH Q4I d   1      -3.845  -2.895  62.466  0.00  0.00     0.083 A 
ATOM     62  H   Q4I d   1      -2.481  -4.280  61.634  0.00  0.00     0.091 H 
ATOM     63  CBH Q4I d   1      -5.429  -1.458  63.380  0.00  0.00    -0.068 A 
ATOM     64  CAU Q4I d   1      -6.649  -1.285  63.994  0.00  0.00    -0.080 A 
ATOM     65  H   Q4I d   1      -4.802  -0.613  63.119  0.00  0.00     0.085 H 
ATOM     66  CBB Q4I d   1      -7.437  -2.373  64.375  0.00  0.00    -0.055 A 
ATOM     67  H   Q4I d   1      -7.006  -0.280  64.186  0.00  0.00     0.083 H 
ATOM     68  H   Q4I d   1      -8.370  -2.194  64.897  0.00  0.00     0.087 H 
BRANCH  59  69
ATOM     69  CCN Q4I d   1      -3.603  -6.470  62.151  0.00  0.00     0.229 C 
ATOM     70  OAF Q4I d   1      -2.545  -6.486  61.471  0.00  0.00    -0.643 OA
ATOM     71  OAO Q4I d   1      -4.181  -7.560  62.379  0.00  0.00    -0.643 OA
ENDBRANCH  59  69
BRANCH  61  72
ATOM     72  OCK Q4I d   1      -3.201  -1.691  62.215  0.00  0.00    -0.350 OA
BRANCH  72  73
ATOM     73  CBW Q4I d   1      -2.109  -1.695  61.242  0.00  0.00     0.023 C 
ATOM     74  H   Q4I d   1      -1.322  -2.400  61.550  0.00  0.00     0.074 H 
ATOM     75  H   Q4I d   1      -2.483  -1.975  60.246  0.00  0.00     0.074 H 
BRANCH  73  76
ATOM     76  CCM Q4I d   1      -1.554  -0.223  61.228  0.00  0.00    -0.056 C 
ATOM     77  H   Q4I d   1      -0.723  -0.151  60.511  0.00  0.00     0.030 H 
ATOM     78  H   Q4I d   1      -1.196   0.043  62.233  0.00  0.00     0.030 H 
ATOM     79  H   Q4I d   1      -2.356   0.468  60.929  0.00  0.00     0.030 H 
ENDBRANCH  73  76
ENDBRANCH  72  73
ENDBRANCH  61  72
ENDBRANCH  52  55
ENDBRANCH  41  51
BRANCH  43  80
ATOM     80  OCJ Q4I d   1     -11.442  -8.294  67.500  0.00  0.00    -0.360 OA
ATOM     81  H   Q4I d   1     -11.284  -9.186  67.788  0.00  0.00     0.217 HD
ENDBRANCH  43  80
ENDBRANCH  34  37
ENDBRANCH  23  33
BRANCH  25  82
ATOM     82  OAP Q4I d   1      -0.054  -7.290  63.921  0.00  0.00    -0.360 OA
ATOM     83  H   Q4I d   1       0.397  -6.463  63.798  0.00  0.00     0.217 HD
ENDBRANCH  25  82
ENDBRANCH  16  19
ENDBRANCH   1  15
BRANCH   3  84
ATOM     84  OCL Q4I d   1      -9.392  -1.221  68.076  0.00  0.00    -0.350 OA
BRANCH  84  85
ATOM     85  CBX Q4I d   1      -9.230   0.157  67.720  0.00  0.00     0.029 C 
ATOM     86  H   Q4I d   1      -8.166   0.421  67.805  0.00  0.00     0.075 H 
ATOM     87  H   Q4I d   1      -9.817   0.774  68.416  0.00  0.00     0.075 H 
BRANCH  85  88
ATOM     88  CDR Q4I d   1      -9.700   0.449  66.283  0.00  0.00    -0.040 C 
ATOM     89  H   Q4I d   1      -8.911   0.137  65.584  0.00  0.00     0.042 H 
BRANCH  88  90
ATOM     90  CAA Q4I d   1      -9.925   1.953  66.192  0.00  0.00    -0.071 C 
ATOM     91  H   Q4I d   1     -10.264   2.212  65.178  0.00  0.00     0.028 H 
ATOM     92  H   Q4I d   1      -8.983   2.478  66.410  0.00  0.00     0.028 H 
ATOM     93  H   Q4I d   1     -10.690   2.254  66.922  0.00  0.00     0.028 H 
ENDBRANCH  88  90
BRANCH  88  94
ATOM     94  CAB Q4I d   1     -11.014  -0.227  65.872  0.00  0.00    -0.071 C 
ATOM     95  H   Q4I d   1     -10.896  -1.319  65.924  0.00  0.00     0.028 H 
ATOM     96  H   Q4I d   1     -11.271   0.066  64.843  0.00  0.00     0.028 H 
ATOM     97  H   Q4I d   1     -11.817   0.088  66.554  0.00  0.00     0.028 H 
ENDBRANCH  88  94
ENDBRANCH  85  88
ENDBRANCH  84  85
ENDBRANCH   3  84
BRANCH  10  98
ATOM     98  NCE Q4I d   1      -6.912  -6.403  69.000  0.00  0.00    -0.307 N 
ATOM     99  CCO Q4I d   1      -6.886  -7.636  69.584  0.00  0.00     0.320 C 
ATOM    100  OAG Q4I d   1      -7.852  -8.124  70.184  0.00  0.00    -0.247 OA
ATOM    101  NCC Q4I d   1      -5.760  -8.364  69.440  0.00  0.00    -0.343 N 
ATOM    102  H   Q4I d   1      -4.969  -7.978  68.966  0.00  0.00     0.164 HD
ATOM    103  H   Q4I d   1      -6.122  -6.117  68.457  0.00  0.00     0.170 HD
BRANCH 101 104
ATOM    104  CBS Q4I d   1      -5.702  -9.744  69.990  0.00  0.00    -0.003 C 
ATOM    105  H   Q4I d   1      -5.889 -10.452  69.169  0.00  0.00     0.064 H 
ATOM    106  H   Q4I d   1      -6.490  -9.848  70.750  0.00  0.00     0.064 H 
BRANCH 104 107
ATOM    107  CBQ Q4I d   1      -4.353 -10.099  70.639  0.00  0.00    -0.048 C 
ATOM    108  H   Q4I d   1      -3.546  -9.573  70.108  0.00  0.00     0.035 H 
ATOM    109  H   Q4I d   1      -4.192 -11.185  70.568  0.00  0.00     0.035 H 
BRANCH 107 110
ATOM    110  CBR Q4I d   1      -4.340  -9.681  72.121  0.00  0.00    -0.043 C 
ATOM    111  H   Q4I d   1      -5.310  -9.926  72.578  0.00  0.00     0.036 H 
ATOM    112  H   Q4I d   1      -4.164  -8.598  72.193  0.00  0.00     0.036 H 
BRANCH 110 113
ATOM    113  CBU Q4I d   1      -3.234 -10.422  72.858  0.00  0.00     0.026 C 
ATOM    114  H   Q4I d   1      -3.042 -11.376  72.346  0.00  0.00     0.075 H 
ATOM    115  H   Q4I d   1      -3.563 -10.619  73.889  0.00  0.00     0.075 H 
BRANCH 113 116
ATOM    116  OCI Q4I d   1      -2.017  -9.661  72.895  0.00  0.00    -0.351 OA
BRANCH 116 117
ATOM    117  CCU Q4I d   1      -1.651  -8.974  74.015  0.00  0.00     0.069 A 
ATOM    118  CBJ Q4I d   1      -0.407  -8.393  73.971  0.00  0.00    -0.043 A 
ATOM    119  CCT Q4I d   1       0.078  -7.602  75.017  0.00  0.00    -0.038 A 
ATOM    120  H   Q4I d   1       0.217  -8.553  73.099  0.00  0.00     0.088 H 
ATOM    121  CAV Q4I d   1      -0.687  -7.460  76.156  0.00  0.00    -0.075 A 
ATOM    122  CAQ Q4I d   1      -1.954  -8.062  76.245  0.00  0.00    -0.080 A 
ATOM    123  H   Q4I d   1      -0.308  -6.879  76.989  0.00  0.00     0.084 H 
ATOM    124  CAW Q4I d   1      -2.438  -8.801  75.160  0.00  0.00    -0.051 A 
ATOM    125  H   Q4I d   1      -2.550  -7.955  77.144  0.00  0.00     0.083 H 
ATOM    126  H   Q4I d   1      -3.427  -9.242  75.206  0.00  0.00     0.087 H 
BRANCH 119 127
ATOM    127  CBV Q4I d   1       1.382  -6.969  74.865  0.00  0.00     0.019 C 
ATOM    128  H   Q4I d   1       1.240  -6.010  74.345  0.00  0.00     0.071 H 
ATOM    129  H   Q4I d   1       2.015  -7.628  74.253  0.00  0.00     0.071 H 
BRANCH 127 130
ATOM    130  NCD Q4I d   1       2.086  -6.704  76.137  0.00  0.00    -0.353 N 
ATOM    131  CCP Q4I d   1       2.712  -7.702  76.793  0.00  0.00     0.251 C 
ATOM    132  OAH Q4I d   1       2.714  -8.862  76.327  0.00  0.00    -0.268 OA
ATOM    133  H   Q4I d   1       2.098  -5.778  76.514  0.00  0.00     0.163 HD
BRANCH 131 134
ATOM    134  CCW Q4I d   1       3.376  -7.389  78.024  0.00  0.00     0.032 A 
ATOM    135  CAX Q4I d   1       3.412  -6.066  78.603  0.00  0.00    -0.066 A 
ATOM    136  CBD Q4I d   1       4.095  -5.844  79.805  0.00  0.00    -0.059 A 
ATOM    137  H   Q4I d   1       2.909  -5.244  78.106  0.00  0.00     0.085 H 
ATOM    138  CCX Q4I d   1       4.809  -6.851  80.411  0.00  0.00     0.079 A 
ATOM    139  H   Q4I d   1       4.060  -4.863  80.265  0.00  0.00     0.085 H 
ATOM    140  CBE Q4I d   1       4.797  -8.145  79.857  0.00  0.00    -0.059 A 
ATOM    141  CAY Q4I d   1       4.104  -8.394  78.676  0.00  0.00    -0.066 A 
ATOM    142  H   Q4I d   1       5.329  -8.950  80.352  0.00  0.00     0.085 H 
ATOM    143  H   Q4I d   1       4.128  -9.390  78.249  0.00  0.00     0.085 H 
BRANCH 138 144
ATOM    144  SDS Q4I d   1       5.685  -6.546  81.933  0.00  0.00     0.256 S 
ATOM    145  OAL Q4I d   1       4.501  -6.413  82.838  0.00  0.00    -0.201 OA
ATOM    146  OAM Q4I d   1       6.669  -7.668  82.065  0.00  0.00    -0.201 OA
BRANCH 144 147
ATOM    147  NAD Q4I d   1       6.377  -5.123  81.976  0.00  0.00    -0.324 N 
ATOM    148  H   Q4I d   1       6.897  -4.844  82.783  0.00  0.00     0.169 HD
ATOM    149  H   Q4I d   1       6.294  -4.503  81.196  0.00  0.00     0.169 HD
ENDBRANCH 144 147
ENDBRANCH 138 144
ENDBRANCH 131 134
ENDBRANCH 127 130
ENDBRANCH 119 127
ENDBRANCH 116 117
ENDBRANCH 113 116
ENDBRANCH 110 113
ENDBRANCH 107 110
ENDBRANCH 104 107
ENDBRANCH 101 104
ENDBRANCH  10  98
TORSDOF 29
