REMARK  7 active torsions:
REMARK  status: ('A' for Active; 'I' for Inactive)
REMARK    1  A    between atoms: C2_2  and  C1_1 
REMARK    2  A    between atoms: N1_16  and  C2_2 
REMARK       I    between atoms: C3_3  and  N1_16 
REMARK       I    between atoms: N2_18  and  C3_3 
REMARK    3  A    between atoms: C7_5  and  C9_7 
REMARK    4  A    between atoms: C11_9  and  C14_12 
REMARK    5  A    between atoms: C16_14  and  C6_21 
REMARK    6  A    between atoms: C17_28  and  C19_15 
REMARK    7  A    between atoms: C4_19  and  N2_18 
ROOT
ATOM      1  C7  1YP d   1      14.103  29.714   6.628  0.00  0.00     0.006 A 
ATOM      2  C8  1YP d   1      13.788  30.960   6.139  0.00  0.00     0.016 A 
ATOM      3  C4  1YP d   1      15.667  31.129   4.894  0.00  0.00     0.132 A 
ATOM      4  C5  1YP d   1      16.086  29.886   5.325  0.00  0.00    -0.025 A 
ATOM      5  C6  1YP d   1      15.304  29.165   6.209  0.00  0.00     0.016 A 
ATOM      6  N3  1YP d   1      14.527  31.686   5.301  0.00  0.00    -0.242 NA
ATOM      7  H6  1YP d   1      12.850  31.393   6.466  0.00  0.00     0.116 H 
ATOM      8  H13 1YP d   1      17.025  29.476   4.971  0.00  0.00     0.090 H 
ENDROOT
BRANCH   1   9
ATOM      9  C9  1YP d   1      13.127  29.065   7.479  0.00  0.00    -0.005 A 
ATOM     10  C10 1YP d   1      12.520  29.698   8.545  0.00  0.00    -0.059 A 
ATOM     11  C11 1YP d   1      11.566  28.991   9.246  0.00  0.00     0.012 A 
ATOM     12  H7  1YP d   1      12.783  30.713   8.821  0.00  0.00     0.086 H 
ATOM     13  C12 1YP d   1      11.246  27.704   8.889  0.00  0.00     0.012 A 
ATOM     14  N4  1YP d   1      11.807  27.062   7.865  0.00  0.00    -0.272 NA
ATOM     15  H8  1YP d   1      10.496  27.182   9.472  0.00  0.00     0.115 H 
ATOM     16  C13 1YP d   1      12.715  27.778   7.195  0.00  0.00     0.013 A 
ATOM     17  H9  1YP d   1      13.176  27.298   6.339  0.00  0.00     0.116 H 
BRANCH  11  18
ATOM     18  C14 1YP d   1      10.850  29.599  10.364  0.00  0.00     0.181 A 
ATOM     19  N5  1YP d   1      11.039  30.738  10.929  0.00  0.00    -0.149 NA
ATOM     20  N6  1YP d   1      10.069  30.742  11.867  0.00  0.00    -0.086 NA
ATOM     21  C15 1YP d   1       9.323  29.590  11.815  0.00  0.00     0.407 A 
ATOM     22  O2  1YP d   1       8.372  29.282  12.518  0.00  0.00    -0.234 OA
ATOM     23  O3  1YP d   1       9.837  28.825  10.821  0.00  0.00    -0.267 OA
ATOM     24  H10 1YP d   1      11.569  29.153  11.067  0.00  0.00     0.132 H 
ENDBRANCH  11  18
ENDBRANCH   1   9
BRANCH   5  25
ATOM     25  C16 1YP d   1      15.755  27.867   6.670  0.00  0.00     0.109 A 
ATOM     26  N7  1YP d   1      15.473  27.337   7.841  0.00  0.00    -0.236 NA
ATOM     27  C17 1YP d   1      16.038  26.094   7.964  0.00  0.00     0.148 A 
ATOM     28  C18 1YP d   1      16.760  25.676   6.871  0.00  0.00    -0.010 A 
ATOM     29  S1  1YP d   1      16.733  26.885   5.656  0.00  0.00    -0.079 SA
ATOM     30  H14 1YP d   1      17.273  24.719   6.789  0.00  0.00     0.098 H 
BRANCH  27  31
ATOM     31  C19 1YP d   1      15.815  25.341   9.204  0.00  0.00     0.435 C 
ATOM     32  F1  1YP d   1      16.444  24.136   9.180  0.00  0.00    -0.165 F 
ATOM     33  F2  1YP d   1      16.236  26.014  10.305  0.00  0.00    -0.165 F 
ATOM     34  F3  1YP d   1      14.491  25.094   9.381  0.00  0.00    -0.165 F 
ENDBRANCH  27  31
ENDBRANCH   5  25
BRANCH   3  35
ATOM     35  N2  1YP d   1      16.421  31.912   3.998  0.00  0.00    -0.293 N 
ATOM     36  C3  1YP d   1      17.643  31.609   3.439  0.00  0.00     0.321 C 
ATOM     37  N1  1YP d   1      17.948  32.525   2.460  0.00  0.00    -0.343 N 
ATOM     38  O1  1YP d   1      18.363  30.674   3.756  0.00  0.00    -0.247 OA
ATOM     39  H11 1YP d   1      17.236  33.153   2.146  0.00  0.00     0.164 HD
ATOM     40  H12 1YP d   1      16.022  32.791   3.737  0.00  0.00     0.172 HD
BRANCH  37  41
ATOM     41  C2  1YP d   1      19.261  32.609   1.873  0.00  0.00    -0.006 C 
ATOM     42  H4  1YP d   1      20.001  32.191   2.571  0.00  0.00     0.063 H 
ATOM     43  H5  1YP d   1      19.279  32.036   0.934  0.00  0.00     0.063 H 
BRANCH  41  44
ATOM     44  C1  1YP d   1      19.601  34.051   1.587  0.00  0.00    -0.061 C 
ATOM     45  H1  1YP d   1      20.604  34.109   1.139  0.00  0.00     0.029 H 
ATOM     46  H2  1YP d   1      19.585  34.625   2.525  0.00  0.00     0.029 H 
ATOM     47  H3  1YP d   1      18.862  34.470   0.888  0.00  0.00     0.029 H 
ENDBRANCH  41  44
ENDBRANCH  37  41
ENDBRANCH   3  35
TORSDOF 7
