REMARK  1 active torsions:
REMARK  status: ('A' for Active; 'I' for Inactive)
REMARK    1  A    between atoms: C3_3  and  N3A_6 
ROOT
ATOM      1  N1  3TR d   1     -18.302  -7.791  39.631  0.00  0.00    -0.152 NA
ATOM      2  N2  3TR d   1     -19.690  -8.009  39.730  0.00  0.00    -0.107 N 
ATOM      3  C3  3TR d   1     -20.188  -7.118  38.866  0.00  0.00     0.715 A 
ATOM      4  N4  3TR d   1     -19.273  -6.364  38.236  0.00  0.00    -0.055 NA
ATOM      5  C5  3TR d   1     -18.085  -6.794  38.730  0.00  0.00     0.125 A 
ATOM      6  H1  3TR d   1     -20.195  -8.685  40.320  0.00  0.00     0.208 HD
ATOM      7  H2  3TR d   1     -17.108  -6.402  38.449  0.00  0.00     0.150 H 
ENDROOT
BRANCH   3   8
ATOM      8  N3A 3TR d   1     -21.517  -6.995  38.645  0.00  0.00    -0.231 N 
ATOM      9  H3  3TR d   1     -21.865  -6.297  37.972  0.00  0.00     0.174 HD
ATOM     10  H4  3TR d   1     -22.181  -7.599  39.150  0.00  0.00     0.174 HD
ENDBRANCH   3   8
TORSDOF 1
