REMARK  6 active torsions:
REMARK  status: ('A' for Active; 'I' for Inactive)
REMARK    1  A    between atoms: P_1  and  O5'_5 
REMARK    2  A    between atoms: O5'_5  and  C5'_6 
REMARK    3  A    between atoms: C5'_6  and  C4'_7 
REMARK    4  A    between atoms: C3'_9  and  O3'_10 
REMARK    5  A    between atoms: C2'_11  and  O2'_12 
REMARK    6  A    between atoms: C1'_13  and  N9_14 
ROOT
ATOM      1  C4' AMP d   1     -31.549 141.148  18.986  0.00  0.00     0.089 C 
ATOM      2  O4' AMP d   1     -32.771 141.889  18.790  0.00  0.00    -0.353 OA
ATOM      3  C3' AMP d   1     -31.585 140.133  17.857  0.00  0.00     0.091 C 
ATOM      4  C2' AMP d   1     -33.065 139.725  17.818  0.00  0.00     0.105 C 
ATOM      5  C1' AMP d   1     -33.764 141.016  18.260  0.00  0.00     0.139 C 
ATOM      6  H3  AMP d   1     -31.581 140.614  19.947  0.00  0.00     0.090 H 
ATOM      7  H4  AMP d   1     -31.324 140.629  16.911  0.00  0.00     0.091 H 
ATOM      8  H6  AMP d   1     -33.372 139.398  16.814  0.00  0.00     0.093 H 
ATOM      9  H8  AMP d   1     -34.519 140.788  19.027  0.00  0.00     0.122 H 
ENDROOT
BRANCH   5  10
ATOM     10  N9  AMP d   1     -34.406 141.675  17.116  0.00  0.00    -0.294 N 
ATOM     11  C8  AMP d   1     -34.055 141.504  15.818  0.00  0.00     0.071 A 
ATOM     12  N7  AMP d   1     -34.832 142.281  15.012  0.00  0.00    -0.236 NA
ATOM     13  H9  AMP d   1     -33.265 140.841  15.469  0.00  0.00     0.144 H 
ATOM     14  C5  AMP d   1     -35.695 142.949  15.823  0.00  0.00     0.149 A 
ATOM     15  C6  AMP d   1     -36.788 143.932  15.668  0.00  0.00     0.155 A 
ATOM     16  C4  AMP d   1     -35.401 142.535  17.195  0.00  0.00     0.167 A 
ATOM     17  N6  AMP d   1     -37.148 144.396  14.446  0.00  0.00    -0.382 N 
ATOM     18  N1  AMP d   1     -37.420 144.365  16.783  0.00  0.00    -0.222 NA
ATOM     19  H10 AMP d   1     -37.913 145.081  14.360  0.00  0.00     0.157 HD
ATOM     20  H11 AMP d   1     -36.657 144.064  13.604  0.00  0.00     0.157 HD
ATOM     21  C2  AMP d   1     -37.089 143.935  18.013  0.00  0.00     0.091 A 
ATOM     22  N3  AMP d   1     -36.102 143.050  18.230  0.00  0.00    -0.222 NA
ATOM     23  H12 AMP d   1     -37.641 144.318  18.864  0.00  0.00     0.146 H 
ENDBRANCH   5  10
BRANCH   4  24
ATOM     24  O2' AMP d   1     -33.362 138.731  18.782  0.00  0.00    -0.388 OA
ATOM     25  H7  AMP d   1     -32.835 137.959  18.612  0.00  0.00     0.210 HD
ENDBRANCH   4  24
BRANCH   1  26
ATOM     26  C5' AMP d   1     -30.356 142.074  19.024  0.00  0.00     0.059 C 
ATOM     27  H1  AMP d   1     -29.756 141.924  18.114  0.00  0.00     0.079 H 
ATOM     28  H2  AMP d   1     -30.710 143.115  19.062  0.00  0.00     0.079 H 
BRANCH  26  29
ATOM     29  O5' AMP d   1     -29.542 141.818  20.165  0.00  0.00    -0.280 OA
BRANCH  29  30
ATOM     30  P   AMP d   1     -28.109 141.153  20.009  0.00  0.00     0.422 P 
ATOM     31  O1P AMP d   1     -27.548 141.114  21.429  0.00  0.00    -0.617 OA
ATOM     32  O2P AMP d   1     -28.439 139.808  19.386  0.00  0.00    -0.617 OA
ATOM     33  O3P AMP d   1     -27.441 142.037  18.950  0.00  0.00    -0.617 OA
ENDBRANCH  29  30
ENDBRANCH  26  29
ENDBRANCH   1  26
BRANCH   3  34
ATOM     34  O3' AMP d   1     -30.670 139.061  18.030  0.00  0.00    -0.390 OA
ATOM     35  H5  AMP d   1     -30.873 138.599  18.835  0.00  0.00     0.210 HD
ENDBRANCH   3  34
TORSDOF 6
