REMARK  10 active torsions:
REMARK  status: ('A' for Active; 'I' for Inactive)
REMARK    1  A    between atoms: C2_2  and  NA2_3 
REMARK    2  A    between atoms: C9_13  and  C6_9 
REMARK    3  A    between atoms: N10_14  and  C9_13 
REMARK    4  A    between atoms: C14_18  and  N10_14 
REMARK    5  A    between atoms: C11_15  and  C_21 
REMARK       I    between atoms: C_21  and  N_23 
REMARK    6  A    between atoms: N_23  and  CA_24 
REMARK    7  A    between atoms: CA_24  and  CB_25 
REMARK    8  A    between atoms: CA_24  and  CT_30 
REMARK    9  A    between atoms: CB_25  and  CG_26 
REMARK   10  A    between atoms: CG_26  and  CD_27 
ROOT
ATOM      1  C11 FOL d   1       7.499  21.818  -0.626  0.00  0.00     0.032 A 
ATOM      2  C12 FOL d   1       6.852  20.761   0.073  0.00  0.00    -0.066 A 
ATOM      3  C13 FOL d   1       5.766  21.030   0.920  0.00  0.00    -0.057 A 
ATOM      4  C14 FOL d   1       5.299  22.351   1.098  0.00  0.00     0.028 A 
ATOM      5  C15 FOL d   1       5.944  23.416   0.401  0.00  0.00    -0.057 A 
ATOM      6  C16 FOL d   1       7.034  23.150  -0.453  0.00  0.00    -0.066 A 
ATOM      7  H9  FOL d   1       7.200  19.742  -0.050  0.00  0.00     0.085 H 
ATOM      8  H10 FOL d   1       5.280  20.215   1.444  0.00  0.00     0.086 H 
ATOM      9  H11 FOL d   1       5.595  24.434   0.529  0.00  0.00     0.086 H 
ATOM     10  H12 FOL d   1       7.519  23.964  -0.979  0.00  0.00     0.085 H 
ENDROOT
BRANCH   4  11
ATOM     11  N10 FOL d   1       4.202  22.577   1.949  0.00  0.00    -0.384 N 
ATOM     12  H8  FOL d   1       3.395  21.936   1.951  0.00  0.00     0.160 HD
BRANCH  11  13
ATOM     13  C9  FOL d   1       4.235  23.751   2.836  0.00  0.00     0.034 C 
ATOM     14  H6  FOL d   1       5.255  23.893   3.224  0.00  0.00     0.073 H 
ATOM     15  H7  FOL d   1       3.928  24.646   2.276  0.00  0.00     0.073 H 
BRANCH  13  16
ATOM     16  C6  FOL d   1       3.291  23.522   3.974  0.00  0.00     0.070 A 
ATOM     17  N5  FOL d   1       3.750  23.015   5.134  0.00  0.00    -0.241 NA
ATOM     18  C4A FOL d   1       2.901  22.790   6.159  0.00  0.00     0.172 A 
ATOM     19  C4  FOL d   1       3.340  22.233   7.433  0.00  0.00     0.292 A 
ATOM     20  C8A FOL d   1       1.497  23.087   6.020  0.00  0.00     0.177 A 
ATOM     21  N3  FOL d   1       2.415  22.022   8.410  0.00  0.00    -0.154 N 
ATOM     22  O4  FOL d   1       4.507  21.969   7.599  0.00  0.00    -0.265 OA
ATOM     23  C2  FOL d   1       1.119  22.308   8.239  0.00  0.00     0.680 A 
ATOM     24  H4  FOL d   1       2.714  21.640   9.285  0.00  0.00     0.187 HD
ATOM     25  N1  FOL d   1       0.639  22.832   7.090  0.00  0.00    -0.172 N 
ATOM     26  H1  FOL d   1      -0.365  23.044   7.004  0.00  0.00     0.186 HD
ATOM     27  N8  FOL d   1       1.058  23.601   4.854  0.00  0.00    -0.238 NA
ATOM     28  C7  FOL d   1       1.911  23.826   3.827  0.00  0.00     0.030 A 
ATOM     29  H5  FOL d   1       1.542  24.237   2.894  0.00  0.00     0.118 H 
BRANCH  23  30
ATOM     30  NA2 FOL d   1       0.248  22.065   9.241  0.00  0.00    -0.234 N 
ATOM     31  H2  FOL d   1       0.583  21.666  10.129  0.00  0.00     0.174 HD
ATOM     32  H3  FOL d   1      -0.752  22.279   9.117  0.00  0.00     0.174 HD
ENDBRANCH  23  30
ENDBRANCH  13  16
ENDBRANCH  11  13
ENDBRANCH   4  11
BRANCH   1  33
ATOM     33  C   FOL d   1       8.647  21.525  -1.516  0.00  0.00     0.252 C 
ATOM     34  O   FOL d   1       9.032  22.357  -2.340  0.00  0.00    -0.268 OA
ATOM     35  N   FOL d   1       9.253  20.310  -1.396  0.00  0.00    -0.342 N 
ATOM     36  H13 FOL d   1       8.866  19.602  -0.805  0.00  0.00     0.163 HD
BRANCH  35  37
ATOM     37  CA  FOL d   1      10.492  20.061  -2.157  0.00  0.00     0.097 C 
ATOM     38  H14 FOL d   1      10.405  20.549  -3.139  0.00  0.00     0.089 H 
BRANCH  37  39
ATOM     39  CB  FOL d   1      11.748  20.655  -1.433  0.00  0.00    -0.028 C 
ATOM     40  H15 FOL d   1      11.885  21.695  -1.763  0.00  0.00     0.037 H 
ATOM     41  H16 FOL d   1      12.630  20.061  -1.715  0.00  0.00     0.037 H 
BRANCH  39  42
ATOM     42  CG  FOL d   1      11.612  20.639   0.113  0.00  0.00     0.018 C 
ATOM     43  H17 FOL d   1      11.484  19.600   0.450  0.00  0.00     0.049 H 
ATOM     44  H18 FOL d   1      10.730  21.230   0.401  0.00  0.00     0.049 H 
BRANCH  42  45
ATOM     45  CD  FOL d   1      12.844  21.229   0.784  0.00  0.00     0.172 C 
ATOM     46  OE1 FOL d   1      13.779  21.646   0.125  0.00  0.00    -0.648 OA
ATOM     47  OE2 FOL d   1      12.899  21.291   2.128  0.00  0.00    -0.648 OA
ENDBRANCH  42  45
ENDBRANCH  39  42
ENDBRANCH  37  39
BRANCH  37  48
ATOM     48  CT  FOL d   1      10.622  18.552  -2.370  0.00  0.00     0.196 C 
ATOM     49  O1  FOL d   1      11.341  17.873  -1.656  0.00  0.00    -0.646 OA
ATOM     50  O2  FOL d   1       9.909  17.960  -3.346  0.00  0.00    -0.646 OA
ENDBRANCH  37  48
ENDBRANCH  35  37
ENDBRANCH   1  33
TORSDOF 10
