REMARK  9 active torsions:
REMARK  status: ('A' for Active; 'I' for Inactive)
REMARK    1  A    between atoms: C9_9  and  C10_10 
REMARK    2  A    between atoms: C10_10  and  C11_11 
REMARK    3  A    between atoms: C10_10  and  C22_22 
REMARK    4  A    between atoms: C15_15  and  N17_17 
REMARK    5  A    between atoms: N17_17  and  S18_18 
REMARK    6  A    between atoms: S18_18  and  C21_21 
REMARK    7  A    between atoms: C22_22  and  C23_23 
REMARK    8  A    between atoms: C29_29  and  O30_30 
REMARK    9  A    between atoms: O30_30  and  C31_31 
ROOT
ATOM      1  C1  LSJ d   1      -9.174  14.225 -16.500  0.00  0.00     0.051 C 
ATOM      2  O2  LSJ d   1      -7.912  14.841 -16.453  0.00  0.00    -0.346 OA
ATOM      3  C3  LSJ d   1      -6.802  14.017 -16.491  0.00  0.00     0.080 A 
ATOM      4  C4  LSJ d   1      -6.785  12.665 -16.701  0.00  0.00     0.009 A 
ATOM      5  C5  LSJ d   1      -5.594  12.010 -16.719  0.00  0.00    -0.070 A 
ATOM      6  C6  LSJ d   1      -4.403  12.638 -16.508  0.00  0.00    -0.082 A 
ATOM      7  C7  LSJ d   1      -4.411  13.979 -16.288  0.00  0.00    -0.080 A 
ATOM      8  C8  LSJ d   1      -5.605  14.640 -16.282  0.00  0.00    -0.050 A 
ATOM      9  C9  LSJ d   1      -7.960  11.916 -16.982  0.00  0.00    -0.002 C 
ATOM     10  C24 LSJ d   1      -8.794  12.378 -18.062  0.00  0.00     0.017 A 
ATOM     11  C25 LSJ d   1      -9.423  13.567 -17.813  0.00  0.00    -0.020 A 
ATOM     12  C26 LSJ d   1     -10.250  14.079 -18.773  0.00  0.00    -0.074 A 
ATOM     13  C27 LSJ d   1     -10.443  13.427 -19.960  0.00  0.00    -0.080 A 
ATOM     14  C28 LSJ d   1      -9.802  12.253 -20.196  0.00  0.00    -0.050 A 
ATOM     15  C29 LSJ d   1      -8.974  11.718 -19.251  0.00  0.00     0.080 A 
ATOM     16  H   LSJ d   1      -9.948  14.988 -16.332  0.00  0.00     0.082 H 
ATOM     17  H   LSJ d   1      -9.229  13.466 -15.706  0.00  0.00     0.082 H 
ATOM     18  H   LSJ d   1      -5.591  10.943 -16.909  0.00  0.00     0.085 H 
ATOM     19  H   LSJ d   1      -3.473  12.082 -16.515  0.00  0.00     0.083 H 
ATOM     20  H   LSJ d   1      -3.484  14.515 -16.120  0.00  0.00     0.083 H 
ATOM     21  H   LSJ d   1      -5.603  15.709 -16.103  0.00  0.00     0.087 H 
ATOM     22  H   LSJ d   1     -10.761  15.017 -18.591  0.00  0.00     0.084 H 
ATOM     23  H   LSJ d   1     -11.105  13.846 -20.709  0.00  0.00     0.083 H 
ATOM     24  H   LSJ d   1      -9.948  11.738 -21.139  0.00  0.00     0.087 H 
ENDROOT
BRANCH   9  25
ATOM     25  C10 LSJ d   1      -8.313  10.813 -16.306  0.00  0.00    -0.036 C 
BRANCH  25  26
ATOM     26  C11 LSJ d   1      -9.473  10.028 -16.656  0.00  0.00    -0.027 A 
ATOM     27  C12 LSJ d   1     -10.754  10.469 -16.806  0.00  0.00    -0.072 A 
ATOM     28  C13 LSJ d   1     -11.769   9.615 -17.154  0.00  0.00    -0.080 A 
ATOM     29  H   LSJ d   1     -10.975  11.518 -16.647  0.00  0.00     0.084 H 
ATOM     30  C14 LSJ d   1     -11.555   8.283 -17.356  0.00  0.00    -0.057 A 
ATOM     31  H   LSJ d   1     -12.771  10.010 -17.272  0.00  0.00     0.083 H 
ATOM     32  C15 LSJ d   1     -10.268   7.845 -17.207  0.00  0.00     0.043 A 
ATOM     33  H   LSJ d   1     -12.361   7.608 -17.620  0.00  0.00     0.086 H 
ATOM     34  C16 LSJ d   1      -9.270   8.703 -16.869  0.00  0.00    -0.046 A 
ATOM     35  H   LSJ d   1      -8.265   8.311 -16.765  0.00  0.00     0.088 H 
BRANCH  32  36
ATOM     36  N17 LSJ d   1      -9.842   6.516 -17.346  0.00  0.00    -0.285 N 
ATOM     37  H   LSJ d   1      -9.172   6.182 -16.683  0.00  0.00     0.178 HD
BRANCH  36  38
ATOM     38  S18 LSJ d   1     -10.349   5.446 -18.513  0.00  0.00     0.227 S 
ATOM     39  O19 LSJ d   1      -9.707   4.227 -18.331  0.00  0.00    -0.206 OA
ATOM     40  O20 LSJ d   1     -11.742   5.442 -18.640  0.00  0.00    -0.206 OA
BRANCH  38  41
ATOM     41  C21 LSJ d   1      -9.648   6.207 -19.893  0.00  0.00     0.033 C 
ATOM     42  H   LSJ d   1      -9.885   5.622 -20.794  0.00  0.00     0.051 H 
ATOM     43  H   LSJ d   1      -8.557   6.261 -19.767  0.00  0.00     0.051 H 
ATOM     44  H   LSJ d   1     -10.056   7.223 -19.998  0.00  0.00     0.051 H 
ENDBRANCH  38  41
ENDBRANCH  36  38
ENDBRANCH  32  36
ENDBRANCH  25  26
BRANCH  25  45
ATOM     45  C22 LSJ d   1      -7.518  10.232 -15.214  0.00  0.00    -0.043 C 
ATOM     46  H   LSJ d   1      -6.803  10.990 -14.862  0.00  0.00     0.039 H 
ATOM     47  H   LSJ d   1      -6.969   9.363 -15.606  0.00  0.00     0.039 H 
BRANCH  45  48
ATOM     48  C23 LSJ d   1      -8.345   9.784 -14.050  0.00  0.00    -0.073 C 
ATOM     49  H   LSJ d   1      -7.689   9.362 -13.275  0.00  0.00     0.028 H 
ATOM     50  H   LSJ d   1      -9.060   9.017 -14.382  0.00  0.00     0.028 H 
ATOM     51  H   LSJ d   1      -8.894  10.643 -13.638  0.00  0.00     0.028 H 
ENDBRANCH  45  48
ENDBRANCH  25  45
ENDBRANCH   9  25
BRANCH  15  52
ATOM     52  O30 LSJ d   1      -8.309  10.556 -19.485  0.00  0.00    -0.355 OA
BRANCH  52  53
ATOM     53  C31 LSJ d   1      -8.957   9.836 -20.464  0.00  0.00     0.010 C 
ATOM     54  H   LSJ d   1      -8.414   8.897 -20.649  0.00  0.00     0.066 H 
ATOM     55  H   LSJ d   1      -8.993  10.427 -21.391  0.00  0.00     0.066 H 
ATOM     56  H   LSJ d   1      -9.982   9.608 -20.134  0.00  0.00     0.066 H 
ENDBRANCH  52  53
ENDBRANCH  15  52
TORSDOF 9
