REMARK  18 active torsions:
REMARK  status: ('A' for Active; 'I' for Inactive)
REMARK    1  A    between atoms: C_2  and  CA_1 
REMARK    2  A    between atoms: CA_1  and  CB_4 
REMARK       I    between atoms: N_22  and  C_2 
REMARK    3  A    between atoms: CB_4  and  CG_5 
REMARK    4  A    between atoms: CZ_11  and  C7_12 
REMARK    5  A    between atoms: C7_12  and  C4_21 
REMARK    6  A    between atoms: CA_28  and  N_22 
REMARK    7  A    between atoms: CB_27  and  CG_24 
REMARK    8  A    between atoms: CA_28  and  CB_27 
REMARK    9  A    between atoms: C_29  and  CA_28 
REMARK       I    between atoms: NZ_36  and  C_29 
REMARK   10  A    between atoms: CA_31  and  N_30 
REMARK       I    between atoms: N_30  and  C2_40 
REMARK   11  A    between atoms: CB_32  and  CA_31 
REMARK   12  A    between atoms: CA_31  and  C_37 
REMARK   13  A    between atoms: CG_33  and  CB_32 
REMARK   14  A    between atoms: CD_34  and  CG_33 
REMARK   15  A    between atoms: CE_35  and  CD_34 
REMARK   16  A    between atoms: CE_35  and  NZ_36 
REMARK       I    between atoms: C_37  and  NT_39 
REMARK   17  A    between atoms: C2_40  and  C4_42 
REMARK   18  A    between atoms: C5_43  and  C6_44 
ROOT
ATOM      1  CA  DFF d   1     -94.211 -67.583  25.462  0.00  0.00     0.093 C 
ATOM      2  H   DFF d   1     -94.303 -68.426  26.162  0.00  0.00     0.088 H 
ENDROOT
BRANCH   1   3
ATOM      3  N   DFF d   1     -95.538 -67.139  25.128  0.00  0.00    -0.347 N 
ATOM      4  C   PHE d   1     -96.484 -68.199  24.962  0.00  0.00     0.218 C 
ATOM      5  O   PHE d   1     -96.088 -69.328  25.119  0.00  0.00    -0.274 OA
ATOM      6  H   DFF d   1     -95.778 -66.174  25.021  0.00  0.00     0.163 HD
BRANCH   4   7
ATOM      7  CA  PHE d   1     -97.941 -67.981  24.587  0.00  0.00     0.010 C 
ATOM      8  H   PHE d   1     -98.033 -67.167  23.853  0.00  0.00     0.047 H 
ATOM      9  H   PHE d   1     -98.538 -67.740  25.479  0.00  0.00     0.047 H 
BRANCH   7  10
ATOM     10  CB  PHE d   1     -98.387 -69.277  23.992  0.00  0.00    -0.054 C 
ATOM     11  H   PHE d   1     -97.817 -70.097  24.454  0.00  0.00     0.034 H 
ATOM     12  H   PHE d   1     -98.192 -69.259  22.910  0.00  0.00     0.034 H 
BRANCH  10  13
ATOM     13  CG  PHE d   1     -99.878 -69.516  24.224  0.00  0.00    -0.054 A 
ATOM     14  CD1 PHE d   1    -100.199 -70.981  24.167  0.00  0.00    -0.062 A 
ATOM     15  CE1 PHE d   1    -101.700 -71.263  24.389  0.00  0.00    -0.065 A 
ATOM     16  H   PHE d   1     -99.623 -71.500  24.948  0.00  0.00     0.033 H 
ATOM     17  H   PHE d   1     -99.909 -71.368  23.179  0.00  0.00     0.033 H 
ATOM     18  CZ  PHE d   1    -102.633 -70.533  23.438  0.00  0.00    -0.065 A 
ATOM     19  H   PHE d   1    -101.956 -70.964  25.416  0.00  0.00     0.033 H 
ATOM     20  H   PHE d   1    -101.867 -72.344  24.269  0.00  0.00     0.033 H 
ATOM     21  CE2 PHE d   1    -101.815 -69.725  22.477  0.00  0.00    -0.065 A 
ATOM     22  H   PHE d   1    -103.295 -69.866  24.010  0.00  0.00     0.033 H 
ATOM     23  H   PHE d   1    -103.239 -71.264  22.883  0.00  0.00     0.033 H 
ATOM     24  CD2 PHE d   1    -100.681 -68.842  23.110  0.00  0.00    -0.062 A 
ATOM     25  H   PHE d   1    -101.343 -70.422  21.769  0.00  0.00     0.033 H 
ATOM     26  H   PHE d   1    -102.498 -69.056  21.933  0.00  0.00     0.033 H 
ATOM     27  H   PHE d   1     -99.982 -68.560  22.309  0.00  0.00     0.033 H 
ATOM     28  H   PHE d   1    -101.147 -67.936  23.526  0.00  0.00     0.033 H 
ATOM     29  H   PHE d   1    -100.167 -69.106  25.203  0.00  0.00     0.040 H 
ENDBRANCH  10  13
ENDBRANCH   7  10
ENDBRANCH   4   7
ENDBRANCH   1   3
BRANCH   1  30
ATOM     30  CB  DFF d   1     -93.329 -66.523  26.069  0.00  0.00    -0.014 C 
ATOM     31  H   DFF d   1     -92.291 -66.640  25.724  0.00  0.00     0.043 H 
ATOM     32  H   DFF d   1     -93.692 -65.519  25.804  0.00  0.00     0.043 H 
BRANCH  30  33
ATOM     33  CG  DFF d   1     -93.422 -66.745  27.567  0.00  0.00    -0.056 A 
ATOM     34  CD1 DFF d   1     -92.714 -67.768  28.189  0.00  0.00    -0.076 A 
ATOM     35  CE1 DFF d   1     -92.843 -67.931  29.579  0.00  0.00    -0.069 A 
ATOM     36  H   DFF d   1     -92.075 -68.427  27.613  0.00  0.00     0.084 H 
ATOM     37  CZ  DFF d   1     -93.661 -67.091  30.318  0.00  0.00     0.015 A 
ATOM     38  H   DFF d   1     -92.296 -68.723  30.079  0.00  0.00     0.085 H 
ATOM     39  CE2 DFF d   1     -94.382 -66.080  29.670  0.00  0.00    -0.069 A 
ATOM     40  CD2 DFF d   1     -94.261 -65.915  28.303  0.00  0.00    -0.076 A 
ATOM     41  H   DFF d   1     -95.034 -65.428  30.240  0.00  0.00     0.085 H 
ATOM     42  H   DFF d   1     -94.823 -65.135  27.802  0.00  0.00     0.084 H 
BRANCH  37  43
ATOM     43  C7  DFF d   1     -93.848 -67.231  31.832  0.00  0.00     0.192 C 
ATOM     44  O1  DFF d   1     -94.933 -67.606  32.254  0.00  0.00    -0.287 OA
BRANCH  43  45
ATOM     45  C4  DFF d   1     -92.748 -66.925  32.847  0.00  0.00     0.015 A 
ATOM     46  C5  DFF d   1     -92.836 -67.442  34.155  0.00  0.00    -0.069 A 
ATOM     47  C6  DFF d   1     -91.826 -67.148  35.067  0.00  0.00    -0.082 A 
ATOM     48  H   DFF d   1     -93.678 -68.060  34.447  0.00  0.00     0.085 H 
ATOM     49  C1  DFF d   1     -90.725 -66.356  34.677  0.00  0.00    -0.083 A 
ATOM     50  H   DFF d   1     -91.885 -67.529  36.080  0.00  0.00     0.083 H 
ATOM     51  C2  DFF d   1     -90.659 -65.850  33.387  0.00  0.00    -0.082 A 
ATOM     52  H   DFF d   1     -89.932 -66.143  35.385  0.00  0.00     0.083 H 
ATOM     53  C3  DFF d   1     -91.670 -66.123  32.462  0.00  0.00    -0.069 A 
ATOM     54  H   DFF d   1     -89.815 -65.237  33.094  0.00  0.00     0.083 H 
ATOM     55  H   DFF d   1     -91.619 -65.718  31.458  0.00  0.00     0.085 H 
ENDBRANCH  43  45
ENDBRANCH  37  43
ENDBRANCH  30  33
ENDBRANCH   1  30
BRANCH   1  56
ATOM     56  C   DFF d   1     -93.448 -68.012  24.232  0.00  0.00     0.240 C 
ATOM     57  O   DFF d   1     -93.271 -69.182  23.960  0.00  0.00    -0.271 OA
ATOM     58  NZ  LYN d   1     -92.905 -66.986  23.388  0.00  0.00    -0.359 N 
ATOM     59  H   LYN d   1     -93.053 -66.016  23.580  0.00  0.00     0.162 HD
BRANCH  58  60
ATOM     60  CE  LYN d   1     -92.137 -67.422  22.251  0.00  0.00    -0.005 C 
ATOM     61  H   LYN d   1     -92.681 -68.175  21.662  0.00  0.00     0.064 H 
ATOM     62  H   LYN d   1     -91.862 -66.577  21.602  0.00  0.00     0.064 H 
BRANCH  60  63
ATOM     63  CD  LYN d   1     -90.901 -68.030  22.938  0.00  0.00    -0.050 C 
ATOM     64  H   LYN d   1     -91.043 -67.961  24.026  0.00  0.00     0.035 H 
ATOM     65  H   LYN d   1     -90.829 -69.088  22.644  0.00  0.00     0.035 H 
BRANCH  63  66
ATOM     66  CG  LYN d   1     -89.566 -67.336  22.579  0.00  0.00    -0.061 C 
ATOM     67  H   LYN d   1     -89.325 -66.575  23.336  0.00  0.00     0.033 H 
ATOM     68  H   LYN d   1     -88.757 -68.080  22.537  0.00  0.00     0.033 H 
BRANCH  66  69
ATOM     69  CB  LYN d   1     -89.737 -66.668  21.199  0.00  0.00    -0.038 C 
ATOM     70  H   LYN d   1     -90.750 -66.245  21.125  0.00  0.00     0.036 H 
ATOM     71  H   LYN d   1     -88.995 -65.863  21.092  0.00  0.00     0.036 H 
BRANCH  69  72
ATOM     72  CA  LYN d   1     -89.538 -67.678  20.091  0.00  0.00     0.089 C 
ATOM     73  H   LYN d   1     -88.453 -67.812  19.972  0.00  0.00     0.087 H 
BRANCH  72  74
ATOM     74  N   LYN d   1     -90.037 -67.090  18.850  0.00  0.00    -0.344 N 
ATOM     75  C2  FUM d   1     -91.143 -66.116  18.651  0.00  0.00     0.242 C 
ATOM     76  O3  FUM d   1     -91.396 -65.739  17.526  0.00  0.00    -0.269 OA
ATOM     77  H   LYN d   1     -89.569 -67.384  18.017  0.00  0.00     0.163 HD
BRANCH  75  78
ATOM     78  C4  FUM d   1     -92.000 -65.562  19.824  0.00  0.00    -0.011 C 
ATOM     79  C5  FUM d   1     -93.333 -65.228  19.670  0.00  0.00    -0.004 C 
ATOM     80  H   FUM d   1     -93.834 -65.334  18.709  0.00  0.00     0.094 H 
ATOM     81  H   FUM d   1     -91.535 -65.433  20.800  0.00  0.00     0.092 H 
BRANCH  79  82
ATOM     82  C6  FUM d   1     -94.079 -64.704  20.899  0.00  0.00     0.198 C 
ATOM     83  O7  FUM d   1     -94.538 -65.492  21.684  0.00  0.00    -0.645 OA
ATOM     84  H   FUM d   1     -94.193 -63.632  21.061  0.00  0.00    -0.645 OA
ENDBRANCH  79  82
ENDBRANCH  75  78
ENDBRANCH  72  74
BRANCH  72  85
ATOM     85  C   LYN d   1     -90.095 -69.063  20.380  0.00  0.00     0.238 C 
ATOM     86  O   LYN d   1     -89.465 -69.925  20.972  0.00  0.00    -0.271 OA
ATOM     87  NT  LYN d   1     -91.442 -69.399  19.936  0.00  0.00    -0.368 N 
ATOM     88  H   LYN d   1     -91.817 -70.307  20.121  0.00  0.00     0.159 HD
ATOM     89  H   LYN d   1     -91.991 -68.721  19.446  0.00  0.00     0.159 HD
ENDBRANCH  72  85
ENDBRANCH  69  72
ENDBRANCH  66  69
ENDBRANCH  63  66
ENDBRANCH  60  63
ENDBRANCH  58  60
ENDBRANCH   1  56
TORSDOF 18
