REMARK  7 active torsions:
REMARK  status: ('A' for Active; 'I' for Inactive)
REMARK    1  A    between atoms: S7_13  and  C5_2 
REMARK    2  A    between atoms: C10_4  and  S7_13 
REMARK    3  A    between atoms: C16_19  and  C13_5 
REMARK    4  A    between atoms: C3_12  and  O29_29 
REMARK    5  A    between atoms: N17_20  and  C16_19 
REMARK       I    between atoms: C18_21  and  N17_20 
REMARK       I    between atoms: N22_24  and  C18_21 
REMARK    6  A    between atoms: N22_24  and  C23_25 
REMARK    7  A    between atoms: O29_29  and  C30_30 
ROOT
ATOM      1  C20 LTS d   1      14.267  10.590   2.058  0.00  0.00     0.196 C 
ATOM      2  N17 LTS d   1      16.713   9.093   2.905  0.00  0.00    -0.221 N 
ATOM      3  C18 LTS d   1      15.915   9.888   3.682  0.00  0.00     0.687 C 
ATOM      4  N19 LTS d   1      14.853  10.575   3.269  0.00  0.00    -0.126 N 
ATOM      5  N21 LTS d   1      13.774  10.617   1.046  0.00  0.00    -0.171 NA
ATOM      6  N22 LTS d   1      16.288   9.995   5.004  0.00  0.00    -0.191 N 
ATOM      7  H13 LTS d   1      17.236   8.340   3.375  0.00  0.00     0.178 HD
ATOM      8  H14 LTS d   1      14.417  11.182   3.978  0.00  0.00     0.197 HD
ATOM      9  H15 LTS d   1      17.278   9.805   5.216  0.00  0.00     0.184 HD
ENDROOT
BRANCH   2  10
ATOM     10  C16 LTS d   1      16.880   9.230   1.465  0.00  0.00     0.033 C 
ATOM     11  H11 LTS d   1      16.581  10.251   1.184  0.00  0.00     0.072 H 
ATOM     12  H12 LTS d   1      17.945   9.082   1.231  0.00  0.00     0.072 H 
BRANCH  10  13
ATOM     13  C13 LTS d   1      16.082   8.265   0.628  0.00  0.00    -0.040 A 
ATOM     14  C12 LTS d   1      15.739   6.991   1.057  0.00  0.00    -0.074 A 
ATOM     15  C11 LTS d   1      15.041   6.117   0.246  0.00  0.00    -0.061 A 
ATOM     16  H9  LTS d   1      16.026   6.673   2.053  0.00  0.00     0.084 H 
ATOM     17  C10 LTS d   1      14.666   6.523  -1.022  0.00  0.00     0.064 A 
ATOM     18  H8  LTS d   1      14.790   5.124   0.600  0.00  0.00     0.085 H 
ATOM     19  C15 LTS d   1      15.027   7.775  -1.470  0.00  0.00    -0.061 A 
ATOM     20  C14 LTS d   1      15.725   8.651  -0.655  0.00  0.00    -0.074 A 
ATOM     21  H3  LTS d   1      14.761   8.079  -2.476  0.00  0.00     0.085 H 
ATOM     22  H10 LTS d   1      15.992   9.636  -1.020  0.00  0.00     0.084 H 
BRANCH  17  23
ATOM     23  S7  LTS d   1      13.812   5.422  -2.110  0.00  0.00     0.206 S 
ATOM     24  O8  LTS d   1      12.961   6.187  -2.945  0.00  0.00    -0.217 OA
ATOM     25  O9  LTS d   1      13.356   4.289  -1.400  0.00  0.00    -0.217 OA
BRANCH  23  26
ATOM     26  C5  LTS d   1      15.167   4.876  -3.113  0.00  0.00     0.067 A 
ATOM     27  C4  LTS d   1      16.016   3.902  -2.622  0.00  0.00    -0.029 A 
ATOM     28  C3  LTS d   1      17.103   3.465  -3.370  0.00  0.00     0.079 A 
ATOM     29  H1  LTS d   1      15.832   3.474  -1.643  0.00  0.00     0.090 H 
ATOM     30  C2  LTS d   1      17.319   3.988  -4.641  0.00  0.00    -0.050 A 
ATOM     31  C1  LTS d   1      16.473   4.964  -5.142  0.00  0.00    -0.079 A 
ATOM     32  H7  LTS d   1      18.150   3.632  -5.239  0.00  0.00     0.087 H 
ATOM     33  C6  LTS d   1      15.396   5.408  -4.379  0.00  0.00    -0.062 A 
ATOM     34  H6  LTS d   1      16.649   5.381  -6.127  0.00  0.00     0.083 H 
ATOM     35  H2  LTS d   1      14.733   6.171  -4.772  0.00  0.00     0.085 H 
BRANCH  28  36
ATOM     36  O29 LTS d   1      17.920   2.490  -2.885  0.00  0.00    -0.255 OA
BRANCH  36  37
ATOM     37  C30 LTS d   1      18.702   2.683  -1.692  0.00  0.00     0.530 C 
ATOM     38  F31 LTS d   1      18.007   3.422  -0.763  0.00  0.00    -0.144 F 
ATOM     39  F32 LTS d   1      19.030   1.472  -1.097  0.00  0.00    -0.144 F 
ATOM     40  F33 LTS d   1      19.893   3.330  -1.955  0.00  0.00    -0.144 F 
ENDBRANCH  36  37
ENDBRANCH  28  36
ENDBRANCH  23  26
ENDBRANCH  17  23
ENDBRANCH  10  13
ENDBRANCH   2  10
BRANCH   6  41
ATOM     41  C23 LTS d   1      15.468  10.335   6.098  0.00  0.00     0.051 A 
ATOM     42  C24 LTS d   1      15.900   9.983   7.383  0.00  0.00    -0.040 A 
ATOM     43  C25 LTS d   1      15.139  10.312   8.487  0.00  0.00     0.004 A 
ATOM     44  H4  LTS d   1      16.835   9.450   7.511  0.00  0.00     0.089 H 
ATOM     45  N26 LTS d   1      14.002  10.973   8.382  0.00  0.00    -0.273 NA
ATOM     46  H16 LTS d   1      15.486  10.018   9.471  0.00  0.00     0.114 H 
ATOM     47  C27 LTS d   1      13.568  11.358   7.184  0.00  0.00     0.004 A 
ATOM     48  C28 LTS d   1      14.264  11.054   6.026  0.00  0.00    -0.040 A 
ATOM     49  H17 LTS d   1      12.646  11.924   7.113  0.00  0.00     0.114 H 
ATOM     50  H5  LTS d   1      13.879  11.371   5.064  0.00  0.00     0.089 H 
ENDBRANCH   6  41
TORSDOF 7
