REMARK  4 active torsions:
REMARK  status: ('A' for Active; 'I' for Inactive)
REMARK    1  A    between atoms: C01_1  and  C06_6 
REMARK    2  A    between atoms: N02_2  and  C07_7 
REMARK    3  A    between atoms: C04_4  and  C19_19 
REMARK    4  A    between atoms: C16_16  and  C18_18 
ROOT
ATOM      1  C01 1DZ d   1       5.095 -12.867 -24.059  0.00  0.00     0.071 A 
ATOM      2  N02 1DZ d   1       4.527 -12.265 -23.013  0.00  0.00    -0.233 N 
ATOM      3  N03 1DZ d   1       3.552 -13.009 -22.529  0.00  0.00    -0.160 NA
ATOM      4  C04 1DZ d   1       3.442 -14.128 -23.236  0.00  0.00     0.156 A 
ATOM      5  C05 1DZ d   1       4.426 -14.101 -24.256  0.00  0.00    -0.018 A 
ATOM      6  H1  1DZ d   1       4.623 -14.855 -25.017  0.00  0.00     0.091 H 
ENDROOT
BRANCH   2   7
ATOM      7  C07 1DZ d   1       4.893 -10.993 -22.478  0.00  0.00     0.059 A 
ATOM      8  C13 1DZ d   1       5.328 -10.889 -21.169  0.00  0.00    -0.055 A 
ATOM      9  C14 1DZ d   1       5.679  -9.651 -20.661  0.00  0.00    -0.080 A 
ATOM     10  H7  1DZ d   1       5.394 -11.773 -20.545  0.00  0.00     0.087 H 
ATOM     11  C15 1DZ d   1       5.586  -8.525 -21.463  0.00  0.00    -0.077 A 
ATOM     12  H8  1DZ d   1       6.026  -9.562 -19.638  0.00  0.00     0.083 H 
ATOM     13  C16 1DZ d   1       5.149  -8.637 -22.771  0.00  0.00    -0.060 A 
ATOM     14  H9  1DZ d   1       5.856  -7.554 -21.065  0.00  0.00     0.084 H 
ATOM     15  C17 1DZ d   1       4.802  -9.875 -23.283  0.00  0.00    -0.049 A 
ATOM     16  H10 1DZ d   1       4.461  -9.966 -24.308  0.00  0.00     0.087 H 
BRANCH  13  17
ATOM     17  C18 1DZ d   1       5.052  -7.433 -23.647  0.00  0.00    -0.051 C 
ATOM     18  H11 1DZ d   1       5.364  -6.542 -23.082  0.00  0.00     0.033 H 
ATOM     19  H12 1DZ d   1       4.013  -7.308 -23.984  0.00  0.00     0.033 H 
ATOM     20  H13 1DZ d   1       5.708  -7.561 -24.520  0.00  0.00     0.033 H 
ENDBRANCH  13  17
ENDBRANCH   2   7
BRANCH   1  21
ATOM     21  C06 1DZ d   1       6.226 -12.352 -24.885  0.00  0.00    -0.007 A 
ATOM     22  C08 1DZ d   1       6.153 -12.440 -26.266  0.00  0.00    -0.071 A 
ATOM     23  C09 1DZ d   1       7.196 -11.966 -27.047  0.00  0.00    -0.082 A 
ATOM     24  H2  1DZ d   1       5.280 -12.879 -26.736  0.00  0.00     0.084 H 
ATOM     25  C10 1DZ d   1       8.313 -11.406 -26.447  0.00  0.00    -0.083 A 
ATOM     26  H3  1DZ d   1       7.138 -12.033 -28.127  0.00  0.00     0.083 H 
ATOM     27  C11 1DZ d   1       8.385 -11.314 -25.066  0.00  0.00    -0.082 A 
ATOM     28  H4  1DZ d   1       9.130 -11.040 -27.058  0.00  0.00     0.083 H 
ATOM     29  C12 1DZ d   1       7.346 -11.794 -24.285  0.00  0.00    -0.071 A 
ATOM     30  H5  1DZ d   1       9.254 -10.867 -24.597  0.00  0.00     0.083 H 
ATOM     31  H6  1DZ d   1       7.408 -11.734 -23.204  0.00  0.00     0.084 H 
ENDBRANCH   1  21
BRANCH   4  32
ATOM     32  C19 1DZ d   1       2.462 -15.214 -22.979  0.00  0.00     0.230 C 
ATOM     33  O20 1DZ d   1       2.470 -16.260 -23.681  0.00  0.00    -0.643 OA
ATOM     34  O21 1DZ d   1       1.643 -15.065 -22.041  0.00  0.00    -0.643 OA
ENDBRANCH   4  32
TORSDOF 4
