REMARK  2 active torsions:
REMARK  status: ('A' for Active; 'I' for Inactive)
REMARK    1  A    between atoms: C02_2  and  C06_6 
REMARK    2  A    between atoms: C03_3  and  C07_7 
ROOT
ATOM      1  C07 1XS d   1      14.487  11.593  21.960  0.00  0.00    -0.001 A 
ATOM      2  C08 1XS d   1      13.455  10.345  23.728  0.00  0.00     0.073 A 
ATOM      3  C09 1XS d   1      14.568  10.616  22.943  0.00  0.00    -0.046 A 
ATOM      4  C10 1XS d   1      12.278  11.053  23.528  0.00  0.00     0.138 A 
ATOM      5  C12 1XS d   1      13.308  12.297  21.765  0.00  0.00    -0.067 A 
ATOM      6  C13 1XS d   1      12.202  12.028  22.549  0.00  0.00    -0.043 A 
ATOM      7 CL1  1XS d   1      13.527   9.132  24.958  0.00  0.00    -0.081 Cl
ATOM      8  F16 1XS d   1      11.215  10.798  24.275  0.00  0.00    -0.204 F 
ATOM      9  H3  1XS d   1      15.492  10.070  23.096  0.00  0.00     0.087 H 
ATOM     10  H4  1XS d   1      13.254  13.059  20.996  0.00  0.00     0.085 H 
ATOM     11  H5  1XS d   1      11.280  12.578  22.398  0.00  0.00     0.088 H 
ENDROOT
BRANCH   1  12
ATOM     12  C03 1XS d   1      15.639  11.928  21.079  0.00  0.00     0.086 A 
ATOM     13  O01 1XS d   1      15.669  12.986  20.304  0.00  0.00    -0.303 OA
ATOM     14  C02 1XS d   1      16.781  13.066  19.616  0.00  0.00     0.152 A 
ATOM     15  C04 1XS d   1      17.585  11.966  19.938  0.00  0.00    -0.041 A 
ATOM     16  C05 1XS d   1      16.832  11.216  20.899  0.00  0.00    -0.046 A 
ATOM     17  H1  1XS d   1      18.572  11.731  19.543  0.00  0.00     0.088 H 
ATOM     18  H2  1XS d   1      17.125  10.288  21.387  0.00  0.00     0.087 H 
BRANCH  14  19
ATOM     19  C06 1XS d   1      17.095  14.172  18.669  0.00  0.00     0.234 C 
ATOM     20  O11 1XS d   1      16.306  15.154  18.596  0.00  0.00    -0.642 OA
ATOM     21  O15 1XS d   1      18.141  14.132  17.967  0.00  0.00    -0.642 OA
ENDBRANCH  14  19
ENDBRANCH   1  12
TORSDOF 2
