REMARK  4 active torsions:
REMARK  status: ('A' for Active; 'I' for Inactive)
REMARK    1  A    between atoms: B03_1  and  O04_2 
REMARK    2  A    between atoms: B03_1  and  O05_3 
REMARK    3  A    between atoms: B03_1  and  C06_4 
REMARK    4  A    between atoms: N09_7  and  C10_8 
ROOT
ATOM      1  C06 NL9 d   1      25.644   5.502  14.922  0.00  0.00    -0.083 A 
ATOM      2  C07 NL9 d   1      25.634   6.861  14.587  0.00  0.00     0.017 A 
ATOM      3  N08 NL9 d   1      25.003   6.991  13.413  0.00  0.00    -0.181 NA
ATOM      4  N09 NL9 d   1      24.561   5.786  12.993  0.00  0.00    -0.246 N 
ATOM      5  C17 NL9 d   1      24.950   4.875  13.891  0.00  0.00    -0.000 A 
ATOM      6  H6  NL9 d   1      26.063   7.670  15.177  0.00  0.00     0.116 H 
ATOM      7  H11 NL9 d   1      24.754   3.806  13.826  0.00  0.00     0.114 H 
ENDROOT
BRANCH   4   8
ATOM      8  C10 NL9 d   1      23.832   5.585  11.872  0.00  0.00     0.059 A 
ATOM      9  C11 NL9 d   1      22.910   4.535  11.830  0.00  0.00    -0.055 A 
ATOM     10  C12 NL9 d   1      22.136   4.330  10.692  0.00  0.00    -0.079 A 
ATOM     11  H7  NL9 d   1      22.798   3.879  12.686  0.00  0.00     0.087 H 
ATOM     12  C13 NL9 d   1      22.250   5.166   9.607  0.00  0.00    -0.062 A 
ATOM     13  H8  NL9 d   1      21.436   3.503  10.661  0.00  0.00     0.083 H 
ATOM     14  C14 NL9 d   1      23.127   6.228   9.666  0.00  0.00     0.036 A 
ATOM     15  H9  NL9 d   1      21.658   4.992   8.716  0.00  0.00     0.086 H 
ATOM     16 CL1  NL9 d   1      23.265   7.297   8.292  0.00  0.00    -0.084 Cl
ATOM     17  C16 NL9 d   1      23.916   6.456  10.790  0.00  0.00    -0.034 A 
ATOM     18  H10 NL9 d   1      24.590   7.304  10.822  0.00  0.00     0.089 H 
ENDBRANCH   4   8
BRANCH   1  19
ATOM     19  B03 NL9 d   1      26.219   4.795  16.222  0.00  0.00     0.137 B 
BRANCH  19  20
ATOM     20  O04 NL9 d   1      25.165   3.803  16.638  0.00  0.00     0.000 OA
ATOM     21  H1  NL9 d   1      25.028   3.176  15.938  0.00  0.00     0.000 HD
ATOM     22  H2  NL9 d   1      25.028   3.176  15.938  0.00  0.00     0.000 HD
ENDBRANCH  19  20
BRANCH  19  23
ATOM     23  O05 NL9 d   1      26.337   5.713  17.397  0.00  0.00     0.000 OA
ATOM     24  H3  NL9 d   1      25.498   6.128  17.558  0.00  0.00     0.000 HD
ATOM     25  H4  NL9 d   1      25.498   6.128  17.558  0.00  0.00     0.000 HD
ENDBRANCH  19  23
ENDBRANCH   1  19
TORSDOF 4
