REMARK  4 active torsions:
REMARK  status: ('A' for Active; 'I' for Inactive)
REMARK    1  A    between atoms: B03_1  and  O04_2 
REMARK    2  A    between atoms: B03_1  and  O05_3 
REMARK    3  A    between atoms: B03_1  and  C06_4 
REMARK    4  A    between atoms: N09_7  and  C10_8 
ROOT
ATOM      1  C06 N95 d   1      25.258   5.062  14.909  0.00  0.00     0.004 A 
ATOM      2  C07 N95 d   1      25.491   6.367  14.425  0.00  0.00     0.025 A 
ATOM      3  N08 N95 d   1      24.840   6.475  13.256  0.00  0.00    -0.179 NA
ATOM      4  N09 N95 d   1      24.180   5.314  12.953  0.00  0.00    -0.227 N 
ATOM      5  C17 N95 d   1      24.409   4.461  13.972  0.00  0.00     0.008 A 
ATOM      6  H6  N95 d   1      26.086   7.140  14.908  0.00  0.00     0.117 H 
ATOM      7  H9  N95 d   1      23.996   3.457  14.054  0.00  0.00     0.114 H 
ENDROOT
BRANCH   4   8
ATOM      8  C10 N95 d   1      23.401   5.079  11.866  0.00  0.00     0.154 A 
ATOM      9  C11 N95 d   1      23.369   5.933  10.762  0.00  0.00     0.002 A 
ATOM     10  C12 N95 d   1      22.536   5.610   9.694  0.00  0.00     0.131 A 
ATOM     11  H7  N95 d   1      23.980   6.828  10.737  0.00  0.00     0.094 H 
ATOM     12 CL1  N95 d   1      22.468   6.640   8.287  0.00  0.00    -0.062 Cl
ATOM     13  N14 N95 d   1      21.790   4.502   9.717  0.00  0.00    -0.230 NA
ATOM     14  C15 N95 d   1      21.828   3.698  10.795  0.00  0.00     0.090 A 
ATOM     15  N16 N95 d   1      22.633   3.974  11.834  0.00  0.00    -0.222 NA
ATOM     16  H8  N95 d   1      21.200   2.815  10.825  0.00  0.00     0.146 H 
ENDBRANCH   4   8
BRANCH   1  17
ATOM     17  B03 N95 d   1      25.794   4.432  16.234  0.00  0.00     0.532 B 
BRANCH  17  18
ATOM     18  O04 N95 d   1      25.983   5.447  17.274  0.00  0.00    -0.433 OA
ATOM     19  H1  N95 d   1      26.299   5.031  18.067  0.00  0.00     0.185 HD
ENDBRANCH  17  18
BRANCH  17  20
ATOM     20  O05 N95 d   1      24.805   3.445  16.715  0.00  0.00    -0.433 OA
ATOM     21  H4  N95 d   1      24.673   2.780  16.049  0.00  0.00     0.185 HD
ENDBRANCH  17  20
ENDBRANCH   1  17
TORSDOF 4
