REMARK  11 active torsions:
REMARK  status: ('A' for Active; 'I' for Inactive)
REMARK    1  A    between atoms: B03_1  and  O04_2 
REMARK    2  A    between atoms: B03_1  and  O05_3 
REMARK    3  A    between atoms: B03_1  and  C06_4 
REMARK    4  A    between atoms: C08_6  and  C09_7 
REMARK    5  A    between atoms: C09_7  and  C10_8 
REMARK    6  A    between atoms: C09_7  and  C11_9 
REMARK    7  A    between atoms: C09_7  and  C12_10 
REMARK    8  A    between atoms: C14_12  and  C15_13 
REMARK    9  A    between atoms: C15_13  and  C16_14 
REMARK   10  A    between atoms: C15_13  and  C17_15 
REMARK   11  A    between atoms: C15_13  and  C18_16 
ROOT
ATOM      1  C06 25N d   1      26.084   5.991  15.716  0.00  0.00    -0.031 A 
ATOM      2  C07 25N d   1      25.252   5.562  14.677  0.00  0.00    -0.075 A 
ATOM      3  C08 25N d   1      24.672   6.459  13.739  0.00  0.00    -0.050 A 
ATOM      4  C13 25N d   1      24.984   7.831  13.874  0.00  0.00    -0.069 A 
ATOM      5  C14 25N d   1      25.822   8.274  14.905  0.00  0.00    -0.050 A 
ATOM      6  C19 25N d   1      26.385   7.348  15.831  0.00  0.00    -0.075 A 
ATOM      7  H6  25N d   1      25.041   4.503  14.583  0.00  0.00     0.084 H 
ATOM      8  H16 25N d   1      24.571   8.547  13.173  0.00  0.00     0.085 H 
ATOM      9  H26 25N d   1      27.043   7.696  16.619  0.00  0.00     0.084 H 
ENDROOT
BRANCH   3  10
ATOM     10  C09 25N d   1      23.732   5.954  12.610  0.00  0.00    -0.024 C 
BRANCH  10  11
ATOM     11  C10 25N d   1      22.358   6.516  12.925  0.00  0.00    -0.066 C 
ATOM     12  H7  25N d   1      21.643   6.190  12.155  0.00  0.00     0.028 H 
ATOM     13  H8  25N d   1      22.406   7.615  12.940  0.00  0.00     0.028 H 
ATOM     14  H9  25N d   1      22.029   6.150  13.909  0.00  0.00     0.028 H 
ENDBRANCH  10  11
BRANCH  10  15
ATOM     15  C11 25N d   1      23.564   4.433  12.583  0.00  0.00    -0.066 C 
ATOM     16  H10 25N d   1      24.532   3.961  12.358  0.00  0.00     0.028 H 
ATOM     17  H11 25N d   1      22.833   4.159  11.808  0.00  0.00     0.028 H 
ATOM     18  H12 25N d   1      23.206   4.086  13.564  0.00  0.00     0.028 H 
ENDBRANCH  10  15
BRANCH  10  19
ATOM     19  C12 25N d   1      24.171   6.452  11.247  0.00  0.00    -0.066 C 
ATOM     20  H13 25N d   1      24.289   7.545  11.277  0.00  0.00     0.028 H 
ATOM     21  H14 25N d   1      23.412   6.185  10.497  0.00  0.00     0.028 H 
ATOM     22  H15 25N d   1      25.131   5.987  10.978  0.00  0.00     0.028 H 
ENDBRANCH  10  19
ENDBRANCH   3  10
BRANCH   1  23
ATOM     23  B03 25N d   1      26.640   4.998  16.817  0.00  0.00     0.529 B 
BRANCH  23  24
ATOM     24  O04 25N d   1      26.764   5.688  18.112  0.00  0.00    -0.433 OA
ATOM     25  H1  25N d   1      25.913   6.018  18.376  0.00  0.00     0.185 HD
ENDBRANCH  23  24
BRANCH  23  26
ATOM     26  O05 25N d   1      25.676   3.888  17.036  0.00  0.00    -0.433 OA
ATOM     27  H3  25N d   1      24.842   4.245  17.317  0.00  0.00     0.185 HD
ENDBRANCH  23  26
ENDBRANCH   1  23
BRANCH   5  28
ATOM     28  C15 25N d   1      26.148   9.780  15.076  0.00  0.00    -0.024 C 
BRANCH  28  29
ATOM     29  C16 25N d   1      25.815  10.273  16.463  0.00  0.00    -0.066 C 
ATOM     30  H17 25N d   1      26.061  11.342  16.541  0.00  0.00     0.028 H 
ATOM     31  H18 25N d   1      26.400   9.707  17.203  0.00  0.00     0.028 H 
ATOM     32  H19 25N d   1      24.742  10.129  16.656  0.00  0.00     0.028 H 
ENDBRANCH  28  29
BRANCH  28  33
ATOM     33  C17 25N d   1      25.370  10.629  14.080  0.00  0.00    -0.066 C 
ATOM     34  H20 25N d   1      25.594  10.291  13.057  0.00  0.00     0.028 H 
ATOM     35  H21 25N d   1      25.662  11.684  14.190  0.00  0.00     0.028 H 
ATOM     36  H22 25N d   1      24.292  10.525  14.273  0.00  0.00     0.028 H 
ENDBRANCH  28  33
BRANCH  28  37
ATOM     37  C18 25N d   1      27.633   9.979  14.906  0.00  0.00    -0.066 C 
ATOM     38  H23 25N d   1      28.172   9.356  15.635  0.00  0.00     0.028 H 
ATOM     39  H24 25N d   1      27.883  11.037  15.072  0.00  0.00     0.028 H 
ATOM     40  H25 25N d   1      27.928   9.688  13.887  0.00  0.00     0.028 H 
ENDBRANCH  28  37
ENDBRANCH   5  28
TORSDOF 11
