REMARK  2 active torsions:
REMARK  status: ('A' for Active; 'I' for Inactive)
REMARK    1  A    between atoms: C02_2  and  C04_4 
REMARK    2  A    between atoms: C11_11  and  O12_12 
ROOT
ATOM      1  C04 8HC d   1      12.733 158.407  21.025  0.00  0.00     0.134 A 
ATOM      2  N05 8HC d   1      13.400 157.749  21.953  0.00  0.00    -0.238 NA
ATOM      3  C06 8HC d   1      14.301 156.796  21.677  0.00  0.00     0.101 A 
ATOM      4  C07 8HC d   1      14.567 156.450  20.376  0.00  0.00    -0.004 A 
ATOM      5  C08 8HC d   1      15.530 155.435  20.145  0.00  0.00    -0.071 A 
ATOM      6  C09 8HC d   1      16.167 154.825  21.235  0.00  0.00    -0.079 A 
ATOM      7  C10 8HC d   1      15.868 155.205  22.555  0.00  0.00    -0.049 A 
ATOM      8  C11 8HC d   1      14.922 156.198  22.778  0.00  0.00     0.095 A 
ATOM      9  C13 8HC d   1      13.868 157.129  19.329  0.00  0.00    -0.068 A 
ATOM     10  C14 8HC d   1      12.933 158.132  19.667  0.00  0.00    -0.048 A 
ATOM     11  H   8HC d   1      15.772 155.133  19.133  0.00  0.00     0.084 H 
ATOM     12  H   8HC d   1      16.902 154.048  21.057  0.00  0.00     0.083 H 
ATOM     13  H   8HC d   1      16.370 154.729  23.390  0.00  0.00     0.087 H 
ATOM     14  H   8HC d   1      14.053 156.877  18.291  0.00  0.00     0.085 H 
ATOM     15  H   8HC d   1      12.388 158.671  18.900  0.00  0.00     0.087 H 
ENDROOT
BRANCH   1  16
ATOM     16  C02 8HC d   1      11.783 159.419  21.563  0.00  0.00     0.229 C 
ATOM     17  O01 8HC d   1      11.065 160.051  20.751  0.00  0.00    -0.643 OA
ATOM     18  O03 8HC d   1      11.700 159.589  22.836  0.00  0.00    -0.643 OA
ENDBRANCH   1  16
BRANCH   8  19
ATOM     19  O12 8HC d   1      14.528 156.681  24.011  0.00  0.00    -0.358 OA
ATOM     20  H   8HC d   1      13.870 157.355  23.890  0.00  0.00     0.217 HD
ENDBRANCH   8  19
TORSDOF 2
