REMARK  2 active torsions:
REMARK  status: ('A' for Active; 'I' for Inactive)
REMARK    1  A    between atoms: C02_2  and  C06_6 
REMARK    2  A    between atoms: C03_3  and  C07_7 
ROOT
ATOM      1  C07 1XS d   1     -14.303 -11.309  22.204  0.00  0.00    -0.001 A 
ATOM      2  C08 1XS d   1     -11.959 -11.696  22.639  0.00  0.00     0.073 A 
ATOM      3  C09 1XS d   1     -13.113 -11.962  21.925  0.00  0.00    -0.046 A 
ATOM      4  C10 1XS d   1     -11.967 -10.761  23.665  0.00  0.00     0.138 A 
ATOM      5  C12 1XS d   1     -14.332 -10.362  23.228  0.00  0.00    -0.067 A 
ATOM      6  C13 1XS d   1     -13.183 -10.074  23.964  0.00  0.00    -0.043 A 
ATOM      7 CL1  1XS d   1     -10.518 -12.556  22.235  0.00  0.00    -0.081 Cl
ATOM      8  F16 1XS d   1     -10.850 -10.518  24.345  0.00  0.00    -0.204 F 
ATOM      9  H3  1XS d   1     -13.086 -12.698  21.129  0.00  0.00     0.087 H 
ATOM     10  H4  1XS d   1     -15.257  -9.845  23.454  0.00  0.00     0.085 H 
ATOM     11  H5  1XS d   1     -13.213  -9.335  24.756  0.00  0.00     0.088 H 
ENDROOT
BRANCH   1  12
ATOM     12  C03 1XS d   1     -15.477 -11.669  21.355  0.00  0.00     0.086 A 
ATOM     13  O01 1XS d   1     -15.500 -12.822  20.545  0.00  0.00    -0.303 OA
ATOM     14  C02 1XS d   1     -16.729 -12.867  19.861  0.00  0.00     0.152 A 
ATOM     15  C04 1XS d   1     -17.437 -11.773  20.233  0.00  0.00    -0.041 A 
ATOM     16  C05 1XS d   1     -16.634 -11.010  21.176  0.00  0.00    -0.046 A 
ATOM     17  H1  1XS d   1     -18.435 -11.510  19.886  0.00  0.00     0.088 H 
ATOM     18  H2  1XS d   1     -16.919 -10.073  21.651  0.00  0.00     0.087 H 
BRANCH  14  19
ATOM     19  C06 1XS d   1     -17.124 -13.950  18.913  0.00  0.00     0.234 C 
ATOM     20  O11 1XS d   1     -16.360 -14.947  18.756  0.00  0.00    -0.642 OA
ATOM     21  O15 1XS d   1     -18.205 -13.871  18.267  0.00  0.00    -0.642 OA
ENDBRANCH  14  19
ENDBRANCH   1  12
TORSDOF 2
