REMARK  8 active torsions:
REMARK  status: ('A' for Active; 'I' for Inactive)
REMARK    1  A    between atoms: C03_3  and  C07_7 
REMARK    2  A    between atoms: N04_4  and  C06_6 
REMARK    3  A    between atoms: C17_17  and  C20_20 
REMARK    4  A    between atoms: C20_20  and  N21_21 
REMARK    5  A    between atoms: N21_21  and  C22_22 
REMARK    6  A    between atoms: C22_22  and  C23_23 
REMARK    7  A    between atoms: C26_26  and  C30_30 
REMARK    8  A    between atoms: C33_33  and  C35_35 
ROOT
ATOM      1  C07 1XU d   1      -1.746  11.557   0.343  0.00  0.00    -0.007 A 
ATOM      2  C15 1XU d   1      -0.539  11.201  -0.226  0.00  0.00    -0.070 A 
ATOM      3  C16 1XU d   1       0.649  11.437   0.458  0.00  0.00    -0.074 A 
ATOM      4  C17 1XU d   1       0.612  12.040   1.721  0.00  0.00    -0.041 A 
ATOM      5  C18 1XU d   1      -0.612  12.414   2.299  0.00  0.00    -0.074 A 
ATOM      6  C19 1XU d   1      -1.777  12.181   1.620  0.00  0.00    -0.070 A 
ATOM      7  H6  1XU d   1      -0.517  10.738  -1.206  0.00  0.00     0.084 H 
ATOM      8  H7  1XU d   1       1.598  11.156   0.016  0.00  0.00     0.084 H 
ATOM      9  H8  1XU d   1      -0.634  12.884   3.276  0.00  0.00     0.084 H 
ATOM     10  H9  1XU d   1      -2.725  12.473   2.057  0.00  0.00     0.084 H 
ENDROOT
BRANCH   4  11
ATOM     11  C20 1XU d   1       1.952  12.332   2.521  0.00  0.00     0.017 C 
ATOM     12  H10 1XU d   1       1.832  12.010   3.566  0.00  0.00     0.071 H 
ATOM     13  H11 1XU d   1       2.168  13.410   2.492  0.00  0.00     0.071 H 
BRANCH  11  14
ATOM     14  N21 1XU d   1       3.048  11.606   1.917  0.00  0.00    -0.376 N 
ATOM     15  H12 1XU d   1       3.350  11.686   0.967  0.00  0.00     0.160 HD
BRANCH  14  16
ATOM     16  C22 1XU d   1       3.636  10.740   2.926  0.00  0.00     0.108 C 
ATOM     17  S29 1XU d   1       2.965  10.526   4.432  0.00  0.00    -0.060 SA
BRANCH  16  18
ATOM     18  C23 1XU d   1       4.714   9.762   2.519  0.00  0.00     0.023 A 
ATOM     19  C24 1XU d   1       6.024   9.881   3.110  0.00  0.00    -0.068 A 
ATOM     20  C25 1XU d   1       7.001   8.997   2.755  0.00  0.00    -0.069 A 
ATOM     21  H13 1XU d   1       6.231  10.665   3.829  0.00  0.00     0.085 H 
ATOM     22  C26 1XU d   1       6.682   7.999   1.824  0.00  0.00    -0.001 A 
ATOM     23  H14 1XU d   1       7.995   9.065   3.181  0.00  0.00     0.085 H 
ATOM     24  C27 1XU d   1       5.364   7.888   1.228  0.00  0.00    -0.048 A 
ATOM     25  C28 1XU d   1       4.403   8.745   1.569  0.00  0.00     0.048 A 
ATOM     26  H15 1XU d   1       5.161   7.107   0.504  0.00  0.00     0.087 H 
ATOM     27 CL3  1XU d   1       2.898   8.585   0.868  0.00  0.00    -0.083 Cl
BRANCH  22  28
ATOM     28  C30 1XU d   1       7.682   6.962   1.337  0.00  0.00     0.086 A 
ATOM     29  C31 1XU d   1       8.862   6.479   1.920  0.00  0.00    -0.046 A 
ATOM     30  C32 1XU d   1       9.366   5.490   0.971  0.00  0.00    -0.041 A 
ATOM     31  H16 1XU d   1       9.305   6.776   2.870  0.00  0.00     0.087 H 
ATOM     32  C33 1XU d   1       8.411   5.487  -0.082  0.00  0.00     0.152 A 
ATOM     33  H17 1XU d   1      10.271   4.889   1.052  0.00  0.00     0.088 H 
ATOM     34  O34 1XU d   1       7.469   6.341   0.174  0.00  0.00    -0.303 OA
BRANCH  32  35
ATOM     35  C35 1XU d   1       8.391   4.686  -1.332  0.00  0.00     0.234 C 
ATOM     36  O36 1XU d   1       9.257   3.837  -1.551  0.00  0.00    -0.642 OA
ATOM     37  O37 1XU d   1       7.451   4.920  -2.160  0.00  0.00    -0.642 OA
ENDBRANCH  32  35
ENDBRANCH  22  28
ENDBRANCH  16  18
ENDBRANCH  14  16
ENDBRANCH  11  14
ENDBRANCH   4  11
BRANCH   1  38
ATOM     38  C03 1XU d   1      -3.057  11.326  -0.390  0.00  0.00     0.070 A 
ATOM     39  C02 1XU d   1      -3.307  11.689  -1.747  0.00  0.00    -0.036 A 
ATOM     40  C01 1XU d   1      -4.601  11.319  -1.949  0.00  0.00     0.024 A 
ATOM     41  H2  1XU d   1      -2.623  12.153  -2.455  0.00  0.00     0.089 H 
ATOM     42  N05 1XU d   1      -5.053  10.807  -0.821  0.00  0.00    -0.179 NA
ATOM     43  H1  1XU d   1      -5.162  11.427  -2.876  0.00  0.00     0.117 H 
ATOM     44  N04 1XU d   1      -4.149  10.821   0.082  0.00  0.00    -0.234 N 
BRANCH  44  45
ATOM     45  C06 1XU d   1      -4.381  10.320   1.416  0.00  0.00     0.060 A 
ATOM     46  C08 1XU d   1      -5.112  11.109   2.348  0.00  0.00    -0.053 A 
ATOM     47  C09 1XU d   1      -5.355  10.653   3.607  0.00  0.00    -0.058 A 
ATOM     48  H3  1XU d   1      -5.480  12.085   2.051  0.00  0.00     0.087 H 
ATOM     49  C10 1XU d   1      -4.875   9.385   3.987  0.00  0.00     0.055 A 
ATOM     50  H4  1XU d   1      -5.913  11.260   4.311  0.00  0.00     0.086 H 
ATOM     51  C11 1XU d   1      -4.139   8.583   3.047  0.00  0.00     0.058 A 
ATOM     52 CL2  1XU d   1      -5.163   8.773   5.563  0.00  0.00    -0.083 Cl
ATOM     53  C12 1XU d   1      -3.899   9.027   1.804  0.00  0.00    -0.033 A 
ATOM     54 CL1  1XU d   1      -3.548   6.979   3.575  0.00  0.00    -0.082 Cl
ATOM     55  H5  1XU d   1      -3.346   8.415   1.101  0.00  0.00     0.089 H 
ENDBRANCH  44  45
ENDBRANCH   1  38
TORSDOF 8
