REMARK  8 active torsions:
REMARK  status: ('A' for Active; 'I' for Inactive)
REMARK    1  A    between atoms: C01_1  and  O08_8 
REMARK    2  A    between atoms: C03_3  and  O07_7 
REMARK    3  A    between atoms: C04_4  and  C10_10 
REMARK    4  A    between atoms: C13_13  and  N16_16 
REMARK    5  A    between atoms: C14_14  and  C15_15 
REMARK       I    between atoms: N16_16  and  C17_17 
REMARK    6  A    between atoms: C17_17  and  C18_18 
REMARK    7  A    between atoms: C22_22  and  O25_25 
REMARK    8  A    between atoms: O25_25  and  C26_26 
ROOT
ATOM      1  C10 FJ2 d   1       0.455 -35.025 -26.427  0.00  0.00     0.113 A 
ATOM      2  N11 FJ2 d   1       1.154 -34.865 -27.551  0.00  0.00    -0.125 NA
ATOM      3  O12 FJ2 d   1       0.823 -35.795 -28.431  0.00  0.00    -0.194 OA
ATOM      4  C13 FJ2 d   1      -0.089 -36.598 -27.963  0.00  0.00     0.189 A 
ATOM      5  C14 FJ2 d   1      -0.420 -36.171 -26.638  0.00  0.00     0.059 A 
ENDROOT
BRANCH   5   6
ATOM      6  C15 FJ2 d   1      -1.400 -36.753 -25.684  0.00  0.00    -0.019 A 
ATOM      7  C20 FJ2 d   1      -2.729 -36.838 -26.061  0.00  0.00    -0.069 A 
ATOM      8  C21 FJ2 d   1      -3.670 -37.385 -25.195  0.00  0.00    -0.050 A 
ATOM      9  H9  FJ2 d   1      -3.038 -36.477 -27.035  0.00  0.00     0.085 H 
ATOM     10  C22 FJ2 d   1      -3.289 -37.855 -23.949  0.00  0.00     0.068 A 
ATOM     11  H10 FJ2 d   1      -4.709 -37.444 -25.497  0.00  0.00     0.087 H 
ATOM     12  C23 FJ2 d   1      -1.948 -37.788 -23.560  0.00  0.00    -0.050 A 
ATOM     13  C24 FJ2 d   1      -1.008 -37.239 -24.435  0.00  0.00    -0.069 A 
ATOM     14  H11 FJ2 d   1      -1.641 -38.158 -22.589  0.00  0.00     0.087 H 
ATOM     15  H12 FJ2 d   1       0.035 -37.190 -24.142  0.00  0.00     0.085 H 
BRANCH  10  16
ATOM     16  O25 FJ2 d   1      -4.251 -38.361 -23.098  0.00  0.00    -0.356 OA
BRANCH  16  17
ATOM     17  C26 FJ2 d   1      -3.899 -38.779 -21.832  0.00  0.00     0.010 C 
ATOM     18  H13 FJ2 d   1      -4.792 -39.148 -21.306  0.00  0.00     0.066 H 
ATOM     19  H14 FJ2 d   1      -3.467 -37.935 -21.274  0.00  0.00     0.066 H 
ATOM     20  H15 FJ2 d   1      -3.157 -39.588 -21.906  0.00  0.00     0.066 H 
ENDBRANCH  16  17
ENDBRANCH  10  16
ENDBRANCH   5   6
BRANCH   1  21
ATOM     21  C04 FJ2 d   1       0.494 -34.198 -25.200  0.00  0.00     0.031 A 
ATOM     22  C03 FJ2 d   1       1.687 -33.902 -24.572  0.00  0.00     0.081 A 
ATOM     23  C02 FJ2 d   1       1.695 -33.182 -23.390  0.00  0.00    -0.017 A 
ATOM     24  C01 FJ2 d   1       0.495 -32.749 -22.833  0.00  0.00     0.090 A 
ATOM     25  H1  FJ2 d   1       2.634 -32.956 -22.899  0.00  0.00     0.092 H 
ATOM     26  C06 FJ2 d   1      -0.689 -33.031 -23.481  0.00  0.00     0.068 A 
ATOM     27  C05 FJ2 d   1      -0.702 -33.752 -24.665  0.00  0.00    -0.044 A 
ATOM     28 CL9  FJ2 d   1      -2.159 -32.367 -22.860  0.00  0.00    -0.081 Cl
ATOM     29  H2  FJ2 d   1      -1.639 -33.964 -25.167  0.00  0.00     0.087 H 
BRANCH  22  30
ATOM     30  O07 FJ2 d   1       2.860 -34.280 -25.178  0.00  0.00    -0.360 OA
ATOM     31  H3  FJ2 d   1       3.595 -34.014 -24.638  0.00  0.00     0.217 HD
ENDBRANCH  22  30
BRANCH  24  32
ATOM     32  O08 FJ2 d   1       0.485 -32.086 -21.622  0.00  0.00    -0.359 OA
ATOM     33  H4  FJ2 d   1       1.377 -31.974 -21.317  0.00  0.00     0.217 HD
ENDBRANCH  24  32
ENDBRANCH   1  21
BRANCH   4  34
ATOM     34  N16 FJ2 d   1      -0.717 -37.655 -28.677  0.00  0.00    -0.305 N 
ATOM     35  C17 FJ2 d   1      -0.869 -38.957 -28.124  0.00  0.00     0.219 C 
ATOM     36  O19 FJ2 d   1      -0.259 -39.270 -27.105  0.00  0.00    -0.274 OA
ATOM     37  H5  FJ2 d   1      -1.063 -37.477 -29.598  0.00  0.00     0.171 HD
BRANCH  35  38
ATOM     38  C18 FJ2 d   1      -1.589 -39.975 -28.939  0.00  0.00    -0.002 C 
ATOM     39  H6  FJ2 d   1      -1.629 -40.926 -28.387  0.00  0.00     0.040 H 
ATOM     40  H7  FJ2 d   1      -1.058 -40.125 -29.890  0.00  0.00     0.040 H 
ATOM     41  H8  FJ2 d   1      -2.612 -39.626 -29.141  0.00  0.00     0.040 H 
ENDBRANCH  35  38
ENDBRANCH   4  34
TORSDOF 8
