REMARK  11 active torsions:
REMARK  status: ('A' for Active; 'I' for Inactive)
REMARK    1  A    between atoms: C01_1  and  C10_10 
REMARK    2  A    between atoms: C03_3  and  C09_9 
REMARK    3  A    between atoms: C04_4  and  O08_8 
REMARK    4  A    between atoms: C06_6  and  O07_7 
REMARK    5  A    between atoms: C09_9  and  C11_11 
REMARK    6  A    between atoms: C09_9  and  C12_12 
REMARK    7  A    between atoms: C15_15  and  N25_25 
REMARK    8  A    between atoms: C16_16  and  C17_17 
REMARK    9  A    between atoms: C20_20  and  C23_23 
REMARK   10  A    between atoms: C23_23  and  N24_24 
REMARK       I    between atoms: N25_25  and  C26_26 
REMARK   11  A    between atoms: C26_26  and  C28_28 
ROOT
ATOM      1  C10 FJ5 d   1       1.626 -34.880 -26.333  0.00  0.00     0.113 A 
ATOM      2  N13 FJ5 d   1       2.318 -34.729 -27.450  0.00  0.00    -0.125 NA
ATOM      3  O14 FJ5 d   1       2.040 -35.731 -28.285  0.00  0.00    -0.194 OA
ATOM      4  C15 FJ5 d   1       1.181 -36.583 -27.778  0.00  0.00     0.189 A 
ATOM      5  C16 FJ5 d   1       0.843 -36.108 -26.472  0.00  0.00     0.059 A 
ENDROOT
BRANCH   5   6
ATOM      6  C17 FJ5 d   1      -0.071 -36.621 -25.411  0.00  0.00    -0.019 A 
ATOM      7  C18 FJ5 d   1      -1.474 -36.643 -25.622  0.00  0.00    -0.071 A 
ATOM      8  C19 FJ5 d   1      -2.307 -37.098 -24.588  0.00  0.00    -0.074 A 
ATOM      9  H12 FJ5 d   1      -1.895 -36.314 -26.565  0.00  0.00     0.084 H 
ATOM     10  C20 FJ5 d   1      -1.761 -37.516 -23.360  0.00  0.00    -0.033 A 
ATOM     11  H13 FJ5 d   1      -3.380 -37.128 -24.737  0.00  0.00     0.084 H 
ATOM     12  C21 FJ5 d   1      -0.366 -37.471 -23.135  0.00  0.00    -0.074 A 
ATOM     13  C22 FJ5 d   1       0.467 -37.014 -24.169  0.00  0.00    -0.071 A 
ATOM     14  H14 FJ5 d   1       0.052 -37.783 -22.184  0.00  0.00     0.084 H 
ATOM     15  H15 FJ5 d   1       1.538 -36.963 -24.010  0.00  0.00     0.084 H 
BRANCH  10  16
ATOM     16  C23 FJ5 d   1      -2.699 -37.959 -22.239  0.00  0.00     0.107 C 
ATOM     17  H16 FJ5 d   1      -3.712 -37.592 -22.458  0.00  0.00     0.083 H 
ATOM     18  H17 FJ5 d   1      -2.349 -37.525 -21.291  0.00  0.00     0.083 H 
BRANCH  16  19
ATOM     19  N24 FJ5 d   1      -2.742 -39.393 -22.107  0.00  0.00    -0.063 N 
ATOM     20  C31 FJ5 d   1      -3.355 -40.081 -23.175  0.00  0.00     0.103 C 
ATOM     21  C32 FJ5 d   1      -3.874 -41.447 -22.889  0.00  0.00     0.042 C 
ATOM     22  H23 FJ5 d   1      -2.613 -40.170 -23.982  0.00  0.00     0.079 H 
ATOM     23  H24 FJ5 d   1      -4.202 -39.470 -23.521  0.00  0.00     0.079 H 
ATOM     24  O33 FJ5 d   1      -4.420 -41.568 -21.601  0.00  0.00    -0.388 OA
ATOM     25  H25 FJ5 d   1      -3.046 -42.164 -22.987  0.00  0.00     0.076 H 
ATOM     26  H26 FJ5 d   1      -4.656 -41.686 -23.625  0.00  0.00     0.076 H 
ATOM     27  C34 FJ5 d   1      -3.476 -41.212 -20.641  0.00  0.00     0.042 C 
ATOM     28  C35 FJ5 d   1      -3.113 -39.782 -20.796  0.00  0.00     0.103 C 
ATOM     29  H27 FJ5 d   1      -2.576 -41.832 -20.767  0.00  0.00     0.076 H 
ATOM     30  H28 FJ5 d   1      -3.897 -41.375 -19.638  0.00  0.00     0.076 H 
ATOM     31  H29 FJ5 d   1      -3.980 -39.176 -20.494  0.00  0.00     0.079 H 
ATOM     32  H30 FJ5 d   1      -2.267 -39.571 -20.126  0.00  0.00     0.079 H 
ATOM     33  H18 FJ5 d   1      -1.777 -39.675 -22.178  0.00  0.00     0.280 HD
ENDBRANCH  16  19
ENDBRANCH  10  16
ENDBRANCH   5   6
BRANCH   1  34
ATOM     34  C01 FJ5 d   1       1.564 -34.061 -25.102  0.00  0.00     0.030 A 
ATOM     35  C02 FJ5 d   1       0.306 -33.668 -24.649  0.00  0.00    -0.059 A 
ATOM     36  C03 FJ5 d   1       0.199 -32.950 -23.435  0.00  0.00    -0.021 A 
ATOM     37  H1  FJ5 d   1      -0.582 -33.910 -25.221  0.00  0.00     0.086 H 
ATOM     38  C04 FJ5 d   1       1.338 -32.625 -22.708  0.00  0.00     0.075 A 
ATOM     39  C05 FJ5 d   1       2.589 -33.033 -23.156  0.00  0.00    -0.018 A 
ATOM     40  C06 FJ5 d   1       2.696 -33.751 -24.376  0.00  0.00     0.081 A 
ATOM     41  H2  FJ5 d   1       3.477 -32.804 -22.578  0.00  0.00     0.092 H 
BRANCH  36  42
ATOM     42  C09 FJ5 d   1      -1.187 -32.455 -22.996  0.00  0.00    -0.033 C 
ATOM     43  H5  FJ5 d   1      -1.138 -32.275 -21.912  0.00  0.00     0.046 H 
BRANCH  42  44
ATOM     44  C11 FJ5 d   1      -2.243 -33.417 -23.196  0.00  0.00    -0.069 C 
ATOM     45  H6  FJ5 d   1      -3.198 -32.988 -22.858  0.00  0.00     0.028 H 
ATOM     46  H7  FJ5 d   1      -2.025 -34.327 -22.617  0.00  0.00     0.028 H 
ATOM     47  H8  FJ5 d   1      -2.312 -33.669 -24.264  0.00  0.00     0.028 H 
ENDBRANCH  42  44
BRANCH  42  48
ATOM     48  C12 FJ5 d   1      -1.454 -31.129 -23.657  0.00  0.00    -0.069 C 
ATOM     49  H9  FJ5 d   1      -0.612 -30.447 -23.465  0.00  0.00     0.028 H 
ATOM     50  H10 FJ5 d   1      -2.378 -30.695 -23.248  0.00  0.00     0.028 H 
ATOM     51  H11 FJ5 d   1      -1.566 -31.276 -24.741  0.00  0.00     0.028 H 
ENDBRANCH  42  48
ENDBRANCH  36  42
BRANCH  38  52
ATOM     52  O08 FJ5 d   1       1.251 -31.937 -21.517  0.00  0.00    -0.360 OA
ATOM     53  H4  FJ5 d   1       1.758 -31.136 -21.578  0.00  0.00     0.217 HD
ENDBRANCH  38  52
BRANCH  40  54
ATOM     54  O07 FJ5 d   1       3.955 -34.107 -24.866  0.00  0.00    -0.360 OA
ATOM     55  H3  FJ5 d   1       4.470 -33.322 -25.014  0.00  0.00     0.217 HD
ENDBRANCH  40  54
ENDBRANCH   1  34
BRANCH   4  56
ATOM     56  N25 FJ5 d   1       0.603 -37.757 -28.411  0.00  0.00    -0.304 N 
ATOM     57  C26 FJ5 d   1       0.511 -39.049 -27.731  0.00  0.00     0.235 C 
ATOM     58  O27 FJ5 d   1       0.004 -39.959 -28.336  0.00  0.00    -0.272 OA
ATOM     59  H19 FJ5 d   1       0.256 -37.679 -29.345  0.00  0.00     0.171 HD
BRANCH  57  60
ATOM     60  C28 FJ5 d   1       1.350 -39.343 -26.521  0.00  0.00     0.056 A 
ATOM     61  C29 FJ5 d   1       0.575 -40.162 -25.545  0.00  0.00    -0.089 A 
ATOM     62  C30 FJ5 d   1       1.588 -40.812 -26.423  0.00  0.00    -0.089 A 
ATOM     63  H21 FJ5 d   1      -0.179 -40.233 -24.763  0.00  0.00     0.078 H 
ATOM     64  H22 FJ5 d   1       2.116 -41.706 -26.752  0.00  0.00     0.078 H 
ATOM     65  H20 FJ5 d   1       2.080 -38.566 -26.249  0.00  0.00     0.067 H 
ENDBRANCH  57  60
ENDBRANCH   4  56
TORSDOF 11
