REMARK  4 active torsions:
REMARK  status: ('A' for Active; 'I' for Inactive)
REMARK    1  A    between atoms: C10_14  and  C3_3 
REMARK    2  A    between atoms: C3_3  and  C31_15 
REMARK    3  A    between atoms: C11_13  and  C10_14 
REMARK       I    between atoms: N33_20  and  C33_26 
REMARK    4  A    between atoms: C33_26  and  C37_28 
ROOT
ATOM      1  C9  20Q d   1      12.901  10.171  33.075  0.00  0.00     0.044 A 
ATOM      2  C2  20Q d   1      11.715   9.285  34.811  0.00  0.00     0.236 A 
ATOM      3  C3  20Q d   1      12.853  10.093  35.440  0.00  0.00     0.079 A 
ATOM      4  C8  20Q d   1      13.574  10.525  34.206  0.00  0.00    -0.013 A 
ATOM      5  N1  20Q d   1      11.785   9.400  33.434  0.00  0.00    -0.326 N 
ATOM      6  C7  20Q d   1      13.255  10.538  31.801  0.00  0.00    -0.036 A 
ATOM      7  C4  20Q d   1      14.754  11.241  34.136  0.00  0.00    -0.072 A 
ATOM      8  C5  20Q d   1      15.197  11.665  32.886  0.00  0.00    -0.061 A 
ATOM      9  C6  20Q d   1      14.408  11.369  31.720  0.00  0.00     0.036 A 
ATOM     10  O2  20Q d   1      10.848   8.619  35.393  0.00  0.00    -0.272 OA
ATOM     11 CL6  20Q d   1      14.835  12.059  30.278  0.00  0.00    -0.084 Cl
ATOM     12  H   20Q d   1      11.136   8.994  32.790  0.00  0.00     0.169 HD
ATOM     13  H   20Q d   1      12.700  10.220  30.925  0.00  0.00     0.089 H 
ATOM     14  H   20Q d   1      15.321  11.467  35.032  0.00  0.00     0.084 H 
ATOM     15  H   20Q d   1      16.128  12.213  32.792  0.00  0.00     0.086 H 
ENDROOT
BRANCH   3  16
ATOM     16  C10 20Q d   1      12.335  11.345  36.204  0.00  0.00    -0.021 C 
ATOM     17  H   20Q d   1      13.168  12.053  36.330  0.00  0.00     0.042 H 
ATOM     18  H   20Q d   1      11.968  11.030  37.192  0.00  0.00     0.042 H 
BRANCH  16  19
ATOM     19  C11 20Q d   1      11.208  12.043  35.463  0.00  0.00    -0.055 A 
ATOM     20  C12 20Q d   1      11.420  13.257  34.798  0.00  0.00    -0.056 A 
ATOM     21  C13 20Q d   1      10.308  13.866  34.122  0.00  0.00     0.034 A 
ATOM     22  H   20Q d   1      12.398  13.725  34.793  0.00  0.00     0.086 H 
ATOM     23 CL1  20Q d   1      10.474  15.325  33.319  0.00  0.00    -0.084 Cl
ATOM     24  C14 20Q d   1       9.041  13.246  34.124  0.00  0.00    -0.062 A 
ATOM     25  C15 20Q d   1       8.872  12.057  34.794  0.00  0.00    -0.081 A 
ATOM     26  H   20Q d   1       8.208  13.703  33.602  0.00  0.00     0.086 H 
ATOM     27  C16 20Q d   1       9.938  11.452  35.462  0.00  0.00    -0.077 A 
ATOM     28  H   20Q d   1       7.897  11.583  34.803  0.00  0.00     0.083 H 
ATOM     29  H   20Q d   1       9.781  10.516  35.985  0.00  0.00     0.084 H 
ENDBRANCH  16  19
ENDBRANCH   3  16
BRANCH   3  30
ATOM     30  C31 20Q d   1      13.748   9.210  36.332  0.00  0.00    -0.018 C 
ATOM     31  C32 20Q d   1      12.917   8.286  37.226  0.00  0.00     0.002 C 
ATOM     32  N33 20Q d   1      13.811   7.484  38.082  0.00  0.00    -0.352 N 
ATOM     33  H   20Q d   1      12.314   7.614  36.597  0.00  0.00     0.065 H 
ATOM     34  H   20Q d   1      12.252   8.892  37.859  0.00  0.00     0.065 H 
ATOM     35  C34 20Q d   1      14.806   8.208  38.891  0.00  0.00    -0.002 C 
ATOM     36  C33 20Q d   1      13.865   6.153  37.965  0.00  0.00     0.215 C 
ATOM     37  C35 20Q d   1      15.624   9.157  38.002  0.00  0.00    -0.050 C 
ATOM     38  H   20Q d   1      15.483   7.484  39.368  0.00  0.00     0.064 H 
ATOM     39  H   20Q d   1      14.288   8.792  39.666  0.00  0.00     0.064 H 
ATOM     40  C36 20Q d   1      14.695  10.062  37.183  0.00  0.00    -0.057 C 
ATOM     41  H   20Q d   1      16.247   8.564  37.317  0.00  0.00     0.035 H 
ATOM     42  H   20Q d   1      16.270   9.781  38.637  0.00  0.00     0.035 H 
ATOM     43  H   20Q d   1      14.105  10.691  37.866  0.00  0.00     0.033 H 
ATOM     44  H   20Q d   1      15.299  10.703  36.524  0.00  0.00     0.033 H 
ATOM     45  O33 20Q d   1      14.741   5.512  38.559  0.00  0.00    -0.274 OA
ATOM     46  H   20Q d   1      14.361   8.579  35.671  0.00  0.00     0.044 H 
BRANCH  36  47
ATOM     47  C37 20Q d   1      12.820   5.517  37.091  0.00  0.00    -0.003 C 
ATOM     48  H   20Q d   1      12.969   4.427  37.075  0.00  0.00     0.040 H 
ATOM     49  H   20Q d   1      12.906   5.914  36.069  0.00  0.00     0.040 H 
ATOM     50  H   20Q d   1      11.820   5.745  37.490  0.00  0.00     0.040 H 
ENDBRANCH  36  47
ENDBRANCH   3  30
TORSDOF 4
