REMARK  9 active torsions:
REMARK  status: ('A' for Active; 'I' for Inactive)
REMARK    1  A    between atoms: C11_9  and  C21_10 
REMARK    2  A    between atoms: C21_10  and  C22_11 
REMARK    3  A    between atoms: C22_11  and  C25_12 
REMARK    4  A    between atoms: C22_11  and  C24_13 
REMARK    5  A    between atoms: C22_11  and  C23_14 
REMARK    6  A    between atoms: C14_16  and  C31_17 
REMARK    7  A    between atoms: C13_25  and  C41_26 
REMARK       I    between atoms: C41_26  and  N42_27 
REMARK    8  A    between atoms: N42_27  and  C43_28 
REMARK    9  A    between atoms: C46_32  and  C51_33 
REMARK       I    between atoms: C51_33  and  N51_35 
ROOT
ATOM      1  N1  20U d   1     -11.055  16.189  -7.066  0.00  0.00    -0.326 N 
ATOM      2  C9  20U d   1     -12.114  15.918  -6.153  0.00  0.00     0.044 A 
ATOM      3  C7  20U d   1     -12.570  14.674  -5.826  0.00  0.00    -0.036 A 
ATOM      4  C6  20U d   1     -13.592  14.622  -4.882  0.00  0.00     0.036 A 
ATOM      5 CL1  20U d   1     -14.198  13.093  -4.366  0.00  0.00    -0.084 Cl
ATOM      6  C2  20U d   1     -10.861  17.586  -7.129  0.00  0.00     0.238 A 
ATOM      7  O2  20U d   1      -9.972  18.121  -7.799  0.00  0.00    -0.272 OA
ATOM      8  C3  20U d   1     -11.915  18.271  -6.258  0.00  0.00     0.109 A 
ATOM      9  C11 20U d   1     -12.813  19.132  -7.120  0.00  0.00     0.124 C 
ATOM     10  N12 20U d   1     -12.007  20.363  -7.351  0.00  0.00    -0.056 N 
ATOM     11  C14 20U d   1     -11.330  19.288  -5.277  0.00  0.00     0.033 C 
ATOM     12  C13 20U d   1     -11.098  20.527  -6.151  0.00  0.00     0.187 C 
ATOM     13  C8  20U d   1     -12.607  17.074  -5.652  0.00  0.00    -0.011 A 
ATOM     14  C4  20U d   1     -13.624  17.068  -4.724  0.00  0.00    -0.072 A 
ATOM     15  C5  20U d   1     -14.137  15.814  -4.325  0.00  0.00    -0.061 A 
ATOM     16  H   20U d   1     -10.536  15.504  -7.577  0.00  0.00     0.169 HD
ATOM     17  H   20U d   1     -12.160  13.777  -6.276  0.00  0.00     0.089 H 
ATOM     18  H   20U d   1     -13.737  19.377  -6.576  0.00  0.00     0.086 H 
ATOM     19  H   20U d   1     -12.614  21.163  -7.438  0.00  0.00     0.278 HD
ATOM     20  H   20U d   1     -11.458  20.265  -8.191  0.00  0.00     0.278 HD
ATOM     21  H   20U d   1     -12.082  19.519  -4.508  0.00  0.00     0.054 H 
ATOM     22  H   20U d   1     -10.045  20.574  -6.466  0.00  0.00     0.100 H 
ATOM     23  H   20U d   1     -14.017  17.992  -4.315  0.00  0.00     0.084 H 
ATOM     24  H   20U d   1     -14.941  15.759  -3.599  0.00  0.00     0.086 H 
ENDROOT
BRANCH  12  25
ATOM     25  C41 20U d   1     -11.460  21.787  -5.438  0.00  0.00     0.253 C 
ATOM     26  N42 20U d   1     -12.405  22.583  -6.121  0.00  0.00    -0.325 N 
ATOM     27  H   20U d   1     -12.819  22.186  -6.940  0.00  0.00     0.169 HD
ATOM     28  O41 20U d   1     -10.993  22.121  -4.348  0.00  0.00    -0.271 OA
BRANCH  26  29
ATOM     29  C43 20U d   1     -12.833  23.908  -5.757  0.00  0.00     0.034 A 
ATOM     30  C48 20U d   1     -12.411  24.503  -4.576  0.00  0.00    -0.056 A 
ATOM     31  C47 20U d   1     -12.807  25.813  -4.313  0.00  0.00    -0.066 A 
ATOM     32  H   20U d   1     -11.787  23.961  -3.874  0.00  0.00     0.086 H 
ATOM     33  C46 20U d   1     -13.621  26.506  -5.237  0.00  0.00     0.032 A 
ATOM     34  H   20U d   1     -12.490  26.301  -3.398  0.00  0.00     0.085 H 
ATOM     35  C45 20U d   1     -14.061  25.858  -6.393  0.00  0.00    -0.066 A 
ATOM     36  C44 20U d   1     -13.669  24.561  -6.652  0.00  0.00    -0.056 A 
ATOM     37  H   20U d   1     -14.712  26.375  -7.088  0.00  0.00     0.085 H 
ATOM     38  H   20U d   1     -14.011  24.056  -7.548  0.00  0.00     0.086 H 
BRANCH  33  39
ATOM     39  C51 20U d   1     -13.999  27.901  -4.997  0.00  0.00     0.249 C 
ATOM     40  O51 20U d   1     -13.708  28.523  -3.964  0.00  0.00    -0.268 OA
ATOM     41  N51 20U d   1     -14.718  28.550  -5.984  0.00  0.00    -0.366 N 
ATOM     42  H   20U d   1     -14.994  29.503  -5.857  0.00  0.00     0.159 HD
ATOM     43  H   20U d   1     -14.962  28.067  -6.825  0.00  0.00     0.159 HD
ENDBRANCH  33  39
ENDBRANCH  26  29
ENDBRANCH  12  25
BRANCH  11  44
ATOM     44  C31 20U d   1     -10.083  18.826  -4.556  0.00  0.00    -0.009 A 
ATOM     45  C36 20U d   1      -8.804  19.060  -5.070  0.00  0.00    -0.073 A 
ATOM     46  C35 20U d   1      -7.674  18.645  -4.329  0.00  0.00    -0.081 A 
ATOM     47  H   20U d   1      -8.680  19.555  -6.027  0.00  0.00     0.084 H 
ATOM     48  C34 20U d   1      -7.837  17.998  -3.089  0.00  0.00    -0.059 A 
ATOM     49  H   20U d   1      -6.678  18.826  -4.717  0.00  0.00     0.083 H 
ATOM     50  C33 20U d   1      -9.122  17.763  -2.616  0.00  0.00     0.073 A 
ATOM     51  H   20U d   1      -6.973  17.688  -2.512  0.00  0.00     0.086 H 
ATOM     52  C32 20U d   1     -10.199  18.189  -3.350  0.00  0.00     0.144 A 
ATOM     53 CL2  20U d   1      -9.371  16.926  -1.106  0.00  0.00    -0.081 Cl
ATOM     54  F1  20U d   1     -11.433  17.981  -2.851  0.00  0.00    -0.204 F 
ENDBRANCH  11  44
BRANCH   9  55
ATOM     55  C21 20U d   1     -13.190  18.448  -8.443  0.00  0.00    -0.031 C 
ATOM     56  H   20U d   1     -13.274  17.364  -8.276  0.00  0.00     0.037 H 
ATOM     57  H   20U d   1     -12.404  18.645  -9.187  0.00  0.00     0.037 H 
BRANCH  55  58
ATOM     58  C22 20U d   1     -14.536  18.981  -8.979  0.00  0.00    -0.049 C 
BRANCH  58  59
ATOM     59  C25 20U d   1     -14.526  20.512  -8.995  0.00  0.00    -0.070 C 
ATOM     60  H   20U d   1     -15.489  20.881  -9.378  0.00  0.00     0.028 H 
ATOM     61  H   20U d   1     -13.713  20.867  -9.645  0.00  0.00     0.028 H 
ATOM     62  H   20U d   1     -14.370  20.888  -7.973  0.00  0.00     0.028 H 
ENDBRANCH  58  59
BRANCH  58  63
ATOM     63  C24 20U d   1     -15.669  18.490  -8.073  0.00  0.00    -0.070 C 
ATOM     64  H   20U d   1     -15.678  17.390  -8.060  0.00  0.00     0.028 H 
ATOM     65  H   20U d   1     -16.631  18.860  -8.456  0.00  0.00     0.028 H 
ATOM     66  H   20U d   1     -15.512  18.867  -7.052  0.00  0.00     0.028 H 
ENDBRANCH  58  63
BRANCH  58  67
ATOM     67  C23 20U d   1     -14.764  18.458 -10.402  0.00  0.00    -0.070 C 
ATOM     68  H   20U d   1     -13.952  18.809 -11.056  0.00  0.00     0.028 H 
ATOM     69  H   20U d   1     -15.727  18.832 -10.780  0.00  0.00     0.028 H 
ATOM     70  H   20U d   1     -14.777  17.358 -10.391  0.00  0.00     0.028 H 
ENDBRANCH  58  67
ENDBRANCH  55  58
ENDBRANCH   9  55
TORSDOF 9
