REMARK  11 active torsions:
REMARK  status: ('A' for Active; 'I' for Inactive)
REMARK    1  A    between atoms: C11_7  and  C21_10 
REMARK    2  A    between atoms: C13_8  and  C41_27 
REMARK    3  A    between atoms: C14_9  and  C31_19 
REMARK    4  A    between atoms: C21_10  and  C22_11 
REMARK    5  A    between atoms: C22_11  and  C23_12 
REMARK    6  A    between atoms: C22_11  and  C24_13 
REMARK    7  A    between atoms: C22_11  and  C25_14 
REMARK       I    between atoms: C41_27  and  N42_28 
REMARK    8  A    between atoms: N42_28  and  C43_29 
REMARK    9  A    between atoms: C44_31  and  O49_32 
REMARK   10  A    between atoms: O49_32  and  C50_33 
REMARK   11  A    between atoms: C46_35  and  C51_36 
REMARK       I    between atoms: C51_36  and  N51_38 
ROOT
ATOM      1  C2  20W d   1       0.801 -32.107 -10.076  0.00  0.00     0.239 A 
ATOM      2  C3  20W d   1       1.127 -31.443 -11.429  0.00  0.00     0.115 A 
ATOM      3  C5  20W d   1       3.624 -34.153 -12.830  0.00  0.00     0.077 A 
ATOM      4  C6  20W d   1       3.224 -34.448 -11.534  0.00  0.00    -0.028 A 
ATOM      5  C7  20W d   1       2.085 -32.473 -11.951  0.00  0.00     0.032 A 
ATOM      6  C8  20W d   1       2.343 -33.443 -11.130  0.00  0.00     0.051 A 
ATOM      7  C11 20W d   1       1.713 -30.100 -11.151  0.00  0.00     0.124 C 
ATOM      8  C13 20W d   1      -0.641 -29.860 -11.616  0.00  0.00     0.187 C 
ATOM      9  C14 20W d   1      -0.107 -31.120 -12.279  0.00  0.00     0.033 C 
ATOM     10  N1  20W d   1       1.608 -33.270  -9.913  0.00  0.00    -0.325 N 
ATOM     11 CL1  20W d   1       4.698 -35.134 -13.839  0.00  0.00    -0.076 Cl
ATOM     12  O2  20W d   1      -0.012 -31.732  -9.239  0.00  0.00    -0.272 OA
ATOM     13  N12 20W d   1       0.518 -29.278 -10.834  0.00  0.00    -0.056 N 
ATOM     14  S4  20W d   1       2.928 -32.641 -13.456  0.00  0.00    -0.079 SA
ATOM     15  H   20W d   1       3.539 -35.306 -10.941  0.00  0.00     0.090 H 
ATOM     16  H   20W d   1       2.237 -29.708 -12.036  0.00  0.00     0.086 H 
ATOM     17  H   20W d   1      -1.478 -30.111 -10.948  0.00  0.00     0.100 H 
ATOM     18  H   20W d   1       0.194 -30.917 -13.317  0.00  0.00     0.054 H 
ATOM     19  H   20W d   1       1.653 -33.854  -9.103  0.00  0.00     0.169 HD
ATOM     20  H   20W d   1       0.674 -28.320 -11.108  0.00  0.00     0.278 HD
ATOM     21  H   20W d   1       0.323 -29.317  -9.846  0.00  0.00     0.278 HD
ENDROOT
BRANCH   8  22
ATOM     22  C41 20W d   1      -1.081 -28.846 -12.609  0.00  0.00     0.254 C 
ATOM     23  N42 20W d   1      -0.446 -27.605 -12.443  0.00  0.00    -0.323 N 
ATOM     24  H   20W d   1       0.247 -27.542 -11.725  0.00  0.00     0.169 HD
ATOM     25  O41 20W d   1      -1.922 -29.038 -13.493  0.00  0.00    -0.271 OA
BRANCH  23  26
ATOM     26  C43 20W d   1      -0.697 -26.431 -13.200  0.00  0.00     0.068 A 
ATOM     27  C48 20W d   1      -1.356 -26.471 -14.423  0.00  0.00    -0.053 A 
ATOM     28  C47 20W d   1      -1.591 -25.264 -15.089  0.00  0.00    -0.065 A 
ATOM     29  H   20W d   1      -1.679 -27.413 -14.850  0.00  0.00     0.087 H 
ATOM     30  C46 20W d   1      -1.169 -24.041 -14.512  0.00  0.00     0.034 A 
ATOM     31  H   20W d   1      -2.097 -25.264 -16.048  0.00  0.00     0.085 H 
ATOM     32  C45 20W d   1      -0.453 -24.044 -13.298  0.00  0.00    -0.033 A 
ATOM     33  C44 20W d   1      -0.248 -25.250 -12.657  0.00  0.00     0.096 A 
ATOM     34  H   20W d   1      -0.072 -23.121 -12.877  0.00  0.00     0.089 H 
BRANCH  30  35
ATOM     35  C51 20W d   1      -1.533 -22.760 -15.132  0.00  0.00     0.249 C 
ATOM     36  O51 20W d   1      -1.607 -21.692 -14.481  0.00  0.00    -0.268 OA
ATOM     37  N51 20W d   1      -1.818 -22.740 -16.499  0.00  0.00    -0.366 N 
ATOM     38  H   20W d   1      -2.068 -21.881 -16.945  0.00  0.00     0.159 HD
ATOM     39  H   20W d   1      -1.772 -23.585 -17.032  0.00  0.00     0.159 HD
ENDBRANCH  30  35
BRANCH  33  40
ATOM     40  O49 20W d   1       0.396 -25.314 -11.423  0.00  0.00    -0.354 OA
BRANCH  40  41
ATOM     41  C50 20W d   1       0.749 -24.046 -10.887  0.00  0.00     0.010 C 
ATOM     42  H   20W d   1       1.250 -24.184  -9.918  0.00  0.00     0.066 H 
ATOM     43  H   20W d   1      -0.159 -23.441 -10.747  0.00  0.00     0.066 H 
ATOM     44  H   20W d   1       1.429 -23.531 -11.581  0.00  0.00     0.066 H 
ENDBRANCH  40  41
ENDBRANCH  33  40
ENDBRANCH  23  26
ENDBRANCH   8  22
BRANCH   9  45
ATOM     45  C31 20W d   1      -1.150 -32.195 -12.290  0.00  0.00    -0.009 A 
ATOM     46  C36 20W d   1      -2.115 -32.257 -11.292  0.00  0.00    -0.073 A 
ATOM     47  C35 20W d   1      -3.115 -33.247 -11.354  0.00  0.00    -0.081 A 
ATOM     48  H   20W d   1      -2.098 -31.549 -10.472  0.00  0.00     0.084 H 
ATOM     49  C34 20W d   1      -3.149 -34.168 -12.408  0.00  0.00    -0.059 A 
ATOM     50  H   20W d   1      -3.868 -33.297 -10.576  0.00  0.00     0.083 H 
ATOM     51  C33 20W d   1      -2.180 -34.090 -13.402  0.00  0.00     0.073 A 
ATOM     52  H   20W d   1      -3.919 -34.930 -12.448  0.00  0.00     0.086 H 
ATOM     53  C32 20W d   1      -1.207 -33.120 -13.318  0.00  0.00     0.144 A 
ATOM     54 CL2  20W d   1      -2.193 -35.196 -14.752  0.00  0.00    -0.081 Cl
ATOM     55  F1  20W d   1      -0.286 -33.070 -14.295  0.00  0.00    -0.204 F 
ENDBRANCH   9  45
BRANCH   7  56
ATOM     56  C21 20W d   1       2.684 -30.150  -9.970  0.00  0.00    -0.031 C 
ATOM     57  H   20W d   1       3.222 -31.109  -9.983  0.00  0.00     0.037 H 
ATOM     58  H   20W d   1       2.118 -30.060  -9.031  0.00  0.00     0.037 H 
BRANCH  56  59
ATOM     59  C22 20W d   1       3.710 -28.986 -10.064  0.00  0.00    -0.049 C 
BRANCH  59  60
ATOM     60  C23 20W d   1       4.743 -29.098  -8.926  0.00  0.00    -0.070 C 
ATOM     61  H   20W d   1       5.463 -28.270  -9.002  0.00  0.00     0.028 H 
ATOM     62  H   20W d   1       5.276 -30.057  -9.008  0.00  0.00     0.028 H 
ATOM     63  H   20W d   1       4.227 -29.047  -7.956  0.00  0.00     0.028 H 
ENDBRANCH  59  60
BRANCH  59  64
ATOM     64  C24 20W d   1       4.433 -29.057 -11.412  0.00  0.00    -0.070 C 
ATOM     65  H   20W d   1       3.698 -28.977 -12.227  0.00  0.00     0.028 H 
ATOM     66  H   20W d   1       4.966 -30.016 -11.492  0.00  0.00     0.028 H 
ATOM     67  H   20W d   1       5.154 -28.229 -11.486  0.00  0.00     0.028 H 
ENDBRANCH  59  64
BRANCH  59  68
ATOM     68  C25 20W d   1       2.992 -27.639  -9.955  0.00  0.00    -0.070 C 
ATOM     69  H   20W d   1       2.469 -27.579  -8.989  0.00  0.00     0.028 H 
ATOM     70  H   20W d   1       2.262 -27.545 -10.773  0.00  0.00     0.028 H 
ATOM     71  H   20W d   1       3.728 -26.825 -10.025  0.00  0.00     0.028 H 
ENDBRANCH  59  68
ENDBRANCH  56  59
ENDBRANCH   7  56
TORSDOF 11
