REMARK  5 active torsions:
REMARK  status: ('A' for Active; 'I' for Inactive)
REMARK    1  A    between atoms: S7_14  and  C4_1 
REMARK    2  A    between atoms: C10_4  and  S7_14 
REMARK    3  A    between atoms: C16_20  and  C13_5 
REMARK    4  A    between atoms: C18_22  and  C20_7 
REMARK    5  A    between atoms: N17_21  and  C16_20 
REMARK       I    between atoms: N17_21  and  C18_22 
ROOT
ATOM      1  C10 LWW d   1      14.876   6.433  -0.976  0.00  0.00     0.064 A 
ATOM      2  C13 LWW d   1      16.412   8.150   0.578  0.00  0.00    -0.040 A 
ATOM      3  C15 LWW d   1      15.645   5.947   0.064  0.00  0.00    -0.061 A 
ATOM      4  C11 LWW d   1      14.890   7.787  -1.254  0.00  0.00    -0.061 A 
ATOM      5  C12 LWW d   1      15.662   8.635  -0.480  0.00  0.00    -0.074 A 
ATOM      6  C14 LWW d   1      16.412   6.796   0.839  0.00  0.00    -0.074 A 
ATOM      7  H3  LWW d   1      15.647   4.884   0.275  0.00  0.00     0.085 H 
ATOM      8  H9  LWW d   1      14.300   8.182  -2.073  0.00  0.00     0.085 H 
ATOM      9  H10 LWW d   1      15.680   9.695  -0.705  0.00  0.00     0.084 H 
ATOM     10  H11 LWW d   1      17.012   6.399   1.650  0.00  0.00     0.084 H 
ENDROOT
BRANCH   2  11
ATOM     11  C16 LWW d   1      17.270   9.086   1.387  0.00  0.00     0.019 C 
ATOM     12  H12 LWW d   1      17.334  10.045   0.851  0.00  0.00     0.071 H 
ATOM     13  H13 LWW d   1      18.274   8.646   1.473  0.00  0.00     0.071 H 
BRANCH  11  14
ATOM     14  N17 LWW d   1      16.768   9.347   2.734  0.00  0.00    -0.351 N 
ATOM     15  C18 LWW d   1      15.756  10.213   2.900  0.00  0.00     0.268 C 
ATOM     16  O19 LWW d   1      15.226  10.773   1.956  0.00  0.00    -0.266 OA
ATOM     17  H14 LWW d   1      17.174   8.886   3.523  0.00  0.00     0.163 HD
BRANCH  15  18
ATOM     18  C20 LWW d   1      15.294  10.410   4.267  0.00  0.00     0.102 A 
ATOM     19  C21 LWW d   1      14.143  11.013   4.660  0.00  0.00    -0.038 A 
ATOM     20  C22 LWW d   1      14.114  10.932   6.078  0.00  0.00     0.010 A 
ATOM     21  H4  LWW d   1      13.392  11.468   4.016  0.00  0.00     0.088 H 
ATOM     22  C23 LWW d   1      13.219  11.356   7.052  0.00  0.00     0.014 A 
ATOM     23  C27 LWW d   1      15.294  10.255   6.486  0.00  0.00     0.045 A 
ATOM     24  N24 LWW d   1      13.464  11.113   8.327  0.00  0.00    -0.272 NA
ATOM     25  H15 LWW d   1      12.318  11.887   6.765  0.00  0.00     0.116 H 
ATOM     26  C25 LWW d   1      14.557  10.475   8.731  0.00  0.00     0.004 A 
ATOM     27  C26 LWW d   1      15.502  10.038   7.856  0.00  0.00    -0.039 A 
ATOM     28  H16 LWW d   1      14.700  10.297   9.791  0.00  0.00     0.114 H 
ATOM     29  H5  LWW d   1      16.395   9.534   8.209  0.00  0.00     0.089 H 
ATOM     30  N28 LWW d   1      15.995   9.938   5.360  0.00  0.00    -0.351 N 
ATOM     31  H17 LWW d   1      16.892   9.434   5.330  0.00  0.00     0.166 HD
ENDBRANCH  15  18
ENDBRANCH  11  14
ENDBRANCH   2  11
BRANCH   1  32
ATOM     32  S7  LWW d   1      13.944   5.288  -1.940  0.00  0.00     0.206 S 
ATOM     33  O8  LWW d   1      12.953   5.967  -2.692  0.00  0.00    -0.217 OA
ATOM     34  O9  LWW d   1      13.645   4.189  -1.084  0.00  0.00    -0.217 OA
BRANCH  32  35
ATOM     35  C4  LWW d   1      15.204   4.687  -3.019  0.00  0.00     0.064 A 
ATOM     36  C5  LWW d   1      15.439   5.277  -4.246  0.00  0.00    -0.062 A 
ATOM     37  C6  LWW d   1      16.444   4.791  -5.062  0.00  0.00    -0.082 A 
ATOM     38  H1  LWW d   1      14.837   6.119  -4.568  0.00  0.00     0.085 H 
ATOM     39  C1  LWW d   1      17.221   3.726  -4.643  0.00  0.00    -0.083 A 
ATOM     40  H2  LWW d   1      16.623   5.245  -6.030  0.00  0.00     0.083 H 
ATOM     41  C2  LWW d   1      16.996   3.137  -3.413  0.00  0.00    -0.082 A 
ATOM     42  H6  LWW d   1      18.011   3.351  -5.283  0.00  0.00     0.083 H 
ATOM     43  C3  LWW d   1      15.991   3.625  -2.598  0.00  0.00    -0.062 A 
ATOM     44  H7  LWW d   1      17.603   2.299  -3.090  0.00  0.00     0.083 H 
ATOM     45  H8  LWW d   1      15.818   3.176  -1.627  0.00  0.00     0.085 H 
ENDBRANCH  32  35
ENDBRANCH   1  32
TORSDOF 5
