REMARK  16 active torsions:
REMARK  status: ('A' for Active; 'I' for Inactive)
REMARK    1  A    between atoms: C2_2  and  C5_5 
REMARK    2  A    between atoms: C5_5  and  O7_6 
REMARK    3  A    between atoms: C5_5  and  C67_36 
REMARK    4  A    between atoms: O7_6  and  C8_7 
REMARK    5  A    between atoms: C9_8  and  N64_35 
REMARK    6  A    between atoms: C13_11  and  C16_13 
REMARK    7  A    between atoms: C16_13  and  C19_14 
REMARK    8  A    between atoms: C21_15  and  O61_33 
REMARK    9  A    between atoms: C23_16  and  N33_21 
REMARK   10  A    between atoms: S28_18  and  O32_20 
REMARK   11  A    between atoms: N33_21  and  C35_22 
REMARK   12  A    between atoms: C35_22  and  C38_23 
REMARK   13  A    between atoms: C41_25  and  C48_29 
REMARK   14  A    between atoms: C48_29  and  C49_30 
REMARK   15  A    between atoms: C48_29  and  C53_31 
REMARK   16  A    between atoms: C48_29  and  C57_32 
ROOT
ATOM      1  C19 1YS d   1      31.475   6.078  14.659  0.00  0.00    -0.014 C 
ATOM      2  C21 1YS d   1      32.050   4.675  14.288  0.00  0.00     0.068 C 
ATOM      3  C23 1YS d   1      31.076   3.825  13.411  0.00  0.00     0.136 C 
ATOM      4  C25 1YS d   1      29.651   3.634  14.021  0.00  0.00     0.019 C 
ATOM      5  S28 1YS d   1      28.850   5.196  14.415  0.00  0.00    -0.090 S 
ATOM      6  C29 1YS d   1      30.126   5.916  15.445  0.00  0.00    -0.004 C 
ATOM      7  H6  1YS d   1      31.224   6.580  13.713  0.00  0.00     0.045 H 
ATOM      8  H7  1YS d   1      32.254   4.125  15.219  0.00  0.00     0.086 H 
ATOM      9  H8  1YS d   1      30.930   4.388  12.477  0.00  0.00     0.089 H 
ATOM     10  H9  1YS d   1      29.739   3.041  14.943  0.00  0.00     0.054 H 
ATOM     11  H10 1YS d   1      29.027   3.092  13.295  0.00  0.00     0.054 H 
ATOM     12  H11 1YS d   1      29.791   6.906  15.789  0.00  0.00     0.051 H 
ATOM     13  H12 1YS d   1      30.295   5.263  16.314  0.00  0.00     0.051 H 
ENDROOT
BRANCH   3  14
ATOM     14  N33 1YS d   1      31.717   2.527  13.034  0.00  0.00    -0.064 N 
ATOM     15  H14 1YS d   1      31.720   1.961  13.868  0.00  0.00     0.278 HD
ATOM     16  H15 1YS d   1      32.666   2.747  12.774  0.00  0.00     0.278 HD
BRANCH  14  17
ATOM     17  C35 1YS d   1      31.173   1.658  11.941  0.00  0.00     0.106 C 
ATOM     18  H16 1YS d   1      30.190   1.266  12.241  0.00  0.00     0.083 H 
ATOM     19  H17 1YS d   1      31.863   0.820  11.763  0.00  0.00     0.083 H 
BRANCH  17  20
ATOM     20  C38 1YS d   1      31.022   2.482  10.645  0.00  0.00    -0.032 A 
ATOM     21  C39 1YS d   1      32.171   2.944   9.963  0.00  0.00    -0.069 A 
ATOM     22  C41 1YS d   1      32.095   3.717   8.765  0.00  0.00    -0.050 A 
ATOM     23  H18 1YS d   1      33.148   2.702  10.365  0.00  0.00     0.085 H 
ATOM     24  C42 1YS d   1      30.783   4.008   8.282  0.00  0.00    -0.076 A 
ATOM     25  C44 1YS d   1      29.617   3.552   8.948  0.00  0.00    -0.082 A 
ATOM     26  H19 1YS d   1      30.675   4.596   7.378  0.00  0.00     0.084 H 
ATOM     27  C46 1YS d   1      29.733   2.788  10.130  0.00  0.00    -0.075 A 
ATOM     28  H20 1YS d   1      28.637   3.790   8.550  0.00  0.00     0.083 H 
ATOM     29  H21 1YS d   1      28.844   2.437  10.642  0.00  0.00     0.084 H 
BRANCH  22  30
ATOM     30  C48 1YS d   1      33.418   4.193   8.065  0.00  0.00    -0.024 C 
BRANCH  30  31
ATOM     31  C49 1YS d   1      34.373   2.982   7.819  0.00  0.00    -0.066 C 
ATOM     32  H22 1YS d   1      35.293   3.334   7.329  0.00  0.00     0.028 H 
ATOM     33  H23 1YS d   1      33.872   2.245   7.173  0.00  0.00     0.028 H 
ATOM     34  H24 1YS d   1      34.627   2.514   8.781  0.00  0.00     0.028 H 
ENDBRANCH  30  31
BRANCH  30  35
ATOM     35  C53 1YS d   1      33.253   4.886   6.671  0.00  0.00    -0.066 C 
ATOM     36  H25 1YS d   1      32.587   5.755   6.770  0.00  0.00     0.028 H 
ATOM     37  H26 1YS d   1      32.820   4.172   5.955  0.00  0.00     0.028 H 
ATOM     38  H27 1YS d   1      34.237   5.218   6.308  0.00  0.00     0.028 H 
ENDBRANCH  30  35
BRANCH  30  39
ATOM     39  C57 1YS d   1      34.147   5.238   8.964  0.00  0.00    -0.066 C 
ATOM     40  H28 1YS d   1      34.298   4.816   9.968  0.00  0.00     0.028 H 
ATOM     41  H29 1YS d   1      33.535   6.149   9.038  0.00  0.00     0.028 H 
ATOM     42  H30 1YS d   1      35.122   5.487   8.520  0.00  0.00     0.028 H 
ENDBRANCH  30  39
ENDBRANCH  22  30
ENDBRANCH  17  20
ENDBRANCH  14  17
ENDBRANCH   3  14
BRANCH   2  43
ATOM     43  O61 1YS d   1      33.277   4.850  13.556  0.00  0.00    -0.393 OA
ATOM     44  H31 1YS d   1      33.883   5.366  14.075  0.00  0.00     0.210 HD
ENDBRANCH   2  43
BRANCH   1  45
ATOM     45  C16 1YS d   1      32.542   6.995  15.366  0.00  0.00    -0.034 C 
ATOM     46  H4  1YS d   1      32.946   6.480  16.250  0.00  0.00     0.040 H 
ATOM     47  H5  1YS d   1      33.360   7.219  14.666  0.00  0.00     0.040 H 
BRANCH  45  48
ATOM     48  C13 1YS d   1      31.856   8.302  15.797  0.00  0.00    -0.052 A 
ATOM     49  C11 1YS d   1      31.481   9.290  14.854  0.00  0.00    -0.037 A 
ATOM     50  C10 1YS d   1      30.824  10.463  15.280  0.00  0.00     0.145 A 
ATOM     51  H2  1YS d   1      31.700   9.144  13.802  0.00  0.00     0.089 H 
ATOM     52  C9  1YS d   1      30.538  10.668  16.657  0.00  0.00     0.098 A 
ATOM     53  F63 1YS d   1      30.475  11.366  14.371  0.00  0.00    -0.204 F 
ATOM     54  C8  1YS d   1      30.918   9.678  17.598  0.00  0.00     0.099 A 
ATOM     55  C14 1YS d   1      31.577   8.504  17.166  0.00  0.00    -0.042 A 
ATOM     56  H3  1YS d   1      31.870   7.754  17.891  0.00  0.00     0.088 H 
BRANCH  52  57
ATOM     57  N64 1YS d   1      29.905  11.795  17.074  0.00  0.00    -0.394 N 
ATOM     58  H32 1YS d   1      29.703  11.932  18.075  0.00  0.00     0.156 HD
ATOM     59  H33 1YS d   1      29.627  12.513  16.390  0.00  0.00     0.156 HD
ENDBRANCH  52  57
BRANCH  54  60
ATOM     60  O7  1YS d   1      30.619   9.880  18.945  0.00  0.00    -0.325 OA
BRANCH  60  61
ATOM     61  C5  1YS d   1      29.984   8.847  19.725  0.00  0.00     0.231 C 
ATOM     62  H1  1YS d   1      30.029   7.895  19.176  0.00  0.00     0.112 H 
BRANCH  61  63
ATOM     63  C2  1YS d   1      28.479   9.213  19.905  0.00  0.00     0.422 C 
ATOM     64  F1  1YS d   1      27.863   9.225  18.690  0.00  0.00    -0.168 F 
ATOM     65  F3  1YS d   1      28.338  10.439  20.465  0.00  0.00    -0.168 F 
ATOM     66  F4  1YS d   1      27.830   8.297  20.669  0.00  0.00    -0.168 F 
ENDBRANCH  61  63
BRANCH  61  67
ATOM     67  C67 1YS d   1      30.815   8.684  21.027  0.00  0.00     0.422 C 
ATOM     68  F68 1YS d   1      30.227   7.852  21.921  0.00  0.00    -0.168 F 
ATOM     69  F69 1YS d   1      32.032   8.173  20.717  0.00  0.00    -0.168 F 
ATOM     70  F70 1YS d   1      31.009   9.906  21.577  0.00  0.00    -0.168 F 
ENDBRANCH  61  67
ENDBRANCH  60  61
ENDBRANCH  54  60
ENDBRANCH  45  48
ENDBRANCH   1  45
BRANCH   5  71
ATOM     71  O32 1YS d   1      28.815   6.036  13.166  0.00  0.00    -0.341 OA
ATOM     72  H13 1YS d   1      28.609   6.934  13.396  0.00  0.00     0.226 HD
ENDBRANCH   5  71
TORSDOF 16
