REMARK  13 active torsions:
REMARK  status: ('A' for Active; 'I' for Inactive)
REMARK    1  A    between atoms: C32_6  and  C31_7 
REMARK       I    between atoms: C31_7  and  N30_9 
REMARK    2  A    between atoms: N30_9  and  C22_10 
REMARK    3  A    between atoms: C22_10  and  C19_11 
REMARK    4  A    between atoms: C19_11  and  C20_12 
REMARK    5  A    between atoms: C19_11  and  N18_22 
REMARK       I    between atoms: C20_12  and  N21_14 
REMARK    6  A    between atoms: C24_18  and  N27_19 
REMARK    7  A    between atoms: N27_19  and  C29_20 
REMARK    8  A    between atoms: N27_19  and  C28_21 
REMARK    9  A    between atoms: N18_22  and  S17_23 
REMARK   10  A    between atoms: S17_23  and  C9_26 
REMARK   11  A    between atoms: C8_27  and  O13_28 
REMARK   12  A    between atoms: O13_28  and  C14_29 
REMARK   13  A    between atoms: C7_35  and  N3_36 
ROOT
ATOM      1  C19 7R9 d   1      14.143 -14.699  14.768  0.00  0.00     0.112 C 
ATOM      2  H   7R9 d   1      13.742 -15.291  15.604  0.00  0.00     0.091 H 
ENDROOT
BRANCH   1   3
ATOM      3  C22 7R9 d   1      15.543 -14.233  15.165  0.00  0.00     0.023 C 
ATOM      4  H   7R9 d   1      15.477 -13.678  16.112  0.00  0.00     0.068 H 
ATOM      5  H   7R9 d   1      16.185 -15.116  15.301  0.00  0.00     0.068 H 
BRANCH   3   6
ATOM      6  N30 7R9 d   1      16.137 -13.372  14.158  0.00  0.00    -0.354 N 
ATOM      7  C31 7R9 d   1      15.935 -11.997  14.260  0.00  0.00     0.258 C 
ATOM      8  O42 7R9 d   1      15.294 -11.491  15.194  0.00  0.00    -0.267 OA
ATOM      9  H   7R9 d   1      16.678 -13.756  13.410  0.00  0.00     0.162 HD
BRANCH   7  10
ATOM     10  C32 7R9 d   1      16.497 -11.136  13.283  0.00  0.00     0.074 A 
ATOM     11  C36 7R9 d   1      17.405 -11.450  12.326  0.00  0.00    -0.059 A 
ATOM     12  C35 7R9 d   1      17.571 -10.380  11.369  0.00  0.00    -0.054 A 
ATOM     13  H   7R9 d   1      17.944 -12.395  12.284  0.00  0.00     0.086 H 
ATOM     14  C34 7R9 d   1      16.787  -9.323  11.692  0.00  0.00     0.075 A 
ATOM     15  H   7R9 d   1      18.235 -10.418  10.507  0.00  0.00     0.086 H 
ATOM     16 CL   7R9 d   1      16.706  -7.868  10.847  0.00  0.00    -0.076 Cl
ATOM     17  S33 7R9 d   1      15.858  -9.591  13.090  0.00  0.00    -0.072 SA
ENDBRANCH   7  10
ENDBRANCH   3   6
ENDBRANCH   1   3
BRANCH   1  18
ATOM     18  C20 7R9 d   1      13.190 -13.503  14.492  0.00  0.00     0.244 C 
ATOM     19  O41 7R9 d   1      13.122 -13.033  13.338  0.00  0.00    -0.271 OA
ATOM     20  N21 7R9 d   1      12.438 -13.039  15.563  0.00  0.00    -0.348 N 
ATOM     21  C23 7R9 d   1      11.814 -11.729  15.634  0.00  0.00     0.025 C 
ATOM     22  C26 7R9 d   1      12.160 -13.825  16.766  0.00  0.00    -0.000 C 
ATOM     23  C24 7R9 d   1      10.589 -11.947  16.520  0.00  0.00     0.120 C 
ATOM     24  H   7R9 d   1      11.515 -11.384  14.633  0.00  0.00     0.067 H 
ATOM     25  H   7R9 d   1      12.497 -10.995  16.086  0.00  0.00     0.067 H 
ATOM     26  C25 7R9 d   1      10.871 -13.240  17.303  0.00  0.00    -0.022 C 
ATOM     27  H   7R9 d   1      10.527 -11.112  17.234  0.00  0.00     0.087 H 
ATOM     28  H   7R9 d   1      10.979 -13.014  18.374  0.00  0.00     0.038 H 
ATOM     29  H   7R9 d   1      10.046 -13.954  17.159  0.00  0.00     0.038 H 
ATOM     30  H   7R9 d   1      12.973 -13.716  17.499  0.00  0.00     0.064 H 
ATOM     31  H   7R9 d   1      12.031 -14.888  16.516  0.00  0.00     0.064 H 
BRANCH  23  32
ATOM     32  N27 7R9 d   1       9.305 -11.981  15.790  0.00  0.00    -0.073 N 
ATOM     33  H   7R9 d   1       9.196 -11.073  15.367  0.00  0.00     0.279 HD
BRANCH  32  34
ATOM     34  C29 7R9 d   1       9.303 -12.953  14.702  0.00  0.00     0.066 C 
ATOM     35  H   7R9 d   1       8.326 -12.935  14.196  0.00  0.00     0.068 H 
ATOM     36  H   7R9 d   1       9.487 -13.959  15.108  0.00  0.00     0.068 H 
ATOM     37  H   7R9 d   1      10.094 -12.698  13.981  0.00  0.00     0.068 H 
ENDBRANCH  32  34
BRANCH  32  38
ATOM     38  C28 7R9 d   1       8.151 -12.174  16.671  0.00  0.00     0.066 C 
ATOM     39  H   7R9 d   1       8.179 -11.429  17.480  0.00  0.00     0.068 H 
ATOM     40  H   7R9 d   1       8.184 -13.185  17.102  0.00  0.00     0.068 H 
ATOM     41  H   7R9 d   1       7.223 -12.053  16.092  0.00  0.00     0.068 H 
ENDBRANCH  32  38
ENDBRANCH  23  32
ENDBRANCH   1  18
BRANCH   1  42
ATOM     42  N18 7R9 d   1      14.119 -15.504  13.586  0.00  0.00    -0.300 N 
ATOM     43  H   7R9 d   1      14.605 -15.198  12.767  0.00  0.00     0.173 HD
BRANCH  42  44
ATOM     44  S17 7R9 d   1      13.292 -16.940  13.564  0.00  0.00     0.262 S 
ATOM     45  O38 7R9 d   1      13.739 -17.609  14.757  0.00  0.00    -0.200 OA
ATOM     46  O39 7R9 d   1      13.603 -17.523  12.322  0.00  0.00    -0.200 OA
BRANCH  44  47
ATOM     47  C9  7R9 d   1      11.664 -16.567  13.741  0.00  0.00     0.115 A 
ATOM     48  C8  7R9 d   1      10.874 -15.904  12.767  0.00  0.00     0.125 A 
ATOM     49  C7  7R9 d   1       9.464 -15.685  12.927  0.00  0.00     0.072 A 
ATOM     50  C12 7R9 d   1       8.858 -16.153  14.138  0.00  0.00    -0.054 A 
ATOM     51  C11 7R9 d   1       9.625 -16.796  15.113  0.00  0.00    -0.079 A 
ATOM     52  H   7R9 d   1       7.796 -16.007  14.299  0.00  0.00     0.087 H 
ATOM     53  C10 7R9 d   1      10.986 -16.992  14.920  0.00  0.00    -0.057 A 
ATOM     54  H   7R9 d   1       9.155 -17.144  16.026  0.00  0.00     0.083 H 
ATOM     55  H   7R9 d   1      11.556 -17.488  15.697  0.00  0.00     0.086 H 
BRANCH  48  56
ATOM     56  O13 7R9 d   1      11.517 -15.509  11.613  0.00  0.00    -0.286 OA
BRANCH  56  57
ATOM     57  C14 7R9 d   1      11.436 -16.277  10.491  0.00  0.00     0.310 C 
ATOM     58  F16 7R9 d   1      11.896 -15.550   9.492  0.00  0.00    -0.184 F 
ATOM     59  F15 7R9 d   1      10.225 -16.449   9.998  0.00  0.00    -0.184 F 
ATOM     60  H   7R9 d   1      11.966 -17.229  10.640  0.00  0.00     0.195 H 
ENDBRANCH  56  57
ENDBRANCH  48  56
BRANCH  49  61
ATOM     61  N3  7R9 d   1       8.621 -15.033  11.930  0.00  0.00    -0.315 N 
ATOM     62  C2  7R9 d   1       9.015 -13.730  11.370  0.00  0.00     0.003 C 
ATOM     63  C1  7R9 d   1       8.498 -13.486   9.978  0.00  0.00    -0.049 C 
ATOM     64  H   7R9 d   1      10.114 -13.681  11.345  0.00  0.00     0.065 H 
ATOM     65  H   7R9 d   1       8.627 -12.938  12.028  0.00  0.00     0.065 H 
ATOM     66  C6  7R9 d   1       7.012 -13.702   9.893  0.00  0.00    -0.056 C 
ATOM     67  H   7R9 d   1       8.999 -14.177   9.285  0.00  0.00     0.035 H 
ATOM     68  H   7R9 d   1       8.725 -12.449   9.690  0.00  0.00     0.035 H 
ATOM     69  C5  7R9 d   1       6.555 -14.996  10.495  0.00  0.00     0.010 C 
ATOM     70  H   7R9 d   1       6.720 -13.690   8.833  0.00  0.00     0.033 H 
ATOM     71  H   7R9 d   1       6.511 -12.877  10.421  0.00  0.00     0.033 H 
ATOM     72  C4  7R9 d   1       7.416 -15.647  11.522  0.00  0.00     0.224 C 
ATOM     73  H   7R9 d   1       6.435 -15.713   9.670  0.00  0.00     0.047 H 
ATOM     74  H   7R9 d   1       5.577 -14.809  10.963  0.00  0.00     0.047 H 
ATOM     75  O40 7R9 d   1       7.041 -16.708  12.006  0.00  0.00    -0.273 OA
ENDBRANCH  49  61
ENDBRANCH  44  47
ENDBRANCH  42  44
ENDBRANCH   1  42
TORSDOF 13
