REMARK  18 active torsions:
REMARK  status: ('A' for Active; 'I' for Inactive)
REMARK    1  A    between atoms: C2_2  and  C5_5 
REMARK    2  A    between atoms: C5_5  and  O7_6 
REMARK    3  A    between atoms: C5_5  and  C67_36 
REMARK    4  A    between atoms: O7_6  and  C8_7 
REMARK    5  A    between atoms: C9_8  and  N64_35 
REMARK    6  A    between atoms: C13_11  and  C16_13 
REMARK    7  A    between atoms: C16_13  and  C19_14 
REMARK    8  A    between atoms: C21_15  and  O61_33 
REMARK    9  A    between atoms: C23_16  and  N33_21 
REMARK   10  A    between atoms: S28_18  and  O32_20 
REMARK   11  A    between atoms: N33_21  and  C35_22 
REMARK   12  A    between atoms: C35_22  and  C38_23 
REMARK   13  A    between atoms: C41_25  and  C48_29 
REMARK   14  A    between atoms: C48_29  and  C49_30 
REMARK   15  A    between atoms: C48_29  and  C53_31 
REMARK   16  A    between atoms: C48_29  and  C57_32 
REMARK   17  A    between atoms: C67_36  and  O70_37 
REMARK   18  A    between atoms: O70_37  and  C71_38 
ROOT
ATOM      1  C19 1YT d   1      31.408   6.045  14.661  0.00  0.00    -0.014 C 
ATOM      2  C21 1YT d   1      32.013   4.665  14.264  0.00  0.00     0.068 C 
ATOM      3  C23 1YT d   1      31.059   3.829  13.349  0.00  0.00     0.136 C 
ATOM      4  C25 1YT d   1      29.641   3.581  13.946  0.00  0.00     0.019 C 
ATOM      5  S28 1YT d   1      28.810   5.110  14.399  0.00  0.00    -0.090 S 
ATOM      6  C29 1YT d   1      30.073   5.826  15.454  0.00  0.00    -0.004 C 
ATOM      7  H6  1YT d   1      31.147   6.555  13.722  0.00  0.00     0.045 H 
ATOM      8  H7  1YT d   1      32.206   4.102  15.189  0.00  0.00     0.086 H 
ATOM      9  H8  1YT d   1      30.932   4.398  12.416  0.00  0.00     0.089 H 
ATOM     10  H9  1YT d   1      29.741   2.954  14.844  0.00  0.00     0.054 H 
ATOM     11  H10 1YT d   1      29.030   3.055  13.198  0.00  0.00     0.054 H 
ATOM     12  H11 1YT d   1      29.717   6.795  15.835  0.00  0.00     0.051 H 
ATOM     13  H12 1YT d   1      30.263   5.148  16.299  0.00  0.00     0.051 H 
ENDROOT
BRANCH   1  14
ATOM     14  C16 1YT d   1      32.393   7.007  15.421  0.00  0.00    -0.034 C 
ATOM     15  H4  1YT d   1      32.757   6.503  16.329  0.00  0.00     0.040 H 
ATOM     16  H5  1YT d   1      33.245   7.239  14.764  0.00  0.00     0.040 H 
BRANCH  14  17
ATOM     17  C13 1YT d   1      31.698   8.320  15.822  0.00  0.00    -0.052 A 
ATOM     18  C11 1YT d   1      31.351   9.302  14.854  0.00  0.00    -0.037 A 
ATOM     19  C10 1YT d   1      30.685  10.485  15.253  0.00  0.00     0.145 A 
ATOM     20  H2  1YT d   1      31.597   9.144  13.810  0.00  0.00     0.089 H 
ATOM     21  C9  1YT d   1      30.365  10.700  16.619  0.00  0.00     0.098 A 
ATOM     22  F63 1YT d   1      30.355  11.396  14.341  0.00  0.00    -0.204 F 
ATOM     23  C8  1YT d   1      30.718   9.720  17.580  0.00  0.00     0.099 A 
ATOM     24  C14 1YT d   1      31.383   8.540  17.179  0.00  0.00    -0.042 A 
ATOM     25  H3  1YT d   1      31.654   7.797  17.921  0.00  0.00     0.088 H 
BRANCH  21  26
ATOM     26  N64 1YT d   1      29.725  11.831  17.004  0.00  0.00    -0.394 N 
ATOM     27  H32 1YT d   1      29.496  11.980  17.997  0.00  0.00     0.156 HD
ATOM     28  H33 1YT d   1      29.468  12.541  16.304  0.00  0.00     0.156 HD
ENDBRANCH  21  26
BRANCH  23  29
ATOM     29  O7  1YT d   1      30.395   9.936  18.914  0.00  0.00    -0.332 OA
BRANCH  29  30
ATOM     30  C5  1YT d   1      29.713   8.906  19.665  0.00  0.00     0.159 C 
ATOM     31  H1  1YT d   1      29.710   7.987  19.061  0.00  0.00     0.101 H 
BRANCH  30  32
ATOM     32  C2  1YT d   1      30.523   8.636  20.956  0.00  0.00     0.415 C 
ATOM     33  F1  1YT d   1      31.758   8.179  20.632  0.00  0.00    -0.168 F 
ATOM     34  F3  1YT d   1      29.918   7.710  21.746  0.00  0.00    -0.168 F 
ATOM     35  F4  1YT d   1      30.660   9.801  21.628  0.00  0.00    -0.168 F 
ENDBRANCH  30  32
BRANCH  30  36
ATOM     36  C67 1YT d   1      28.231   9.267  19.969  0.00  0.00     0.052 C 
ATOM     37  H34 1YT d   1      28.194  10.166  20.601  0.00  0.00     0.078 H 
ATOM     38  H35 1YT d   1      27.748   8.429  20.494  0.00  0.00     0.078 H 
BRANCH  36  39
ATOM     39  O70 1YT d   1      27.542   9.520  18.730  0.00  0.00    -0.393 OA
BRANCH  39  40
ATOM     40  C71 1YT d   1      26.118   9.678  18.888  0.00  0.00     0.004 C 
ATOM     41  H36 1YT d   1      25.659   9.867  17.907  0.00  0.00     0.066 H 
ATOM     42  H37 1YT d   1      25.915  10.527  19.558  0.00  0.00     0.066 H 
ATOM     43  H38 1YT d   1      25.693   8.760  19.320  0.00  0.00     0.066 H 
ENDBRANCH  39  40
ENDBRANCH  36  39
ENDBRANCH  30  36
ENDBRANCH  29  30
ENDBRANCH  23  29
ENDBRANCH  14  17
ENDBRANCH   1  14
BRANCH   2  44
ATOM     44  O61 1YT d   1      33.239   4.812  13.539  0.00  0.00    -0.393 OA
ATOM     45  H31 1YT d   1      33.854   5.316  14.058  0.00  0.00     0.210 HD
ENDBRANCH   2  44
BRANCH   3  46
ATOM     46  N33 1YT d   1      31.648   2.500  13.008  0.00  0.00    -0.064 N 
ATOM     47  H14 1YT d   1      31.602   1.947  13.850  0.00  0.00     0.278 HD
ATOM     48  H15 1YT d   1      32.612   2.672  12.771  0.00  0.00     0.278 HD
BRANCH  46  49
ATOM     49  C35 1YT d   1      31.095   1.642  11.914  0.00  0.00     0.106 C 
ATOM     50  H16 1YT d   1      30.101   1.274  12.208  0.00  0.00     0.083 H 
ATOM     51  H17 1YT d   1      31.768   0.788  11.747  0.00  0.00     0.083 H 
BRANCH  49  52
ATOM     52  C38 1YT d   1      30.971   2.456  10.608  0.00  0.00    -0.032 A 
ATOM     53  C39 1YT d   1      32.137   2.896   9.939  0.00  0.00    -0.069 A 
ATOM     54  C41 1YT d   1      32.094   3.655   8.732  0.00  0.00    -0.050 A 
ATOM     55  H18 1YT d   1      33.104   2.646  10.361  0.00  0.00     0.085 H 
ATOM     56  C42 1YT d   1      30.790   3.949   8.227  0.00  0.00    -0.076 A 
ATOM     57  C44 1YT d   1      29.609   3.519   8.877  0.00  0.00    -0.082 A 
ATOM     58  H19 1YT d   1      30.702   4.523   7.312  0.00  0.00     0.084 H 
ATOM     59  C46 1YT d   1      29.694   2.767  10.073  0.00  0.00    -0.075 A 
ATOM     60  H20 1YT d   1      28.640   3.765   8.459  0.00  0.00     0.083 H 
ATOM     61  H21 1YT d   1      28.793   2.432  10.575  0.00  0.00     0.084 H 
BRANCH  54  62
ATOM     62  C48 1YT d   1      33.416   4.125   8.027  0.00  0.00    -0.024 C 
BRANCH  62  63
ATOM     63  C49 1YT d   1      34.392   2.920   7.900  0.00  0.00    -0.066 C 
ATOM     64  H22 1YT d   1      35.318   3.249   7.406  0.00  0.00     0.028 H 
ATOM     65  H23 1YT d   1      33.919   2.127   7.302  0.00  0.00     0.028 H 
ATOM     66  H24 1YT d   1      34.628   2.532   8.902  0.00  0.00     0.028 H 
ENDBRANCH  62  63
BRANCH  62  67
ATOM     67  C53 1YT d   1      33.244   4.717   6.585  0.00  0.00    -0.066 C 
ATOM     68  H25 1YT d   1      32.559   5.577   6.621  0.00  0.00     0.028 H 
ATOM     69  H26 1YT d   1      32.830   3.946   5.919  0.00  0.00     0.028 H 
ATOM     70  H27 1YT d   1      34.223   5.044   6.204  0.00  0.00     0.028 H 
ENDBRANCH  62  67
BRANCH  62  71
ATOM     71  C57 1YT d   1      34.130   5.246   8.852  0.00  0.00    -0.066 C 
ATOM     72  H28 1YT d   1      34.285   4.899   9.884  0.00  0.00     0.028 H 
ATOM     73  H29 1YT d   1      33.504   6.151   8.860  0.00  0.00     0.028 H 
ATOM     74  H30 1YT d   1      35.102   5.477   8.392  0.00  0.00     0.028 H 
ENDBRANCH  62  71
ENDBRANCH  54  62
ENDBRANCH  49  52
ENDBRANCH  46  49
ENDBRANCH   3  46
BRANCH   5  75
ATOM     75  O32 1YT d   1      28.739   5.995  13.183  0.00  0.00    -0.341 OA
ATOM     76  H13 1YT d   1      28.507   6.877  13.448  0.00  0.00     0.226 HD
ENDBRANCH   5  75
TORSDOF 18
