REMARK  16 active torsions:
REMARK  status: ('A' for Active; 'I' for Inactive)
REMARK    1  A    between atoms: C2_2  and  C5_5 
REMARK    2  A    between atoms: C5_5  and  O7_6 
REMARK    3  A    between atoms: C5_5  and  C67_36 
REMARK    4  A    between atoms: O7_6  and  C8_7 
REMARK    5  A    between atoms: C9_8  and  N64_35 
REMARK    6  A    between atoms: C13_11  and  C16_13 
REMARK    7  A    between atoms: C16_13  and  C19_14 
REMARK    8  A    between atoms: C21_15  and  O61_33 
REMARK    9  A    between atoms: C23_16  and  N33_21 
REMARK   10  A    between atoms: S28_18  and  O32_20 
REMARK   11  A    between atoms: N33_21  and  C35_22 
REMARK   12  A    between atoms: C35_22  and  C38_23 
REMARK   13  A    between atoms: C41_25  and  C48_29 
REMARK   14  A    between atoms: C48_29  and  C49_30 
REMARK   15  A    between atoms: C48_29  and  C53_31 
REMARK   16  A    between atoms: C48_29  and  C57_32 
ROOT
ATOM      1  C19 1YU d   1      31.658   5.854  14.222  0.00  0.00    -0.014 C 
ATOM      2  C21 1YU d   1      32.197   4.415  13.924  0.00  0.00     0.068 C 
ATOM      3  C23 1YU d   1      31.176   3.525  13.137  0.00  0.00     0.136 C 
ATOM      4  C25 1YU d   1      29.770   3.396  13.797  0.00  0.00     0.019 C 
ATOM      5  S28 1YU d   1      29.047   5.030  13.959  0.00  0.00    -0.090 S 
ATOM      6  C29 1YU d   1      30.298   5.771  14.994  0.00  0.00    -0.004 C 
ATOM      7  H6  1YU d   1      31.451   6.318  13.246  0.00  0.00     0.045 H 
ATOM      8  H7  1YU d   1      32.419   3.935  14.889  0.00  0.00     0.086 H 
ATOM      9  H8  1YU d   1      31.005   4.058  12.190  0.00  0.00     0.089 H 
ATOM     10  H9  1YU d   1      29.870   2.937  14.792  0.00  0.00     0.054 H 
ATOM     11  H10 1YU d   1      29.123   2.768  13.167  0.00  0.00     0.054 H 
ATOM     12  H11 1YU d   1      29.980   6.784  15.280  0.00  0.00     0.051 H 
ATOM     13  H12 1YU d   1      30.430   5.159  15.899  0.00  0.00     0.051 H 
ENDROOT
BRANCH   3  14
ATOM     14  N33 1YU d   1      31.725   2.194  12.755  0.00  0.00    -0.064 N 
ATOM     15  H14 1YU d   1      31.718   1.633  13.592  0.00  0.00     0.278 HD
ATOM     16  H15 1YU d   1      32.677   2.352  12.464  0.00  0.00     0.278 HD
BRANCH  14  17
ATOM     17  C35 1YU d   1      31.088   1.361  11.683  0.00  0.00     0.106 C 
ATOM     18  H16 1YU d   1      30.097   1.024  12.022  0.00  0.00     0.083 H 
ATOM     19  H17 1YU d   1      31.722   0.486  11.475  0.00  0.00     0.083 H 
BRANCH  17  20
ATOM     20  C38 1YU d   1      30.932   2.200  10.396  0.00  0.00    -0.032 A 
ATOM     21  C39 1YU d   1      32.088   2.594   9.683  0.00  0.00    -0.069 A 
ATOM     22  C41 1YU d   1      32.034   3.377   8.498  0.00  0.00    -0.050 A 
ATOM     23  H18 1YU d   1      33.058   2.285  10.057  0.00  0.00     0.085 H 
ATOM     24  C42 1YU d   1      30.734   3.750   8.053  0.00  0.00    -0.076 A 
ATOM     25  C44 1YU d   1      29.558   3.367   8.744  0.00  0.00    -0.082 A 
ATOM     26  H19 1YU d   1      30.641   4.348   7.154  0.00  0.00     0.084 H 
ATOM     27  C46 1YU d   1      29.654   2.589   9.920  0.00  0.00    -0.075 A 
ATOM     28  H20 1YU d   1      28.586   3.670   8.371  0.00  0.00     0.083 H 
ATOM     29  H21 1YU d   1      28.758   2.292  10.454  0.00  0.00     0.084 H 
BRANCH  22  30
ATOM     30  C48 1YU d   1      33.354   3.789   7.758  0.00  0.00    -0.024 C 
BRANCH  30  31
ATOM     31  C49 1YU d   1      34.278   2.550   7.579  0.00  0.00    -0.066 C 
ATOM     32  H22 1YU d   1      35.199   2.852   7.059  0.00  0.00     0.028 H 
ATOM     33  H23 1YU d   1      33.756   1.786   6.985  0.00  0.00     0.028 H 
ATOM     34  H24 1YU d   1      34.532   2.137   8.566  0.00  0.00     0.028 H 
ENDBRANCH  30  31
BRANCH  30  35
ATOM     35  C53 1YU d   1      33.136   4.407   6.336  0.00  0.00    -0.066 C 
ATOM     36  H25 1YU d   1      32.485   5.290   6.416  0.00  0.00     0.028 H 
ATOM     37  H26 1YU d   1      32.663   3.661   5.681  0.00  0.00     0.028 H 
ATOM     38  H27 1YU d   1      34.107   4.704   5.913  0.00  0.00     0.028 H 
ENDBRANCH  30  35
BRANCH  30  39
ATOM     39  C57 1YU d   1      34.131   4.860   8.591  0.00  0.00    -0.066 C 
ATOM     40  H28 1YU d   1      34.312   4.475   9.605  0.00  0.00     0.028 H 
ATOM     41  H29 1YU d   1      33.535   5.782   8.650  0.00  0.00     0.028 H 
ATOM     42  H30 1YU d   1      35.093   5.076   8.104  0.00  0.00     0.028 H 
ENDBRANCH  30  39
ENDBRANCH  22  30
ENDBRANCH  17  20
ENDBRANCH  14  17
ENDBRANCH   3  14
BRANCH   2  43
ATOM     43  O61 1YU d   1      33.394   4.439  13.123  0.00  0.00    -0.393 OA
ATOM     44  H31 1YU d   1      34.053   4.969  13.556  0.00  0.00     0.210 HD
ENDBRANCH   2  43
BRANCH   1  45
ATOM     45  C16 1YU d   1      32.676   6.805  14.955  0.00  0.00    -0.034 C 
ATOM     46  H4  1YU d   1      33.045   6.300  15.860  0.00  0.00     0.040 H 
ATOM     47  H5  1YU d   1      33.520   7.010  14.279  0.00  0.00     0.040 H 
BRANCH  45  48
ATOM     48  C13 1YU d   1      32.031   8.142  15.362  0.00  0.00    -0.052 A 
ATOM     49  C11 1YU d   1      31.724   9.148  14.407  0.00  0.00    -0.037 A 
ATOM     50  C10 1YU d   1      31.100  10.350  14.828  0.00  0.00     0.145 A 
ATOM     51  H2  1YU d   1      31.966   8.998  13.361  0.00  0.00     0.089 H 
ATOM     52  C9  1YU d   1      30.781  10.554  16.197  0.00  0.00     0.098 A 
ATOM     53  F63 1YU d   1      30.806  11.291  13.935  0.00  0.00    -0.204 F 
ATOM     54  C8  1YU d   1      31.100   9.550  17.146  0.00  0.00     0.099 A 
ATOM     55  C14 1YU d   1      31.726   8.350  16.725  0.00  0.00    -0.042 A 
ATOM     56  H3  1YU d   1      31.972   7.587  17.454  0.00  0.00     0.088 H 
BRANCH  52  57
ATOM     57  N64 1YU d   1      30.173  11.695  16.597  0.00  0.00    -0.394 N 
ATOM     58  H32 1YU d   1      29.945  11.836  17.591  0.00  0.00     0.156 HD
ATOM     59  H33 1YU d   1      29.938  12.423  15.907  0.00  0.00     0.156 HD
ENDBRANCH  52  57
BRANCH  54  60
ATOM     60  O7  1YU d   1      30.774   9.773  18.483  0.00  0.00    -0.325 OA
BRANCH  60  61
ATOM     61  C5  1YU d   1      30.032   8.778  19.222  0.00  0.00     0.231 C 
ATOM     62  H1  1YU d   1      29.997   7.847  18.637  0.00  0.00     0.112 H 
BRANCH  61  63
ATOM     63  C2  1YU d   1      28.564   9.237  19.440  0.00  0.00     0.422 C 
ATOM     64  F1  1YU d   1      27.838   8.243  20.011  0.00  0.00    -0.168 F 
ATOM     65  F3  1YU d   1      27.996   9.511  18.240  0.00  0.00    -0.168 F 
ATOM     66  F4  1YU d   1      28.508  10.358  20.210  0.00  0.00    -0.168 F 
ENDBRANCH  61  63
BRANCH  61  67
ATOM     67  C67 1YU d   1      30.853   8.505  20.507  0.00  0.00     0.422 C 
ATOM     68  F68 1YU d   1      30.187   7.659  21.334  0.00  0.00    -0.168 F 
ATOM     69  F69 1YU d   1      31.119   9.665  21.150  0.00  0.00    -0.168 F 
ATOM     70  F70 1YU d   1      32.039   7.926  20.183  0.00  0.00    -0.168 F 
ENDBRANCH  61  67
ENDBRANCH  60  61
ENDBRANCH  54  60
ENDBRANCH  45  48
ENDBRANCH   1  45
BRANCH   5  71
ATOM     71  O32 1YU d   1      27.822   4.877  14.807  0.00  0.00    -0.341 OA
ATOM     72  H13 1YU d   1      27.128   4.484  14.291  0.00  0.00     0.226 HD
ENDBRANCH   5  71
TORSDOF 16
