REMARK  11 active torsions:
REMARK  status: ('A' for Active; 'I' for Inactive)
REMARK    1  A    between atoms: C5_1  and  C8_3 
REMARK    2  A    between atoms: C8_3  and  C10_5 
REMARK    3  A    between atoms: C8_3  and  C11_6 
REMARK    4  A    between atoms: C8_3  and  C12_7 
REMARK    5  A    between atoms: S6_14  and  C9_4 
REMARK    6  A    between atoms: C15_9  and  N17_16 
REMARK    7  A    between atoms: C3_13  and  C1_11 
REMARK    8  A    between atoms: C3_13  and  S6_14 
REMARK       I    between atoms: N17_16  and  C18_17 
REMARK    9  A    between atoms: C18_17  and  C19_19 
REMARK   10  A    between atoms: C19_19  and  C22_20 
REMARK   11  A    between atoms: C19_19  and  C21_21 
ROOT
ATOM      1  C9  1YG d   1      27.200  31.394  28.137  0.00  0.00     0.062 A 
ATOM      2  C14 1YG d   1      26.315  32.263  28.688  0.00  0.00     0.028 A 
ATOM      3  C15 1YG d   1      25.114  30.455  28.944  0.00  0.00     0.174 A 
ATOM      4  N16 1YG d   1      25.146  31.738  29.171  0.00  0.00    -0.235 NA
ATOM      5  S13 1YG d   1      26.523  29.784  28.175  0.00  0.00    -0.044 SA
ATOM      6  H11 1YG d   1      26.525  33.330  28.744  0.00  0.00     0.117 H 
ENDROOT
BRANCH   1   7
ATOM      7  S6  1YG d   1      28.838  31.581  27.534  0.00  0.00    -0.113 SA
BRANCH   7   8
ATOM      8  C3  1YG d   1      28.542  31.489  25.762  0.00  0.00     0.043 C 
ATOM      9  H12 1YG d   1      27.482  31.683  25.542  0.00  0.00     0.062 H 
ATOM     10  H13 1YG d   1      29.166  32.224  25.233  0.00  0.00     0.062 H 
BRANCH   8  11
ATOM     11  C1  1YG d   1      28.907  30.119  25.354  0.00  0.00     0.154 A 
ATOM     12  N4  1YG d   1      30.129  29.596  25.308  0.00  0.00    -0.237 NA
ATOM     13  C7  1YG d   1      29.939  28.279  24.992  0.00  0.00     0.034 A 
ATOM     14  C5  1YG d   1      28.582  28.022  24.857  0.00  0.00     0.080 A 
ATOM     15  H1  1YG d   1      30.732  27.544  24.866  0.00  0.00     0.118 H 
ATOM     16  O2  1YG d   1      27.922  29.214  25.074  0.00  0.00    -0.297 OA
BRANCH  14  17
ATOM     17  C8  1YG d   1      27.811  26.730  24.587  0.00  0.00    -0.000 C 
BRANCH  17  18
ATOM     18  C10 1YG d   1      28.720  25.515  24.764  0.00  0.00    -0.064 C 
ATOM     19  H2  1YG d   1      28.148  24.597  24.566  0.00  0.00     0.028 H 
ATOM     20  H3  1YG d   1      29.105  25.492  25.794  0.00  0.00     0.028 H 
ATOM     21  H4  1YG d   1      29.562  25.581  24.059  0.00  0.00     0.028 H 
ENDBRANCH  17  18
BRANCH  17  22
ATOM     22  C11 1YG d   1      27.276  26.738  23.156  0.00  0.00    -0.064 C 
ATOM     23  H5  1YG d   1      26.619  27.609  23.015  0.00  0.00     0.028 H 
ATOM     24  H6  1YG d   1      26.706  25.815  22.973  0.00  0.00     0.028 H 
ATOM     25  H7  1YG d   1      28.118  26.796  22.450  0.00  0.00     0.028 H 
ENDBRANCH  17  22
BRANCH  17  26
ATOM     26  C12 1YG d   1      26.641  26.606  25.563  0.00  0.00    -0.064 C 
ATOM     27  H8  1YG d   1      27.023  26.600  26.595  0.00  0.00     0.028 H 
ATOM     28  H9  1YG d   1      26.098  25.669  25.368  0.00  0.00     0.028 H 
ATOM     29  H10 1YG d   1      25.960  27.459  25.429  0.00  0.00     0.028 H 
ENDBRANCH  17  26
ENDBRANCH  14  17
ENDBRANCH   8  11
ENDBRANCH   7   8
ENDBRANCH   1   7
BRANCH   3  30
ATOM     30  N17 1YG d   1      23.948  29.752  29.183  0.00  0.00    -0.305 N 
ATOM     31  C18 1YG d   1      23.678  28.477  28.765  0.00  0.00     0.231 C 
ATOM     32  O20 1YG d   1      24.464  27.799  28.109  0.00  0.00    -0.272 OA
ATOM     33  H14 1YG d   1      23.237  30.218  29.709  0.00  0.00     0.171 HD
BRANCH  31  34
ATOM     34  C19 1YG d   1      22.283  27.969  29.123  0.00  0.00     0.046 C 
ATOM     35  H15 1YG d   1      21.686  28.810  29.506  0.00  0.00     0.061 H 
BRANCH  34  36
ATOM     36  C22 1YG d   1      21.590  27.437  27.868  0.00  0.00    -0.061 C 
ATOM     37  H16 1YG d   1      21.533  28.236  27.114  0.00  0.00     0.029 H 
ATOM     38  H17 1YG d   1      20.574  27.102  28.124  0.00  0.00     0.029 H 
ATOM     39  H18 1YG d   1      22.164  26.591  27.463  0.00  0.00     0.029 H 
ENDBRANCH  34  36
BRANCH  34  40
ATOM     40  C21 1YG d   1      22.416  26.939  30.238  0.00  0.00    -0.045 A 
ATOM     41  C24 1YG d   1      22.729  25.609  29.975  0.00  0.00    -0.076 A 
ATOM     42  C26 1YG d   1      22.757  24.672  30.997  0.00  0.00    -0.082 A 
ATOM     43  H19 1YG d   1      22.953  25.302  28.960  0.00  0.00     0.084 H 
ATOM     44  C27 1YG d   1      22.490  25.056  32.297  0.00  0.00    -0.083 A 
ATOM     45  H20 1YG d   1      22.989  23.637  30.776  0.00  0.00     0.083 H 
ATOM     46  C25 1YG d   1      22.216  26.380  32.576  0.00  0.00    -0.082 A 
ATOM     47  H21 1YG d   1      22.496  24.321  33.094  0.00  0.00     0.083 H 
ATOM     48  C23 1YG d   1      22.178  27.316  31.553  0.00  0.00    -0.076 A 
ATOM     49  H22 1YG d   1      22.030  26.689  33.598  0.00  0.00     0.083 H 
ATOM     50  H23 1YG d   1      21.960  28.353  31.783  0.00  0.00     0.084 H 
ENDBRANCH  34  40
ENDBRANCH  31  34
ENDBRANCH   3  30
TORSDOF 11
