REMARK  8 active torsions:
REMARK  status: ('A' for Active; 'I' for Inactive)
REMARK    1  A    between atoms: C12_2  and  C13_3 
REMARK       I    between atoms: C12_2  and  N1_4 
REMARK    2  A    between atoms: N1_4  and  C11_5 
REMARK    3  A    between atoms: C5_12  and  O3_19 
REMARK    4  A    between atoms: C3_13  and  O2_17 
REMARK    5  A    between atoms: C1_14  and  O1_15 
REMARK    6  A    between atoms: O1_15  and  C2_16 
REMARK    7  A    between atoms: O2_17  and  C4_18 
REMARK    8  A    between atoms: O3_19  and  C6_20 
ROOT
ATOM      1  C11 2SJ d   1       5.165  51.290   5.948  0.00  0.00     0.039 C 
ATOM      2  C14 2SJ d   1       3.839  51.153   5.244  0.00  0.00    -0.021 A 
ATOM      3  C15 2SJ d   1       3.213  52.296   4.917  0.00  0.00    -0.023 A 
ATOM      4  C10 2SJ d   1       4.980  51.026   7.444  0.00  0.00    -0.038 C 
ATOM      5  C9  2SJ d   1       4.360  49.662   7.759  0.00  0.00    -0.038 C 
ATOM      6  C8  2SJ d   1       4.707  48.580   6.751  0.00  0.00    -0.041 A 
ATOM      7  C7  2SJ d   1       5.491  47.497   7.133  0.00  0.00    -0.041 A 
ATOM      8  C5  2SJ d   1       5.816  46.494   6.229  0.00  0.00     0.104 A 
ATOM      9  C3  2SJ d   1       5.367  46.571   4.935  0.00  0.00     0.136 A 
ATOM     10  C1  2SJ d   1       4.573  47.627   4.551  0.00  0.00     0.116 A 
ATOM     11  C22 2SJ d   1       4.244  48.643   5.452  0.00  0.00     0.017 A 
ATOM     12  C21 2SJ d   1       3.382  49.787   4.989  0.00  0.00    -0.017 A 
ATOM     13  C20 2SJ d   1       2.239  49.384   4.387  0.00  0.00    -0.085 A 
ATOM     14  C19 2SJ d   1       1.165  50.140   3.788  0.00  0.00     0.002 A 
ATOM     15  C17 2SJ d   1       1.044  51.465   3.711  0.00  0.00     0.138 A 
ATOM     16  C16 2SJ d   1       1.946  52.487   4.218  0.00  0.00     0.204 A 
ATOM     17  O5  2SJ d   1       1.623  53.654   4.017  0.00  0.00    -0.286 OA
ATOM     18  O6  2SJ d   1      -0.021  51.923   3.084  0.00  0.00    -0.192 OA
ATOM     19  H   2SJ d   1       5.834  50.514   5.546  0.00  0.00     0.080 H 
ATOM     20  H   2SJ d   1       3.724  53.210   5.216  0.00  0.00     0.090 H 
ATOM     21  H   2SJ d   1       4.325  51.808   7.856  0.00  0.00     0.036 H 
ATOM     22  H   2SJ d   1       5.965  51.080   7.930  0.00  0.00     0.036 H 
ATOM     23  H   2SJ d   1       3.266  49.776   7.782  0.00  0.00     0.040 H 
ATOM     24  H   2SJ d   1       4.716  49.340   8.749  0.00  0.00     0.040 H 
ATOM     25  H   2SJ d   1       5.854  47.435   8.152  0.00  0.00     0.088 H 
ATOM     26  H   2SJ d   1       2.107  48.304   4.348  0.00  0.00     0.078 H 
ATOM     27  H   2SJ d   1       0.260  49.807   4.317  0.00  0.00     0.049 H 
ATOM     28  H   2SJ d   1       1.128  49.795   2.744  0.00  0.00     0.049 H 
ENDROOT
BRANCH   1  29
ATOM     29  N1  2SJ d   1       5.811  52.571   5.726  0.00  0.00    -0.353 N 
ATOM     30  C12 2SJ d   1       6.319  52.951   4.546  0.00  0.00     0.214 C 
ATOM     31  O4  2SJ d   1       6.919  54.014   4.407  0.00  0.00    -0.274 OA
ATOM     32  H   2SJ d   1       5.881  53.205   6.496  0.00  0.00     0.163 HD
BRANCH  30  33
ATOM     33  C13 2SJ d   1       6.132  52.080   3.364  0.00  0.00    -0.003 C 
ATOM     34  H   2SJ d   1       5.580  51.175   3.659  0.00  0.00     0.040 H 
ATOM     35  H   2SJ d   1       7.114  51.794   2.960  0.00  0.00     0.040 H 
ATOM     36  H   2SJ d   1       5.563  52.623   2.595  0.00  0.00     0.040 H 
ENDBRANCH  30  33
ENDBRANCH   1  29
BRANCH  10  37
ATOM     37  O1  2SJ d   1       4.145  47.679   3.255  0.00  0.00    -0.352 OA
BRANCH  37  38
ATOM     38  C2  2SJ d   1       4.709  48.671   2.397  0.00  0.00     0.011 C 
ATOM     39  H   2SJ d   1       4.265  48.584   1.394  0.00  0.00     0.067 H 
ATOM     40  H   2SJ d   1       5.797  48.523   2.330  0.00  0.00     0.067 H 
ATOM     41  H   2SJ d   1       4.500  49.671   2.805  0.00  0.00     0.067 H 
ENDBRANCH  37  38
ENDBRANCH  10  37
BRANCH   9  42
ATOM     42  O2  2SJ d   1       5.631  45.558   4.059  0.00  0.00    -0.351 OA
BRANCH  42  43
ATOM     43  C4  2SJ d   1       6.681  45.661   3.156  0.00  0.00     0.011 C 
ATOM     44  H   2SJ d   1       6.728  44.749   2.543  0.00  0.00     0.067 H 
ATOM     45  H   2SJ d   1       7.626  45.783   3.705  0.00  0.00     0.067 H 
ATOM     46  H   2SJ d   1       6.520  46.533   2.505  0.00  0.00     0.067 H 
ENDBRANCH  42  43
ENDBRANCH   9  42
BRANCH   8  47
ATOM     47  O3  2SJ d   1       6.578  45.405   6.556  0.00  0.00    -0.353 OA
BRANCH  47  48
ATOM     48  C6  2SJ d   1       7.121  45.229   7.855  0.00  0.00     0.010 C 
ATOM     49  H   2SJ d   1       7.694  44.291   7.889  0.00  0.00     0.066 H 
ATOM     50  H   2SJ d   1       6.305  45.187   8.591  0.00  0.00     0.066 H 
ATOM     51  H   2SJ d   1       7.785  46.073   8.092  0.00  0.00     0.066 H 
ENDBRANCH  47  48
ENDBRANCH   8  47
TORSDOF 8
