REMARK  5 active torsions:
REMARK  status: ('A' for Active; 'I' for Inactive)
REMARK    1  A    between atoms: N1_1  and  C6_13 
REMARK    2  A    between atoms: C1_3  and  C5_10 
REMARK    3  A    between atoms: C2_4  and  N3_6 
REMARK       I    between atoms: N3_6  and  C4_7 
REMARK       I    between atoms: C4_7  and  N4_8 
REMARK       I    between atoms: C5_10  and  N5_11 
REMARK    4  A    between atoms: C14_21  and  O3_23 
REMARK    5  A    between atoms: O3_23  and  C16_24 
ROOT
ATOM      1  C6  M0Z d   1      -5.059   9.490  12.514  0.00  0.00     0.069 A 
ATOM      2  C7  M0Z d   1      -4.394   9.315  11.324  0.00  0.00    -0.054 A 
ATOM      3  C8  M0Z d   1      -4.406  10.348  10.365  0.00  0.00    -0.080 A 
ATOM      4  C9  M0Z d   1      -5.086  11.509  10.615  0.00  0.00    -0.072 A 
ATOM      5  C10 M0Z d   1      -5.741  10.698  12.832  0.00  0.00     0.005 A 
ATOM      6  C11 M0Z d   1      -5.740  11.708  11.855  0.00  0.00    -0.024 A 
ATOM      7  C12 M0Z d   1      -6.403  12.937  12.119  0.00  0.00    -0.070 A 
ATOM      8  C13 M0Z d   1      -7.037  13.143  13.303  0.00  0.00    -0.050 A 
ATOM      9  C14 M0Z d   1      -7.027  12.107  14.281  0.00  0.00     0.069 A 
ATOM     10  C15 M0Z d   1      -6.396  10.909  14.071  0.00  0.00    -0.038 A 
ATOM     11  H   M0Z d   1      -3.865   8.390  11.125  0.00  0.00     0.087 H 
ATOM     12  H   M0Z d   1      -3.876  10.223   9.428  0.00  0.00     0.083 H 
ATOM     13  H   M0Z d   1      -5.124  12.283   9.857  0.00  0.00     0.084 H 
ATOM     14  H   M0Z d   1      -6.403  13.719  11.368  0.00  0.00     0.085 H 
ATOM     15  H   M0Z d   1      -7.543  14.081  13.501  0.00  0.00     0.087 H 
ATOM     16  H   M0Z d   1      -6.398  10.140  14.835  0.00  0.00     0.089 H 
ENDROOT
BRANCH   1  17
ATOM     17  N1  M0Z d   1      -5.022   8.409  13.457  0.00  0.00    -0.241 N 
ATOM     18  N2  M0Z d   1      -6.125   7.755  13.868  0.00  0.00    -0.160 NA
ATOM     19  C1  M0Z d   1      -5.669   6.787  14.727  0.00  0.00     0.172 A 
ATOM     20  C2  M0Z d   1      -4.239   6.854  14.837  0.00  0.00     0.090 A 
ATOM     21  C3  M0Z d   1      -3.837   7.900  13.999  0.00  0.00     0.033 A 
ATOM     22  H   M0Z d   1      -2.821   8.244  13.810  0.00  0.00     0.118 H 
BRANCH  19  23
ATOM     23  C5  M0Z d   1      -6.546   5.833  15.410  0.00  0.00     0.272 C 
ATOM     24  N5  M0Z d   1      -7.865   5.795  15.034  0.00  0.00    -0.365 N 
ATOM     25  H   M0Z d   1      -8.493   5.156  15.478  0.00  0.00     0.159 HD
ATOM     26  H   M0Z d   1      -8.198   6.406  14.316  0.00  0.00     0.159 HD
ATOM     27  O2  M0Z d   1      -6.122   5.073  16.289  0.00  0.00    -0.266 OA
ENDBRANCH  19  23
BRANCH  20  28
ATOM     28  N3  M0Z d   1      -3.471   6.015  15.635  0.00  0.00    -0.305 N 
ATOM     29  C4  M0Z d   1      -2.075   6.164  15.715  0.00  0.00     0.318 C 
ATOM     30  N4  M0Z d   1      -1.423   5.319  16.604  0.00  0.00    -0.352 N 
ATOM     31  O1  M0Z d   1      -1.439   6.988  15.048  0.00  0.00    -0.247 OA
ATOM     32  H   M0Z d   1      -0.430   5.373  16.709  0.00  0.00     0.160 HD
ATOM     33  H   M0Z d   1      -1.947   4.656  17.139  0.00  0.00     0.160 HD
ATOM     34  H   M0Z d   1      -3.919   5.293  16.162  0.00  0.00     0.171 HD
ENDBRANCH  20  28
ENDBRANCH   1  17
BRANCH   9  35
ATOM     35  O3  M0Z d   1      -7.678  12.476  15.418  0.00  0.00    -0.356 OA
BRANCH  35  36
ATOM     36  C16 M0Z d   1      -7.995  11.461  16.335  0.00  0.00     0.010 C 
ATOM     37  H   M0Z d   1      -8.515  11.898  17.200  0.00  0.00     0.066 H 
ATOM     38  H   M0Z d   1      -7.070  10.970  16.673  0.00  0.00     0.066 H 
ATOM     39  H   M0Z d   1      -8.648  10.720  15.851  0.00  0.00     0.066 H 
ENDBRANCH  35  36
ENDBRANCH   9  35
TORSDOF 5
