REMARK  29 active torsions:
REMARK  status: ('A' for Active; 'I' for Inactive)
REMARK    1  A    between atoms: N_1  and  CA_2 
REMARK    2  A    between atoms: CA_8  and  CB_11 
REMARK    3  A    between atoms: CB_11  and  CG_12 
REMARK    4  A    between atoms: CG_12  and  CD_13 
REMARK    5  A    between atoms: CD_13  and  NE_14 
REMARK       I    between atoms: NE_14  and  CZ_15 
REMARK       I    between atoms: CZ_15  and  NH1_16 
REMARK       I    between atoms: CZ_15  and  NH2_17 
REMARK    6  A    between atoms: CA_19  and  CB_22 
REMARK    7  A    between atoms: CB_22  and  CG1_23 
REMARK    8  A    between atoms: CB_22  and  CG2_24 
REMARK    9  A    between atoms: CG1_23  and  CD1_25 
REMARK   10  A    between atoms: CA_27  and  CB_30 
REMARK   11  A    between atoms: CB_30  and  CG_31 
REMARK   12  A    between atoms: CA_37  and  CB_40 
REMARK   13  A    between atoms: CB_40  and  CG1_41 
REMARK   14  A    between atoms: CB_40  and  CG2_42 
REMARK   15  A    between atoms: CG1_41  and  CD1_43 
REMARK   16  A    between atoms: CA_60  and  CB_63 
REMARK   17  A    between atoms: CB_63  and  CG_64 
REMARK   18  A    between atoms: CG_64  and  CD_65 
REMARK   19  A    between atoms: CD_65  and  NE_66 
REMARK       I    between atoms: NE_66  and  CZ_67 
REMARK       I    between atoms: CZ_67  and  NH1_68 
REMARK   20  A    between atoms: CA_71  and  CB_74 
REMARK   21  A    between atoms: CA_76  and  CB_79 
REMARK   22  A    between atoms: CB_79  and  CG_80 
REMARK   23  A    between atoms: CA_87  and  CB_90 
REMARK   24  A    between atoms: CB_90  and  CG_91 
REMARK   25  A    between atoms: CZ_96  and  OH_97 
REMARK   26  A    between atoms: CA_99  and  CB_102 
REMARK   27  A    between atoms: CB_102  and  OG1_103 
REMARK   28  A    between atoms: CB_102  and  CG2_104 
REMARK   29  A    between atoms: CA_106  and  C_107 
ROOT
ATOM      1  CA  CYS d   1       0.826  25.062  70.328  0.00  0.00     0.184 C 
ATOM      2  C   CYS d   1       0.114  23.844  69.729  0.00  0.00     0.249 C 
ATOM      3  O   CYS d   1      -0.223  22.897  70.446  0.00  0.00    -0.271 OA
ATOM      4  CB  CYS d   1       2.244  25.192  69.773  0.00  0.00     0.021 C 
ATOM      5  SG  CYS d   1       3.086  26.741  70.264  0.00  0.00    -0.095 SA
ATOM      6  N   CYS d   1       0.851  28.430  66.577  0.00  0.00    -0.344 N 
ATOM      7  CA  CYS d   1       0.752  28.871  67.959  0.00  0.00     0.105 C 
ATOM      8  CB  CYS d   1       2.119  29.297  68.503  0.00  0.00     0.015 C 
ATOM      9  SG  CYS d   1       3.338  27.982  68.653  0.00  0.00    -0.095 SA
ATOM     10  H4  CYS d   1       0.260  25.962  70.046  0.00  0.00     0.100 H 
ATOM     11  H5  CYS d   1       2.192  25.158  68.675  0.00  0.00     0.054 H 
ATOM     12  H6  CYS d   1       2.839  24.342  70.138  0.00  0.00     0.054 H 
ATOM     13 5H10 CYS d   1       0.950  29.108  65.848  0.00  0.00     0.163 HD
ATOM     14 6H10 CYS d   1       0.370  28.042  68.572  0.00  0.00     0.090 H 
ATOM     15 7H10 CYS d   1       1.966  29.732  69.501  0.00  0.00     0.054 H 
ATOM     16 8H10 CYS d   1       2.529  30.063  67.828  0.00  0.00     0.054 H 
ATOM     17  N   ARG d   1      -0.121  23.872  68.422  0.00  0.00    -0.346 N 
ATOM     18  CA  ARG d   1      -0.786  22.758  67.742  0.00  0.00     0.089 C 
ATOM     19  C   ARG d   1       0.111  22.189  66.662  0.00  0.00     0.241 C 
ATOM     20  O   ARG d   1       0.842  22.925  65.997  0.00  0.00    -0.271 OA
ATOM     21  N   ARG d   1      -1.383  21.630  55.440  0.00  0.00    -0.346 N 
ATOM     22  CA  ARG d   1      -1.470  22.293  56.746  0.00  0.00     0.089 C 
ATOM     23  C   ARG d   1      -0.118  22.859  57.184  0.00  0.00     0.241 C 
ATOM     24  O   ARG d   1       0.920  22.228  56.968  0.00  0.00    -0.271 OA
ATOM     25  H7  ARG d   1       0.162  24.671  67.891  0.00  0.00     0.163 HD
ATOM     26  H8  ARG d   1      -1.008  21.971  68.477  0.00  0.00     0.087 H 
ATOM     27  H62 ARG d   1      -1.264  20.638  55.402  0.00  0.00     0.163 HD
ATOM     28  H63 ARG d   1      -2.197  23.115  56.677  0.00  0.00     0.087 H 
ATOM     29  N   ILE d   1       0.080  20.867  66.507  0.00  0.00    -0.346 N 
ATOM     30  CA  ILE d   1       0.821  20.221  65.455  0.00  0.00     0.092 C 
ATOM     31  C   ILE d   1      -0.207  19.595  64.521  0.00  0.00     0.241 C 
ATOM     32  O   ILE d   1      -1.111  18.910  64.973  0.00  0.00    -0.271 OA
ATOM     33  N   ILE d   1      -1.023  17.267  61.238  0.00  0.00    -0.346 N 
ATOM     34  CA  ILE d   1      -0.478  16.154  60.470  0.00  0.00     0.092 C 
ATOM     35  C   ILE d   1      -1.425  15.877  59.302  0.00  0.00     0.241 C 
ATOM     36  O   ILE d   1      -2.412  15.164  59.439  0.00  0.00    -0.271 OA
ATOM     37  H20 ILE d   1      -0.468  20.312  67.133  0.00  0.00     0.163 HD
ATOM     38  H21 ILE d   1       1.416  20.965  64.906  0.00  0.00     0.088 H 
ATOM     39  H38 ILE d   1      -1.886  17.145  61.729  0.00  0.00     0.163 HD
ATOM     40  H39 ILE d   1       0.511  16.435  60.080  0.00  0.00     0.088 H 
ATOM     41  N   HIS d   1      -0.061  19.859  63.230  0.00  0.00    -0.346 N 
ATOM     42  CA  HIS d   1      -1.027  19.460  62.223  0.00  0.00     0.094 C 
ATOM     43  C   HIS d   1      -0.399  18.441  61.301  0.00  0.00     0.241 C 
ATOM     44  O   HIS d   1       0.633  18.704  60.664  0.00  0.00    -0.271 OA
ATOM     45  H31 HIS d   1       0.754  20.357  62.936  0.00  0.00     0.163 HD
ATOM     46  H32 HIS d   1      -1.897  19.007  62.721  0.00  0.00     0.088 H 
ATOM     47  N   GLY d   1      -1.126  16.470  58.151  0.00  0.00    -0.351 N 
ATOM     48  CA  GLY d   1      -1.967  16.319  56.979  0.00  0.00     0.069 C 
ATOM     49  C   GLY d   1      -1.530  17.287  55.895  0.00  0.00     0.238 C 
ATOM     50  O   GLY d   1      -0.748  18.207  56.145  0.00  0.00    -0.272 OA
ATOM     51  N   GLY d   1      -1.051  20.148  53.166  0.00  0.00    -0.351 N 
ATOM     52  CA  GLY d   1      -1.409  21.547  53.007  0.00  0.00     0.069 C 
ATOM     53  C   GLY d   1      -1.459  22.322  54.302  0.00  0.00     0.236 C 
ATOM     54  O   GLY d   1      -1.573  23.550  54.266  0.00  0.00    -0.272 OA
ATOM     55  H49 GLY d   1      -0.302  17.034  58.092  0.00  0.00     0.163 HD
ATOM     56  H50 GLY d   1      -3.012  16.526  57.252  0.00  0.00     0.078 H 
ATOM     57  H51 GLY d   1      -1.884  15.289  56.602  0.00  0.00     0.078 H 
ATOM     58  H59 GLY d   1      -0.104  19.861  53.024  0.00  0.00     0.163 HD
ATOM     59  H60 GLY d   1      -2.401  21.598  52.535  0.00  0.00     0.078 H 
ATOM     60  H61 GLY d   1      -0.666  22.021  52.349  0.00  0.00     0.078 H 
ATOM     61  N   PRO d   1      -2.038  17.084  54.677  0.00  0.00    -0.337 N 
ATOM     62  CA  PRO d   1      -1.518  17.798  53.511  0.00  0.00     0.091 C 
ATOM     63  C   PRO d   1      -1.967  19.246  53.498  0.00  0.00     0.241 C 
ATOM     64  O   PRO d   1      -3.129  19.524  53.789  0.00  0.00    -0.271 OA
ATOM     65  CB  PRO d   1      -2.121  17.031  52.327  0.00  0.00    -0.036 C 
ATOM     66  CG  PRO d   1      -3.372  16.384  52.886  0.00  0.00    -0.048 C 
ATOM     67  CD  PRO d   1      -3.071  16.082  54.334  0.00  0.00    -0.001 C 
ATOM     68  H52 PRO d   1      -0.419  17.758  53.487  0.00  0.00     0.087 H 
ATOM     69  H53 PRO d   1      -1.419  16.267  51.962  0.00  0.00     0.036 H 
ATOM     70  H54 PRO d   1      -2.373  17.719  51.507  0.00  0.00     0.036 H 
ATOM     71  H55 PRO d   1      -3.599  15.456  52.341  0.00  0.00     0.035 H 
ATOM     72  H56 PRO d   1      -4.226  17.073  52.809  0.00  0.00     0.035 H 
ATOM     73  H57 PRO d   1      -3.967  16.209  54.959  0.00  0.00     0.064 H 
ATOM     74  H58 PRO d   1      -2.684  15.059  54.452  0.00  0.00     0.064 H 
ATOM     75  N   ALA d   1      -0.113  24.033  57.815  0.00  0.00    -0.346 N 
ATOM     76  CA  ALA d   1       1.109  24.475  58.483  0.00  0.00     0.086 C 
ATOM     77  C   ALA d   1       1.416  23.448  59.572  0.00  0.00     0.240 C 
ATOM     78  O   ALA d   1       0.544  23.085  60.350  0.00  0.00    -0.271 OA
ATOM     79  H75 ALA d   1      -0.934  24.603  57.831  0.00  0.00     0.163 HD
ATOM     80  H76 ALA d   1       1.935  24.506  57.757  0.00  0.00     0.086 H 
ATOM     81  N   PHE d   1       2.657  22.987  59.622  0.00  0.00    -0.346 N 
ATOM     82  CA  PHE d   1       3.031  21.887  60.494  0.00  0.00     0.093 C 
ATOM     83  C   PHE d   1       2.835  22.255  61.980  0.00  0.00     0.241 C 
ATOM     84  O   PHE d   1       2.316  21.457  62.763  0.00  0.00    -0.271 OA
ATOM     85  H80 PHE d   1       3.356  23.408  59.043  0.00  0.00     0.163 HD
ATOM     86  H81 PHE d   1       2.382  21.027  60.273  0.00  0.00     0.088 H 
ATOM     87  N   TYR d   1       3.253  23.462  62.366  0.00  0.00    -0.346 N 
ATOM     88  CA  TYR d   1       3.119  23.938  63.746  0.00  0.00     0.093 C 
ATOM     89  C   TYR d   1       2.441  25.292  63.735  0.00  0.00     0.241 C 
ATOM     90  O   TYR d   1       2.824  26.168  62.946  0.00  0.00    -0.271 OA
ATOM     91  H89 TYR d   1       3.674  24.065  61.688  0.00  0.00     0.163 HD
ATOM     92  H90 TYR d   1       2.551  23.210  64.344  0.00  0.00     0.088 H 
ATOM     93  N   THR d   1       1.473  25.478  64.629  0.00  0.00    -0.344 N 
ATOM     94  CA  THR d   1       0.854  26.795  64.792  0.00  0.00     0.113 C 
ATOM     95  C   THR d   1       0.812  27.141  66.271  0.00  0.00     0.243 C 
ATOM     96  O   THR d   1       0.768  26.257  67.127  0.00  0.00    -0.271 OA
ATOM     97  H98 THR d   1       1.166  24.712  65.194  0.00  0.00     0.163 HD
ATOM     98  H99 THR d   1       1.473  27.536  64.265  0.00  0.00     0.091 H 
ENDROOT
BRANCH  18  99
ATOM     99  CB  ARG d   1      -2.093  23.241  67.112  0.00  0.00    -0.036 C 
ATOM    100  H9  ARG d   1      -2.569  22.390  66.603  0.00  0.00     0.036 H 
ATOM    101  H10 ARG d   1      -1.855  24.023  66.376  0.00  0.00     0.036 H 
BRANCH  99 102
ATOM    102  CG  ARG d   1      -3.077  23.810  68.113  0.00  0.00    -0.048 C 
ATOM    103  H11 ARG d   1      -2.636  24.693  68.599  0.00  0.00     0.035 H 
ATOM    104  H12 ARG d   1      -3.307  23.050  68.874  0.00  0.00     0.035 H 
BRANCH 102 105
ATOM    105  CD  ARG d   1      -4.351  24.210  67.399  0.00  0.00     0.009 C 
ATOM    106  H13 ARG d   1      -4.766  23.324  66.895  0.00  0.00     0.064 H 
ATOM    107  H14 ARG d   1      -4.109  24.978  66.650  0.00  0.00     0.064 H 
BRANCH 105 108
ATOM    108  NE  ARG d   1      -5.360  24.746  68.310  0.00  0.00    -0.227 N 
ATOM    109  CZ  ARG d   1      -6.578  25.104  67.922  0.00  0.00     0.665 C 
ATOM    110  NH1 ARG d   1      -6.933  24.969  66.647  0.00  0.00    -0.235 N 
ATOM    111  NH2 ARG d   1      -7.444  25.591  68.802  0.00  0.00    -0.235 N 
ATOM    112  H16 ARG d   1      -7.877  25.246  66.343  0.00  0.00     0.174 HD
ATOM    113  H17 ARG d   1      -6.263  24.587  65.964  0.00  0.00     0.174 HD
ATOM    114  H18 ARG d   1      -7.171  25.696  69.790  0.00  0.00     0.174 HD
ATOM    115  H19 ARG d   1      -8.389  25.864  68.497  0.00  0.00     0.174 HD
ATOM    116  H15 ARG d   1      -5.113  24.852  69.305  0.00  0.00     0.177 HD
ENDBRANCH 105 108
ENDBRANCH 102 105
ENDBRANCH  99 102
ENDBRANCH  18  99
BRANCH   1 117
ATOM    117  N   CYS d   1       0.866  24.984  71.781  0.00  0.00    -0.066 N 
ATOM    118  H1  CYS d   1       1.338  25.795  72.148  0.00  0.00     0.275 HD
ATOM    119  H2  CYS d   1       1.362  24.152  72.059  0.00  0.00     0.275 HD
ATOM    120  H3  CYS d   1      -0.075  24.951  72.142  0.00  0.00     0.275 HD
ENDBRANCH   1 117
BRANCH  30 121
ATOM    121  CB  ILE d   1       1.769  19.157  66.038  0.00  0.00    -0.030 C 
ATOM    122  H22 ILE d   1       1.176  18.469  66.659  0.00  0.00     0.043 H 
BRANCH 121 123
ATOM    123  CG1 ILE d   1       2.824  19.830  66.938  0.00  0.00    -0.063 C 
ATOM    124  H23 ILE d   1       2.303  20.354  67.753  0.00  0.00     0.033 H 
ATOM    125  H24 ILE d   1       3.385  20.558  66.333  0.00  0.00     0.033 H 
BRANCH 123 126
ATOM    126  CD1 ILE d   1       3.817  18.846  67.553  0.00  0.00    -0.076 C 
ATOM    127  H28 ILE d   1       4.536  19.394  68.179  0.00  0.00     0.027 H 
ATOM    128  H29 ILE d   1       4.356  18.320  66.751  0.00  0.00     0.027 H 
ATOM    129  H30 ILE d   1       3.274  18.116  68.171  0.00  0.00     0.027 H 
ENDBRANCH 123 126
ENDBRANCH 121 123
BRANCH 121 130
ATOM    130  CG2 ILE d   1       2.427  18.342  64.928  0.00  0.00    -0.071 C 
ATOM    131  H25 ILE d   1       1.649  17.876  64.305  0.00  0.00     0.028 H 
ATOM    132  H26 ILE d   1       3.058  17.559  65.373  0.00  0.00     0.028 H 
ATOM    133  H27 ILE d   1       3.047  19.004  64.306  0.00  0.00     0.028 H 
ENDBRANCH 121 130
ENDBRANCH  30 121
BRANCH  42 134
ATOM    134  CB  HIS d   1      -1.496  20.676  61.413  0.00  0.00     0.004 C 
ATOM    135  H33 HIS d   1      -2.233  20.338  60.670  0.00  0.00     0.046 H 
ATOM    136  H34 HIS d   1      -0.627  21.109  60.897  0.00  0.00     0.046 H 
BRANCH 134 137
ATOM    137  CG  HIS d   1      -2.124  21.737  62.257  0.00  0.00     0.053 A 
ATOM    138  ND1 HIS d   1      -3.454  21.709  62.616  0.00  0.00    -0.247 NA
ATOM    139  CE1 HIS d   1      -3.726  22.771  63.359  0.00  0.00     0.064 A 
ATOM    140  NE2 HIS d   1      -2.612  23.468  63.517  0.00  0.00    -0.359 N 
ATOM    141  H36 HIS d   1      -4.701  23.027  63.770  0.00  0.00     0.143 H 
ATOM    142  CD2 HIS d   1      -1.596  22.843  62.831  0.00  0.00     0.002 A 
ATOM    143  H37 HIS d   1      -2.521  24.336  64.064  0.00  0.00     0.166 HD
ATOM    144  H35 HIS d   1      -0.561  23.176  62.763  0.00  0.00     0.114 H 
ENDBRANCH 134 137
ENDBRANCH  42 134
BRANCH   7 145
ATOM    145  C   CYS d   1      -0.220  30.039  68.034  0.00  0.00     0.197 C 
ATOM    146  O   CYS d   1      -1.255  30.079  67.349  0.00  0.00    -0.646 OA
ATOM    147  OXT CYS d   1       0.027  30.970  68.790  0.00  0.00    -0.646 OA
ENDBRANCH   7 145
BRANCH  34 148
ATOM    148  CB  ILE d   1      -0.326  14.878  61.346  0.00  0.00    -0.030 C 
ATOM    149  H40 ILE d   1      -1.337  14.588  61.668  0.00  0.00     0.043 H 
BRANCH 148 150
ATOM    150  CG1 ILE d   1       0.487  15.154  62.620  0.00  0.00    -0.063 C 
ATOM    151  H41 ILE d   1       0.511  14.233  63.221  0.00  0.00     0.033 H 
ATOM    152  H42 ILE d   1      -0.019  15.949  63.188  0.00  0.00     0.033 H 
BRANCH 150 153
ATOM    153  CD1 ILE d   1       1.897  15.585  62.363  0.00  0.00    -0.076 C 
ATOM    154  H46 ILE d   1       2.407  15.761  63.322  0.00  0.00     0.027 H 
ATOM    155  H47 ILE d   1       1.895  16.513  61.773  0.00  0.00     0.027 H 
ATOM    156  H48 ILE d   1       2.425  14.797  61.806  0.00  0.00     0.027 H 
ENDBRANCH 150 153
ENDBRANCH 148 150
BRANCH 148 157
ATOM    157  CG2 ILE d   1       0.248  13.684  60.535  0.00  0.00    -0.071 C 
ATOM    158  H43 ILE d   1      -0.364  13.524  59.635  0.00  0.00     0.028 H 
ATOM    159  H44 ILE d   1       0.230  12.777  61.156  0.00  0.00     0.028 H 
ATOM    160  H45 ILE d   1       1.284  13.906  60.239  0.00  0.00     0.028 H 
ENDBRANCH 148 157
ENDBRANCH  34 148
BRANCH  94 161
ATOM    161  CB  THR d   1      -0.578  26.864  64.222  0.00  0.00     0.060 C 
ATOM    162 0H10 THR d   1      -0.962  27.881  64.390  0.00  0.00     0.086 H 
BRANCH 161 163
ATOM    163  OG1 THR d   1      -1.435  25.940  64.913  0.00  0.00    -0.393 OA
ATOM    164 1H10 THR d   1      -1.457  26.161  65.837  0.00  0.00     0.210 HD
ENDBRANCH 161 163
BRANCH 161 165
ATOM    165  CG2 THR d   1      -0.602  26.594  62.712  0.00  0.00    -0.050 C 
ATOM    166 2H10 THR d   1      -1.637  26.652  62.346  0.00  0.00     0.031 H 
ATOM    167 3H10 THR d   1      -0.198  25.590  62.513  0.00  0.00     0.031 H 
ATOM    168 4H10 THR d   1       0.013  27.346  62.195  0.00  0.00     0.031 H 
ENDBRANCH 161 165
ENDBRANCH  94 161
BRANCH  88 169
ATOM    169  CB  TYR d   1       4.476  24.198  64.357  0.00  0.00    -0.014 C 
ATOM    170  H91 TYR d   1       4.350  24.932  65.166  0.00  0.00     0.043 H 
ATOM    171  H92 TYR d   1       5.126  24.620  63.576  0.00  0.00     0.043 H 
BRANCH 169 172
ATOM    172  CG  TYR d   1       5.156  22.999  64.924  0.00  0.00    -0.056 A 
ATOM    173  CD1 TYR d   1       5.545  21.952  64.100  0.00  0.00    -0.074 A 
ATOM    174  CE1 TYR d   1       6.210  20.859  64.614  0.00  0.00    -0.051 A 
ATOM    175  H93 TYR d   1       5.323  21.994  63.040  0.00  0.00     0.084 H 
ATOM    176  CZ  TYR d   1       6.482  20.790  65.961  0.00  0.00     0.065 A 
ATOM    177  H95 TYR d   1       6.519  20.054  63.957  0.00  0.00     0.087 H 
ATOM    178  CE2 TYR d   1       6.111  21.819  66.806  0.00  0.00    -0.051 A 
ATOM    179  CD2 TYR d   1       5.440  22.919  66.276  0.00  0.00    -0.074 A 
ATOM    180  H96 TYR d   1       6.339  21.771  67.865  0.00  0.00     0.087 H 
ATOM    181  H94 TYR d   1       5.135  23.725  66.933  0.00  0.00     0.084 H 
BRANCH 176 182
ATOM    182  OH  TYR d   1       7.140  19.685  66.461  0.00  0.00    -0.361 OA
ATOM    183  H97 TYR d   1       7.957  19.959  66.861  0.00  0.00     0.217 HD
ENDBRANCH 176 182
ENDBRANCH 169 172
ENDBRANCH  88 169
BRANCH  82 184
ATOM    184  CB  PHE d   1       4.482  21.496  60.170  0.00  0.00    -0.014 C 
ATOM    185  H82 PHE d   1       5.138  22.309  60.515  0.00  0.00     0.043 H 
ATOM    186  H83 PHE d   1       4.570  21.392  59.078  0.00  0.00     0.043 H 
BRANCH 184 187
ATOM    187  CG  PHE d   1       4.956  20.220  60.797  0.00  0.00    -0.056 A 
ATOM    188  CD1 PHE d   1       4.072  19.295  61.332  0.00  0.00    -0.077 A 
ATOM    189  CE1 PHE d   1       4.539  18.126  61.905  0.00  0.00    -0.082 A 
ATOM    190  H84 PHE d   1       3.006  19.490  61.301  0.00  0.00     0.084 H 
ATOM    191  CZ  PHE d   1       5.889  17.858  61.937  0.00  0.00    -0.083 A 
ATOM    192  H86 PHE d   1       3.838  17.417  62.331  0.00  0.00     0.083 H 
ATOM    193  CE2 PHE d   1       6.789  18.764  61.399  0.00  0.00    -0.082 A 
ATOM    194  H88 PHE d   1       6.248  16.938  62.383  0.00  0.00     0.083 H 
ATOM    195  CD2 PHE d   1       6.315  19.939  60.829  0.00  0.00    -0.077 A 
ATOM    196  H87 PHE d   1       7.853  18.558  61.423  0.00  0.00     0.083 H 
ATOM    197  H85 PHE d   1       7.017  20.647  60.403  0.00  0.00     0.084 H 
ENDBRANCH 184 187
ENDBRANCH  82 184
BRANCH  76 198
ATOM    198  CB  ALA d   1       0.935  25.873  59.097  0.00  0.00    -0.049 C 
ATOM    199  H77 ALA d   1       1.870  26.175  59.591  0.00  0.00     0.030 H 
ATOM    200  H78 ALA d   1       0.121  25.850  59.836  0.00  0.00     0.030 H 
ATOM    201  H79 ALA d   1       0.690  26.594  58.303  0.00  0.00     0.030 H 
ENDBRANCH  76 198
BRANCH  22 202
ATOM    202  CB  ARG d   1      -1.937  21.285  57.808  0.00  0.00    -0.036 C 
ATOM    203  H64 ARG d   1      -2.191  21.836  58.726  0.00  0.00     0.036 H 
ATOM    204  H65 ARG d   1      -1.112  20.587  58.016  0.00  0.00     0.036 H 
BRANCH 202 205
ATOM    205  CG  ARG d   1      -3.161  20.476  57.370  0.00  0.00    -0.048 C 
ATOM    206  H66 ARG d   1      -3.206  19.547  57.958  0.00  0.00     0.035 H 
ATOM    207  H67 ARG d   1      -3.064  20.230  56.302  0.00  0.00     0.035 H 
BRANCH 205 208
ATOM    208  CD  ARG d   1      -4.424  21.245  57.579  0.00  0.00     0.009 C 
ATOM    209  H68 ARG d   1      -4.332  22.226  57.091  0.00  0.00     0.064 H 
ATOM    210  H69 ARG d   1      -4.585  21.386  58.658  0.00  0.00     0.064 H 
BRANCH 208 211
ATOM    211  NE  ARG d   1      -5.571  20.536  57.014  0.00  0.00    -0.227 N 
ATOM    212  CZ  ARG d   1      -6.841  20.875  57.233  0.00  0.00     0.665 C 
ATOM    213  NH1 ARG d   1      -7.139  21.919  58.043  0.00  0.00    -0.235 N 
ATOM    214  NH2 ARG d   1      -7.811  20.157  56.670  0.00  0.00    -0.235 N 
ATOM    215  H71 ARG d   1      -8.122  22.177  58.209  0.00  0.00     0.174 HD
ATOM    216  H72 ARG d   1      -6.383  22.454  58.492  0.00  0.00     0.174 HD
ATOM    217  H73 ARG d   1      -7.575  19.365  56.055  0.00  0.00     0.174 HD
ATOM    218  H74 ARG d   1      -8.797  20.394  56.849  0.00  0.00     0.174 HD
ATOM    219  H70 ARG d   1      -5.386  19.724  56.409  0.00  0.00     0.177 HD
ENDBRANCH 208 211
ENDBRANCH 205 208
ENDBRANCH 202 205
ENDBRANCH  22 202
TORSDOF 29
