REMARK  15 active torsions:
REMARK  status: ('A' for Active; 'I' for Inactive)
REMARK    1  A    between atoms: C1_1  and  C2_2 
REMARK    2  A    between atoms: C2_2  and  C3_3 
REMARK    3  A    between atoms: C3_3  and  C4_4 
REMARK    4  A    between atoms: C4_4  and  C5_5 
REMARK    5  A    between atoms: C5_5  and  C6_6 
REMARK    6  A    between atoms: C6_6  and  C7_7 
REMARK    7  A    between atoms: C7_7  and  C8_8 
REMARK    8  A    between atoms: C8_8  and  C9_9 
REMARK    9  A    between atoms: C9_9  and  C10_10 
REMARK   10  A    between atoms: C10_10  and  C11_11 
REMARK   11  A    between atoms: C11_11  and  C12_12 
REMARK   12  A    between atoms: C12_12  and  C13_13 
REMARK   13  A    between atoms: C13_13  and  B1_14 
REMARK   14  A    between atoms: B1_14  and  O2_15 
REMARK   15  A    between atoms: B1_14  and  O3_16 
ROOT
ATOM      1  C8  B0S d   1      26.031  30.611   8.614  0.00  0.00    -0.065 C 
ATOM      2  H16 B0S d   1      27.127  30.573   8.696  0.00  0.00     0.033 H 
ATOM      3  H17 B0S d   1      25.741  31.444   7.957  0.00  0.00     0.033 H 
ENDROOT
BRANCH   1   4
ATOM      4  C7  B0S d   1      25.468  30.894  10.004  0.00  0.00    -0.065 C 
ATOM      5  H14 B0S d   1      24.859  30.038  10.331  0.00  0.00     0.033 H 
ATOM      6  H15 B0S d   1      26.298  31.044  10.710  0.00  0.00     0.033 H 
BRANCH   4   7
ATOM      7  C6  B0S d   1      24.605  32.142   9.971  0.00  0.00    -0.065 C 
ATOM      8  H12 B0S d   1      24.342  32.331   8.920  0.00  0.00     0.033 H 
ATOM      9  H13 B0S d   1      23.692  31.924  10.544  0.00  0.00     0.033 H 
BRANCH   7  10
ATOM     10  C5  B0S d   1      25.190  33.415  10.524  0.00  0.00    -0.065 C 
ATOM     11  H10 B0S d   1      25.286  33.316  11.615  0.00  0.00     0.033 H 
ATOM     12  H11 B0S d   1      26.185  33.570  10.081  0.00  0.00     0.033 H 
BRANCH  10  13
ATOM     13  C4  B0S d   1      24.327  34.620  10.218  0.00  0.00    -0.065 C 
ATOM     14  H8  B0S d   1      24.424  34.858   9.148  0.00  0.00     0.033 H 
ATOM     15  H9  B0S d   1      23.280  34.368  10.445  0.00  0.00     0.033 H 
BRANCH  13  16
ATOM     16  C3  B0S d   1      24.712  35.839  11.018  0.00  0.00    -0.065 C 
ATOM     17  H6  B0S d   1      24.417  35.676  12.065  0.00  0.00     0.033 H 
ATOM     18  H7  B0S d   1      25.803  35.964  10.960  0.00  0.00     0.033 H 
BRANCH  16  19
ATOM     19  C2  B0S d   1      24.064  37.096  10.533  0.00  0.00    -0.069 C 
ATOM     20  H4  B0S d   1      24.252  37.197   9.454  0.00  0.00     0.032 H 
ATOM     21  H5  B0S d   1      22.981  37.028  10.712  0.00  0.00     0.032 H 
BRANCH  19  22
ATOM     22  C1  B0S d   1      24.594  38.317  11.233  0.00  0.00    -0.077 C 
ATOM     23  H1  B0S d   1      24.088  39.212  10.842  0.00  0.00     0.027 H 
ATOM     24  H2  B0S d   1      25.676  38.401  11.055  0.00  0.00     0.027 H 
ATOM     25  H3  B0S d   1      24.405  38.231  12.313  0.00  0.00     0.027 H 
ENDBRANCH  19  22
ENDBRANCH  16  19
ENDBRANCH  13  16
ENDBRANCH  10  13
ENDBRANCH   7  10
ENDBRANCH   4   7
ENDBRANCH   1   4
BRANCH   1  26
ATOM     26  C9  B0S d   1      25.575  29.339   7.971  0.00  0.00    -0.065 C 
ATOM     27  H18 B0S d   1      24.522  29.163   8.236  0.00  0.00     0.033 H 
ATOM     28  H19 B0S d   1      26.191  28.509   8.347  0.00  0.00     0.033 H 
BRANCH  26  29
ATOM     29  C10 B0S d   1      25.697  29.398   6.488  0.00  0.00    -0.065 C 
ATOM     30  H20 B0S d   1      26.535  30.052   6.207  0.00  0.00     0.033 H 
ATOM     31  H21 B0S d   1      24.766  29.787   6.051  0.00  0.00     0.033 H 
BRANCH  29  32
ATOM     32  C11 B0S d   1      25.945  28.029   6.002  0.00  0.00    -0.066 C 
ATOM     33  H22 B0S d   1      26.044  27.353   6.864  0.00  0.00     0.033 H 
ATOM     34  H23 B0S d   1      26.877  28.017   5.418  0.00  0.00     0.033 H 
BRANCH  32  35
ATOM     35  C12 B0S d   1      24.821  27.560   5.139  0.00  0.00    -0.068 C 
ATOM     36  H24 B0S d   1      24.001  28.293   5.168  0.00  0.00     0.032 H 
ATOM     37  H25 B0S d   1      24.456  26.588   5.502  0.00  0.00     0.032 H 
BRANCH  35  38
ATOM     38  C13 B0S d   1      25.320  27.418   3.735  0.00  0.00    -0.035 C 
ATOM     39  H27 B0S d   1      26.386  27.688   3.696  0.00  0.00     0.028 H 
ATOM     40  H28 B0S d   1      24.748  28.085   3.073  0.00  0.00     0.028 H 
BRANCH  38  41
ATOM     41  B1  B0S d   1      24.601  26.234   3.001  0.00  0.00     0.490 B 
BRANCH  41  42
ATOM     42  O2  B0S d   1      23.147  26.114   3.120  0.00  0.00    -0.438 OA
ATOM     43  H30 B0S d   1      22.731  26.797   2.607  0.00  0.00     0.184 HD
ENDBRANCH  41  42
BRANCH  41  44
ATOM     44  O3  B0S d   1      24.985  26.092   1.577  0.00  0.00    -0.438 OA
ATOM     45  H31 B0S d   1      25.928  26.169   1.495  0.00  0.00     0.184 HD
ENDBRANCH  41  44
ENDBRANCH  38  41
ENDBRANCH  35  38
ENDBRANCH  32  35
ENDBRANCH  29  32
ENDBRANCH  26  29
ENDBRANCH   1  26
TORSDOF 15
