REMARK  6 active torsions:
REMARK  status: ('A' for Active; 'I' for Inactive)
REMARK    1  A    between atoms: C14_2  and  C13_5 
REMARK    2  A    between atoms: C13_5  and  C12_6 
REMARK    3  A    between atoms: C12_6  and  N2_7 
REMARK       I    between atoms: N2_7  and  C11_8 
REMARK    4  A    between atoms: C11_8  and  C8_10 
REMARK    5  A    between atoms: C5_15  and  C3_16 
REMARK    6  A    between atoms: C2_20  and  C1_21 
ROOT
ATOM      1  C8  2B2 d   1      28.151 -12.648  -5.796  0.00  0.00     0.032 A 
ATOM      2  C7  2B2 d   1      28.291 -12.438  -4.408  0.00  0.00    -0.067 A 
ATOM      3  C6  2B2 d   1      28.054 -11.157  -3.869  0.00  0.00    -0.070 A 
ATOM      4  C9  2B2 d   1      27.747 -11.593  -6.631  0.00  0.00    -0.067 A 
ATOM      5  C10 2B2 d   1      27.488 -10.317  -6.073  0.00  0.00    -0.070 A 
ATOM      6  C5  2B2 d   1      27.648 -10.108  -4.692  0.00  0.00    -0.007 A 
ATOM      7  H   2B2 d   1      28.579 -13.257  -3.759  0.00  0.00     0.085 H 
ATOM      8  H   2B2 d   1      28.189 -10.987  -2.807  0.00  0.00     0.084 H 
ATOM      9  H   2B2 d   1      27.634 -11.755  -7.697  0.00  0.00     0.085 H 
ATOM     10  H   2B2 d   1      27.166  -9.502  -6.711  0.00  0.00     0.084 H 
ENDROOT
BRANCH   1  11
ATOM     11  C11 2B2 d   1      28.418 -14.011  -6.382  0.00  0.00     0.251 C 
ATOM     12  N2  2B2 d   1      28.636 -15.043  -5.570  0.00  0.00    -0.357 N 
ATOM     13  H   2B2 d   1      28.510 -14.932  -4.584  0.00  0.00     0.162 HD
ATOM     14  O   2B2 d   1      28.315 -14.182  -7.613  0.00  0.00    -0.268 OA
BRANCH  12  15
ATOM     15  C12 2B2 d   1      29.067 -16.364  -6.116  0.00  0.00     0.003 C 
ATOM     16  H   2B2 d   1      28.891 -17.143  -5.359  0.00  0.00     0.064 H 
ATOM     17  H   2B2 d   1      28.481 -16.590  -7.019  0.00  0.00     0.064 H 
BRANCH  15  18
ATOM     18  C13 2B2 d   1      30.564 -16.340  -6.478  0.00  0.00     0.040 C 
ATOM     19  H   2B2 d   1      30.783 -15.400  -7.006  0.00  0.00     0.048 H 
ATOM     20  H   2B2 d   1      31.151 -16.384  -5.549  0.00  0.00     0.048 H 
BRANCH  18  21
ATOM     21  C14 2B2 d   1      30.971 -17.498  -7.362  0.00  0.00     0.389 C 
ATOM     22  F3  2B2 d   1      32.213 -17.424  -7.759  0.00  0.00    -0.171 F 
ATOM     23  F1  2B2 d   1      30.282 -17.436  -8.466  0.00  0.00    -0.171 F 
ATOM     24  F2  2B2 d   1      30.756 -18.668  -6.753  0.00  0.00    -0.171 F 
ENDBRANCH  18  21
ENDBRANCH  15  18
ENDBRANCH  12  15
ENDBRANCH   1  11
BRANCH   6  25
ATOM     25  C3  2B2 d   1      27.371  -8.840  -4.167  0.00  0.00     0.074 A 
ATOM     26  N1  2B2 d   1      27.042  -7.819  -5.001  0.00  0.00    -0.245 NA
ATOM     27  C2  2B2 d   1      26.793  -6.640  -4.409  0.00  0.00     0.071 A 
ATOM     28  S   2B2 d   1      26.927  -6.820  -2.713  0.00  0.00    -0.085 SA
ATOM     29  C4  2B2 d   1      27.394  -8.450  -2.844  0.00  0.00    -0.015 A 
ATOM     30  H   2B2 d   1      27.670  -9.091  -2.008  0.00  0.00     0.098 H 
BRANCH  27  31
ATOM     31  C1  2B2 d   1      26.396  -5.356  -5.082  0.00  0.00    -0.029 C 
ATOM     32  H   2B2 d   1      26.384  -5.502  -6.172  0.00  0.00     0.036 H 
ATOM     33  H   2B2 d   1      27.120  -4.569  -4.825  0.00  0.00     0.036 H 
ATOM     34  H   2B2 d   1      25.394  -5.058  -4.741  0.00  0.00     0.036 H 
ENDBRANCH  27  31
ENDBRANCH   6  25
TORSDOF 6
