REMARK  9 active torsions:
REMARK  status: ('A' for Active; 'I' for Inactive)
REMARK    1  A    between atoms: S_2  and  C13_4 
REMARK    2  A    between atoms: S_2  and  N1_10 
REMARK    3  A    between atoms: N1_10  and  C12_11 
REMARK    4  A    between atoms: C12_11  and  C11_12 
REMARK    5  A    between atoms: C10_13  and  C7_14 
REMARK    6  A    between atoms: C4_19  and  C3_20 
REMARK       I    between atoms: C3_20  and  N_22 
REMARK    7  A    between atoms: N_22  and  C2_23 
REMARK    8  A    between atoms: C2_23  and  C1_24 
REMARK    9  A    between atoms: C1_24  and  C_25 
ROOT
ATOM      1  C7  2H2 d   1      26.859  -9.209  -4.856  0.00  0.00     0.017 A 
ATOM      2  C6  2H2 d   1      27.269 -10.184  -3.964  0.00  0.00    -0.064 A 
ATOM      3  C5  2H2 d   1      27.499 -11.477  -4.445  0.00  0.00    -0.066 A 
ATOM      4  C8  2H2 d   1      26.566  -9.537  -6.188  0.00  0.00    -0.064 A 
ATOM      5  C9  2H2 d   1      26.781 -10.791  -6.698  0.00  0.00    -0.066 A 
ATOM      6  C4  2H2 d   1      27.261 -11.773  -5.826  0.00  0.00     0.032 A 
ATOM      7  H   2H2 d   1      27.409  -9.951  -2.915  0.00  0.00     0.085 H 
ATOM      8  H   2H2 d   1      27.856 -12.252  -3.776  0.00  0.00     0.085 H 
ATOM      9  H   2H2 d   1      26.155  -8.772  -6.837  0.00  0.00     0.085 H 
ATOM     10  H   2H2 d   1      26.586 -11.014  -7.741  0.00  0.00     0.085 H 
ENDROOT
BRANCH   1  11
ATOM     11  C10 2H2 d   1      26.555  -7.998  -4.457  0.00  0.00    -0.065 C 
ATOM     12  C11 2H2 d   1      26.254  -6.908  -4.104  0.00  0.00    -0.081 C 
BRANCH  12  13
ATOM     13  C12 2H2 d   1      25.833  -5.547  -3.623  0.00  0.00     0.058 C 
ATOM     14  H   2H2 d   1      24.881  -5.297  -4.115  0.00  0.00     0.084 H 
ATOM     15  H   2H2 d   1      25.678  -5.609  -2.536  0.00  0.00     0.084 H 
BRANCH  13  16
ATOM     16  N1  2H2 d   1      26.768  -4.450  -3.878  0.00  0.00    -0.304 N 
ATOM     17  H   2H2 d   1      27.635  -4.360  -3.387  0.00  0.00     0.173 HD
BRANCH  16  18
ATOM     18  S   2H2 d   1      26.310  -3.418  -4.985  0.00  0.00     0.259 S 
ATOM     19  O2  2H2 d   1      27.434  -2.541  -5.247  0.00  0.00    -0.201 OA
ATOM     20  O1  2H2 d   1      25.911  -4.149  -6.180  0.00  0.00    -0.201 OA
BRANCH  18  21
ATOM     21  C13 2H2 d   1      25.029  -2.564  -4.475  0.00  0.00     0.079 A 
ATOM     22  C18 2H2 d   1      23.744  -2.812  -4.994  0.00  0.00    -0.060 A 
ATOM     23  C17 2H2 d   1      22.642  -2.082  -4.522  0.00  0.00    -0.082 A 
ATOM     24  H   2H2 d   1      23.605  -3.567  -5.759  0.00  0.00     0.085 H 
ATOM     25  C16 2H2 d   1      22.786  -1.100  -3.546  0.00  0.00    -0.083 A 
ATOM     26  H   2H2 d   1      21.657  -2.287  -4.926  0.00  0.00     0.083 H 
ATOM     27  C15 2H2 d   1      24.070  -0.858  -3.037  0.00  0.00    -0.082 A 
ATOM     28  H   2H2 d   1      21.930  -0.538  -3.190  0.00  0.00     0.083 H 
ATOM     29  C14 2H2 d   1      25.190  -1.573  -3.491  0.00  0.00    -0.060 A 
ATOM     30  H   2H2 d   1      24.201  -0.100  -2.274  0.00  0.00     0.083 H 
ATOM     31  H   2H2 d   1      26.173  -1.362  -3.085  0.00  0.00     0.085 H 
ENDBRANCH  18  21
ENDBRANCH  16  18
ENDBRANCH  13  16
ENDBRANCH  12  13
ENDBRANCH   1  11
BRANCH   6  32
ATOM     32  C3  2H2 d   1      27.532 -13.146  -6.355  0.00  0.00     0.251 C 
ATOM     33  O   2H2 d   1      27.434 -13.307  -7.569  0.00  0.00    -0.268 OA
ATOM     34  N   2H2 d   1      27.926 -14.133  -5.515  0.00  0.00    -0.357 N 
ATOM     35  H   2H2 d   1      28.003 -13.936  -4.538  0.00  0.00     0.162 HD
BRANCH  34  36
ATOM     36  C2  2H2 d   1      28.236 -15.450  -5.983  0.00  0.00     0.003 C 
ATOM     37  H   2H2 d   1      27.535 -15.737  -6.780  0.00  0.00     0.064 H 
ATOM     38  H   2H2 d   1      28.161 -16.168  -5.153  0.00  0.00     0.064 H 
BRANCH  36  39
ATOM     39  C1  2H2 d   1      29.683 -15.435  -6.536  0.00  0.00     0.040 C 
ATOM     40  H   2H2 d   1      30.371 -15.393  -5.679  0.00  0.00     0.048 H 
ATOM     41  H   2H2 d   1      29.802 -14.528  -7.147  0.00  0.00     0.048 H 
BRANCH  39  42
ATOM     42  C   2H2 d   1      30.076 -16.627  -7.391  0.00  0.00     0.389 C 
ATOM     43  F   2H2 d   1      29.941 -17.793  -6.777  0.00  0.00    -0.171 F 
ATOM     44  F1  2H2 d   1      29.315 -16.631  -8.447  0.00  0.00    -0.171 F 
ATOM     45  F2  2H2 d   1      31.321 -16.482  -7.802  0.00  0.00    -0.171 F 
ENDBRANCH  39  42
ENDBRANCH  36  39
ENDBRANCH  34  36
ENDBRANCH   6  32
TORSDOF 9
