REMARK  11 active torsions:
REMARK  status: ('A' for Active; 'I' for Inactive)
REMARK    1  A    between atoms: C17_2  and  C16_5 
REMARK    2  A    between atoms: C16_5  and  C15_6 
REMARK    3  A    between atoms: C15_6  and  N3_7 
REMARK       I    between atoms: N3_7  and  C14_8 
REMARK    4  A    between atoms: C14_8  and  C11_10 
REMARK    5  A    between atoms: C8_15  and  C6_16 
REMARK    6  A    between atoms: C5_20  and  C4_21 
REMARK    7  A    between atoms: C4_21  and  N1_22 
REMARK    8  A    between atoms: N1_22  and  S1_23 
REMARK    9  A    between atoms: S1_23  and  C3_26 
REMARK   10  A    between atoms: C3_26  and  C2_27 
REMARK   11  A    between atoms: C2_27  and  C1_28 
ROOT
ATOM      1  C11 2B3 d   1     -27.882  12.502  -6.105  0.00  0.00     0.032 A 
ATOM      2  C10 2B3 d   1     -28.065  12.310  -4.744  0.00  0.00    -0.067 A 
ATOM      3  C9  2B3 d   1     -27.830  11.048  -4.132  0.00  0.00    -0.070 A 
ATOM      4  C12 2B3 d   1     -27.491  11.433  -6.856  0.00  0.00    -0.067 A 
ATOM      5  C13 2B3 d   1     -27.275  10.192  -6.260  0.00  0.00    -0.070 A 
ATOM      6  C8  2B3 d   1     -27.425   9.967  -4.888  0.00  0.00    -0.007 A 
ATOM      7  H   2B3 d   1     -28.395  13.142  -4.132  0.00  0.00     0.085 H 
ATOM      8  H   2B3 d   1     -27.970  10.934  -3.063  0.00  0.00     0.084 H 
ATOM      9  H   2B3 d   1     -27.347  11.549  -7.924  0.00  0.00     0.085 H 
ATOM     10  H   2B3 d   1     -26.977   9.362  -6.890  0.00  0.00     0.084 H 
ENDROOT
BRANCH   6  11
ATOM     11  C6  2B3 d   1     -27.181   8.686  -4.334  0.00  0.00     0.074 A 
ATOM     12  N2  2B3 d   1     -26.768   7.619  -5.128  0.00  0.00    -0.243 NA
ATOM     13  C5  2B3 d   1     -26.565   6.437  -4.528  0.00  0.00     0.094 A 
ATOM     14  S2  2B3 d   1     -26.853   6.679  -2.882  0.00  0.00    -0.083 SA
ATOM     15  C7  2B3 d   1     -27.277   8.317  -2.976  0.00  0.00    -0.015 A 
ATOM     16  H   2B3 d   1     -27.568   8.961  -2.147  0.00  0.00     0.098 H 
BRANCH  13  17
ATOM     17  C4  2B3 d   1     -26.135   5.101  -5.123  0.00  0.00     0.049 C 
ATOM     18  H   2B3 d   1     -25.049   5.141  -5.290  0.00  0.00     0.075 H 
ATOM     19  H   2B3 d   1     -26.650   4.981  -6.087  0.00  0.00     0.075 H 
BRANCH  17  20
ATOM     20  N1  2B3 d   1     -26.419   3.919  -4.314  0.00  0.00    -0.313 N 
ATOM     21  H   2B3 d   1     -25.685   3.573  -3.730  0.00  0.00     0.172 HD
BRANCH  20  22
ATOM     22  S1  2B3 d   1     -27.839   3.119  -4.289  0.00  0.00     0.226 S 
ATOM     23  O1  2B3 d   1     -28.357   3.157  -2.932  0.00  0.00    -0.206 OA
ATOM     24  O2  2B3 d   1     -28.791   3.753  -5.167  0.00  0.00    -0.206 OA
BRANCH  22  25
ATOM     25  C3  2B3 d   1     -27.661   1.513  -4.799  0.00  0.00     0.046 C 
ATOM     26  H   2B3 d   1     -26.956   1.497  -5.643  0.00  0.00     0.058 H 
ATOM     27  H   2B3 d   1     -28.643   1.149  -5.135  0.00  0.00     0.058 H 
BRANCH  25  28
ATOM     28  C2  2B3 d   1     -27.135   0.547  -3.714  0.00  0.00    -0.055 C 
ATOM     29  H   2B3 d   1     -26.525   1.124  -3.004  0.00  0.00     0.033 H 
ATOM     30  H   2B3 d   1     -26.508  -0.213  -4.203  0.00  0.00     0.033 H 
BRANCH  28  31
ATOM     31  C1  2B3 d   1     -28.230  -0.166  -2.934  0.00  0.00    -0.076 C 
ATOM     32  H   2B3 d   1     -27.774  -0.831  -2.186  0.00  0.00     0.027 H 
ATOM     33  H   2B3 d   1     -28.846  -0.760  -3.626  0.00  0.00     0.027 H 
ATOM     34  H   2B3 d   1     -28.862   0.578  -2.427  0.00  0.00     0.027 H 
ENDBRANCH  28  31
ENDBRANCH  25  28
ENDBRANCH  22  25
ENDBRANCH  20  22
ENDBRANCH  17  20
ENDBRANCH  13  17
ENDBRANCH   6  11
BRANCH   1  35
ATOM     35  C14 2B3 d   1     -28.118  13.849  -6.726  0.00  0.00     0.251 C 
ATOM     36  N3  2B3 d   1     -28.437  14.850  -5.934  0.00  0.00    -0.357 N 
ATOM     37  H   2B3 d   1     -28.355  14.753  -4.942  0.00  0.00     0.162 HD
ATOM     38  O3  2B3 d   1     -27.985  14.044  -7.925  0.00  0.00    -0.268 OA
BRANCH  36  39
ATOM     39  C15 2B3 d   1     -28.905  16.085  -6.505  0.00  0.00     0.003 C 
ATOM     40  H   2B3 d   1     -28.422  16.924  -5.983  0.00  0.00     0.064 H 
ATOM     41  H   2B3 d   1     -28.632  16.111  -7.570  0.00  0.00     0.064 H 
BRANCH  39  42
ATOM     42  C16 2B3 d   1     -30.409  16.229  -6.380  0.00  0.00     0.040 C 
ATOM     43  H   2B3 d   1     -30.906  15.273  -6.602  0.00  0.00     0.048 H 
ATOM     44  H   2B3 d   1     -30.681  16.556  -5.366  0.00  0.00     0.048 H 
BRANCH  42  45
ATOM     45  C17 2B3 d   1     -30.799  17.273  -7.392  0.00  0.00     0.389 C 
ATOM     46  F3  2B3 d   1     -30.614  18.520  -7.011  0.00  0.00    -0.171 F 
ATOM     47  F1  2B3 d   1     -32.050  17.108  -7.625  0.00  0.00    -0.171 F 
ATOM     48  F2  2B3 d   1     -30.124  17.101  -8.504  0.00  0.00    -0.171 F 
ENDBRANCH  42  45
ENDBRANCH  39  42
ENDBRANCH  36  39
ENDBRANCH   1  35
TORSDOF 11
