REMARK  9 active torsions:
REMARK  status: ('A' for Active; 'I' for Inactive)
REMARK    1  A    between atoms: S1_2  and  N1_4 
REMARK    2  A    between atoms: S1_2  and  C6_10 
REMARK    3  A    between atoms: N1_4  and  C5_5 
REMARK    4  A    between atoms: C5_5  and  C4_6 
REMARK    5  A    between atoms: C4_6  and  C2_7 
REMARK    6  A    between atoms: C2_7  and  C3_8 
REMARK    7  A    between atoms: C2_7  and  C1_9 
REMARK    8  A    between atoms: C9_13  and  C12_16 
REMARK    9  A    between atoms: C14_18  and  C15_19 
ROOT
ATOM      1  O2  2D1 d   1      13.589  27.713   0.632  0.00  0.00    -0.201 OA
ATOM      2  S1  2D1 d   1      13.670  27.821   2.063  0.00  0.00     0.258 S 
ATOM      3  O1  2D1 d   1      14.327  26.613   2.411  0.00  0.00    -0.201 OA
ENDROOT
BRANCH   2   4
ATOM      4  N1  2D1 d   1      14.286  29.248   2.506  0.00  0.00    -0.315 N 
ATOM      5  H   2D1 d   1      13.800  30.056   2.173  0.00  0.00     0.172 HD
BRANCH   4   6
ATOM      6  C5  2D1 d   1      15.445  29.503   3.318  0.00  0.00     0.003 C 
ATOM      7  H   2D1 d   1      15.613  28.646   3.987  0.00  0.00     0.065 H 
ATOM      8  H   2D1 d   1      15.273  30.408   3.919  0.00  0.00     0.065 H 
BRANCH   6   9
ATOM      9  C4  2D1 d   1      16.694  29.710   2.438  0.00  0.00    -0.047 C 
ATOM     10  H   2D1 d   1      16.906  28.754   1.938  0.00  0.00     0.035 H 
ATOM     11  H   2D1 d   1      17.529  29.967   3.107  0.00  0.00     0.035 H 
BRANCH   9  12
ATOM     12  C2  2D1 d   1      16.628  30.776   1.367  0.00  0.00    -0.060 C 
ATOM     13  H   2D1 d   1      15.717  31.383   1.476  0.00  0.00     0.038 H 
BRANCH  12  14
ATOM     14  C3  2D1 d   1      17.880  31.620   1.420  0.00  0.00    -0.073 C 
ATOM     15  H   2D1 d   1      17.833  32.395   0.641  0.00  0.00     0.028 H 
ATOM     16  H   2D1 d   1      18.760  30.982   1.249  0.00  0.00     0.028 H 
ATOM     17  H   2D1 d   1      17.959  32.097   2.408  0.00  0.00     0.028 H 
ENDBRANCH  12  14
BRANCH  12  18
ATOM     18  C1  2D1 d   1      16.714  30.126   0.019  0.00  0.00    -0.073 C 
ATOM     19  H   2D1 d   1      15.839  29.477  -0.131  0.00  0.00     0.028 H 
ATOM     20  H   2D1 d   1      17.632  29.523  -0.040  0.00  0.00     0.028 H 
ATOM     21  H   2D1 d   1      16.734  30.901  -0.761  0.00  0.00     0.028 H 
ENDBRANCH  12  18
ENDBRANCH   9  12
ENDBRANCH   6   9
ENDBRANCH   4   6
ENDBRANCH   2   4
BRANCH   2  22
ATOM     22  C6  2D1 d   1      12.125  27.673   2.690  0.00  0.00     0.079 A 
ATOM     23  C11 2D1 d   1      11.888  27.821   4.059  0.00  0.00    -0.059 A 
ATOM     24  C10 2D1 d   1      10.609  27.642   4.675  0.00  0.00    -0.069 A 
ATOM     25  H   2D1 d   1      12.725  28.088   4.694  0.00  0.00     0.085 H 
ATOM     26  C9  2D1 d   1       9.535  27.315   3.827  0.00  0.00    -0.007 A 
ATOM     27  H   2D1 d   1      10.474  27.753   5.745  0.00  0.00     0.085 H 
ATOM     28  C8  2D1 d   1       9.737  27.188   2.474  0.00  0.00    -0.069 A 
ATOM     29  C7  2D1 d   1      11.011  27.347   1.886  0.00  0.00    -0.059 A 
ATOM     30  H   2D1 d   1       8.891  26.958   1.837  0.00  0.00     0.085 H 
ATOM     31  H   2D1 d   1      11.134  27.219   0.817  0.00  0.00     0.085 H 
BRANCH  26  32
ATOM     32  C12 2D1 d   1       8.251  27.101   4.346  0.00  0.00     0.074 A 
ATOM     33  N2  2D1 d   1       7.226  26.780   3.511  0.00  0.00    -0.245 NA
ATOM     34  C14 2D1 d   1       6.030  26.631   4.138  0.00  0.00     0.071 A 
ATOM     35  S2  2D1 d   1       6.263  26.796   5.835  0.00  0.00    -0.085 SA
ATOM     36  C13 2D1 d   1       7.896  27.164   5.718  0.00  0.00    -0.015 A 
ATOM     37  H   2D1 d   1       8.562  27.407   6.545  0.00  0.00     0.098 H 
BRANCH  34  38
ATOM     38  C15 2D1 d   1       4.679  26.285   3.530  0.00  0.00    -0.029 C 
ATOM     39  H   2D1 d   1       4.772  26.234   2.435  0.00  0.00     0.036 H 
ATOM     40  H   2D1 d   1       3.946  27.060   3.800  0.00  0.00     0.036 H 
ATOM     41  H   2D1 d   1       4.342  25.311   3.915  0.00  0.00     0.036 H 
ENDBRANCH  34  38
ENDBRANCH  26  32
ENDBRANCH   2  22
TORSDOF 9
