REMARK  7 active torsions:
REMARK  status: ('A' for Active; 'I' for Inactive)
REMARK    1  A    between atoms: C01_1  and  C02_2 
REMARK    2  A    between atoms: C04_4  and  C07_7 
REMARK    3  A    between atoms: C10_10  and  S13_13 
REMARK    4  A    between atoms: S13_13  and  N16_16 
REMARK    5  A    between atoms: N16_16  and  C17_17 
REMARK    6  A    between atoms: C17_17  and  C18_18 
REMARK    7  A    between atoms: C18_18  and  C19_19 
ROOT
ATOM      1  C07 2G1 d   1      10.096  27.876   3.929  0.00  0.00    -0.007 A 
ATOM      2  C08 2G1 d   1      10.367  27.545   2.587  0.00  0.00    -0.069 A 
ATOM      3  C09 2G1 d   1      11.643  27.694   2.039  0.00  0.00    -0.059 A 
ATOM      4  C10 2G1 d   1      12.685  28.224   2.817  0.00  0.00     0.079 A 
ATOM      5  C11 2G1 d   1      12.449  28.544   4.154  0.00  0.00    -0.059 A 
ATOM      6  C12 2G1 d   1      11.148  28.353   4.735  0.00  0.00    -0.069 A 
ATOM      7  H   2G1 d   1       9.565  27.165   1.964  0.00  0.00     0.085 H 
ATOM      8  H   2G1 d   1      11.829  27.400   1.012  0.00  0.00     0.085 H 
ATOM      9  H   2G1 d   1      13.255  28.941   4.761  0.00  0.00     0.085 H 
ATOM     10  H   2G1 d   1      10.978  28.574   5.783  0.00  0.00     0.085 H 
ENDROOT
BRANCH   4  11
ATOM     11  S13 2G1 d   1      14.297  28.442   2.099  0.00  0.00     0.258 S 
ATOM     12  O14 2G1 d   1      15.048  27.257   2.369  0.00  0.00    -0.201 OA
ATOM     13  O15 2G1 d   1      14.140  28.385   0.668  0.00  0.00    -0.201 OA
BRANCH  11  14
ATOM     14  N16 2G1 d   1      14.917  29.881   2.705  0.00  0.00    -0.315 N 
ATOM     15  H   2G1 d   1      14.375  30.721   2.716  0.00  0.00     0.172 HD
BRANCH  14  16
ATOM     16  C17 2G1 d   1      16.251  29.848   3.202  0.00  0.00     0.011 C 
ATOM     17  H   2G1 d   1      16.326  28.989   3.885  0.00  0.00     0.065 H 
ATOM     18  H   2G1 d   1      16.415  30.779   3.765  0.00  0.00     0.065 H 
BRANCH  16  19
ATOM     19  C18 2G1 d   1      17.391  29.723   2.180  0.00  0.00     0.041 C 
ATOM     20  H   2G1 d   1      17.228  28.814   1.582  0.00  0.00     0.048 H 
ATOM     21  H   2G1 d   1      18.343  29.637   2.725  0.00  0.00     0.048 H 
BRANCH  19  22
ATOM     22  C19 2G1 d   1      17.475  30.878   1.266  0.00  0.00     0.389 C 
ATOM     23  F20 2G1 d   1      17.032  31.915   1.994  0.00  0.00    -0.171 F 
ATOM     24  F21 2G1 d   1      16.638  30.631   0.253  0.00  0.00    -0.171 F 
ATOM     25  F22 2G1 d   1      18.731  31.113   0.866  0.00  0.00    -0.171 F 
ENDBRANCH  19  22
ENDBRANCH  16  19
ENDBRANCH  14  16
ENDBRANCH  11  14
ENDBRANCH   4  11
BRANCH   1  26
ATOM     26  C04 2G1 d   1       8.806  27.613   4.449  0.00  0.00     0.074 A 
ATOM     27  N03 2G1 d   1       7.764  27.287   3.658  0.00  0.00    -0.245 NA
ATOM     28  C02 2G1 d   1       6.567  27.012   4.240  0.00  0.00     0.071 A 
ATOM     29  S06 2G1 d   1       6.850  27.097   5.907  0.00  0.00    -0.085 SA
ATOM     30  C05 2G1 d   1       8.524  27.532   5.811  0.00  0.00    -0.015 A 
ATOM     31  H   2G1 d   1       9.210  27.705   6.639  0.00  0.00     0.098 H 
BRANCH  28  32
ATOM     32  C01 2G1 d   1       5.249  26.681   3.606  0.00  0.00    -0.029 C 
ATOM     33  H   2G1 d   1       5.354  26.697   2.511  0.00  0.00     0.036 H 
ATOM     34  H   2G1 d   1       4.498  27.424   3.913  0.00  0.00     0.036 H 
ATOM     35  H   2G1 d   1       4.928  25.680   3.929  0.00  0.00     0.036 H 
ENDBRANCH  28  32
ENDBRANCH   1  26
TORSDOF 7
