REMARK  10 active torsions:
REMARK  status: ('A' for Active; 'I' for Inactive)
REMARK    1  A    between atoms: C1_1  and  C2_4 
REMARK    2  A    between atoms: C4_6  and  N4_20 
REMARK    3  A    between atoms: C5_7  and  N5_8 
REMARK       I    between atoms: N5_8  and  C10_9 
REMARK    4  A    between atoms: C10_9  and  C11_11 
REMARK    5  A    between atoms: C6_12  and  O7_14 
REMARK    6  A    between atoms: O7_14  and  C8_15 
REMARK    7  A    between atoms: C8_15  and  C9_16 
REMARK    8  A    between atoms: C8_15  and  C81_17 
REMARK    9  A    between atoms: C9_16  and  C91_19 
REMARK   10  A    between atoms: C81_17  and  C82_18 
ROOT
ATOM      1  C2  22N d   1     -69.204  24.479 140.692  0.00  0.00     0.019 C 
ATOM      2  C3  22N d   1     -68.980  25.677 141.412  0.00  0.00    -0.059 C 
ATOM      3  C4  22N d   1     -69.630  26.866 140.792  0.00  0.00     0.139 C 
ATOM      4  C5  22N d   1     -71.010  26.483 140.427  0.00  0.00     0.068 C 
ATOM      5  C6  22N d   1     -70.926  25.469 139.240  0.00  0.00     0.064 C 
ATOM      6  C7  22N d   1     -70.093  24.398 139.624  0.00  0.00    -0.009 C 
ATOM      7  H   22N d   1     -68.392  25.725 142.327  0.00  0.00     0.081 H 
ATOM      8  H   22N d   1     -69.081  27.132 139.877  0.00  0.00     0.093 H 
ATOM      9  H   22N d   1     -71.514  27.371 140.018  0.00  0.00     0.080 H 
ATOM     10  H   22N d   1     -70.453  25.986 138.393  0.00  0.00     0.087 H 
ATOM     11  H   22N d   1     -70.765  23.557 139.851  0.00  0.00     0.044 H 
ATOM     12  H   22N d   1     -69.485  24.154 138.740  0.00  0.00     0.044 H 
ENDROOT
BRANCH   5  13
ATOM     13  O7  22N d   1     -72.156  25.011 138.802  0.00  0.00    -0.378 OA
BRANCH  13  14
ATOM     14  C8  22N d   1     -72.496  25.239 137.474  0.00  0.00     0.038 C 
ATOM     15  H   22N d   1     -72.165  26.240 137.162  0.00  0.00     0.083 H 
BRANCH  14  16
ATOM     16  C9  22N d   1     -74.020  25.126 137.363  0.00  0.00    -0.044 C 
ATOM     17  H   22N d   1     -74.366  24.236 137.908  0.00  0.00     0.036 H 
ATOM     18  H   22N d   1     -74.309  25.044 136.305  0.00  0.00     0.036 H 
BRANCH  16  19
ATOM     19  C91 22N d   1     -74.646  26.376 137.971  0.00  0.00    -0.074 C 
ATOM     20  H   22N d   1     -75.742  26.310 137.899  0.00  0.00     0.027 H 
ATOM     21  H   22N d   1     -74.296  27.264 137.425  0.00  0.00     0.027 H 
ATOM     22  H   22N d   1     -74.353  26.456 139.028  0.00  0.00     0.027 H 
ENDBRANCH  16  19
ENDBRANCH  14  16
BRANCH  14  23
ATOM     23  C81 22N d   1     -71.850  24.196 136.611  0.00  0.00    -0.044 C 
ATOM     24  H   22N d   1     -70.756  24.303 136.656  0.00  0.00     0.036 H 
ATOM     25  H   22N d   1     -72.188  24.315 135.571  0.00  0.00     0.036 H 
BRANCH  23  26
ATOM     26  C82 22N d   1     -72.248  22.834 137.122  0.00  0.00    -0.074 C 
ATOM     27  H   22N d   1     -71.781  22.058 136.498  0.00  0.00     0.027 H 
ATOM     28  H   22N d   1     -73.342  22.731 137.078  0.00  0.00     0.027 H 
ATOM     29  H   22N d   1     -71.911  22.720 138.163  0.00  0.00     0.027 H 
ENDBRANCH  23  26
ENDBRANCH  14  23
ENDBRANCH  13  14
ENDBRANCH   5  13
BRANCH   4  30
ATOM     30  N5  22N d   1     -71.741  26.155 141.667  0.00  0.00    -0.352 N 
ATOM     31  C10 22N d   1     -72.567  25.129 142.018  0.00  0.00     0.214 C 
ATOM     32  O10 22N d   1     -72.918  24.214 141.322  0.00  0.00    -0.274 OA
ATOM     33  H   22N d   1     -71.602  26.822 142.399  0.00  0.00     0.163 HD
BRANCH  31  34
ATOM     34  C11 22N d   1     -73.103  25.163 143.422  0.00  0.00    -0.003 C 
ATOM     35  H   22N d   1     -73.752  24.291 143.588  0.00  0.00     0.040 H 
ATOM     36  H   22N d   1     -73.683  26.086 143.571  0.00  0.00     0.040 H 
ATOM     37  H   22N d   1     -72.266  25.137 144.135  0.00  0.00     0.040 H 
ENDBRANCH  31  34
ENDBRANCH   4  30
BRANCH   3  38
ATOM     38  N4  22N d   1     -69.615  28.026 141.681  0.00  0.00    -0.070 N 
ATOM     39  H   22N d   1     -68.662  28.261 141.911  0.00  0.00     0.275 HD
ATOM     40  H   22N d   1     -70.120  27.808 142.526  0.00  0.00     0.275 HD
ATOM     41  H   22N d   1     -70.052  28.808 141.220  0.00  0.00     0.275 HD
ENDBRANCH   3  38
BRANCH   1  42
ATOM     42  C1  22N d   1     -68.580  23.345 141.149  0.00  0.00     0.205 C 
ATOM     43  O1A 22N d   1     -68.530  22.327 140.505  0.00  0.00    -0.644 OA
ATOM     44  O1B 22N d   1     -68.060  23.359 142.241  0.00  0.00    -0.644 OA
ENDBRANCH   1  42
TORSDOF 10
