REMARK  9 active torsions:
REMARK  status: ('A' for Active; 'I' for Inactive)
REMARK    1  A    between atoms: C01_1  and  C02_2 
REMARK    2  A    between atoms: C02_2  and  C03_3 
REMARK    3  A    between atoms: C03_3  and  C04_4 
REMARK    4  A    between atoms: C04_4  and  N05_5 
REMARK    5  A    between atoms: N05_5  and  C06_6 
REMARK    6  A    between atoms: C09_9  and  C20_20 
REMARK    7  A    between atoms: C10_10  and  N11_11 
REMARK    8  A    between atoms: N11_11  and  C12_12 
REMARK    9  A    between atoms: C15_15  and  O16_16 
ROOT
ATOM      1  C06 24K d   1     -15.672  43.166 -16.352  0.00  0.00     0.724 A 
ATOM      2  N07 24K d   1     -16.691  43.684 -15.640  0.00  0.00    -0.074 NA
ATOM      3  C08 24K d   1     -17.259  42.944 -14.641  0.00  0.00     0.037 A 
ATOM      4  C09 24K d   1     -16.790  41.655 -14.341  0.00  0.00     0.057 A 
ATOM      5  C10 24K d   1     -15.729  41.153 -15.118  0.00  0.00     0.157 A 
ATOM      6  N19 24K d   1     -15.220  41.928 -16.085  0.00  0.00    -0.045 NA
ATOM      7  H11 24K d   1     -18.084  43.358 -14.072  0.00  0.00     0.117 H 
ENDROOT
BRANCH   5   8
ATOM      8  N11 24K d   1     -15.140  39.838 -14.941  0.00  0.00    -0.369 N 
ATOM      9  H12 24K d   1     -15.566  39.171 -14.281  0.00  0.00     0.161 HD
BRANCH   8  10
ATOM     10  C12 24K d   1     -13.958  39.458 -15.686  0.00  0.00     0.011 C 
ATOM     11  C13 24K d   1     -14.433  38.638 -16.869  0.00  0.00    -0.044 C 
ATOM     12  C14 24K d   1     -13.294  37.968 -17.606  0.00  0.00    -0.039 C 
ATOM     13  H14 24K d   1     -14.963  39.302 -17.568  0.00  0.00     0.036 H 
ATOM     14  H15 24K d   1     -15.123  37.862 -16.506  0.00  0.00     0.036 H 
ATOM     15  C15 24K d   1     -12.394  37.191 -16.671  0.00  0.00     0.035 C 
ATOM     16  H16 24K d   1     -12.697  38.740 -18.114  0.00  0.00     0.036 H 
ATOM     17  H17 24K d   1     -13.712  37.277 -18.353  0.00  0.00     0.036 H 
ATOM     18  C17 24K d   1     -11.890  38.051 -15.531  0.00  0.00    -0.039 C 
ATOM     19  H18 24K d   1     -12.957  36.343 -16.254  0.00  0.00     0.082 H 
ATOM     20  C18 24K d   1     -13.029  38.703 -14.767  0.00  0.00    -0.044 C 
ATOM     21  H20 24K d   1     -11.240  38.838 -15.940  0.00  0.00     0.036 H 
ATOM     22  H21 24K d   1     -11.312  37.421 -14.839  0.00  0.00     0.036 H 
ATOM     23  H22 24K d   1     -13.601  37.922 -14.245  0.00  0.00     0.036 H 
ATOM     24  H23 24K d   1     -12.609  39.404 -14.030  0.00  0.00     0.036 H 
ATOM     25  H13 24K d   1     -13.439  40.355 -16.054  0.00  0.00     0.072 H 
BRANCH  15  26
ATOM     26  O16 24K d   1     -11.288  36.704 -17.417  0.00  0.00    -0.396 OA
ATOM     27  H19 24K d   1     -10.712  36.213 -16.843  0.00  0.00     0.210 HD
ENDBRANCH  15  26
ENDBRANCH   8  10
ENDBRANCH   5   8
BRANCH   4  28
ATOM     28  C20 24K d   1     -17.390  40.881 -13.316  0.00  0.00     0.071 A 
ATOM     29  C21 24K d   1     -18.760  40.977 -13.102  0.00  0.00    -0.054 A 
ATOM     30  C22 24K d   1     -19.349  40.201 -12.100  0.00  0.00    -0.079 A 
ATOM     31  H24 24K d   1     -19.364  41.645 -13.705  0.00  0.00     0.087 H 
ATOM     32  C23 24K d   1     -18.556  39.351 -11.343  0.00  0.00    -0.066 A 
ATOM     33  H25 24K d   1     -20.416  40.263 -11.916  0.00  0.00     0.083 H 
ATOM     34  C24 24K d   1     -17.189  39.277 -11.589  0.00  0.00     0.003 A 
ATOM     35  H26 24K d   1     -19.001  38.746 -10.561  0.00  0.00     0.085 H 
ATOM     36  N25 24K d   1     -16.653  40.040 -12.562  0.00  0.00    -0.260 NA
ATOM     37  H27 24K d   1     -16.562  38.613 -11.005  0.00  0.00     0.114 H 
ENDBRANCH   4  28
BRANCH   1  38
ATOM     38  N05 24K d   1     -15.017  43.891 -17.433  0.00  0.00    -0.222 N 
ATOM     39  H10 24K d   1     -15.509  44.654 -17.919  0.00  0.00     0.177 HD
BRANCH  38  40
ATOM     40  C04 24K d   1     -13.657  43.526 -17.821  0.00  0.00     0.009 C 
ATOM     41  H8  24K d   1     -13.019  44.420 -17.768  0.00  0.00     0.064 H 
ATOM     42  H9  24K d   1     -13.279  42.764 -17.124  0.00  0.00     0.064 H 
BRANCH  40  43
ATOM     43  C03 24K d   1     -13.608  42.960 -19.256  0.00  0.00    -0.050 C 
ATOM     44  H6  24K d   1     -14.561  43.183 -19.759  0.00  0.00     0.035 H 
ATOM     45  H7  24K d   1     -12.784  43.444 -19.801  0.00  0.00     0.035 H 
BRANCH  43  46
ATOM     46  C02 24K d   1     -13.385  41.441 -19.266  0.00  0.00    -0.067 C 
ATOM     47  H4  24K d   1     -12.362  41.233 -18.919  0.00  0.00     0.032 H 
ATOM     48  H5  24K d   1     -14.107  40.974 -18.580  0.00  0.00     0.032 H 
BRANCH  46  49
ATOM     49  C01 24K d   1     -13.565  40.833 -20.653  0.00  0.00    -0.076 C 
ATOM     50  H1  24K d   1     -13.394  39.748 -20.602  0.00  0.00     0.027 H 
ATOM     51  H2  24K d   1     -12.843  41.286 -21.348  0.00  0.00     0.027 H 
ATOM     52  H3  24K d   1     -14.588  41.027 -21.009  0.00  0.00     0.027 H 
ENDBRANCH  46  49
ENDBRANCH  43  46
ENDBRANCH  40  43
ENDBRANCH  38  40
ENDBRANCH   1  38
TORSDOF 9
