REMARK  4 active torsions:
REMARK  status: ('A' for Active; 'I' for Inactive)
REMARK    1  A    between atoms: C16_1  and  N_2 
REMARK    2  A    between atoms: N_2  and  C15_3 
REMARK    3  A    between atoms: C15_3  and  C14_4 
REMARK    4  A    between atoms: C14_4  and  C13_5 
ROOT
ATOM      1  C13 21B d   1     -40.607  -1.909  54.723  0.00  0.00    -0.090 C 
ATOM      2  C4  21B d   1     -39.407  -1.754  55.316  0.00  0.00    -0.018 C 
ATOM      3  C3  21B d   1     -38.627  -0.564  54.875  0.00  0.00    -0.019 A 
ATOM      4  C17 21B d   1     -39.042   0.731  55.165  0.00  0.00    -0.072 A 
ATOM      5  C18 21B d   1     -38.271   1.795  54.712  0.00  0.00    -0.082 A 
ATOM      6  C   21B d   1     -37.111   1.554  53.975  0.00  0.00    -0.082 A 
ATOM      7  C5  21B d   1     -38.794  -2.652  56.360  0.00  0.00    -0.019 A 
ATOM      8  C10 21B d   1     -39.541  -2.977  57.489  0.00  0.00    -0.072 A 
ATOM      9  C9  21B d   1     -39.020  -3.788  58.492  0.00  0.00    -0.082 A 
ATOM     10  C8  21B d   1     -37.724  -4.273  58.393  0.00  0.00    -0.082 A 
ATOM     11  C7  21B d   1     -36.966  -3.937  57.280  0.00  0.00    -0.076 A 
ATOM     12  C6  21B d   1     -37.482  -3.134  56.265  0.00  0.00    -0.047 A 
ATOM     13  C11 21B d   1     -36.519  -2.862  55.124  0.00  0.00    -0.036 C 
ATOM     14  C12 21B d   1     -37.127  -2.243  53.876  0.00  0.00    -0.036 C 
ATOM     15  C2  21B d   1     -37.486  -0.804  54.147  0.00  0.00    -0.047 A 
ATOM     16  C1  21B d   1     -36.710   0.252  53.686  0.00  0.00    -0.076 A 
ATOM     17  H10 21B d   1     -40.883  -1.154  53.988  0.00  0.00     0.078 H 
ATOM     18  H11 21B d   1     -39.948   0.907  55.733  0.00  0.00     0.084 H 
ATOM     19  H12 21B d   1     -38.571   2.813  54.931  0.00  0.00     0.083 H 
ATOM     20  H13 21B d   1     -36.516   2.389  53.624  0.00  0.00     0.083 H 
ATOM     21  H14 21B d   1     -40.549  -2.590  57.589  0.00  0.00     0.084 H 
ATOM     22  H15 21B d   1     -39.628  -4.042  59.353  0.00  0.00     0.083 H 
ATOM     23  H16 21B d   1     -37.310  -4.904  59.172  0.00  0.00     0.083 H 
ATOM     24  H17 21B d   1     -35.950  -4.307  57.199  0.00  0.00     0.084 H 
ATOM     25  H18 21B d   1     -36.059  -3.819  54.836  0.00  0.00     0.040 H 
ATOM     26  H19 21B d   1     -35.741  -2.178  55.495  0.00  0.00     0.040 H 
ATOM     27  H20 21B d   1     -38.033  -2.800  53.596  0.00  0.00     0.040 H 
ATOM     28  H21 21B d   1     -36.399  -2.290  53.053  0.00  0.00     0.040 H 
ATOM     29  H22 21B d   1     -35.809   0.066  53.112  0.00  0.00     0.084 H 
ENDROOT
BRANCH   1  30
ATOM     30  C14 21B d   1     -41.612  -3.009  54.961  0.00  0.00    -0.026 C 
ATOM     31  H8  21B d   1     -41.295  -3.920  54.433  0.00  0.00     0.041 H 
ATOM     32  H9  21B d   1     -41.685  -3.216  56.039  0.00  0.00     0.041 H 
BRANCH  30  33
ATOM     33  C15 21B d   1     -42.972  -2.555  54.431  0.00  0.00     0.084 C 
ATOM     34  H6  21B d   1     -43.759  -3.138  54.932  0.00  0.00     0.076 H 
ATOM     35  H7  21B d   1     -43.103  -1.488  54.663  0.00  0.00     0.076 H 
BRANCH  33  36
ATOM     36  N   21B d   1     -43.098  -2.738  53.001  0.00  0.00    -0.079 N 
ATOM     37  H4  21B d   1     -42.330  -3.324  52.714  0.00  0.00     0.276 HD
ATOM     38  H5  21B d   1     -43.968  -3.224  52.845  0.00  0.00     0.276 HD
BRANCH  36  39
ATOM     39  C16 21B d   1     -43.098  -1.590  52.125  0.00  0.00     0.065 C 
ATOM     40  H1  21B d   1     -43.202  -1.925  51.082  0.00  0.00     0.067 H 
ATOM     41  H2  21B d   1     -42.152  -1.040  52.241  0.00  0.00     0.067 H 
ATOM     42  H3  21B d   1     -43.940  -0.931  52.384  0.00  0.00     0.067 H 
ENDBRANCH  36  39
ENDBRANCH  33  36
ENDBRANCH  30  33
ENDBRANCH   1  30
TORSDOF 4
