REMARK  4 active torsions:
REMARK  status: ('A' for Active; 'I' for Inactive)
REMARK    1  A    between atoms: C03_3  and  O04_4 
REMARK    2  A    between atoms: C06_6  and  C07_7 
REMARK    3  A    between atoms: C10_10  and  C11_11 
REMARK    4  A    between atoms: C18_18  and  C20_20 
ROOT
ATOM      1  O01 21A d   1       8.863  19.850  -8.642  0.00  0.00    -0.265 OA
ATOM      2  C02 21A d   1       9.415  20.504  -9.499  0.00  0.00     0.279 A 
ATOM      3  C03 21A d   1       9.799  21.835  -9.237  0.00  0.00     0.135 A 
ATOM      4  C05 21A d   1      10.443  22.591 -10.244  0.00  0.00    -0.033 A 
ATOM      5  C06 21A d   1      10.736  22.066 -11.511  0.00  0.00     0.005 A 
ATOM      6  C18 21A d   1      10.369  20.725 -11.826  0.00  0.00     0.056 A 
ATOM      7  N19 21A d   1       9.701  19.922 -10.805  0.00  0.00    -0.320 N 
ATOM      8  H2  21A d   1      10.722  23.621 -10.027  0.00  0.00     0.089 H 
ATOM      9  H8  21A d   1       9.441  18.977 -11.001  0.00  0.00     0.169 HD
ENDROOT
BRANCH   5  10
ATOM     10  C07 21A d   1      11.431  23.044 -12.438  0.00  0.00    -0.024 A 
ATOM     11  C08 21A d   1      12.801  22.989 -12.626  0.00  0.00    -0.071 A 
ATOM     12  C09 21A d   1      13.420  23.916 -13.452  0.00  0.00    -0.068 A 
ATOM     13  H3  21A d   1      13.388  22.225 -12.130  0.00  0.00     0.084 H 
ATOM     14  C10 21A d   1      12.665  24.901 -14.074  0.00  0.00     0.012 A 
ATOM     15  H4  21A d   1      14.491  23.871 -13.611  0.00  0.00     0.085 H 
ATOM     16  C16 21A d   1      11.301  24.971 -13.861  0.00  0.00    -0.068 A 
ATOM     17  C17 21A d   1      10.683  24.040 -13.043  0.00  0.00    -0.071 A 
ATOM     18  H6  21A d   1      10.717  25.753 -14.333  0.00  0.00     0.085 H 
ATOM     19  H7  21A d   1       9.613  24.091 -12.876  0.00  0.00     0.084 H 
BRANCH  14  20
ATOM     20  C11 21A d   1      13.331  25.929 -14.961  0.00  0.00     0.168 A 
ATOM     21  N12 21A d   1      12.772  26.590 -15.995  0.00  0.00    -0.268 N 
ATOM     22  N13 21A d   1      13.704  27.420 -16.502  0.00  0.00    -0.005 NA
ATOM     23  H5  21A d   1      11.806  26.480 -16.336  0.00  0.00     0.185 HD
ATOM     24  N14 21A d   1      14.830  27.278 -15.782  0.00  0.00     0.018 NA
ATOM     25  N15 21A d   1      14.599  26.361 -14.826  0.00  0.00    -0.142 NA
ENDBRANCH  14  20
ENDBRANCH   5  10
BRANCH   6  26
ATOM     26  C20 21A d   1      10.636  20.069 -13.168  0.00  0.00    -0.008 A 
ATOM     27  C21 21A d   1      10.136  20.612 -14.343  0.00  0.00    -0.068 A 
ATOM     28  C22 21A d   1      10.383  19.990 -15.558  0.00  0.00    -0.045 A 
ATOM     29  H9  21A d   1       9.551  21.524 -14.311  0.00  0.00     0.085 H 
ATOM     30  C23 21A d   1      11.122  18.817 -15.599  0.00  0.00     0.116 A 
ATOM     31  H10 21A d   1       9.998  20.421 -16.475  0.00  0.00     0.088 H 
ATOM     32  F24 21A d   1      11.358  18.219 -16.774  0.00  0.00    -0.206 F 
ATOM     33  C25 21A d   1      11.617  18.270 -14.422  0.00  0.00    -0.045 A 
ATOM     34  C26 21A d   1      11.369  18.895 -13.210  0.00  0.00    -0.068 A 
ATOM     35  H11 21A d   1      12.197  17.355 -14.451  0.00  0.00     0.088 H 
ATOM     36  H12 21A d   1      11.750  18.463 -12.292  0.00  0.00     0.085 H 
ENDBRANCH   6  26
BRANCH   3  37
ATOM     37  O04 21A d   1       9.541  22.427  -7.987  0.00  0.00    -0.356 OA
ATOM     38  H1  21A d   1       9.979  21.930  -7.306  0.00  0.00     0.218 HD
ENDBRANCH   3  37
TORSDOF 4
