REMARK  5 active torsions:
REMARK  status: ('A' for Active; 'I' for Inactive)
REMARK    1  A    between atoms: C02_2  and  N08_8 
REMARK    2  A    between atoms: C10_10  and  S12_12 
REMARK    3  A    between atoms: S12_12  and  C13_13 
REMARK    4  A    between atoms: C13_13  and  C14_14 
REMARK    5  A    between atoms: C14_14  and  C15_15 
ROOT
ATOM      1  S12 YH1 d   1      58.190  11.124  33.804  0.00  0.00    -0.084 SA
ENDROOT
BRANCH   1   2
ATOM      2  C10 YH1 d   1      57.185   9.833  33.224  0.00  0.00     0.169 A 
ATOM      3  N09 YH1 d   1      56.284  10.044  32.265  0.00  0.00    -0.202 NA
ATOM      4  C04 YH1 d   1      55.653   8.865  32.045  0.00  0.00     0.202 A 
ATOM      5  N03 YH1 d   1      54.662   8.537  31.177  0.00  0.00    -0.043 NA
ATOM      6  C05 YH1 d   1      56.209   7.935  32.899  0.00  0.00     0.138 A 
ATOM      7  C02 YH1 d   1      54.246   7.281  31.193  0.00  0.00     0.702 A 
ATOM      8  N01 YH1 d   1      54.751   6.342  32.009  0.00  0.00    -0.164 N 
ATOM      9  C06 YH1 d   1      55.729   6.608  32.872  0.00  0.00     0.224 A 
ATOM     10  H1  YH1 d   1      54.381   5.414  31.967  0.00  0.00     0.186 HD
ATOM     11  O07 YH1 d   1      56.225   5.640  33.692  0.00  0.00    -0.169 OA
ATOM     12  N11 YH1 d   1      57.169   8.564  33.648  0.00  0.00    -0.329 N 
ATOM     13  H4  YH1 d   1      57.756   8.147  34.384  0.00  0.00     0.168 HD
BRANCH   7  14
ATOM     14  N08 YH1 d   1      53.209   6.913  30.315  0.00  0.00    -0.233 N 
ATOM     15  H2  YH1 d   1      52.802   7.612  29.677  0.00  0.00     0.174 HD
ATOM     16  H3  YH1 d   1      52.857   5.945  30.310  0.00  0.00     0.174 HD
ENDBRANCH   7  14
ENDBRANCH   1   2
BRANCH   1  17
ATOM     17  C13 YH1 d   1      57.123  12.571  33.770  0.00  0.00     0.043 C 
ATOM     18  H5  YH1 d   1      56.988  12.822  32.708  0.00  0.00     0.061 H 
ATOM     19  H6  YH1 d   1      57.687  13.374  34.268  0.00  0.00     0.061 H 
BRANCH  17  20
ATOM     20  C14 YH1 d   1      55.739  12.596  34.381  0.00  0.00     0.169 C 
ATOM     21  O16 YH1 d   1      55.255  11.573  34.846  0.00  0.00    -0.291 OA
BRANCH  20  22
ATOM     22  C15 YH1 d   1      54.913  13.855  34.427  0.00  0.00     0.010 A 
ATOM     23  C17 YH1 d   1      53.556  13.785  34.730  0.00  0.00    -0.070 A 
ATOM     24  C18 YH1 d   1      52.776  14.936  34.780  0.00  0.00    -0.082 A 
ATOM     25  H7  YH1 d   1      53.101  12.821  34.929  0.00  0.00     0.085 H 
ATOM     26  C19 YH1 d   1      53.350  16.169  34.518  0.00  0.00    -0.083 A 
ATOM     27  H8  YH1 d   1      51.722  14.868  35.023  0.00  0.00     0.083 H 
ATOM     28  C20 YH1 d   1      54.700  16.252  34.213  0.00  0.00    -0.082 A 
ATOM     29  H9  YH1 d   1      52.745  17.068  34.551  0.00  0.00     0.083 H 
ATOM     30  C21 YH1 d   1      55.479  15.099  34.170  0.00  0.00    -0.070 A 
ATOM     31  H10 YH1 d   1      55.150  17.217  34.008  0.00  0.00     0.083 H 
ATOM     32  H11 YH1 d   1      56.535  15.171  33.934  0.00  0.00     0.085 H 
ENDBRANCH  20  22
ENDBRANCH  17  20
ENDBRANCH   1  17
TORSDOF 5
