REMARK  4 active torsions:
REMARK  status: ('A' for Active; 'I' for Inactive)
REMARK    1  A    between atoms: C03_3  and  N08_8 
REMARK    2  A    between atoms: C10_10  and  S12_12 
REMARK    3  A    between atoms: S12_12  and  C13_13 
REMARK    4  A    between atoms: C13_13  and  C14_14 
ROOT
ATOM      1  C14 YH2 d   1      74.327  14.066  69.178  0.00  0.00    -0.048 A 
ATOM      2  C15 YH2 d   1      72.969  13.444  69.205  0.00  0.00    -0.075 A 
ATOM      3  C16 YH2 d   1      71.773  14.224  68.772  0.00  0.00    -0.062 A 
ATOM      4  C17 YH2 d   1      71.938  15.627  68.304  0.00  0.00     0.044 A 
ATOM      5  C18 YH2 d   1      73.284  16.255  68.275  0.00  0.00    -0.062 A 
ATOM      6  C19 YH2 d   1      74.472  15.475  68.713  0.00  0.00    -0.075 A 
ATOM      7  C20 YH2 d   1      70.751  16.405  67.868  0.00  0.00     0.099 C 
ATOM      8  N21 YH2 d   1      69.844  17.008  67.532  0.00  0.00    -0.191 NA
ATOM      9  H   YH2 d   1      72.852  12.420  69.541  0.00  0.00     0.084 H 
ATOM     10  H   YH2 d   1      70.789  13.771  68.798  0.00  0.00     0.085 H 
ATOM     11  H   YH2 d   1      73.400  17.278  67.936  0.00  0.00     0.085 H 
ATOM     12  H   YH2 d   1      75.453  15.935  68.694  0.00  0.00     0.084 H 
ENDROOT
BRANCH   1  13
ATOM     13  C13 YH2 d   1      75.547  13.301  69.606  0.00  0.00     0.008 C 
ATOM     14  H   YH2 d   1      76.197  13.972  70.188  0.00  0.00     0.056 H 
ATOM     15  H   YH2 d   1      75.230  12.458  70.238  0.00  0.00     0.056 H 
BRANCH  13  16
ATOM     16  S12 YH2 d   1      76.477  12.661  68.225  0.00  0.00    -0.087 SA
BRANCH  16  17
ATOM     17  C10 YH2 d   1      75.463  11.388  67.659  0.00  0.00     0.169 A 
ATOM     18  N09 YH2 d   1      74.543  11.555  66.685  0.00  0.00    -0.204 NA
ATOM     19  C05 YH2 d   1      73.941  10.378  66.539  0.00  0.00     0.178 A 
ATOM     20  N04 YH2 d   1      72.892  10.081  65.607  0.00  0.00    -0.172 N 
ATOM     21  C06 YH2 d   1      74.468   9.492  67.436  0.00  0.00     0.150 A 
ATOM     22  C03 YH2 d   1      72.415   8.775  65.686  0.00  0.00     0.680 A 
ATOM     23  H   YH2 d   1      72.524  10.773  64.938  0.00  0.00     0.186 HD
ATOM     24  N02 YH2 d   1      72.923   7.828  66.589  0.00  0.00    -0.154 N 
ATOM     25  C01 YH2 d   1      73.947   8.106  67.492  0.00  0.00     0.290 A 
ATOM     26  H   YH2 d   1      72.531   6.908  66.584  0.00  0.00     0.187 HD
ATOM     27  O07 YH2 d   1      74.346   7.237  68.264  0.00  0.00    -0.265 OA
ATOM     28  N11 YH2 d   1      75.428  10.122  68.155  0.00  0.00    -0.328 N 
ATOM     29  H   YH2 d   1      76.005   9.728  68.912  0.00  0.00     0.168 HD
BRANCH  22  30
ATOM     30  N08 YH2 d   1      71.400   8.407  64.829  0.00  0.00    -0.234 N 
ATOM     31  H   YH2 d   1      71.022   7.449  64.859  0.00  0.00     0.174 HD
ATOM     32  H   YH2 d   1      71.019   9.090  64.158  0.00  0.00     0.174 HD
ENDBRANCH  22  30
ENDBRANCH  16  17
ENDBRANCH  13  16
ENDBRANCH   1  13
TORSDOF 4
