REMARK  6 active torsions:
REMARK  status: ('A' for Active; 'I' for Inactive)
REMARK    1  A    between atoms: C02_4  and  N08_5 
REMARK    2  A    between atoms: C10_11  and  S12_12 
REMARK    3  A    between atoms: S12_12  and  C13_13 
REMARK    4  A    between atoms: C13_13  and  C14_14 
REMARK    5  A    between atoms: C14_14  and  C15_16 
REMARK    6  A    between atoms: C19_19  and  C22_20 
ROOT
ATOM      1  C13 YH6 d   1      56.728  12.670  34.711  0.00  0.00     0.043 C 
ATOM      2  H5  YH6 d   1      57.075  13.700  34.884  0.00  0.00     0.061 H 
ATOM      3  H6  YH6 d   1      56.985  12.046  35.580  0.00  0.00     0.061 H 
ENDROOT
BRANCH   1   4
ATOM      4  S12 YH6 d   1      57.662  12.038  33.329  0.00  0.00    -0.084 SA
BRANCH   4   5
ATOM      5  C10 YH6 d   1      56.581  10.798  32.783  0.00  0.00     0.169 A 
ATOM      6  N11 YH6 d   1      56.540   9.547  33.262  0.00  0.00    -0.329 N 
ATOM      7  C05 YH6 d   1      55.502   8.936  32.599  0.00  0.00     0.138 A 
ATOM      8  H4  YH6 d   1      57.156   9.131  33.976  0.00  0.00     0.168 HD
ATOM      9  C06 YH6 d   1      54.950   7.642  32.641  0.00  0.00     0.224 A 
ATOM     10  C04 YH6 d   1      54.946   9.864  31.726  0.00  0.00     0.202 A 
ATOM     11  O07 YH6 d   1      55.423   6.666  33.458  0.00  0.00    -0.169 OA
ATOM     12  N01 YH6 d   1      53.908   7.408  31.840  0.00  0.00    -0.164 N 
ATOM     13  C02 YH6 d   1      53.409   8.340  31.010  0.00  0.00     0.702 A 
ATOM     14  H1  YH6 d   1      53.482   6.503  31.858  0.00  0.00     0.186 HD
ATOM     15  N03 YH6 d   1      53.893   9.566  30.920  0.00  0.00    -0.043 NA
ATOM     16  N09 YH6 d   1      55.634  11.023  31.866  0.00  0.00    -0.202 NA
BRANCH  13  17
ATOM     17  N08 YH6 d   1      52.317   7.984  30.208  0.00  0.00    -0.233 N 
ATOM     18  H2  YH6 d   1      51.908   8.672  29.560  0.00  0.00     0.174 HD
ATOM     19  H3  YH6 d   1      51.923   7.034  30.267  0.00  0.00     0.174 HD
ENDBRANCH  13  17
ENDBRANCH   4   5
ENDBRANCH   1   4
BRANCH   1  20
ATOM     20  C14 YH6 d   1      55.227  12.723  34.643  0.00  0.00     0.169 C 
ATOM     21  O16 YH6 d   1      54.580  11.694  34.764  0.00  0.00    -0.291 OA
BRANCH  20  22
ATOM     22  C15 YH6 d   1      54.477  14.009  34.450  0.00  0.00     0.011 A 
ATOM     23  C17 YH6 d   1      53.115  14.020  34.723  0.00  0.00    -0.069 A 
ATOM     24  C18 YH6 d   1      52.371  15.179  34.566  0.00  0.00    -0.076 A 
ATOM     25  H7  YH6 d   1      52.629  13.113  35.062  0.00  0.00     0.085 H 
ATOM     26  C19 YH6 d   1      52.987  16.340  34.127  0.00  0.00    -0.062 A 
ATOM     27  H8  YH6 d   1      51.310  15.177  34.786  0.00  0.00     0.084 H 
ATOM     28  C20 YH6 d   1      54.349  16.334  33.848  0.00  0.00    -0.076 A 
ATOM     29  C21 YH6 d   1      55.097  15.172  34.009  0.00  0.00    -0.069 A 
ATOM     30  H12 YH6 d   1      54.832  17.241  33.503  0.00  0.00     0.084 H 
ATOM     31  H13 YH6 d   1      56.159  15.174  33.791  0.00  0.00     0.085 H 
BRANCH  26  32
ATOM     32  C22 YH6 d   1      52.182  17.584  33.957  0.00  0.00    -0.051 C 
ATOM     33  H9  YH6 d   1      52.834  18.397  33.604  0.00  0.00     0.033 H 
ATOM     34  H10 YH6 d   1      51.734  17.865  34.921  0.00  0.00     0.033 H 
ATOM     35  H11 YH6 d   1      51.385  17.407  33.220  0.00  0.00     0.033 H 
ENDBRANCH  26  32
ENDBRANCH  20  22
ENDBRANCH   1  20
TORSDOF 6
