REMARK  7 active torsions:
REMARK  status: ('A' for Active; 'I' for Inactive)
REMARK    1  A    between atoms: S1_4  and  C3_14 
REMARK    2  A    between atoms: C6_20  and  S1_4 
REMARK    3  A    between atoms: C11_6  and  O3_15 
REMARK    4  A    between atoms: O3_15  and  C14_9 
REMARK    5  A    between atoms: C5_18  and  N5_19 
REMARK    6  A    between atoms: C7_21  and  C6_20 
REMARK    7  A    between atoms: C7_21  and  C8_22 
ROOT
ATOM      1  C6  YH5 d   1      59.454  15.469  34.985  0.00  0.00     0.043 C 
ATOM      2  H11 YH5 d   1      59.854  16.479  35.160  0.00  0.00     0.061 H 
ATOM      3  H12 YH5 d   1      59.787  14.798  35.791  0.00  0.00     0.061 H 
ENDROOT
BRANCH   1   4
ATOM      4  S1  YH5 d   1      60.138  14.862  33.439  0.00  0.00    -0.084 SA
BRANCH   4   5
ATOM      5  C3  YH5 d   1      58.938  13.687  32.926  0.00  0.00     0.169 A 
ATOM      6  N1  YH5 d   1      58.924  12.435  33.412  0.00  0.00    -0.329 N 
ATOM      7  C2  YH5 d   1      57.822  11.888  32.761  0.00  0.00     0.138 A 
ATOM      8  H1  YH5 d   1      59.562  11.995  34.090  0.00  0.00     0.168 HD
ATOM      9  C1  YH5 d   1      57.280  10.610  32.829  0.00  0.00     0.224 A 
ATOM     10  C4  YH5 d   1      57.187  12.787  31.928  0.00  0.00     0.202 A 
ATOM     11  O1  YH5 d   1      57.817   9.645  33.659  0.00  0.00    -0.169 OA
ATOM     12  N4  YH5 d   1      56.168  10.314  32.097  0.00  0.00    -0.164 N 
ATOM     13  C5  YH5 d   1      55.558  11.320  31.257  0.00  0.00     0.702 A 
ATOM     14  H8  YH5 d   1      55.773   9.396  32.142  0.00  0.00     0.186 HD
ATOM     15  N3  YH5 d   1      56.077  12.595  31.148  0.00  0.00    -0.043 NA
ATOM     16  N2  YH5 d   1      57.913  13.969  32.009  0.00  0.00    -0.202 NA
BRANCH  13  17
ATOM     17  N5  YH5 d   1      54.405  10.971  30.508  0.00  0.00    -0.233 N 
ATOM     18  H9  YH5 d   1      53.953  11.671  29.902  0.00  0.00     0.174 HD
ATOM     19  H10 YH5 d   1      54.020  10.018  30.570  0.00  0.00     0.174 HD
ENDBRANCH  13  17
ENDBRANCH   4   5
ENDBRANCH   1   4
BRANCH   1  20
ATOM     20  C7  YH5 d   1      57.939  15.549  35.037  0.00  0.00     0.169 C 
ATOM     21  O2  YH5 d   1      57.346  14.541  35.382  0.00  0.00    -0.291 OA
BRANCH  20  22
ATOM     22  C8  YH5 d   1      57.098  16.771  34.758  0.00  0.00     0.011 A 
ATOM     23  C13 YH5 d   1      55.619  16.614  34.999  0.00  0.00    -0.067 A 
ATOM     24  C12 YH5 d   1      54.752  17.646  34.791  0.00  0.00    -0.050 A 
ATOM     25  H4  YH5 d   1      55.236  15.661  35.345  0.00  0.00     0.085 H 
ATOM     26  C11 YH5 d   1      55.255  18.948  34.330  0.00  0.00     0.068 A 
ATOM     27  H3  YH5 d   1      53.691  17.506  34.966  0.00  0.00     0.087 H 
ATOM     28  C10 YH5 d   1      56.600  19.116  34.106  0.00  0.00    -0.050 A 
ATOM     29  C9  YH5 d   1      57.556  17.972  34.337  0.00  0.00    -0.067 A 
ATOM     30  H2  YH5 d   1      56.975  20.073  33.762  0.00  0.00     0.087 H 
ATOM     31  H13 YH5 d   1      58.617  18.113  34.164  0.00  0.00     0.085 H 
BRANCH  26  32
ATOM     32  O3  YH5 d   1      54.353  19.982  34.135  0.00  0.00    -0.356 OA
BRANCH  32  33
ATOM     33  C14 YH5 d   1      54.105  20.899  35.152  0.00  0.00     0.010 C 
ATOM     34  H5  YH5 d   1      53.366  21.637  34.808  0.00  0.00     0.066 H 
ATOM     35  H6  YH5 d   1      55.040  21.413  35.418  0.00  0.00     0.066 H 
ATOM     36  H7  YH5 d   1      53.713  20.371  36.034  0.00  0.00     0.066 H 
ENDBRANCH  32  33
ENDBRANCH  26  32
ENDBRANCH  20  22
ENDBRANCH   1  20
TORSDOF 7
