REMARK  6 active torsions:
REMARK  status: ('A' for Active; 'I' for Inactive)
REMARK    1  A    between atoms: C14_2  and  C15_3 
REMARK    2  A    between atoms: C14_2  and  C13_10 
REMARK    3  A    between atoms: C18_5  and  C22_6 
REMARK    4  A    between atoms: C13_10  and  S12_11 
REMARK    5  A    between atoms: S12_11  and  C10_12 
REMARK    6  A    between atoms: C02_18  and  N08_19 
ROOT
ATOM      1  C13 YH3 d   1      56.251  13.431  33.850  0.00  0.00     0.043 C 
ATOM      2  H8  YH3 d   1      56.750  14.150  34.516  0.00  0.00     0.061 H 
ATOM      3  H9  YH3 d   1      56.240  13.828  32.824  0.00  0.00     0.061 H 
ENDROOT
BRANCH   1   4
ATOM      4  C14 YH3 d   1      54.797  13.416  34.291  0.00  0.00     0.169 C 
ATOM      5  O16 YH3 d   1      54.267  12.358  34.599  0.00  0.00    -0.291 OA
BRANCH   4   6
ATOM      6  C15 YH3 d   1      53.933  14.655  34.364  0.00  0.00     0.011 A 
ATOM      7  C17 YH3 d   1      52.644  14.571  34.902  0.00  0.00    -0.064 A 
ATOM      8  C18 YH3 d   1      51.812  15.688  34.987  0.00  0.00    -0.061 A 
ATOM      9  H1  YH3 d   1      52.283  13.614  35.262  0.00  0.00     0.085 H 
ATOM     10  C19 YH3 d   1      52.261  16.913  34.522  0.00  0.00    -0.077 A 
ATOM     11  C20 YH3 d   1      53.536  17.015  33.984  0.00  0.00    -0.082 A 
ATOM     12  H5  YH3 d   1      51.621  17.786  34.578  0.00  0.00     0.084 H 
ATOM     13  C21 YH3 d   1      54.364  15.898  33.903  0.00  0.00    -0.070 A 
ATOM     14  H6  YH3 d   1      53.891  17.974  33.623  0.00  0.00     0.083 H 
ATOM     15  H7  YH3 d   1      55.356  15.996  33.476  0.00  0.00     0.085 H 
BRANCH   8  16
ATOM     16  C22 YH3 d   1      50.439  15.582  35.574  0.00  0.00    -0.051 C 
ATOM     17  H2  YH3 d   1      49.952  16.568  35.548  0.00  0.00     0.033 H 
ATOM     18  H3  YH3 d   1      50.511  15.236  36.616  0.00  0.00     0.033 H 
ATOM     19  H4  YH3 d   1      49.845  14.864  34.990  0.00  0.00     0.033 H 
ENDBRANCH   8  16
ENDBRANCH   4   6
ENDBRANCH   1   4
BRANCH   1  20
ATOM     20  S12 YH3 d   1      57.341  11.995  33.795  0.00  0.00    -0.084 SA
BRANCH  20  21
ATOM     21  C10 YH3 d   1      56.375  10.696  33.161  0.00  0.00     0.169 A 
ATOM     22  N09 YH3 d   1      55.504  10.904  32.174  0.00  0.00    -0.202 NA
ATOM     23  C04 YH3 d   1      54.899   9.715  31.925  0.00  0.00     0.202 A 
ATOM     24  C05 YH3 d   1      55.428   8.773  32.784  0.00  0.00     0.138 A 
ATOM     25  N03 YH3 d   1      53.950   9.390  31.015  0.00  0.00    -0.043 NA
ATOM     26  N11 YH3 d   1      56.359   9.415  33.562  0.00  0.00    -0.329 N 
ATOM     27  C06 YH3 d   1      54.950   7.451  32.712  0.00  0.00     0.224 A 
ATOM     28  H10 YH3 d   1      56.933   8.996  34.307  0.00  0.00     0.168 HD
ATOM     29  N01 YH3 d   1      53.994   7.187  31.819  0.00  0.00    -0.164 N 
ATOM     30  O07 YH3 d   1      55.426   6.478  33.538  0.00  0.00    -0.169 OA
ATOM     31  C02 YH3 d   1      53.519   8.137  31.003  0.00  0.00     0.702 A 
ATOM     32  H13 YH3 d   1      53.624   6.260  31.758  0.00  0.00     0.186 HD
BRANCH  31  33
ATOM     33  N08 YH3 d   1      52.508   7.784  30.090  0.00  0.00    -0.233 N 
ATOM     34  H11 YH3 d   1      52.122   8.492  29.449  0.00  0.00     0.174 HD
ATOM     35  H12 YH3 d   1      52.154   6.817  30.062  0.00  0.00     0.174 HD
ENDBRANCH  31  33
ENDBRANCH  20  21
ENDBRANCH   1  20
TORSDOF 6
