REMARK  1 active torsions:
REMARK  status: ('A' for Active; 'I' for Inactive)
REMARK    1  A    between atoms: C2_8  and  N2_6 
ROOT
ATOM      1  C4  DX4 d   1      75.073   9.007  66.416  0.00  0.00     0.173 A 
ATOM      2  C5  DX4 d   1      75.677   8.125  67.427  0.00  0.00     0.119 A 
ATOM      3  C6  DX4 d   1      74.987   6.858  67.748  0.00  0.00     0.147 A 
ATOM      4  C8  DX4 d   1      76.931   9.882  67.151  0.00  0.00     0.067 A 
ATOM      5  N1  DX4 d   1      73.840   6.651  67.067  0.00  0.00    -0.179 N 
ATOM      6  N3  DX4 d   1      73.917   8.670  65.817  0.00  0.00    -0.173 N 
ATOM      7  C2  DX4 d   1      73.327   7.504  66.148  0.00  0.00     0.678 A 
ATOM      8  N9  DX4 d   1      75.889  10.054  66.298  0.00  0.00    -0.223 NA
ATOM      9  N7  DX4 d   1      76.815   8.724  67.843  0.00  0.00    -0.345 N 
ATOM     10  S6  DX4 d   1      75.571   5.825  68.840  0.00  0.00    -0.057 SA
ATOM     11  H   DX4 d   1      77.755  10.585  67.264  0.00  0.00     0.143 H 
ATOM     12  H   DX4 d   1      73.334   5.809  67.254  0.00  0.00     0.185 HD
ATOM     13  H   DX4 d   1      73.489   9.293  65.117  0.00  0.00     0.186 HD
ATOM     14  H   DX4 d   1      77.471   8.367  68.553  0.00  0.00     0.167 HD
ENDROOT
BRANCH   7  15
ATOM     15  N2  DX4 d   1      72.164   7.175  65.528  0.00  0.00    -0.234 N 
ATOM     16  H   DX4 d   1      71.757   7.810  64.826  0.00  0.00     0.174 HD
ATOM     17  H   DX4 d   1      71.689   6.291  65.760  0.00  0.00     0.174 HD
ENDBRANCH   7  15
TORSDOF 1
