REMARK  1 active torsions:
REMARK  status: ('A' for Active; 'I' for Inactive)
REMARK    1  A    between atoms: C06_6  and  N10_10 
ROOT
ATOM      1  C01 YH7 d   1      44.501 -15.691  -8.340  0.00  0.00     0.145 A 
ATOM      2  C02 YH7 d   1      43.446 -16.006  -7.543  0.00  0.00     0.141 A 
ATOM      3  N03 YH7 d   1      42.139 -16.330  -8.134  0.00  0.00    -0.317 N 
ATOM      4  C04 YH7 d   1      41.983 -16.299  -9.557  0.00  0.00     0.179 A 
ATOM      5  N05 YH7 d   1      43.073 -15.964 -10.395  0.00  0.00    -0.318 N 
ATOM      6  C06 YH7 d   1      44.324 -15.664  -9.834  0.00  0.00     0.134 A 
ATOM      7  N07 YH7 d   1      45.572 -15.443  -7.528  0.00  0.00    -0.236 NA
ATOM      8  C08 YH7 d   1      45.174 -15.613  -6.235  0.00  0.00     0.066 A 
ATOM      9  N09 YH7 d   1      43.854 -15.956  -6.239  0.00  0.00    -0.335 N 
ATOM     10  S11 YH7 d   1      40.521 -16.642 -10.227  0.00  0.00    -0.040 SA
ATOM     11  H   YH7 d   1      41.366 -16.570  -7.547  0.00  0.00     0.170 HD
ATOM     12  H   YH7 d   1      42.952 -15.941 -11.387  0.00  0.00     0.170 HD
ATOM     13  H   YH7 d   1      45.801 -15.495  -5.353  0.00  0.00     0.143 H 
ATOM     14  H   YH7 d   1      43.271 -16.143  -5.411  0.00  0.00     0.168 HD
ENDROOT
BRANCH   6  15
ATOM     15  N10 YH7 d   1      45.401 -15.337 -10.709  0.00  0.00    -0.383 N 
ATOM     16  H   YH7 d   1      46.329 -15.113 -10.322  0.00  0.00     0.157 HD
ATOM     17  H   YH7 d   1      45.251 -15.325 -11.728  0.00  0.00     0.157 HD
ENDBRANCH   6  15
TORSDOF 1
