REMARK  2 active torsions:
REMARK  status: ('A' for Active; 'I' for Inactive)
REMARK    1  A    between atoms: C4_4  and  C5_9 
REMARK    2  A    between atoms: C1_7  and  O1_8 
ROOT
ATOM      1  O   X48 d   1      10.022  22.194  -8.419  0.00  0.00    -0.268 OA
ATOM      2  C   X48 d   1      10.231  21.755  -9.539  0.00  0.00     0.276 A 
ATOM      3  N   X48 d   1      10.902  22.519 -10.435  0.00  0.00    -0.211 NA
ATOM      4  C4  X48 d   1      11.157  22.050 -11.693  0.00  0.00     0.070 A 
ATOM      5  C3  X48 d   1      10.737  20.776 -12.076  0.00  0.00    -0.055 A 
ATOM      6  C2  X48 d   1      10.046  20.002 -11.171  0.00  0.00    -0.065 A 
ATOM      7  C1  X48 d   1       9.791  20.486  -9.919  0.00  0.00     0.131 A 
ATOM      8  H1  X48 d   1      10.952  20.400 -13.075  0.00  0.00     0.086 H 
ATOM      9  H2  X48 d   1       9.704  19.007 -11.452  0.00  0.00     0.081 H 
ATOM     10  H3  X48 d   1       8.845  20.916 -10.280  0.00  0.00     0.104 H 
ENDROOT
BRANCH   4  11
ATOM     11  C5  X48 d   1      11.939  22.956 -12.616  0.00  0.00    -0.007 A 
ATOM     12  C10 X48 d   1      12.983  23.705 -12.068  0.00  0.00    -0.071 A 
ATOM     13  C9  X48 d   1      13.722  24.548 -12.881  0.00  0.00    -0.082 A 
ATOM     14  H5  X48 d   1      13.213  23.627 -11.012  0.00  0.00     0.084 H 
ATOM     15  C8  X48 d   1      13.418  24.631 -14.238  0.00  0.00    -0.083 A 
ATOM     16  H6  X48 d   1      14.530  25.138 -12.465  0.00  0.00     0.083 H 
ATOM     17  C7  X48 d   1      12.382  23.885 -14.788  0.00  0.00    -0.082 A 
ATOM     18  H7  X48 d   1      13.999  25.288 -14.875  0.00  0.00     0.083 H 
ATOM     19  C6  X48 d   1      11.635  23.043 -13.974  0.00  0.00    -0.071 A 
ATOM     20  H8  X48 d   1      12.158  23.960 -15.846  0.00  0.00     0.083 H 
ATOM     21  H9  X48 d   1      10.823  22.459 -14.391  0.00  0.00     0.084 H 
ENDBRANCH   4  11
BRANCH   7  22
ATOM     22  O1  X48 d   1       9.096  19.714  -8.991  0.00  0.00    -0.382 OA
ATOM     23  H4  X48 d   1       8.234  19.509  -9.334  0.00  0.00     0.211 HD
ENDBRANCH   7  22
TORSDOF 2
