REMARK  2 active torsions:
REMARK  status: ('A' for Active; 'I' for Inactive)
REMARK    1  A    between atoms: C14_3  and  O17_4 
REMARK    2  A    between atoms: C11_7  and  N3_8 
ROOT
ATOM      1  C12 MSR d   1      10.692  12.712 -16.718  0.00  0.00    -0.054 A 
ATOM      2  C13 MSR d   1      10.555  11.761 -17.712  0.00  0.00    -0.049 A 
ATOM      3  C14 MSR d   1      11.285  10.584 -17.645  0.00  0.00     0.065 A 
ATOM      4  C15 MSR d   1      12.153  10.359 -16.586  0.00  0.00    -0.049 A 
ATOM      5  C16 MSR d   1      12.299  11.322 -15.597  0.00  0.00    -0.054 A 
ATOM      6  C11 MSR d   1      11.565  12.495 -15.647  0.00  0.00     0.040 A 
ATOM      7  H1  MSR d   1      10.120  13.631 -16.769  0.00  0.00     0.087 H 
ATOM      8  H2  MSR d   1       9.879  11.935 -18.541  0.00  0.00     0.087 H 
ATOM      9  H4  MSR d   1      12.715   9.434 -16.531  0.00  0.00     0.087 H 
ATOM     10  H5  MSR d   1      12.992  11.155 -14.780  0.00  0.00     0.087 H 
ENDROOT
BRANCH   6  11
ATOM     11  N3  MSR d   1      11.698  13.442 -14.677  0.00  0.00    -0.315 N 
ATOM     12  C4  MSR d   1      12.868  13.919 -14.215  0.00  0.00     0.003 A 
ATOM     13  C5  MSR d   1      12.576  14.871 -13.248  0.00  0.00     0.019 A 
ATOM     14  H6  MSR d   1      13.862  13.614 -14.540  0.00  0.00     0.114 H 
ATOM     15  NFE MSR d   1      11.234  14.950 -13.156  0.00  0.00    -0.254 NA
ATOM     16  H7  MSR d   1      13.298  15.447 -12.671  0.00  0.00     0.117 H 
ATOM     17  C2  MSR d   1      10.699  14.067 -14.024  0.00  0.00     0.070 A 
ATOM     18  H8  MSR d   1       9.635  13.889 -14.172  0.00  0.00     0.144 H 
ENDBRANCH   6  11
BRANCH   3  19
ATOM     19  O17 MSR d   1      11.142   9.639 -18.638  0.00  0.00    -0.361 OA
ATOM     20  H3  MSR d   1      11.704   8.896 -18.450  0.00  0.00     0.217 HD
ENDBRANCH   3  19
TORSDOF 2
