REMARK  4 active torsions:
REMARK  status: ('A' for Active; 'I' for Inactive)
REMARK    1  A    between atoms: C03_3  and  O04_4 
REMARK    2  A    between atoms: C06_6  and  C07_7 
REMARK    3  A    between atoms: C14_14  and  C15_15 
REMARK    4  A    between atoms: C18_18  and  C21_21 
ROOT
ATOM      1  O01 20F d   1       9.850  22.300  -8.069  0.00  0.00    -0.265 OA
ATOM      2  C02 20F d   1      10.035  21.768  -9.176  0.00  0.00     0.279 A 
ATOM      3  C03 20F d   1       9.683  20.428  -9.538  0.00  0.00     0.135 A 
ATOM      4  C05 20F d   1       9.956  19.986 -10.800  0.00  0.00    -0.033 A 
ATOM      5  C06 20F d   1      10.570  20.768 -11.821  0.00  0.00     0.005 A 
ATOM      6  C14 20F d   1      10.923  22.077 -11.499  0.00  0.00     0.056 A 
ATOM      7  N26 20F d   1      10.644  22.537 -10.188  0.00  0.00    -0.320 N 
ATOM      8  H2  20F d   1       9.685  18.960 -11.045  0.00  0.00     0.089 H 
ATOM      9  H12 20F d   1      10.898  23.478  -9.964  0.00  0.00     0.169 HD
ENDROOT
BRANCH   6  10
ATOM     10  C15 20F d   1      11.584  23.107 -12.385  0.00  0.00    -0.008 A 
ATOM     11  C16 20F d   1      12.940  23.045 -12.737  0.00  0.00    -0.070 A 
ATOM     12  C17 20F d   1      13.580  24.001 -13.542  0.00  0.00    -0.068 A 
ATOM     13  H7  20F d   1      13.527  22.212 -12.367  0.00  0.00     0.084 H 
ATOM     14  C18 20F d   1      12.913  25.115 -14.067  0.00  0.00     0.015 A 
ATOM     15  H8  20F d   1      14.633  23.872 -13.766  0.00  0.00     0.085 H 
ATOM     16  C19 20F d   1      11.564  25.198 -13.712  0.00  0.00    -0.068 A 
ATOM     17  C20 20F d   1      10.931  24.236 -12.909  0.00  0.00    -0.070 A 
ATOM     18  H9  20F d   1      10.983  26.039 -14.071  0.00  0.00     0.085 H 
ATOM     19  H10 20F d   1       9.880  24.372 -12.680  0.00  0.00     0.084 H 
BRANCH  14  20
ATOM     20  C21 20F d   1      13.590  26.131 -14.896  0.00  0.00     0.204 A 
ATOM     21  N22 20F d   1      14.872  26.626 -14.843  0.00  0.00    -0.108 NA
ATOM     22  N23 20F d   1      14.994  27.567 -15.813  0.00  0.00    -0.049 NA
ATOM     23  N24 20F d   1      13.886  27.724 -16.472  0.00  0.00    -0.176 N 
ATOM     24  N25 20F d   1      12.969  26.862 -15.938  0.00  0.00    -0.133 NA
ATOM     25  H11 20F d   1      13.727  28.377 -17.253  0.00  0.00     0.214 HD
ENDBRANCH  14  20
ENDBRANCH   6  10
BRANCH   5  26
ATOM     26  C07 20F d   1      10.800  20.114 -13.162  0.00  0.00    -0.023 A 
ATOM     27  C08 20F d   1      11.375  18.830 -13.264  0.00  0.00    -0.069 A 
ATOM     28  C09 20F d   1      11.614  18.167 -14.465  0.00  0.00    -0.045 A 
ATOM     29  H3  20F d   1      11.649  18.325 -12.345  0.00  0.00     0.085 H 
ATOM     30  C10 20F d   1      11.279  18.782 -15.671  0.00  0.00     0.116 A 
ATOM     31  H4  20F d   1      12.058  17.178 -14.463  0.00  0.00     0.088 H 
ATOM     32  C11 20F d   1      10.708  20.055 -15.641  0.00  0.00    -0.045 A 
ATOM     33  F13 20F d   1      11.500  18.169 -16.817  0.00  0.00    -0.206 F 
ATOM     34  C12 20F d   1      10.479  20.688 -14.414  0.00  0.00    -0.069 A 
ATOM     35  H5  20F d   1      10.442  20.553 -16.567  0.00  0.00     0.088 H 
ATOM     36  H6  20F d   1      10.030  21.675 -14.424  0.00  0.00     0.085 H 
ENDBRANCH   5  26
BRANCH   3  37
ATOM     37  O04 20F d   1       9.097  19.666  -8.581  0.00  0.00    -0.356 OA
ATOM     38  H1  20F d   1       9.684  19.585  -7.839  0.00  0.00     0.218 HD
ENDBRANCH   3  37
TORSDOF 4
