REMARK  5 active torsions:
REMARK  status: ('A' for Active; 'I' for Inactive)
REMARK    1  A    between atoms: C4_4  and  S7_7 
REMARK    2  A    between atoms: S7_7  and  C10_10 
REMARK    3  A    between atoms: C13_13  and  C16_16 
REMARK    4  A    between atoms: C16_16  and  N17_17 
REMARK       I    between atoms: N17_17  and  C18_18 
REMARK    5  A    between atoms: C18_18  and  C20_20 
ROOT
ATOM      1  C10 20R d   1      15.048   6.672  -0.533  0.00  0.00     0.064 A 
ATOM      2  C11 20R d   1      15.462   7.890  -1.004  0.00  0.00    -0.061 A 
ATOM      3  C12 20R d   1      16.141   8.769  -0.197  0.00  0.00    -0.074 A 
ATOM      4  C13 20R d   1      16.422   8.425   1.098  0.00  0.00    -0.040 A 
ATOM      5  C14 20R d   1      16.039   7.205   1.563  0.00  0.00    -0.074 A 
ATOM      6  C15 20R d   1      15.341   6.335   0.762  0.00  0.00    -0.061 A 
ATOM      7  H6  20R d   1      15.250   8.164  -2.031  0.00  0.00     0.085 H 
ATOM      8  H7  20R d   1      16.454   9.732  -0.584  0.00  0.00     0.084 H 
ATOM      9  H8  20R d   1      16.288   6.916   2.578  0.00  0.00     0.084 H 
ATOM     10  H9  20R d   1      15.021   5.377   1.156  0.00  0.00     0.085 H 
ENDROOT
BRANCH   4  11
ATOM     11  C16 20R d   1      17.232   9.351   1.969  0.00  0.00     0.019 C 
ATOM     12  H10 20R d   1      17.249  10.339   1.485  0.00  0.00     0.071 H 
ATOM     13  H11 20R d   1      18.256   8.952   2.024  0.00  0.00     0.071 H 
BRANCH  11  14
ATOM     14  N17 20R d   1      16.741   9.534   3.357  0.00  0.00    -0.353 N 
ATOM     15  C18 20R d   1      15.690  10.326   3.440  0.00  0.00     0.253 C 
ATOM     16  O19 20R d   1      15.165  10.791   2.416  0.00  0.00    -0.268 OA
ATOM     17  H12 20R d   1      17.165   9.100   4.151  0.00  0.00     0.163 HD
BRANCH  15  18
ATOM     18  C20 20R d   1      15.111  10.578   4.770  0.00  0.00     0.050 A 
ATOM     19  C21 20R d   1      15.661  10.022   5.926  0.00  0.00    -0.051 A 
ATOM     20  C22 20R d   1      15.036  10.326   7.138  0.00  0.00     0.031 A 
ATOM     21  H13 20R d   1      16.535   9.382   5.885  0.00  0.00     0.086 H 
ATOM     22  C23 20R d   1      15.244   9.951   8.518  0.00  0.00     0.035 A 
ATOM     23  C27 20R d   1      13.911  11.185   7.129  0.00  0.00     0.155 A 
ATOM     24  N24 20R d   1      14.296  10.513   9.210  0.00  0.00    -0.185 NA
ATOM     25  H14 20R d   1      16.042   9.319   8.905  0.00  0.00     0.118 H 
ATOM     26  N25 20R d   1      13.496  11.330   8.416  0.00  0.00    -0.261 N 
ATOM     27  H15 20R d   1      12.729  11.934   8.744  0.00  0.00     0.191 HD
ATOM     28  N28 20R d   1      13.460  11.697   6.008  0.00  0.00    -0.240 NA
ATOM     29  C29 20R d   1      14.011  11.405   4.848  0.00  0.00     0.020 A 
ATOM     30  H16 20R d   1      13.592  11.822   3.939  0.00  0.00     0.116 H 
ENDBRANCH  15  18
ENDBRANCH  11  14
ENDBRANCH   4  11
BRANCH   1  31
ATOM     31  S7  20R d   1      14.232   5.504  -1.565  0.00  0.00     0.206 S 
ATOM     32  O8  20R d   1      13.773   4.411  -0.740  0.00  0.00    -0.217 OA
ATOM     33  O9  20R d   1      13.285   6.096  -2.450  0.00  0.00    -0.217 OA
BRANCH  31  34
ATOM     34  C4  20R d   1      15.570   4.793  -2.498  0.00  0.00     0.064 A 
ATOM     35  C3  20R d   1      16.451   3.961  -1.810  0.00  0.00    -0.062 A 
ATOM     36  C2  20R d   1      17.501   3.358  -2.485  0.00  0.00    -0.082 A 
ATOM     37  H3  20R d   1      16.316   3.786  -0.749  0.00  0.00     0.085 H 
ATOM     38  C1  20R d   1      17.685   3.598  -3.845  0.00  0.00    -0.083 A 
ATOM     39  H2  20R d   1      18.179   2.700  -1.954  0.00  0.00     0.083 H 
ATOM     40  C6  20R d   1      16.809   4.404  -4.556  0.00  0.00    -0.082 A 
ATOM     41  H1  20R d   1      18.528   3.147  -4.356  0.00  0.00     0.083 H 
ATOM     42  C5  20R d   1      15.743   5.007  -3.867  0.00  0.00    -0.062 A 
ATOM     43  H5  20R d   1      16.943   4.565  -5.620  0.00  0.00     0.083 H 
ATOM     44  H4  20R d   1      15.049   5.644  -4.403  0.00  0.00     0.085 H 
ENDBRANCH  31  34
ENDBRANCH   1  31
TORSDOF 5
