REMARK  12 active torsions:
REMARK  status: ('A' for Active; 'I' for Inactive)
REMARK    1  A    between atoms: C3_3  and  C46_42 
REMARK    2  A    between atoms: C5_5  and  S7_7 
REMARK    3  A    between atoms: S7_7  and  C10_10 
REMARK    4  A    between atoms: C13_13  and  C16_16 
REMARK    5  A    between atoms: C16_16  and  N17_17 
REMARK       I    between atoms: N17_17  and  C18_18 
REMARK    6  A    between atoms: C18_18  and  C20_20 
REMARK    7  A    between atoms: N25_25  and  C29_29 
REMARK    8  A    between atoms: C31_30  and  O45_41 
REMARK    9  A    between atoms: C33_31  and  O44_40 
REMARK   10  A    between atoms: C35_32  and  C38_34 
REMARK   11  A    between atoms: C38_34  and  O39_35 
REMARK   12  A    between atoms: O39_35  and  P40_36 
ROOT
ATOM      1  N17 20T d   1      16.551   9.472   3.141  0.00  0.00    -0.353 N 
ATOM      2  C18 20T d   1      15.439  10.202   3.305  0.00  0.00     0.253 C 
ATOM      3  O19 20T d   1      14.869  10.668   2.337  0.00  0.00    -0.268 OA
ATOM      4  H11 20T d   1      17.025   9.075   3.927  0.00  0.00     0.163 HD
ENDROOT
BRANCH   2   5
ATOM      5  C20 20T d   1      14.912  10.446   4.656  0.00  0.00     0.050 A 
ATOM      6  C21 20T d   1      15.480   9.846   5.781  0.00  0.00    -0.051 A 
ATOM      7  C22 20T d   1      14.915  10.147   7.026  0.00  0.00     0.032 A 
ATOM      8  H12 20T d   1      16.326   9.173   5.694  0.00  0.00     0.086 H 
ATOM      9  C23 20T d   1      15.196   9.748   8.401  0.00  0.00     0.035 A 
ATOM     10  C26 20T d   1      13.814  11.031   7.091  0.00  0.00     0.160 A 
ATOM     11  N24 20T d   1      14.337  10.347   9.166  0.00  0.00    -0.180 NA
ATOM     12  H13 20T d   1      15.984   9.070   8.726  0.00  0.00     0.118 H 
ATOM     13  N25 20T d   1      13.469  11.138   8.408  0.00  0.00    -0.219 N 
ATOM     14  N27 20T d   1      13.323  11.567   5.980  0.00  0.00    -0.240 NA
ATOM     15  C28 20T d   1      13.824  11.305   4.807  0.00  0.00     0.020 A 
ATOM     16  H14 20T d   1      13.386  11.765   3.929  0.00  0.00     0.116 H 
BRANCH  13  17
ATOM     17  C29 20T d   1      12.390  11.980   8.950  0.00  0.00     0.155 C 
ATOM     18  C31 20T d   1      11.053  11.863   8.195  0.00  0.00     0.106 C 
ATOM     19  C33 20T d   1      10.406  10.674   8.908  0.00  0.00     0.091 C 
ATOM     20  H16 20T d   1      11.195  11.681   7.119  0.00  0.00     0.094 H 
ATOM     21  C35 20T d   1      10.829  10.928  10.368  0.00  0.00     0.089 C 
ATOM     22  H17 20T d   1      10.764   9.705   8.529  0.00  0.00     0.091 H 
ATOM     23  O37 20T d   1      12.104  11.610  10.318  0.00  0.00    -0.352 OA
ATOM     24  H18 20T d   1      10.080  11.554  10.875  0.00  0.00     0.090 H 
ATOM     25  H15 20T d   1      12.727  13.027   8.914  0.00  0.00     0.125 H 
BRANCH  18  26
ATOM     26  O45 20T d   1      10.263  13.035   8.410  0.00  0.00    -0.388 OA
ATOM     27  H22 20T d   1       9.389  12.895   8.064  0.00  0.00     0.210 HD
ENDBRANCH  18  26
BRANCH  19  28
ATOM     28  O44 20T d   1       8.990  10.779   8.786  0.00  0.00    -0.390 OA
ATOM     29  H21 20T d   1       8.715  11.651   9.045  0.00  0.00     0.210 HD
ENDBRANCH  19  28
BRANCH  21  30
ATOM     30  C38 20T d   1      10.989   9.609  11.123  0.00  0.00     0.059 C 
ATOM     31  H19 20T d   1      11.185   9.811  12.186  0.00  0.00     0.079 H 
ATOM     32  H20 20T d   1      11.827   9.037  10.698  0.00  0.00     0.079 H 
BRANCH  30  33
ATOM     33  O39 20T d   1       9.784   8.864  10.990  0.00  0.00    -0.280 OA
BRANCH  33  34
ATOM     34  P40 20T d   1       8.770   8.606  12.202  0.00  0.00     0.422 P 
ATOM     35  O41 20T d   1       7.754   7.633  11.750  0.00  0.00    -0.617 OA
ATOM     36  O42 20T d   1       9.588   8.033  13.461  0.00  0.00    -0.617 OA
ATOM     37  O43 20T d   1       8.029   9.981  12.593  0.00  0.00    -0.617 OA
ENDBRANCH  33  34
ENDBRANCH  30  33
ENDBRANCH  21  30
ENDBRANCH  13  17
ENDBRANCH   2   5
BRANCH   1  38
ATOM     38  C16 20T d   1      17.052   9.271   1.789  0.00  0.00     0.019 C 
ATOM     39  H9  20T d   1      17.042  10.242   1.273  0.00  0.00     0.071 H 
ATOM     40  H10 20T d   1      18.086   8.903   1.859  0.00  0.00     0.071 H 
BRANCH  38  41
ATOM     41  C13 20T d   1      16.262   8.294   0.963  0.00  0.00    -0.040 A 
ATOM     42  C12 20T d   1      15.961   8.626  -0.341  0.00  0.00    -0.074 A 
ATOM     43  C11 20T d   1      15.261   7.742  -1.137  0.00  0.00    -0.061 A 
ATOM     44  H6  20T d   1      16.275   9.583  -0.742  0.00  0.00     0.084 H 
ATOM     45  C10 20T d   1      14.861   6.526  -0.624  0.00  0.00     0.064 A 
ATOM     46  H5  20T d   1      15.026   8.003  -2.163  0.00  0.00     0.085 H 
ATOM     47  C15 20T d   1      15.181   6.189   0.673  0.00  0.00    -0.061 A 
ATOM     48  C14 20T d   1      15.882   7.073   1.470  0.00  0.00    -0.074 A 
ATOM     49  H8  20T d   1      14.881   5.226   1.070  0.00  0.00     0.085 H 
ATOM     50  H7  20T d   1      16.132   6.806   2.490  0.00  0.00     0.084 H 
BRANCH  45  51
ATOM     51  S7  20T d   1      13.997   5.394  -1.660  0.00  0.00     0.206 S 
ATOM     52  O8  20T d   1      13.154   6.150  -2.522  0.00  0.00    -0.217 OA
ATOM     53  O9  20T d   1      13.541   4.308  -0.869  0.00  0.00    -0.217 OA
BRANCH  51  54
ATOM     54  C5  20T d   1      15.336   4.755  -2.622  0.00  0.00     0.065 A 
ATOM     55  C4  20T d   1      16.327   4.024  -1.983  0.00  0.00    -0.047 A 
ATOM     56  C3  20T d   1      17.397   3.521  -2.706  0.00  0.00     0.049 A 
ATOM     57  H3  20T d   1      16.264   3.846  -0.916  0.00  0.00     0.087 H 
ATOM     58  C2  20T d   1      17.472   3.763  -4.068  0.00  0.00    -0.068 A 
ATOM     59  C1  20T d   1      16.490   4.497  -4.708  0.00  0.00    -0.081 A 
ATOM     60  H2  20T d   1      18.308   3.373  -4.637  0.00  0.00     0.084 H 
ATOM     61  C6  20T d   1      15.421   4.998  -3.987  0.00  0.00    -0.062 A 
ATOM     62  H1  20T d   1      16.558   4.680  -5.774  0.00  0.00     0.083 H 
ATOM     63  H4  20T d   1      14.653   5.578  -4.485  0.00  0.00     0.085 H 
BRANCH  56  64
ATOM     64  C46 20T d   1      18.472   2.719  -2.005  0.00  0.00     0.417 C 
ATOM     65  F47 20T d   1      18.819   1.593  -2.757  0.00  0.00    -0.166 F 
ATOM     66  F48 20T d   1      19.625   3.495  -1.842  0.00  0.00    -0.166 F 
ATOM     67  F49 20T d   1      18.012   2.304  -0.751  0.00  0.00    -0.166 F 
ENDBRANCH  56  64
ENDBRANCH  51  54
ENDBRANCH  45  51
ENDBRANCH  38  41
ENDBRANCH   1  38
TORSDOF 12
