REMARK  6 active torsions:
REMARK  status: ('A' for Active; 'I' for Inactive)
REMARK    1  A    between atoms: CAA_1  and  CAP_2 
REMARK    2  A    between atoms: CAR_10  and  NAN_11 
REMARK    3  A    between atoms: NAN_11  and  CAI_12 
REMARK    4  A    between atoms: CAI_12  and  CAJ_13 
REMARK    5  A    between atoms: CAJ_13  and  CAQ_14 
REMARK    6  A    between atoms: CAO_17  and  OAB_18 
ROOT
ATOM      1  NAN 28C d   1       6.986  11.012 -11.853  0.00  0.00    -0.386 N 
ATOM      2  H   28C d   1       7.660  10.286 -12.135  0.00  0.00     0.159 HD
ENDROOT
BRANCH   1   3
ATOM      3  CAR 28C d   1       6.481  11.795 -12.814  0.00  0.00     0.078 A 
ATOM      4  CAH 28C d   1       5.557  12.787 -12.480  0.00  0.00    -0.029 A 
ATOM      5  CAP 28C d   1       5.030  13.578 -13.516  0.00  0.00     0.053 A 
ATOM      6  H   28C d   1       5.254  12.943 -11.451  0.00  0.00     0.090 H 
ATOM      7  NAM 28C d   1       5.398  13.318 -14.780  0.00  0.00    -0.170 NA
ATOM      8  NAT 28C d   1       6.239  12.405 -15.048  0.00  0.00    -0.205 N 
ATOM      9  CAG 28C d   1       6.745  12.083 -16.243  0.00  0.00     0.109 A 
ATOM     10  CAS 28C d   1       6.790  11.595 -14.114  0.00  0.00     0.173 A 
ATOM     11  NAK 28C d   1       7.602  11.062 -16.026  0.00  0.00    -0.166 NA
ATOM     12  H   28C d   1       6.513  12.550 -17.199  0.00  0.00     0.149 H 
ATOM     13  NAL 28C d   1       7.615  10.793 -14.785  0.00  0.00    -0.258 N 
ATOM     14  H1  28C d   1       8.188  10.053 -14.354  0.00  0.00     0.191 HD
BRANCH   5  15
ATOM     15  CAA 28C d   1       4.046  14.618 -13.223  0.00  0.00    -0.034 C 
ATOM     16  H   28C d   1       3.884  14.674 -12.136  0.00  0.00     0.035 H 
ATOM     17  H   28C d   1       3.097  14.376 -13.724  0.00  0.00     0.035 H 
ATOM     18  H   28C d   1       4.417  15.587 -13.588  0.00  0.00     0.035 H 
ENDBRANCH   5  15
ENDBRANCH   1   3
BRANCH   1  19
ATOM     19  CAI 28C d   1       6.647  11.112 -10.410  0.00  0.00    -0.004 C 
ATOM     20  H   28C d   1       5.583  10.861 -10.288  0.00  0.00     0.064 H 
ATOM     21  H   28C d   1       6.819  12.149 -10.087  0.00  0.00     0.064 H 
BRANCH  19  22
ATOM     22  CAJ 28C d   1       7.484  10.165  -9.485  0.00  0.00    -0.026 C 
ATOM     23  H   28C d   1       8.555  10.366  -9.635  0.00  0.00     0.042 H 
ATOM     24  H   28C d   1       7.267   9.119  -9.747  0.00  0.00     0.042 H 
BRANCH  22  25
ATOM     25  CAQ 28C d   1       7.151  10.386  -8.107  0.00  0.00    -0.057 A 
ATOM     26  CAE 28C d   1       7.991  11.173  -7.317  0.00  0.00    -0.074 A 
ATOM     27  CAC 28C d   1       7.721  11.451  -5.980  0.00  0.00    -0.051 A 
ATOM     28  H   28C d   1       8.890  11.584  -7.763  0.00  0.00     0.084 H 
ATOM     29  CAO 28C d   1       6.556  10.990  -5.423  0.00  0.00     0.065 A 
ATOM     30  H   28C d   1       8.423  12.025  -5.386  0.00  0.00     0.087 H 
ATOM     31  CAD 28C d   1       5.676  10.212  -6.171  0.00  0.00    -0.051 A 
ATOM     32  CAF 28C d   1       5.963   9.908  -7.526  0.00  0.00    -0.074 A 
ATOM     33  H   28C d   1       4.767   9.837  -5.715  0.00  0.00     0.087 H 
ATOM     34  H   28C d   1       5.271   9.311  -8.110  0.00  0.00     0.084 H 
BRANCH  29  35
ATOM     35  OAB 28C d   1       6.349  11.287  -4.123  0.00  0.00    -0.361 OA
ATOM     36  H   28C d   1       5.518  10.921  -3.844  0.00  0.00     0.217 HD
ENDBRANCH  29  35
ENDBRANCH  22  25
ENDBRANCH  19  22
ENDBRANCH   1  19
TORSDOF 6
