REMARK WARNING: 32 MAX_TORS EXCEEDED!!!
REMARK  56 active torsions:
REMARK  status: ('A' for Active; 'I' for Inactive)
REMARK    1  A    between atoms: N_1  and  CA_2 
REMARK    2  A    between atoms: CA_2  and  C_3 
REMARK    3  A    between atoms: CA_2  and  CB_5 
REMARK       I    between atoms: C_3  and  N_7 
REMARK    4  A    between atoms: CB_5  and  OG_6 
REMARK    5  A    between atoms: N_7  and  CA_8 
REMARK    6  A    between atoms: CA_8  and  C_9 
REMARK    7  A    between atoms: CA_8  and  CB_11 
REMARK       I    between atoms: C_9  and  N_18 
REMARK    8  A    between atoms: CB_11  and  CG_12 
REMARK    9  A    between atoms: CG_12  and  CD_13 
REMARK   10  A    between atoms: CD_13  and  NE_14 
REMARK       I    between atoms: NE_14  and  CZ_15 
REMARK       I    between atoms: CZ_15  and  NH1_16 
REMARK       I    between atoms: CZ_15  and  NH2_17 
REMARK   11  A    between atoms: N_18  and  CA_19 
REMARK   12  A    between atoms: CA_19  and  C_20 
REMARK       I    between atoms: C_20  and  N_22 
REMARK   13  A    between atoms: N_22  and  CA_23 
REMARK   14  A    between atoms: CA_23  and  C_24 
REMARK   15  A    between atoms: CA_23  and  CB_26 
REMARK       I    between atoms: C_24  and  N_30 
REMARK   16  A    between atoms: CB_26  and  CG_27 
REMARK   17  A    between atoms: CG_27  and  CD1_28 
REMARK   18  A    between atoms: CG_27  and  CD2_29 
REMARK   19  A    between atoms: N_30  and  CA_31 
REMARK   20  A    between atoms: CA_31  and  C_32 
REMARK   21  A    between atoms: CA_31  and  CB_34 
REMARK       I    between atoms: C_32  and  N_39 
REMARK   22  A    between atoms: CB_34  and  CG_35 
REMARK   23  A    between atoms: CG_35  and  CD_36 
REMARK   24  A    between atoms: N_39  and  CA_40 
REMARK   25  A    between atoms: CA_40  and  C_41 
REMARK   26  A    between atoms: CA_40  and  CB_43 
REMARK       I    between atoms: C_41  and  N_46 
REMARK   27  A    between atoms: CB_43  and  CG1_44 
REMARK   28  A    between atoms: CB_43  and  CG2_45 
REMARK   29  A    between atoms: N_46  and  CA_47 
REMARK   30  A    between atoms: CA_47  and  C_48 
REMARK   31  A    between atoms: CA_47  and  CB_50 
REMARK       I    between atoms: C_48  and  N_52 
REMARK   32  A    between atoms: CB_50  and  OG_51 
REMARK   33  A    between atoms: N_52  and  CA_53 
REMARK   34  A    between atoms: CA_53  and  C_54 
REMARK   35  A    between atoms: CA_53  and  CB_56 
REMARK       I    between atoms: C_54  and  N_62 
REMARK   36  A    between atoms: CB_56  and  CG_57 
REMARK   37  A    between atoms: N_62  and  CA_63 
REMARK   38  A    between atoms: CA_63  and  C_64 
REMARK   39  A    between atoms: CA_63  and  CB_66 
REMARK       I    between atoms: C_64  and  N_73 
REMARK   40  A    between atoms: CB_66  and  CG_67 
REMARK   41  A    between atoms: CG_67  and  CD_68 
REMARK   42  A    between atoms: CD_68  and  NE_69 
REMARK       I    between atoms: NE_69  and  CZ_70 
REMARK       I    between atoms: CZ_70  and  NH1_71 
REMARK   43  A    between atoms: N_73  and  CA_74 
REMARK   44  A    between atoms: CA_74  and  C_75 
REMARK   45  A    between atoms: CA_74  and  CB_77 
REMARK       I    between atoms: C_75  and  N_81 
REMARK   46  A    between atoms: CB_77  and  CG_78 
REMARK   47  A    between atoms: CG_78  and  CD1_79 
REMARK   48  A    between atoms: CG_78  and  CD2_80 
REMARK   49  A    between atoms: N_81  and  CA_82 
REMARK   50  A    between atoms: CA_82  and  C_83 
REMARK   51  A    between atoms: CA_82  and  CB_85 
REMARK       I    between atoms: C_83  and  N_86 
REMARK   52  A    between atoms: CA_87  and  C_88 
REMARK       I    between atoms: C_88  and  N_93 
REMARK   53  A    between atoms: N_93  and  CA_94 
REMARK   54  A    between atoms: CA_94  and  C_95 
REMARK   55  A    between atoms: CA_94  and  CB_97 
REMARK   56  A    between atoms: CB_97  and  CG_98 
ROOT
ATOM      1  C   SER d   1     -21.032 -15.538 -43.739  0.00  0.00     0.243 C 
ATOM      2  O   SER d   1     -20.560 -15.593 -44.875  0.00  0.00    -0.271 OA
ATOM      3  N   HIS d   1     -20.504 -14.796 -42.769  0.00  0.00    -0.346 N 
ATOM      4  H55 HIS d   1     -20.962 -14.759 -41.881  0.00  0.00     0.163 HD
ENDROOT
BRANCH   3   5
ATOM      5  CA  HIS d   1     -19.274 -14.035 -42.966  0.00  0.00     0.094 C 
ATOM      6  H56 HIS d   1     -18.924 -14.198 -43.996  0.00  0.00     0.088 H 
BRANCH   5   7
ATOM      7  C   HIS d   1     -18.205 -14.544 -42.012  0.00  0.00     0.241 C 
ATOM      8  O   HIS d   1     -17.347 -13.785 -41.551  0.00  0.00    -0.271 OA
ATOM      9  N   ARG d   1     -18.270 -15.844 -41.734  0.00  0.00    -0.346 N 
ATOM     10  H62 ARG d   1     -18.958 -16.399 -42.202  0.00  0.00     0.163 HD
BRANCH   9  11
ATOM     11  CA  ARG d   1     -17.383 -16.494 -40.778  0.00  0.00     0.089 C 
ATOM     12  H63 ARG d   1     -17.587 -16.073 -39.783  0.00  0.00     0.087 H 
BRANCH  11  13
ATOM     13  C   ARG d   1     -15.926 -16.230 -41.111  0.00  0.00     0.241 C 
ATOM     14  O   ARG d   1     -15.490 -16.446 -42.243  0.00  0.00    -0.271 OA
ATOM     15  N   LEU d   1     -15.185 -15.760 -40.111  0.00  0.00    -0.346 N 
ATOM     16  H75 LEU d   1     -15.602 -15.663 -39.207  0.00  0.00     0.163 HD
BRANCH  15  17
ATOM     17  CA  LEU d   1     -13.786 -15.381 -40.284  0.00  0.00     0.089 C 
ATOM     18  H76 LEU d   1     -13.618 -15.189 -41.354  0.00  0.00     0.087 H 
BRANCH  17  19
ATOM     19  C   LEU d   1     -12.828 -16.484 -39.848  0.00  0.00     0.241 C 
ATOM     20  O   LEU d   1     -11.849 -16.766 -40.540  0.00  0.00    -0.271 OA
ATOM     21  N   ALA d   1     -13.116 -17.099 -38.703  0.00  0.00    -0.346 N 
ATOM     22  H86 ALA d   1     -13.940 -16.826 -38.206  0.00  0.00     0.163 HD
BRANCH  21  23
ATOM     23  CA  ALA d   1     -12.277 -18.157 -38.143  0.00  0.00     0.086 C 
ATOM     24  H87 ALA d   1     -11.230 -17.953 -38.411  0.00  0.00     0.086 H 
BRANCH  23  25
ATOM     25  C   ALA d   1     -12.668 -19.516 -38.710  0.00  0.00     0.243 C 
ATOM     26  O   ALA d   1     -13.821 -19.714 -39.082  0.00  0.00    -0.271 OA
ATOM     27  N   PRO d   1     -11.711 -20.463 -38.782  0.00  0.00    -0.337 N 
ATOM     28  CA  PRO d   1     -12.091 -21.804 -39.242  0.00  0.00     0.091 C 
ATOM     29  CD  PRO d   1     -10.265 -20.359 -38.507  0.00  0.00    -0.001 C 
ATOM     30  CB  PRO d   1     -10.751 -22.547 -39.318  0.00  0.00    -0.036 C 
ATOM     31  H91 PRO d   1     -12.568 -21.753 -40.232  0.00  0.00     0.087 H 
ATOM     32  CG  PRO d   1      -9.832 -21.790 -38.419  0.00  0.00    -0.048 C 
ATOM     33  H92 PRO d   1     -10.368 -22.547 -40.349  0.00  0.00     0.036 H 
ATOM     34  H93 PRO d   1     -10.865 -23.584 -38.969  0.00  0.00     0.036 H 
ATOM     35  H94 PRO d   1      -8.791 -21.897 -38.757  0.00  0.00     0.035 H 
ATOM     36  H95 PRO d   1      -9.921 -22.154 -37.385  0.00  0.00     0.035 H 
ATOM     37  H96 PRO d   1     -10.080 -19.832 -37.559  0.00  0.00     0.064 H 
ATOM     38  H97 PRO d   1      -9.744 -19.838 -39.324  0.00  0.00     0.064 H 
BRANCH  28  39
ATOM     39  C   PRO d   1     -13.040 -22.498 -38.260  0.00  0.00     0.241 C 
ATOM     40  O   PRO d   1     -13.027 -22.181 -37.068  0.00  0.00    -0.271 OA
ATOM     41  N   TRP d   1     -13.862 -23.420 -38.761  0.00  0.00    -0.344 N 
ATOM     42  H98 TRP d   1     -13.845 -23.607 -39.743  0.00  0.00     0.163 HD
BRANCH  41  43
ATOM     43  CA  TRP d   1     -14.789 -24.165 -37.908  0.00  0.00     0.100 C 
ATOM     44  H99 TRP d   1     -15.371 -23.439 -37.321  0.00  0.00     0.090 H 
BRANCH  43  45
ATOM     45  C   TRP d   1     -14.034 -25.070 -36.946  0.00  0.00     0.197 C 
ATOM     46  O   TRP d   1     -13.013 -25.657 -37.301  0.00  0.00    -0.646 OA
ATOM     47  OXT TRP d   1     -14.427 -25.238 -35.792  0.00  0.00    -0.646 OA
ENDBRANCH  43  45
BRANCH  43  48
ATOM     48  CB  TRP d   1     -15.763 -25.005 -38.739  0.00  0.00    -0.011 C 
ATOM     49 0H10 TRP d   1     -16.292 -25.688 -38.058  0.00  0.00     0.044 H 
ATOM     50 1H10 TRP d   1     -15.178 -25.590 -39.464  0.00  0.00     0.044 H 
BRANCH  48  51
ATOM     51  CG  TRP d   1     -16.791 -24.214 -39.499  0.00  0.00    -0.028 A 
ATOM     52  CD1 TRP d   1     -16.878 -24.079 -40.851  0.00  0.00    -0.015 A 
ATOM     53  NE1 TRP d   1     -17.950 -23.286 -41.184  0.00  0.00    -0.365 N 
ATOM     54 2H10 TRP d   1     -16.195 -24.535 -41.567  0.00  0.00     0.112 H 
ATOM     55  CE2 TRP d   1     -18.587 -22.895 -40.036  0.00  0.00     0.042 A 
ATOM     56 3H10 TRP d   1     -18.229 -23.028 -42.141  0.00  0.00     0.165 HD
ATOM     57  CD2 TRP d   1     -17.885 -23.462 -38.949  0.00  0.00    -0.002 A 
ATOM     58  CZ2 TRP d   1     -19.718 -22.091 -39.861  0.00  0.00    -0.056 A 
ATOM     59  CE3 TRP d   1     -18.338 -23.211 -37.648  0.00  0.00    -0.070 A 
ATOM     60  CZ3 TRP d   1     -19.465 -22.410 -37.476  0.00  0.00    -0.082 A 
ATOM     61 4H10 TRP d   1     -17.822 -23.631 -36.792  0.00  0.00     0.084 H 
ATOM     62  CH2 TRP d   1     -20.140 -21.860 -38.578  0.00  0.00    -0.081 A 
ATOM     63 6H10 TRP d   1     -19.827 -22.208 -36.474  0.00  0.00     0.083 H 
ATOM     64 7H10 TRP d   1     -21.013 -21.240 -38.410  0.00  0.00     0.083 H 
ATOM     65 5H10 TRP d   1     -20.242 -21.666 -40.710  0.00  0.00     0.086 H 
ENDBRANCH  48  51
ENDBRANCH  43  48
ENDBRANCH  41  43
ENDBRANCH  28  39
ENDBRANCH  23  25
BRANCH  23  66
ATOM     66  CB  ALA d   1     -12.399 -18.171 -36.629  0.00  0.00    -0.049 C 
ATOM     67  H88 ALA d   1     -11.765 -18.970 -36.217  0.00  0.00     0.030 H 
ATOM     68  H89 ALA d   1     -13.447 -18.353 -36.347  0.00  0.00     0.030 H 
ATOM     69  H90 ALA d   1     -12.074 -17.200 -36.226  0.00  0.00     0.030 H 
ENDBRANCH  23  66
ENDBRANCH  21  23
ENDBRANCH  17  19
BRANCH  17  70
ATOM     70  CB  LEU d   1     -13.482 -14.098 -39.510  0.00  0.00    -0.035 C 
ATOM     71  H77 LEU d   1     -12.448 -13.808 -39.749  0.00  0.00     0.037 H 
ATOM     72  H78 LEU d   1     -13.558 -14.336 -38.439  0.00  0.00     0.037 H 
BRANCH  70  73
ATOM     73  CG  LEU d   1     -14.369 -12.879 -39.770  0.00  0.00    -0.059 C 
ATOM     74  H79 LEU d   1     -15.414 -13.152 -39.562  0.00  0.00     0.038 H 
BRANCH  73  75
ATOM     75  CD1 LEU d   1     -13.956 -11.762 -38.827  0.00  0.00    -0.073 C 
ATOM     76  H80 LEU d   1     -14.588 -10.879 -39.005  0.00  0.00     0.028 H 
ATOM     77  H81 LEU d   1     -12.903 -11.501 -39.007  0.00  0.00     0.028 H 
ATOM     78  H82 LEU d   1     -14.079 -12.097 -37.786  0.00  0.00     0.028 H 
ENDBRANCH  73  75
BRANCH  73  79
ATOM     79  CD2 LEU d   1     -14.273 -12.421 -41.220  0.00  0.00    -0.073 C 
ATOM     80  H83 LEU d   1     -14.576 -13.243 -41.885  0.00  0.00     0.028 H 
ATOM     81  H84 LEU d   1     -13.236 -12.130 -41.445  0.00  0.00     0.028 H 
ATOM     82  H85 LEU d   1     -14.938 -11.559 -41.377  0.00  0.00     0.028 H 
ENDBRANCH  73  79
ENDBRANCH  70  73
ENDBRANCH  17  70
ENDBRANCH  15  17
ENDBRANCH  11  13
BRANCH  11  83
ATOM     83  CB  ARG d   1     -17.657 -17.998 -40.725  0.00  0.00    -0.036 C 
ATOM     84  H64 ARG d   1     -17.692 -18.381 -41.756  0.00  0.00     0.036 H 
ATOM     85  H65 ARG d   1     -18.633 -18.156 -40.242  0.00  0.00     0.036 H 
BRANCH  83  86
ATOM     86  CG  ARG d   1     -16.612 -18.783 -39.959  0.00  0.00    -0.048 C 
ATOM     87  H66 ARG d   1     -15.922 -18.078 -39.474  0.00  0.00     0.035 H 
ATOM     88  H67 ARG d   1     -16.054 -19.416 -40.665  0.00  0.00     0.035 H 
BRANCH  86  89
ATOM     89  CD  ARG d   1     -17.237 -19.665 -38.899  0.00  0.00     0.009 C 
ATOM     90  H68 ARG d   1     -17.774 -20.489 -39.392  0.00  0.00     0.064 H 
ATOM     91  H69 ARG d   1     -17.946 -19.066 -38.309  0.00  0.00     0.064 H 
BRANCH  89  92
ATOM     92  NE  ARG d   1     -16.230 -20.226 -38.002  0.00  0.00    -0.227 N 
ATOM     93  CZ  ARG d   1     -16.404 -20.412 -36.696  0.00  0.00     0.665 C 
ATOM     94  NH1 ARG d   1     -17.549 -20.073 -36.116  0.00  0.00    -0.235 N 
ATOM     95  NH2 ARG d   1     -15.424 -20.931 -35.964  0.00  0.00    -0.235 N 
ATOM     96  H71 ARG d   1     -17.677 -20.220 -35.105  0.00  0.00     0.174 HD
ATOM     97  H72 ARG d   1     -18.309 -19.663 -36.677  0.00  0.00     0.174 HD
ATOM     98  H73 ARG d   1     -14.534 -21.196 -36.409  0.00  0.00     0.174 HD
ATOM     99  H74 ARG d   1     -15.555 -21.069 -34.952  0.00  0.00     0.174 HD
ATOM    100  H70 ARG d   1     -15.323 -20.496 -38.408  0.00  0.00     0.177 HD
ENDBRANCH  89  92
ENDBRANCH  86  89
ENDBRANCH  83  86
ENDBRANCH  11  83
ENDBRANCH   9  11
ENDBRANCH   5   7
BRANCH   5 101
ATOM    101  CB  HIS d   1     -19.528 -12.531 -42.783  0.00  0.00     0.004 C 
ATOM    102  H57 HIS d   1     -18.559 -12.011 -42.802  0.00  0.00     0.046 H 
ATOM    103  H58 HIS d   1     -20.008 -12.377 -41.805  0.00  0.00     0.046 H 
BRANCH 101 104
ATOM    104  CG  HIS d   1     -20.406 -11.932 -43.840  0.00  0.00     0.053 A 
ATOM    105  ND1 HIS d   1     -21.671 -12.407 -44.115  0.00  0.00    -0.247 NA
ATOM    106  CE1 HIS d   1     -22.210 -11.690 -45.085  0.00  0.00     0.064 A 
ATOM    107  NE2 HIS d   1     -21.339 -10.765 -45.451  0.00  0.00    -0.359 N 
ATOM    108  H60 HIS d   1     -23.202 -11.836 -45.510  0.00  0.00     0.143 H 
ATOM    109  CD2 HIS d   1     -20.203 -10.893 -44.687  0.00  0.00     0.002 A 
ATOM    110  H61 HIS d   1     -21.488 -10.062 -46.189  0.00  0.00     0.166 HD
ATOM    111  H59 HIS d   1     -19.308 -10.276 -44.750  0.00  0.00     0.114 H 
ENDBRANCH 101 104
ENDBRANCH   5 101
ENDBRANCH   3   5
BRANCH   1 112
ATOM    112  CA  SER d   1     -22.291 -16.328 -43.382  0.00  0.00     0.109 C 
ATOM    113  H51 SER d   1     -22.245 -17.275 -43.940  0.00  0.00     0.090 H 
BRANCH 112 114
ATOM    114  N   SER d   1     -22.383 -16.677 -41.961  0.00  0.00    -0.344 N 
ATOM    115  C   VAL d   1     -21.585 -17.597 -41.426  0.00  0.00     0.241 C 
ATOM    116  O   VAL d   1     -20.653 -18.111 -42.042  0.00  0.00    -0.271 OA
ATOM    117  H50 SER d   1     -23.057 -16.216 -41.384  0.00  0.00     0.163 HD
BRANCH 115 118
ATOM    118  CA  VAL d   1     -21.852 -17.988 -39.977  0.00  0.00     0.092 C 
ATOM    119  H42 VAL d   1     -21.009 -18.603 -39.629  0.00  0.00     0.088 H 
BRANCH 118 120
ATOM    120  N   VAL d   1     -21.913 -16.801 -39.144  0.00  0.00    -0.346 N 
ATOM    121  C   GLU d   1     -20.881 -16.425 -38.397  0.00  0.00     0.241 C 
ATOM    122  O   GLU d   1     -19.835 -17.066 -38.328  0.00  0.00    -0.271 OA
ATOM    123  H41 VAL d   1     -22.750 -16.254 -39.132  0.00  0.00     0.163 HD
BRANCH 121 124
ATOM    124  CA  GLU d   1     -21.052 -15.132 -37.610  0.00  0.00     0.090 C 
ATOM    125  H36 GLU d   1     -20.117 -14.558 -37.693  0.00  0.00     0.087 H 
BRANCH 124 126
ATOM    126  N   GLU d   1     -22.128 -14.317 -38.156  0.00  0.00    -0.346 N 
ATOM    127  C   LEU d   1     -22.083 -13.841 -39.397  0.00  0.00     0.241 C 
ATOM    128  O   LEU d   1     -21.161 -14.074 -40.178  0.00  0.00    -0.271 OA
ATOM    129  H35 GLU d   1     -22.921 -14.110 -37.583  0.00  0.00     0.163 HD
BRANCH 127 130
ATOM    130  CA  LEU d   1     -23.238 -12.957 -39.819  0.00  0.00     0.089 C 
ATOM    131  H25 LEU d   1     -23.282 -12.960 -40.918  0.00  0.00     0.087 H 
BRANCH 130 132
ATOM    132  N   LEU d   1     -24.538 -13.410 -39.326  0.00  0.00    -0.346 N 
ATOM    133  C   GLY d   1     -25.040 -14.618 -39.575  0.00  0.00     0.236 C 
ATOM    134  O   GLY d   1     -24.414 -15.516 -40.146  0.00  0.00    -0.272 OA
ATOM    135  H24 LEU d   1     -25.080 -12.778 -38.772  0.00  0.00     0.163 HD
BRANCH 133 136
ATOM    136  CA  GLY d   1     -26.459 -14.832 -39.086  0.00  0.00     0.069 C 
ATOM    137  H22 GLY d   1     -26.524 -14.444 -38.059  0.00  0.00     0.078 H 
ATOM    138  H23 GLY d   1     -27.131 -14.256 -39.739  0.00  0.00     0.078 H 
BRANCH 136 139
ATOM    139  N   GLY d   1     -26.923 -16.212 -39.073  0.00  0.00    -0.351 N 
ATOM    140  C   ARG d   1     -27.309 -16.842 -40.177  0.00  0.00     0.240 C 
ATOM    141  O   ARG d   1     -27.204 -16.359 -41.306  0.00  0.00    -0.271 OA
ATOM    142  H21 GLY d   1     -26.952 -16.703 -38.202  0.00  0.00     0.163 HD
BRANCH 140 143
ATOM    143  CA  ARG d   1     -27.896 -18.228 -39.972  0.00  0.00     0.089 C 
ATOM    144  H9  ARG d   1     -28.280 -18.293 -38.943  0.00  0.00     0.087 H 
BRANCH 143 145
ATOM    145  N   ARG d   1     -29.001 -18.456 -40.891  0.00  0.00    -0.346 N 
ATOM    146  C   SER d   1     -30.267 -18.293 -40.524  0.00  0.00     0.251 C 
ATOM    147  O   SER d   1     -30.605 -17.938 -39.395  0.00  0.00    -0.271 OA
ATOM    148  H8  ARG d   1     -28.801 -18.744 -41.828  0.00  0.00     0.163 HD
BRANCH 146 149
ATOM    149  CA  SER d   1     -31.305 -18.566 -41.600  0.00  0.00     0.195 C 
ATOM    150  H4  SER d   1     -30.891 -19.303 -42.304  0.00  0.00     0.102 H 
BRANCH 149 151
ATOM    151  N   SER d   1     -32.550 -19.127 -41.015  0.00  0.00    -0.064 N 
ATOM    152  H1  SER d   1     -33.219 -19.298 -41.749  0.00  0.00     0.275 HD
ATOM    153  H2  SER d   1     -32.936 -18.471 -40.355  0.00  0.00     0.275 HD
ATOM    154  H3  SER d   1     -32.340 -19.993 -40.544  0.00  0.00     0.275 HD
ENDBRANCH 149 151
BRANCH 149 155
ATOM    155  CB  SER d   1     -31.607 -17.284 -42.362  0.00  0.00     0.051 C 
ATOM    156  H5  SER d   1     -30.660 -16.806 -42.654  0.00  0.00     0.077 H 
ATOM    157  H6  SER d   1     -32.177 -16.604 -41.712  0.00  0.00     0.077 H 
BRANCH 155 158
ATOM    158  OG  SER d   1     -32.365 -17.559 -43.524  0.00  0.00    -0.398 OA
ATOM    159  H7  SER d   1     -32.542 -16.747 -43.984  0.00  0.00     0.209 HD
ENDBRANCH 155 158
ENDBRANCH 149 155
ENDBRANCH 146 149
ENDBRANCH 143 145
BRANCH 143 160
ATOM    160  CB  ARG d   1     -26.823 -19.300 -40.155  0.00  0.00    -0.036 C 
ATOM    161  H10 ARG d   1     -25.950 -19.023 -39.546  0.00  0.00     0.036 H 
ATOM    162  H11 ARG d   1     -26.537 -19.326 -41.217  0.00  0.00     0.036 H 
BRANCH 160 163
ATOM    163  CG  ARG d   1     -27.269 -20.698 -39.745  0.00  0.00    -0.048 C 
ATOM    164  H12 ARG d   1     -26.473 -21.415 -39.993  0.00  0.00     0.035 H 
ATOM    165  H13 ARG d   1     -28.183 -20.959 -40.298  0.00  0.00     0.035 H 
BRANCH 163 166
ATOM    166  CD  ARG d   1     -27.555 -20.773 -38.254  0.00  0.00     0.009 C 
ATOM    167  H14 ARG d   1     -27.829 -21.806 -37.992  0.00  0.00     0.064 H 
ATOM    168  H15 ARG d   1     -28.391 -20.100 -38.014  0.00  0.00     0.064 H 
BRANCH 166 169
ATOM    169  NE  ARG d   1     -26.385 -20.377 -37.472  0.00  0.00    -0.227 N 
ATOM    170  CZ  ARG d   1     -26.371 -20.225 -36.153  0.00  0.00     0.665 C 
ATOM    171  NH1 ARG d   1     -27.474 -20.415 -35.441  0.00  0.00    -0.235 N 
ATOM    172  NH2 ARG d   1     -25.252 -19.863 -35.545  0.00  0.00    -0.235 N 
ATOM    173  H17 ARG d   1     -27.454 -20.295 -34.418  0.00  0.00     0.174 HD
ATOM    174  H18 ARG d   1     -28.351 -20.683 -35.911  0.00  0.00     0.174 HD
ATOM    175  H19 ARG d   1     -24.393 -19.714 -36.093  0.00  0.00     0.174 HD
ATOM    176  H20 ARG d   1     -25.241 -19.730 -34.524  0.00  0.00     0.174 HD
ATOM    177  H16 ARG d   1     -25.507 -20.203 -37.982  0.00  0.00     0.177 HD
ENDBRANCH 166 169
ENDBRANCH 163 166
ENDBRANCH 160 163
ENDBRANCH 143 160
ENDBRANCH 140 143
ENDBRANCH 136 139
ENDBRANCH 133 136
ENDBRANCH 130 132
BRANCH 130 178
ATOM    178  CB  LEU d   1     -22.948 -11.530 -39.347  0.00  0.00    -0.035 C 
ATOM    179  H26 LEU d   1     -21.855 -11.439 -39.256  0.00  0.00     0.037 H 
ATOM    180  H27 LEU d   1     -23.409 -11.422 -38.354  0.00  0.00     0.037 H 
BRANCH 178 181
ATOM    181  CG  LEU d   1     -23.422 -10.348 -40.185  0.00  0.00    -0.059 C 
ATOM    182  H28 LEU d   1     -24.521 -10.317 -40.158  0.00  0.00     0.038 H 
BRANCH 181 183
ATOM    183  CD1 LEU d   1     -22.885  -9.058 -39.591  0.00  0.00    -0.073 C 
ATOM    184  H29 LEU d   1     -23.227  -8.205 -40.196  0.00  0.00     0.028 H 
ATOM    185  H30 LEU d   1     -21.785  -9.086 -39.586  0.00  0.00     0.028 H 
ATOM    186  H31 LEU d   1     -23.253  -8.948 -38.560  0.00  0.00     0.028 H 
ENDBRANCH 181 183
BRANCH 181 187
ATOM    187  CD2 LEU d   1     -22.980 -10.499 -41.637  0.00  0.00    -0.073 C 
ATOM    188  H32 LEU d   1     -23.380 -11.439 -42.046  0.00  0.00     0.028 H 
ATOM    189  H33 LEU d   1     -21.881 -10.516 -41.686  0.00  0.00     0.028 H 
ATOM    190  H34 LEU d   1     -23.360  -9.652 -42.226  0.00  0.00     0.028 H 
ENDBRANCH 181 187
ENDBRANCH 178 181
ENDBRANCH 130 178
ENDBRANCH 127 130
ENDBRANCH 124 126
BRANCH 124 191
ATOM    191  CB  GLU d   1     -21.293 -15.435 -36.127  0.00  0.00    -0.029 C 
ATOM    192  H37 GLU d   1     -21.647 -14.512 -35.645  0.00  0.00     0.037 H 
ATOM    193  H38 GLU d   1     -20.334 -15.737 -35.681  0.00  0.00     0.037 H 
BRANCH 191 194
ATOM    194  CG  GLU d   1     -22.310 -16.534 -35.845  0.00  0.00     0.018 C 
ATOM    195  H39 GLU d   1     -22.102 -16.953 -34.849  0.00  0.00     0.049 H 
ATOM    196  H40 GLU d   1     -22.192 -17.320 -36.606  0.00  0.00     0.049 H 
BRANCH 194 197
ATOM    197  CD  GLU d   1     -23.753 -16.053 -35.871  0.00  0.00     0.172 C 
ATOM    198  OE1 GLU d   1     -24.619 -16.785 -35.350  0.00  0.00    -0.648 OA
ATOM    199  OE2 GLU d   1     -24.030 -14.955 -36.402  0.00  0.00    -0.648 OA
ENDBRANCH 194 197
ENDBRANCH 191 194
ENDBRANCH 124 191
ENDBRANCH 121 124
ENDBRANCH 118 120
BRANCH 118 200
ATOM    200  CB  VAL d   1     -23.134 -18.836 -39.855  0.00  0.00    -0.033 C 
ATOM    201  H43 VAL d   1     -23.995 -18.204 -40.117  0.00  0.00     0.042 H 
BRANCH 200 202
ATOM    202  CG1 VAL d   1     -23.099 -20.021 -40.814  0.00  0.00    -0.071 C 
ATOM    203  H44 VAL d   1     -24.023 -20.607 -40.706  0.00  0.00     0.028 H 
ATOM    204  H45 VAL d   1     -22.232 -20.657 -40.580  0.00  0.00     0.028 H 
ATOM    205  H46 VAL d   1     -23.016 -19.654 -41.848  0.00  0.00     0.028 H 
ENDBRANCH 200 202
BRANCH 200 206
ATOM    206  CG2 VAL d   1     -23.306 -19.319 -38.423  0.00  0.00    -0.071 C 
ATOM    207  H47 VAL d   1     -23.329 -18.453 -37.745  0.00  0.00     0.028 H 
ATOM    208  H48 VAL d   1     -22.464 -19.974 -38.153  0.00  0.00     0.028 H 
ATOM    209  H49 VAL d   1     -24.249 -19.879 -38.336  0.00  0.00     0.028 H 
ENDBRANCH 200 206
ENDBRANCH 118 200
ENDBRANCH 115 118
ENDBRANCH 112 114
BRANCH 112 210
ATOM    210  CB  SER d   1     -23.540 -15.579 -43.851  0.00  0.00     0.044 C 
ATOM    211  H52 SER d   1     -24.432 -16.143 -43.543  0.00  0.00     0.077 H 
ATOM    212  H53 SER d   1     -23.518 -15.498 -44.948  0.00  0.00     0.077 H 
BRANCH 210 213
ATOM    213  OG  SER d   1     -23.603 -14.276 -43.294  0.00  0.00    -0.398 OA
ATOM    214  H54 SER d   1     -22.837 -13.781 -43.560  0.00  0.00     0.209 HD
ENDBRANCH 210 213
ENDBRANCH 112 210
ENDBRANCH   1 112
TORSDOF 56
