REMARK  16 active torsions:
REMARK  status: ('A' for Active; 'I' for Inactive)
REMARK    1  A    between atoms: PAX_2  and  OAS_5 
REMARK    2  A    between atoms: OAS_5  and  CAP_6 
REMARK    3  A    between atoms: CAP_6  and  CAW_7 
REMARK    4  A    between atoms: CAW_7  and  CAB_8 
REMARK    5  A    between atoms: CAW_7  and  CAC_9 
REMARK    6  A    between atoms: CAW_7  and  CAV_10 
REMARK    7  A    between atoms: CAV_10  and  OAG_11 
REMARK    8  A    between atoms: CAV_10  and  CAU_12 
REMARK       I    between atoms: CAU_12  and  NAR_14 
REMARK    9  A    between atoms: NAR_14  and  CAN_15 
REMARK   10  A    between atoms: CAN_15  and  CAO_16 
REMARK   11  A    between atoms: CAO_16  and  CAT_17 
REMARK       I    between atoms: CAT_17  and  NAQ_19 
REMARK   12  A    between atoms: NAQ_19  and  CAM_20 
REMARK   13  A    between atoms: CAM_20  and  CAL_21 
REMARK   14  A    between atoms: CAL_21  and  CAK_22 
REMARK   15  A    between atoms: CAK_22  and  CAJ_23 
REMARK   16  A    between atoms: CAJ_23  and  CAA_24 
ROOT
ATOM      1  CAN 2GH d   1      -6.386  18.012 -26.881  0.00  0.00     0.003 C 
ATOM      2  H12 2GH d   1      -6.693  18.277 -27.904  0.00  0.00     0.064 H 
ATOM      3  H13 2GH d   1      -7.044  17.220 -26.494  0.00  0.00     0.064 H 
ENDROOT
BRANCH   1   4
ATOM      4  NAR 2GH d   1      -6.481  19.200 -26.014  0.00  0.00    -0.358 N 
ATOM      5  CAU 2GH d   1      -6.544  19.099 -24.673  0.00  0.00     0.247 C 
ATOM      6  OAE 2GH d   1      -6.523  18.017 -24.048  0.00  0.00    -0.271 OA
ATOM      7  H11 2GH d   1      -6.499  20.107 -26.434  0.00  0.00     0.162 HD
BRANCH   5   8
ATOM      8  CAV 2GH d   1      -6.670  20.450 -23.927  0.00  0.00     0.120 C 
ATOM      9  H9  2GH d   1      -7.626  20.463 -23.383  0.00  0.00     0.099 H 
BRANCH   8  10
ATOM     10  CAW 2GH d   1      -5.481  20.661 -22.881  0.00  0.00     0.009 C 
BRANCH  10  11
ATOM     11  CAP 2GH d   1      -5.590  22.057 -22.259  0.00  0.00     0.042 C 
ATOM     12  H1  2GH d   1      -4.804  22.178 -21.499  0.00  0.00     0.076 H 
ATOM     13  H2  2GH d   1      -5.460  22.816 -23.045  0.00  0.00     0.076 H 
BRANCH  11  14
ATOM     14  OAS 2GH d   1      -6.854  22.225 -21.653  0.00  0.00    -0.282 OA
BRANCH  14  15
ATOM     15  PAX 2GH d   1      -7.775  23.425 -22.173  0.00  0.00     0.422 P 
ATOM     16  OAH 2GH d   1      -9.172  23.211 -21.431  0.00  0.00    -0.617 OA
ATOM     17  OAI 2GH d   1      -7.031  24.738 -21.614  0.00  0.00    -0.617 OA
ATOM     18  OAF 2GH d   1      -7.859  23.465 -23.657  0.00  0.00    -0.617 OA
ENDBRANCH  14  15
ENDBRANCH  11  14
ENDBRANCH  10  11
BRANCH  10  19
ATOM     19  CAB 2GH d   1      -5.618  19.639 -21.723  0.00  0.00    -0.065 C 
ATOM     20  H3  2GH d   1      -5.545  18.618 -22.125  0.00  0.00     0.028 H 
ATOM     21  H4  2GH d   1      -6.593  19.771 -21.231  0.00  0.00     0.028 H 
ATOM     22  H5  2GH d   1      -4.813  19.803 -20.992  0.00  0.00     0.028 H 
ENDBRANCH  10  19
BRANCH  10  23
ATOM     23  CAC 2GH d   1      -4.100  20.543 -23.585  0.00  0.00    -0.065 C 
ATOM     24  H6  2GH d   1      -4.039  21.281 -24.398  0.00  0.00     0.028 H 
ATOM     25  H7  2GH d   1      -3.985  19.530 -23.999  0.00  0.00     0.028 H 
ATOM     26  H8  2GH d   1      -3.299  20.734 -22.856  0.00  0.00     0.028 H 
ENDBRANCH  10  23
ENDBRANCH   8  10
BRANCH   8  27
ATOM     27  OAG 2GH d   1      -6.653  21.537 -24.883  0.00  0.00    -0.385 OA
ATOM     28  H10 2GH d   1      -6.770  22.361 -24.426  0.00  0.00     0.210 HD
ENDBRANCH   8  27
ENDBRANCH   5   8
ENDBRANCH   1   4
BRANCH   1  29
ATOM     29  CAO 2GH d   1      -4.927  17.511 -26.893  0.00  0.00     0.024 C 
ATOM     30  H14 2GH d   1      -4.541  17.468 -25.864  0.00  0.00     0.049 H 
ATOM     31  H15 2GH d   1      -4.305  18.194 -27.490  0.00  0.00     0.049 H 
BRANCH  29  32
ATOM     32  CAT 2GH d   1      -4.900  16.113 -27.513  0.00  0.00     0.219 C 
ATOM     33  OAD 2GH d   1      -5.225  15.134 -26.849  0.00  0.00    -0.274 OA
ATOM     34  NAQ 2GH d   1      -4.592  16.049 -28.794  0.00  0.00    -0.361 N 
ATOM     35  H16 2GH d   1      -4.371  16.886 -29.295  0.00  0.00     0.162 HD
BRANCH  34  36
ATOM     36  CAM 2GH d   1      -4.572  14.731 -29.502  0.00  0.00    -0.005 C 
ATOM     37  H17 2GH d   1      -5.343  14.077 -29.070  0.00  0.00     0.064 H 
ATOM     38  H18 2GH d   1      -3.583  14.267 -29.373  0.00  0.00     0.064 H 
BRANCH  36  39
ATOM     39  CAL 2GH d   1      -4.847  14.916 -30.981  0.00  0.00    -0.050 C 
ATOM     40  H19 2GH d   1      -5.699  15.599 -31.116  0.00  0.00     0.035 H 
ATOM     41  H20 2GH d   1      -5.081  13.943 -31.438  0.00  0.00     0.035 H 
BRANCH  39  42
ATOM     42  CAK 2GH d   1      -3.606  15.508 -31.643  0.00  0.00    -0.064 C 
ATOM     43  H21 2GH d   1      -2.775  15.488 -30.923  0.00  0.00     0.033 H 
ATOM     44  H22 2GH d   1      -3.818  16.548 -31.930  0.00  0.00     0.033 H 
BRANCH  42  45
ATOM     45  CAJ 2GH d   1      -3.201  14.728 -32.883  0.00  0.00    -0.068 C 
ATOM     46  H23 2GH d   1      -3.818  15.059 -33.731  0.00  0.00     0.032 H 
ATOM     47  H24 2GH d   1      -3.369  13.656 -32.703  0.00  0.00     0.032 H 
BRANCH  45  48
ATOM     48  CAA 2GH d   1      -1.696  14.955 -33.230  0.00  0.00    -0.077 C 
ATOM     49  H25 2GH d   1      -1.436  14.378 -34.130  0.00  0.00     0.027 H 
ATOM     50  H26 2GH d   1      -1.071  14.622 -32.388  0.00  0.00     0.027 H 
ATOM     51  H27 2GH d   1      -1.520  16.025 -33.417  0.00  0.00     0.027 H 
ENDBRANCH  45  48
ENDBRANCH  42  45
ENDBRANCH  39  42
ENDBRANCH  36  39
ENDBRANCH  34  36
ENDBRANCH  29  32
ENDBRANCH   1  29
TORSDOF 16
