REMARK  7 active torsions:
REMARK  status: ('A' for Active; 'I' for Inactive)
REMARK    1  A    between atoms: CAQ_10  and  CAR_11 
REMARK    2  A    between atoms: NAV_13  and  CAW_14 
REMARK    3  A    between atoms: CAW_14  and  CAB_15 
REMARK    4  A    between atoms: CAW_14  and  CAC_16 
REMARK    5  A    between atoms: CAW_14  and  CAA_17 
REMARK    6  A    between atoms: CAP_18  and  NAE_19 
REMARK    7  A    between atoms: CAS_20  and  CAO_21 
REMARK       I    between atoms: CAO_21  and  NAD_23 
ROOT
ATOM      1  CAR 21E d   1      19.611  15.256  63.132  0.00  0.00     0.125 A 
ATOM      2  NAN 21E d   1      20.314  16.354  62.779  0.00  0.00    -0.167 NA
ATOM      3  NAV 21E d   1      21.483  16.037  62.447  0.00  0.00    -0.244 N 
ATOM      4  CAP 21E d   1      21.600  14.693  62.595  0.00  0.00     0.137 A 
ATOM      5  CAS 21E d   1      20.432  14.181  63.021  0.00  0.00     0.109 A 
ENDROOT
BRANCH   1   6
ATOM      6  CAQ 21E d   1      18.328  15.367  63.537  0.00  0.00     0.089 A 
ATOM      7  CAI 21E d   1      17.457  16.275  62.932  0.00  0.00    -0.052 A 
ATOM      8  CAL 21E d   1      16.147  16.406  63.379  0.00  0.00    -0.069 A 
ATOM      9  H1  21E d   1      17.805  16.884  62.106  0.00  0.00     0.087 H 
ATOM     10  CAT 21E d   1      15.714  15.626  64.437  0.00  0.00    -0.007 A 
ATOM     11  H2  21E d   1      15.473  17.110  62.905  0.00  0.00     0.085 H 
ATOM     12  CAJ 21E d   1      14.416  15.715  64.916  0.00  0.00    -0.071 A 
ATOM     13  CAU 21E d   1      16.614  14.740  65.039  0.00  0.00     0.067 A 
ATOM     14  CAG 21E d   1      14.025  14.929  65.988  0.00  0.00    -0.082 A 
ATOM     15  H3  21E d   1      13.710  16.396  64.454  0.00  0.00     0.084 H 
ATOM     16  CAH 21E d   1      14.902  14.032  66.582  0.00  0.00    -0.081 A 
ATOM     17  H4  21E d   1      13.014  15.016  66.370  0.00  0.00     0.083 H 
ATOM     18  CAK 21E d   1      16.200  13.938  66.109  0.00  0.00    -0.054 A 
ATOM     19  H5  21E d   1      14.574  13.411  67.408  0.00  0.00     0.083 H 
ATOM     20  H6  21E d   1      16.895  13.244  66.567  0.00  0.00     0.087 H 
ATOM     21  NAM 21E d   1      17.876  14.651  64.573  0.00  0.00    -0.246 NA
ENDBRANCH   1   6
BRANCH   5  22
ATOM     22  CAO 21E d   1      20.263  12.843  63.241  0.00  0.00     0.255 C 
ATOM     23  OAF 21E d   1      21.166  12.041  62.993  0.00  0.00    -0.268 OA
ATOM     24  NAD 21E d   1      19.102  12.389  63.725  0.00  0.00    -0.366 N 
ATOM     25  H18 21E d   1      18.976  11.410  63.887  0.00  0.00     0.159 HD
ATOM     26  H19 21E d   1      18.360  13.028  63.925  0.00  0.00     0.159 HD
ENDBRANCH   5  22
BRANCH   3  27
ATOM     27  CAW 21E d   1      22.537  17.059  62.013  0.00  0.00     0.047 C 
BRANCH  27  28
ATOM     28  CAB 21E d   1      23.347  16.537  60.806  0.00  0.00    -0.052 C 
ATOM     29  H7  21E d   1      24.096  17.288  60.514  0.00  0.00     0.030 H 
ATOM     30  H8  21E d   1      22.667  16.350  59.962  0.00  0.00     0.030 H 
ATOM     31  H9  21E d   1      23.855  15.601  61.082  0.00  0.00     0.030 H 
ENDBRANCH  27  28
BRANCH  27  32
ATOM     32  CAC 21E d   1      21.916  18.427  61.637  0.00  0.00    -0.052 C 
ATOM     33  H10 21E d   1      22.714  19.121  61.334  0.00  0.00     0.030 H 
ATOM     34  H11 21E d   1      21.382  18.839  62.506  0.00  0.00     0.030 H 
ATOM     35  H12 21E d   1      21.211  18.293  60.804  0.00  0.00     0.030 H 
ENDBRANCH  27  32
BRANCH  27  36
ATOM     36  CAA 21E d   1      23.473  17.290  63.206  0.00  0.00    -0.052 C 
ATOM     37  H13 21E d   1      24.246  18.022  62.929  0.00  0.00     0.030 H 
ATOM     38  H14 21E d   1      23.951  16.340  63.486  0.00  0.00     0.030 H 
ATOM     39  H15 21E d   1      22.893  17.674  64.058  0.00  0.00     0.030 H 
ENDBRANCH  27  36
ENDBRANCH   3  27
BRANCH   4  40
ATOM     40  NAE 21E d   1      22.730  14.023  62.329  0.00  0.00    -0.383 N 
ATOM     41  H16 21E d   1      22.766  13.002  62.458  0.00  0.00     0.157 HD
ATOM     42  H17 21E d   1      23.563  14.529  61.995  0.00  0.00     0.157 HD
ENDBRANCH   4  40
TORSDOF 7
