REMARK  4 active torsions:
REMARK  status: ('A' for Active; 'I' for Inactive)
REMARK    1  A    between atoms: C03_3  and  C04_4 
REMARK    2  A    between atoms: C03_3  and  C07_7 
REMARK       I    between atoms: C04_4  and  N05_5 
REMARK    3  A    between atoms: C07_7  and  C08_8 
REMARK    4  A    between atoms: C12_12  and  C13_13 
ROOT
ATOM      1  N01 RMM d   1     -25.560  11.431 -22.436  0.00  0.00    -0.196 NA
ATOM      2  C02 RMM d   1     -26.215  10.788 -21.754  0.00  0.00     0.073 C 
ATOM      3  C03 RMM d   1     -27.081   9.951 -20.874  0.00  0.00     0.111 C 
ATOM      4  H1  RMM d   1     -27.199   8.953 -21.320  0.00  0.00     0.078 H 
ENDROOT
BRANCH   3   5
ATOM      5  C04 RMM d   1     -26.443   9.826 -19.534  0.00  0.00     0.233 C 
ATOM      6  N05 RMM d   1     -25.747   8.626 -19.181  0.00  0.00    -0.369 N 
ATOM      7  H2  RMM d   1     -25.319   8.543 -18.281  0.00  0.00     0.159 HD
ATOM      8  H3  RMM d   1     -25.689   7.871 -19.834  0.00  0.00     0.159 HD
ATOM      9  O06 RMM d   1     -26.514  10.756 -18.743  0.00  0.00    -0.272 OA
ENDBRANCH   3   5
BRANCH   3  10
ATOM     10  C07 RMM d   1     -28.424  10.588 -20.721  0.00  0.00    -0.018 C 
ATOM     11  H4  RMM d   1     -28.392  11.128 -19.763  0.00  0.00     0.042 H 
ATOM     12  H5  RMM d   1     -29.143   9.758 -20.650  0.00  0.00     0.042 H 
BRANCH  10  13
ATOM     13  C08 RMM d   1     -29.005  11.545 -21.707  0.00  0.00    -0.056 A 
ATOM     14  C09 RMM d   1     -28.686  11.461 -23.031  0.00  0.00    -0.077 A 
ATOM     15  C10 RMM d   1     -29.275  12.425 -24.002  0.00  0.00    -0.082 A 
ATOM     16  H6  RMM d   1     -28.004  10.693 -23.376  0.00  0.00     0.084 H 
ATOM     17  C11 RMM d   1     -30.135  13.388 -23.565  0.00  0.00    -0.072 A 
ATOM     18  H7  RMM d   1     -29.020  12.361 -25.054  0.00  0.00     0.083 H 
ATOM     19  C12 RMM d   1     -30.484  13.479 -22.118  0.00  0.00    -0.023 A 
ATOM     20  H8  RMM d   1     -30.566  14.089 -24.271  0.00  0.00     0.084 H 
ATOM     21  C18 RMM d   1     -29.949  12.594 -21.231  0.00  0.00    -0.066 A 
ATOM     22  H12 RMM d   1     -30.210  12.653 -20.181  0.00  0.00     0.085 H 
BRANCH  19  23
ATOM     23  C13 RMM d   1     -31.434  14.519 -21.631  0.00  0.00     0.010 A 
ATOM     24  C14 RMM d   1     -31.532  14.978 -20.349  0.00  0.00     0.008 A 
ATOM     25  N15 RMM d   1     -32.548  15.928 -20.324  0.00  0.00    -0.289 N 
ATOM     26  H9  RMM d   1     -30.926  14.659 -19.502  0.00  0.00     0.115 H 
ATOM     27  N16 RMM d   1     -33.065  16.044 -21.566  0.00  0.00    -0.187 NA
ATOM     28  H10 RMM d   1     -32.855  16.456 -19.495  0.00  0.00     0.188 HD
ATOM     29  C17 RMM d   1     -32.403  15.179 -22.415  0.00  0.00     0.034 A 
ATOM     30  H11 RMM d   1     -32.592  15.035 -23.478  0.00  0.00     0.118 H 
ENDBRANCH  19  23
ENDBRANCH  10  13
ENDBRANCH   3  10
TORSDOF 4
