REMARK  19 active torsions:
REMARK  status: ('A' for Active; 'I' for Inactive)
REMARK    1  A    between atoms: C21_22  and  C20_21 
REMARK    2  A    between atoms: C33_34  and  C22_23 
REMARK    3  A    between atoms: C45_46  and  C23_24 
REMARK    4  A    between atoms: C25_26  and  N50_51 
REMARK    5  A    between atoms: C26_27  and  N52_53 
REMARK    6  A    between atoms: C27_28  and  N55_56 
REMARK    7  A    between atoms: O62_63  and  C28_29 
REMARK    8  A    between atoms: C29_30  and  O63_64 
REMARK    9  A    between atoms: C30_31  and  O62_63 
REMARK   10  A    between atoms: S64_65  and  C31_32 
REMARK       I    between atoms: N53_54  and  C33_34 
REMARK   11  A    between atoms: C46_47  and  C42_43 
REMARK   12  A    between atoms: N54_55  and  C43_44 
REMARK   13  A    between atoms: N54_55  and  C44_45 
REMARK   14  A    between atoms: N51_52  and  C45_46 
REMARK   15  A    between atoms: N52_53  and  C46_47 
REMARK   16  A    between atoms: C48_49  and  C47_48 
REMARK   17  A    between atoms: C47_48  and  N54_55 
REMARK   18  A    between atoms: O63_64  and  C48_49 
REMARK   19  A    between atoms: N53_54  and  S64_65 
ROOT
ATOM      1  C5  1Y1 d   1     -13.994  11.254  11.122  0.00  0.00    -0.063 A 
ATOM      2  C7  1Y1 d   1     -13.817   9.877  11.077  0.00  0.00    -0.056 A 
ATOM      3  C16 1Y1 d   1     -11.507  10.173  10.713  0.00  0.00    -0.024 A 
ATOM      4  C22 1Y1 d   1     -12.926  12.118  10.996  0.00  0.00     0.067 A 
ATOM      5  C25 1Y1 d   1     -12.565   9.291  10.869  0.00  0.00     0.033 A 
ATOM      6  C30 1Y1 d   1     -11.687  11.540  10.784  0.00  0.00     0.094 A 
ATOM      7  H   1Y1 d   1     -14.991  11.658  11.259  0.00  0.00     0.085 H 
ATOM      8  H   1Y1 d   1     -14.680   9.234  11.208  0.00  0.00     0.086 H 
ATOM      9  H   1Y1 d   1     -10.514   9.780  10.531  0.00  0.00     0.091 H 
ENDROOT
BRANCH   5  10
ATOM     10  N50 1Y1 d   1     -12.288   7.892  10.770  0.00  0.00    -0.378 N 
ATOM     11  C36 1Y1 d   1     -13.464   7.025  10.718  0.00  0.00     0.018 C 
ATOM     12  C38 1Y1 d   1     -13.037   5.614  10.376  0.00  0.00     0.098 C 
ATOM     13  H   1Y1 d   1     -13.966   7.029  11.697  0.00  0.00     0.066 H 
ATOM     14  H   1Y1 d   1     -14.158   7.394   9.949  0.00  0.00     0.066 H 
ATOM     15  N51 1Y1 d   1     -11.946   5.121  11.284  0.00  0.00    -0.064 N 
ATOM     16  H   1Y1 d   1     -12.671   5.595   9.339  0.00  0.00     0.078 H 
ATOM     17  H   1Y1 d   1     -13.906   4.947  10.471  0.00  0.00     0.078 H 
ATOM     18  C39 1Y1 d   1     -10.755   6.014  11.254  0.00  0.00     0.098 C 
ATOM     19  H   1Y1 d   1     -12.321   5.189  12.217  0.00  0.00     0.280 HD
ATOM     20  C37 1Y1 d   1     -11.193   7.419  11.634  0.00  0.00     0.018 C 
ATOM     21  H   1Y1 d   1     -10.003   5.653  11.972  0.00  0.00     0.078 H 
ATOM     22  H   1Y1 d   1     -10.323   6.021  10.242  0.00  0.00     0.078 H 
ATOM     23  H   1Y1 d   1     -10.336   8.101  11.532  0.00  0.00     0.066 H 
ATOM     24  H   1Y1 d   1     -11.537   7.417  12.679  0.00  0.00     0.066 H 
BRANCH  15  25
ATOM     25  C45 1Y1 d   1     -11.578   3.661  11.102  0.00  0.00     0.110 C 
ATOM     26  H   1Y1 d   1     -10.954   3.562  10.201  0.00  0.00     0.083 H 
ATOM     27  H   1Y1 d   1     -11.008   3.326  11.981  0.00  0.00     0.083 H 
BRANCH  25  28
ATOM     28  C23 1Y1 d   1     -12.798   2.786  10.949  0.00  0.00     0.012 A 
ATOM     29  C21 1Y1 d   1     -13.227   2.323   9.709  0.00  0.00    -0.015 A 
ATOM     30  C2  1Y1 d   1     -14.397   1.596   9.643  0.00  0.00    -0.071 A 
ATOM     31  C1  1Y1 d   1     -15.165   1.341  10.750  0.00  0.00    -0.080 A 
ATOM     32  H   1Y1 d   1     -14.721   1.213   8.682  0.00  0.00     0.084 H 
ATOM     33  C9  1Y1 d   1     -14.765   1.807  11.973  0.00  0.00    -0.050 A 
ATOM     34  H   1Y1 d   1     -16.084   0.773  10.657  0.00  0.00     0.083 H 
ATOM     35  C29 1Y1 d   1     -13.581   2.518  12.068  0.00  0.00     0.077 A 
ATOM     36  H   1Y1 d   1     -15.367   1.622  12.855  0.00  0.00     0.087 H 
BRANCH  29  37
ATOM     37  C20 1Y1 d   1     -12.517   2.471   8.453  0.00  0.00    -0.025 A 
ATOM     38  C3  1Y1 d   1     -11.232   1.986   8.302  0.00  0.00    -0.071 A 
ATOM     39  C12 1Y1 d   1     -10.575   2.077   7.097  0.00  0.00    -0.061 A 
ATOM     40  H   1Y1 d   1     -10.733   1.526   9.147  0.00  0.00     0.084 H 
ATOM     41  C32 1Y1 d   1     -11.214   2.615   6.008  0.00  0.00     0.034 A 
ATOM     42  H   1Y1 d   1      -9.554   1.724   7.008  0.00  0.00     0.086 H 
ATOM     43 CL6  1Y1 d   1     -10.462   2.714   4.466  0.00  0.00    -0.084 Cl
ATOM     44  C13 1Y1 d   1     -12.482   3.108   6.147  0.00  0.00    -0.061 A 
ATOM     45  C4  1Y1 d   1     -13.126   3.045   7.362  0.00  0.00    -0.071 A 
ATOM     46  H   1Y1 d   1     -12.983   3.551   5.294  0.00  0.00     0.086 H 
ATOM     47  H   1Y1 d   1     -14.126   3.453   7.460  0.00  0.00     0.084 H 
ENDBRANCH  29  37
BRANCH  35  48
ATOM     48  O63 1Y1 d   1     -13.163   3.029  13.291  0.00  0.00    -0.349 OA
BRANCH  48  49
ATOM     49  C48 1Y1 d   1     -13.119   2.057  14.328  0.00  0.00     0.049 C 
ATOM     50  H   1Y1 d   1     -14.127   1.871  14.727  0.00  0.00     0.077 H 
ATOM     51  H   1Y1 d   1     -12.692   1.114  13.956  0.00  0.00     0.077 H 
BRANCH  49  52
ATOM     52  C47 1Y1 d   1     -12.228   2.662  15.391  0.00  0.00     0.102 C 
ATOM     53  H   1Y1 d   1     -11.569   3.397  14.905  0.00  0.00     0.079 H 
ATOM     54  H   1Y1 d   1     -11.620   1.855  15.825  0.00  0.00     0.079 H 
BRANCH  52  55
ATOM     55  N54 1Y1 d   1     -12.944   3.348  16.501  0.00  0.00    -0.077 N 
ATOM     56  H   1Y1 d   1     -13.133   2.599  17.148  0.00  0.00     0.279 HD
BRANCH  55  57
ATOM     57  C43 1Y1 d   1     -12.047   4.265  17.226  0.00  0.00     0.066 C 
ATOM     58  H   1Y1 d   1     -12.603   4.756  18.038  0.00  0.00     0.068 H 
ATOM     59  H   1Y1 d   1     -11.663   5.027  16.532  0.00  0.00     0.068 H 
ATOM     60  H   1Y1 d   1     -11.206   3.697  17.649  0.00  0.00     0.068 H 
ENDBRANCH  55  57
BRANCH  55  61
ATOM     61  C44 1Y1 d   1     -14.279   3.961  16.296  0.00  0.00     0.066 C 
ATOM     62  H   1Y1 d   1     -14.927   3.256  15.754  0.00  0.00     0.068 H 
ATOM     63  H   1Y1 d   1     -14.172   4.886  15.710  0.00  0.00     0.068 H 
ATOM     64  H   1Y1 d   1     -14.729   4.195  17.272  0.00  0.00     0.068 H 
ENDBRANCH  55  61
ENDBRANCH  52  55
ENDBRANCH  49  52
ENDBRANCH  48  49
ENDBRANCH  35  48
ENDBRANCH  25  28
ENDBRANCH  15  25
ENDBRANCH   5  10
BRANCH   6  65
ATOM     65  O62 1Y1 d   1     -10.545  12.282  10.631  0.00  0.00    -0.310 OA
BRANCH  65  66
ATOM     66  C28 1Y1 d   1     -10.238  12.714   9.373  0.00  0.00     0.077 A 
ATOM     67  C10 1Y1 d   1      -9.000  13.300   9.277  0.00  0.00    -0.048 A 
ATOM     68  C6  1Y1 d   1      -8.533  13.764   8.068  0.00  0.00    -0.054 A 
ATOM     69  H   1Y1 d   1      -8.383  13.398  10.163  0.00  0.00     0.087 H 
ATOM     70  C24 1Y1 d   1      -9.391  13.636   6.996  0.00  0.00     0.042 A 
ATOM     71  H   1Y1 d   1      -7.548  14.204   7.965  0.00  0.00     0.087 H 
ATOM     72  C19 1Y1 d   1     -10.637  13.056   7.089  0.00  0.00    -0.005 A 
ATOM     73  N49 1Y1 d   1      -9.232  14.034   5.698  0.00  0.00    -0.365 N 
ATOM     74  C14 1Y1 d   1     -11.252  13.128   5.816  0.00  0.00    -0.056 A 
ATOM     75  C15 1Y1 d   1     -11.085  12.567   8.304  0.00  0.00    -0.038 A 
ATOM     76  C18 1Y1 d   1     -10.357  13.750   4.975  0.00  0.00    -0.022 A 
ATOM     77  H   1Y1 d   1     -12.243  12.762   5.553  0.00  0.00     0.086 H 
ATOM     78  H   1Y1 d   1     -10.517  13.976   3.922  0.00  0.00     0.111 H 
ATOM     79  H   1Y1 d   1     -12.054  12.093   8.405  0.00  0.00     0.089 H 
ATOM     80  H   1Y1 d   1      -8.386  14.483   5.319  0.00  0.00     0.165 HD
ENDBRANCH  65  66
ENDBRANCH   6  65
BRANCH   4  81
ATOM     81  C33 1Y1 d   1     -13.138  13.605  11.002  0.00  0.00     0.268 C 
ATOM     82  N53 1Y1 d   1     -12.007  14.414  11.264  0.00  0.00    -0.246 N 
ATOM     83  H   1Y1 d   1     -11.202  14.010  11.699  0.00  0.00     0.182 HD
ATOM     84  O57 1Y1 d   1     -14.186  14.155  10.672  0.00  0.00    -0.267 OA
BRANCH  82  85
ATOM     85  S64 1Y1 d   1     -11.997  16.094  10.841  0.00  0.00     0.265 S 
ATOM     86  O59 1Y1 d   1     -13.349  16.583  11.045  0.00  0.00    -0.200 OA
ATOM     87  O60 1Y1 d   1     -10.850  16.640  11.527  0.00  0.00    -0.200 OA
BRANCH  85  88
ATOM     88  C31 1Y1 d   1     -11.676  16.302   9.091  0.00  0.00     0.082 A 
ATOM     89  C11 1Y1 d   1     -10.441  16.776   8.725  0.00  0.00    -0.058 A 
ATOM     90  C8  1Y1 d   1     -10.151  16.985   7.398  0.00  0.00    -0.054 A 
ATOM     91  H   1Y1 d   1      -9.694  16.985   9.482  0.00  0.00     0.086 H 
ATOM     92  C26 1Y1 d   1     -11.079  16.724   6.406  0.00  0.00     0.061 A 
ATOM     93  H   1Y1 d   1      -9.173  17.363   7.122  0.00  0.00     0.087 H 
ATOM     94  C27 1Y1 d   1     -12.319  16.228   6.798  0.00  0.00     0.130 A 
ATOM     95  C17 1Y1 d   1     -12.633  16.029   8.137  0.00  0.00    -0.026 A 
ATOM     96  H   1Y1 d   1     -13.613  15.666   8.426  0.00  0.00     0.089 H 
BRANCH  92  97
ATOM     97  N52 1Y1 d   1     -10.750  16.918   5.043  0.00  0.00    -0.388 N 
ATOM     98  H   1Y1 d   1     -11.297  16.446   4.308  0.00  0.00     0.159 HD
BRANCH  97  99
ATOM     99  C46 1Y1 d   1      -9.633  17.789   4.679  0.00  0.00    -0.004 C 
ATOM    100  H   1Y1 d   1      -9.929  18.843   4.785  0.00  0.00     0.064 H 
ATOM    101  H   1Y1 d   1      -8.770  17.584   5.330  0.00  0.00     0.064 H 
BRANCH  99 102
ATOM    102  C42 1Y1 d   1      -9.272  17.493   3.227  0.00  0.00    -0.035 C 
ATOM    103  C34 1Y1 d   1      -7.886  18.034   2.920  0.00  0.00    -0.040 C 
ATOM    104  C40 1Y1 d   1      -7.603  17.750   1.456  0.00  0.00     0.020 C 
ATOM    105  H   1Y1 d   1      -7.856  19.118   3.106  0.00  0.00     0.036 H 
ATOM    106  H   1Y1 d   1      -7.138  17.533   3.552  0.00  0.00     0.036 H 
ATOM    107  O61 1Y1 d   1      -8.566  18.472   0.673  0.00  0.00    -0.391 OA
ATOM    108  H   1Y1 d   1      -7.695  16.672   1.260  0.00  0.00     0.074 H 
ATOM    109  H   1Y1 d   1      -6.587  18.084   1.200  0.00  0.00     0.074 H 
ATOM    110  C41 1Y1 d   1      -9.901  18.005   0.849  0.00  0.00     0.020 C 
ATOM    111  C35 1Y1 d   1     -10.292  18.145   2.308  0.00  0.00    -0.040 C 
ATOM    112  H   1Y1 d   1     -10.584  18.602   0.227  0.00  0.00     0.074 H 
ATOM    113  H   1Y1 d   1      -9.963  16.948   0.552  0.00  0.00     0.074 H 
ATOM    114  H   1Y1 d   1     -11.270  17.665   2.463  0.00  0.00     0.036 H 
ATOM    115  H   1Y1 d   1     -10.364  19.214   2.557  0.00  0.00     0.036 H 
ATOM    116  H   1Y1 d   1      -9.280  16.405   3.065  0.00  0.00     0.042 H 
ENDBRANCH  99 102
ENDBRANCH  97  99
ENDBRANCH  92  97
BRANCH  94 117
ATOM    117  N55 1Y1 d   1     -13.359  15.907   5.826  0.00  0.00    -0.113 N 
ATOM    118  O56 1Y1 d   1     -14.439  15.493   6.251  0.00  0.00    -0.532 OA
ATOM    119  O58 1Y1 d   1     -13.165  16.038   4.612  0.00  0.00    -0.532 OA
ENDBRANCH  94 117
ENDBRANCH  85  88
ENDBRANCH  82  85
ENDBRANCH   4  81
TORSDOF 19
