REMARK  10 active torsions:
REMARK  status: ('A' for Active; 'I' for Inactive)
REMARK    1  A    between atoms: C01_1  and  N04_4 
REMARK    2  A    between atoms: C01_1  and  C09_9 
REMARK    3  A    between atoms: C09_9  and  C10_10 
REMARK    4  A    between atoms: C16_16  and  C17_17 
REMARK    5  A    between atoms: C19_19  and  O20_20 
REMARK    6  A    between atoms: O20_20  and  C21_21 
REMARK    7  A    between atoms: C22_22  and  O23_23 
REMARK    8  A    between atoms: O23_23  and  C24_24 
REMARK    9  A    between atoms: C25_25  and  O26_26 
REMARK   10  A    between atoms: O26_26  and  C27_27 
ROOT
ATOM      1  C01 28D d   1       3.771  10.848 -19.973  0.00  0.00     0.122 C 
ATOM      2  C02 28D d   1       2.810  11.924 -19.601  0.00  0.00     0.087 C 
ATOM      3  N03 28D d   1       2.096  12.754 -19.291  0.00  0.00    -0.195 NA
ATOM      4  H1  28D d   1       4.099  10.344 -19.052  0.00  0.00     0.100 H 
ENDROOT
BRANCH   1   5
ATOM      5  N04 28D d   1       3.110   9.871 -20.815  0.00  0.00    -0.244 N 
ATOM      6  C05 28D d   1       3.238   8.485 -20.676  0.00  0.00     0.085 A 
ATOM      7  N06 28D d   1       2.493   7.918 -21.651  0.00  0.00    -0.234 NA
ATOM      8  H2  28D d   1       3.827   7.962 -19.924  0.00  0.00     0.146 H 
ATOM      9  C07 28D d   1       1.924   8.940 -22.387  0.00  0.00     0.107 A 
ATOM     10  N08 28D d   1       2.319  10.150 -21.854  0.00  0.00    -0.163 NA
ATOM     11  H3  28D d   1       1.270   8.811 -23.248  0.00  0.00     0.149 H 
ENDBRANCH   1   5
BRANCH   1  12
ATOM     12  C09 28D d   1       4.992  11.417 -20.653  0.00  0.00    -0.008 C 
ATOM     13  H4  28D d   1       5.365  12.294 -20.104  0.00  0.00     0.044 H 
ATOM     14  H5  28D d   1       4.757  11.706 -21.688  0.00  0.00     0.044 H 
BRANCH  12  15
ATOM     15  C10 28D d   1       6.004  10.320 -20.634  0.00  0.00    -0.054 A 
ATOM     16  C11 28D d   1       6.495   9.895 -19.399  0.00  0.00    -0.074 A 
ATOM     17  C12 28D d   1       7.432   8.857 -19.334  0.00  0.00    -0.054 A 
ATOM     18  H6  28D d   1       6.150  10.370 -18.488  0.00  0.00     0.084 H 
ATOM     19  C13 28D d   1       7.852   8.264 -20.518  0.00  0.00     0.062 A 
ATOM     20  H7  28D d   1       7.822   8.523 -18.379  0.00  0.00     0.087 H 
ATOM     21  N14 28D d   1       8.755   7.240 -20.767  0.00  0.00    -0.277 N 
ATOM     22  C29 28D d   1       7.340   8.694 -21.755  0.00  0.00     0.024 A 
ATOM     23  N15 28D d   1       8.870   6.966 -22.049  0.00  0.00    -0.173 NA
ATOM     24  H8  28D d   1       9.278   6.748 -20.029  0.00  0.00     0.189 HD
ATOM     25  C16 28D d   1       8.044   7.818 -22.680  0.00  0.00     0.100 A 
ATOM     26  C30 28D d   1       6.410   9.723 -21.832  0.00  0.00    -0.062 A 
ATOM     27  H20 28D d   1       6.013  10.051 -22.786  0.00  0.00     0.085 H 
BRANCH  25  28
ATOM     28  C17 28D d   1       7.826   7.878 -24.179  0.00  0.00     0.001 A 
ATOM     29  C18 28D d   1       6.447   8.135 -24.695  0.00  0.00    -0.036 A 
ATOM     30  C19 28D d   1       6.225   8.186 -26.053  0.00  0.00     0.105 A 
ATOM     31  H9  28D d   1       5.625   8.281 -24.003  0.00  0.00     0.089 H 
ATOM     32  C22 28D d   1       7.369   7.994 -27.023  0.00  0.00     0.135 A 
ATOM     33  C25 28D d   1       8.640   7.761 -26.533  0.00  0.00     0.105 A 
ATOM     34  C28 28D d   1       8.872   7.698 -25.039  0.00  0.00    -0.036 A 
ATOM     35  H19 28D d   1       9.867   7.510 -24.652  0.00  0.00     0.089 H 
BRANCH  30  36
ATOM     36  O20 28D d   1       4.944   8.423 -26.497  0.00  0.00    -0.353 OA
BRANCH  36  37
ATOM     37  C21 28D d   1       4.668   9.677 -27.018  0.00  0.00     0.010 C 
ATOM     38  H10 28D d   1       3.614   9.721 -27.330  0.00  0.00     0.066 H 
ATOM     39  H11 28D d   1       5.316   9.864 -27.887  0.00  0.00     0.066 H 
ATOM     40  H12 28D d   1       4.855  10.442 -26.250  0.00  0.00     0.066 H 
ENDBRANCH  36  37
ENDBRANCH  30  36
BRANCH  32  41
ATOM     41  O23 28D d   1       7.109   8.050 -28.388  0.00  0.00    -0.351 OA
BRANCH  41  42
ATOM     42  C24 28D d   1       6.492   6.972 -29.024  0.00  0.00     0.011 C 
ATOM     43  H13 28D d   1       6.370   7.198 -30.094  0.00  0.00     0.067 H 
ATOM     44  H14 28D d   1       5.505   6.795 -28.572  0.00  0.00     0.067 H 
ATOM     45  H15 28D d   1       7.115   6.073 -28.908  0.00  0.00     0.067 H 
ENDBRANCH  41  42
ENDBRANCH  32  41
BRANCH  33  46
ATOM     46  O26 28D d   1       9.731   7.561 -27.357  0.00  0.00    -0.353 OA
BRANCH  46  47
ATOM     47  C27 28D d   1      10.792   8.428 -27.285  0.00  0.00     0.010 C 
ATOM     48  H16 28D d   1      11.565   8.121 -28.005  0.00  0.00     0.066 H 
ATOM     49  H17 28D d   1      11.210   8.412 -26.268  0.00  0.00     0.066 H 
ATOM     50  H18 28D d   1      10.451   9.446 -27.525  0.00  0.00     0.066 H 
ENDBRANCH  46  47
ENDBRANCH  33  46
ENDBRANCH  25  28
ENDBRANCH  12  15
ENDBRANCH   1  12
TORSDOF 10
