REMARK  7 active torsions:
REMARK  status: ('A' for Active; 'I' for Inactive)
REMARK    1  A    between atoms: C2_2  and  C1_1 
REMARK    2  A    between atoms: N3_16  and  C2_2 
REMARK    3  A    between atoms: C7_5  and  N6_4 
REMARK       I    between atoms: N6_4  and  C4_17 
REMARK    4  A    between atoms: C11_8  and  C23_25 
REMARK    5  A    between atoms: O16_21  and  C12_9 
REMARK       I    between atoms: C4_17  and  N3_16 
REMARK    6  A    between atoms: C17_22  and  O16_21 
REMARK    7  A    between atoms: C17_22  and  C18_23 
ROOT
ATOM      1  C7  28F d   1      15.856  30.882   4.551  0.00  0.00     0.177 A 
ATOM      2  C9  28F d   1      14.458  30.261   6.141  0.00  0.00     0.096 A 
ATOM      3  C10 28F d   1      13.390  30.238   7.033  0.00  0.00    -0.037 A 
ATOM      4  C11 28F d   1      13.276  29.196   7.938  0.00  0.00     0.032 A 
ATOM      5  C12 28F d   1      14.290  28.215   7.888  0.00  0.00     0.176 A 
ATOM      6  C14 28F d   1      15.382  29.230   6.221  0.00  0.00     0.132 A 
ATOM      7  N8  28F d   1      14.746  31.201   5.185  0.00  0.00    -0.221 NA
ATOM      8  N13 28F d   1      15.350  28.188   7.054  0.00  0.00    -0.214 NA
ATOM      9  S15 28F d   1      16.662  29.395   5.039  0.00  0.00    -0.030 SA
ATOM     10  H7  28F d   1      12.651  31.031   7.019  0.00  0.00     0.088 H 
ENDROOT
BRANCH   5  11
ATOM     11  O16 28F d   1      14.166  27.179   8.770  0.00  0.00    -0.333 OA
BRANCH  11  12
ATOM     12  C17 28F d   1      15.180  26.200   8.929  0.00  0.00     0.033 C 
ATOM     13  H16 28F d   1      16.097  26.650   9.338  0.00  0.00     0.075 H 
ATOM     14  H17 28F d   1      15.407  25.713   7.969  0.00  0.00     0.075 H 
BRANCH  12  15
ATOM     15  C18 28F d   1      14.582  25.200   9.915  0.00  0.00    -0.010 C 
ATOM     16  C19 28F d   1      15.520  24.897  11.055  0.00  0.00    -0.038 C 
ATOM     17  C20 28F d   1      16.429  23.842  10.447  0.00  0.00     0.020 C 
ATOM     18  H8  28F d   1      16.088  25.791  11.353  0.00  0.00     0.036 H 
ATOM     19  H9  28F d   1      14.976  24.502  11.925  0.00  0.00     0.036 H 
ATOM     20  O21 28F d   1      15.791  23.360   9.252  0.00  0.00    -0.391 OA
ATOM     21  H10 28F d   1      16.571  23.014  11.157  0.00  0.00     0.074 H 
ATOM     22  H11 28F d   1      17.405  24.285  10.199  0.00  0.00     0.074 H 
ATOM     23  C22 28F d   1      14.451  23.869   9.248  0.00  0.00     0.025 C 
ATOM     24  H12 28F d   1      14.075  23.980   8.220  0.00  0.00     0.075 H 
ATOM     25  H13 28F d   1      13.778  23.209   9.815  0.00  0.00     0.075 H 
ATOM     26  H18 28F d   1      13.614  25.571  10.283  0.00  0.00     0.046 H 
ENDBRANCH  12  15
ENDBRANCH  11  12
ENDBRANCH   5  11
BRANCH   4  27
ATOM     27  C23 28F d   1      12.166  29.139   8.925  0.00  0.00     0.014 A 
ATOM     28  C24 28F d   1      11.382  28.024   9.157  0.00  0.00     0.016 A 
ATOM     29  N25 28F d   1      10.379  27.986  10.055  0.00  0.00    -0.253 NA
ATOM     30  H14 28F d   1      11.587  27.128   8.582  0.00  0.00     0.116 H 
ATOM     31  C26 28F d   1      10.161  29.116  10.743  0.00  0.00     0.086 A 
ATOM     32  N27 28F d   1      10.843  30.263  10.623  0.00  0.00    -0.253 NA
ATOM     33  H19 28F d   1       9.354  29.100  11.467  0.00  0.00     0.146 H 
ATOM     34  C28 28F d   1      11.828  30.228   9.704  0.00  0.00     0.016 A 
ATOM     35  H20 28F d   1      12.406  31.134   9.564  0.00  0.00     0.116 H 
ENDBRANCH   4  27
BRANCH   1  36
ATOM     36  N6  28F d   1      16.357  31.680   3.535  0.00  0.00    -0.287 N 
ATOM     37  C4  28F d   1      17.662  31.545   3.094  0.00  0.00     0.322 C 
ATOM     38  O5  28F d   1      18.425  30.656   3.484  0.00  0.00    -0.247 OA
ATOM     39  N3  28F d   1      17.993  32.495   2.151  0.00  0.00    -0.343 N 
ATOM     40  H15 28F d   1      17.272  33.093   1.802  0.00  0.00     0.164 HD
ATOM     41  H6  28F d   1      15.765  32.366   3.113  0.00  0.00     0.172 HD
BRANCH  39  42
ATOM     42  C2  28F d   1      19.331  32.664   1.646  0.00  0.00    -0.006 C 
ATOM     43  H4  28F d   1      20.041  32.151   2.311  0.00  0.00     0.063 H 
ATOM     44  H5  28F d   1      19.398  32.233   0.636  0.00  0.00     0.063 H 
BRANCH  42  45
ATOM     45  C1  28F d   1      19.672  34.144   1.588  0.00  0.00    -0.061 C 
ATOM     46  H1  28F d   1      20.694  34.270   1.202  0.00  0.00     0.029 H 
ATOM     47  H2  28F d   1      19.606  34.575   2.598  0.00  0.00     0.029 H 
ATOM     48  H3  28F d   1      18.963  34.658   0.922  0.00  0.00     0.029 H 
ENDBRANCH  42  45
ENDBRANCH  39  42
ENDBRANCH   1  36
TORSDOF 7
