REMARK  8 active torsions:
REMARK  status: ('A' for Active; 'I' for Inactive)
REMARK    1  A    between atoms: C3_3  and  C2_2 
REMARK    2  A    between atoms: N4_28  and  C3_3 
REMARK    3  A    between atoms: N7_27  and  C8_4 
REMARK    4  A    between atoms: C12_7  and  C26_19 
REMARK    5  A    between atoms: C13_8  and  O17_10 
REMARK    6  A    between atoms: O17_10  and  C18_22 
REMARK    7  A    between atoms: C18_22  and  C19_11 
REMARK    8  A    between atoms: C19_11  and  N20_26 
REMARK       I    between atoms: C5_20  and  N7_27 
REMARK       I    between atoms: C5_20  and  N4_28 
ROOT
ATOM      1  C8  28G d   1      15.610  30.935   4.728  0.00  0.00     0.177 A 
ATOM      2  C10 28G d   1      14.185  30.380   6.330  0.00  0.00     0.096 A 
ATOM      3  C11 28G d   1      13.098  30.464   7.181  0.00  0.00    -0.037 A 
ATOM      4  C12 28G d   1      12.968  29.417   8.081  0.00  0.00     0.031 A 
ATOM      5  C13 28G d   1      13.905  28.378   8.070  0.00  0.00     0.176 A 
ATOM      6  C15 28G d   1      15.058  29.304   6.412  0.00  0.00     0.132 A 
ATOM      7  N9  28G d   1      14.534  31.293   5.357  0.00  0.00    -0.221 NA
ATOM      8  N14 28G d   1      14.963  28.261   7.264  0.00  0.00    -0.214 NA
ATOM      9  S16 28G d   1      16.324  29.432   5.253  0.00  0.00    -0.030 SA
ATOM     10  H6  28G d   1      12.397  31.290   7.147  0.00  0.00     0.088 H 
ENDROOT
BRANCH   5  11
ATOM     11  O17 28G d   1      13.744  27.342   9.002  0.00  0.00    -0.332 OA
BRANCH  11  12
ATOM     12  C18 28G d   1      14.682  26.272   8.866  0.00  0.00     0.050 C 
ATOM     13  H21 28G d   1      15.332  26.213   9.751  0.00  0.00     0.077 H 
ATOM     14  H22 28G d   1      15.299  26.411   7.966  0.00  0.00     0.077 H 
BRANCH  12  15
ATOM     15  C19 28G d   1      13.832  25.016   8.743  0.00  0.00     0.103 C 
ATOM     16  H7  28G d   1      14.456  24.189   8.374  0.00  0.00     0.079 H 
ATOM     17  H8  28G d   1      13.011  25.200   8.035  0.00  0.00     0.079 H 
BRANCH  15  18
ATOM     18  N20 28G d   1      13.275  24.658  10.049  0.00  0.00    -0.065 N 
ATOM     19  C21 28G d   1      12.073  25.428  10.351  0.00  0.00     0.103 C 
ATOM     20  C22 28G d   1      11.684  25.151  11.791  0.00  0.00     0.042 C 
ATOM     21  H9  28G d   1      12.275  26.501  10.219  0.00  0.00     0.079 H 
ATOM     22  H10 28G d   1      11.257  25.123   9.679  0.00  0.00     0.079 H 
ATOM     23  O23 28G d   1      11.319  23.760  11.873  0.00  0.00    -0.388 OA
ATOM     24  H11 28G d   1      10.831  25.782  12.079  0.00  0.00     0.076 H 
ATOM     25  H12 28G d   1      12.534  25.358  12.458  0.00  0.00     0.076 H 
ATOM     26  C24 28G d   1      12.423  22.941  11.456  0.00  0.00     0.042 C 
ATOM     27  C25 28G d   1      12.820  23.274  10.026  0.00  0.00     0.103 C 
ATOM     28  H13 28G d   1      13.280  23.122  12.121  0.00  0.00     0.076 H 
ATOM     29  H14 28G d   1      12.131  21.882  11.514  0.00  0.00     0.076 H 
ATOM     30  H19 28G d   1      11.956  23.167   9.354  0.00  0.00     0.079 H 
ATOM     31  H20 28G d   1      13.630  22.611   9.690  0.00  0.00     0.079 H 
ATOM     32  H23 28G d   1      13.973  24.797  10.763  0.00  0.00     0.280 HD
ENDBRANCH  15  18
ENDBRANCH  12  15
ENDBRANCH  11  12
ENDBRANCH   5  11
BRANCH   4  33
ATOM     33  C26 28G d   1      11.843  29.421   9.015  0.00  0.00    -0.004 A 
ATOM     34  C27 28G d   1      10.994  28.329   9.100  0.00  0.00    -0.069 A 
ATOM     35  C28 28G d   1       9.958  28.349  10.019  0.00  0.00    -0.065 A 
ATOM     36  H15 28G d   1      11.139  27.470   8.455  0.00  0.00     0.085 H 
ATOM     37  C29 28G d   1       9.778  29.462  10.814  0.00  0.00     0.002 A 
ATOM     38  H17 28G d   1       9.294  27.497  10.113  0.00  0.00     0.085 H 
ATOM     39  N30 28G d   1      10.556  30.560  10.742  0.00  0.00    -0.272 NA
ATOM     40  H18 28G d   1       8.968  29.453  11.534  0.00  0.00     0.114 H 
ATOM     41  C31 28G d   1      11.557  30.483   9.841  0.00  0.00     0.013 A 
ATOM     42  H16 28G d   1      12.204  31.349   9.759  0.00  0.00     0.116 H 
ENDBRANCH   4  33
BRANCH   1  43
ATOM     43  N7  28G d   1      16.102  31.731   3.707  0.00  0.00    -0.287 N 
ATOM     44  C5  28G d   1      17.329  31.429   3.126  0.00  0.00     0.322 C 
ATOM     45  N4  28G d   1      17.687  32.254   2.122  0.00  0.00    -0.339 N 
ATOM     46  O6  28G d   1      18.045  30.520   3.496  0.00  0.00    -0.247 OA
ATOM     47  H25 28G d   1      17.017  32.903   1.761  0.00  0.00     0.164 HD
ATOM     48  H24 28G d   1      15.577  32.520   3.389  0.00  0.00     0.172 HD
BRANCH  45  49
ATOM     49  C3  28G d   1      19.056  32.222   1.537  0.00  0.00     0.011 C 
ATOM     50  H4  28G d   1      19.709  31.655   2.217  0.00  0.00     0.070 H 
ATOM     51  H5  28G d   1      19.004  31.709   0.565  0.00  0.00     0.070 H 
BRANCH  49  52
ATOM     52  C2  28G d   1      19.659  33.567   1.324  0.00  0.00    -0.095 C 
ATOM     53  C1  28G d   1      19.134  34.686   1.849  0.00  0.00    -0.123 C 
ATOM     54  H1  28G d   1      19.610  35.648   1.666  0.00  0.00     0.066 H 
ATOM     55  H2  28G d   1      18.233  34.631   2.457  0.00  0.00     0.066 H 
ATOM     56  H3  28G d   1      20.561  33.646   0.719  0.00  0.00     0.078 H 
ENDBRANCH  49  52
ENDBRANCH  45  49
ENDBRANCH   1  43
TORSDOF 8
