REMARK  16 active torsions:
REMARK  status: ('A' for Active; 'I' for Inactive)
REMARK    1  A    between atoms: CAT_2  and  CAO_4 
REMARK    2  A    between atoms: CAO_4  and  CAM_5 
REMARK    3  A    between atoms: CAM_5  and  CAN_6 
REMARK    4  A    between atoms: CAN_6  and  CAP_7 
REMARK    5  A    between atoms: CAP_7  and  CAV_8 
REMARK    6  A    between atoms: CAV_8  and  OAS_10 
REMARK    7  A    between atoms: OAS_10  and  CG1_11 
REMARK    8  A    between atoms: CG1_11  and  CB_12 
REMARK    9  A    between atoms: CB_12  and  CG2_13 
REMARK   10  A    between atoms: CB_12  and  SAX_14 
REMARK   11  A    between atoms: CB_12  and  CA_17 
REMARK   12  A    between atoms: CA_17  and  C_18 
REMARK   13  A    between atoms: CA_17  and  N_21 
REMARK   14  A    between atoms: N_21  and  CAL_22 
REMARK   15  A    between atoms: CAL_22  and  CAK_23 
REMARK   16  A    between atoms: CAK_23  and  CAJ_24 
ROOT
ATOM      1  CB  2AW d   1       7.313  38.169   1.924  0.00  0.00     0.120 C 
ENDROOT
BRANCH   1   2
ATOM      2  CG1 2AW d   1       8.494  37.714   1.043  0.00  0.00     0.051 C 
ATOM      3  H9  2AW d   1       8.452  38.247   0.082  0.00  0.00     0.078 H 
ATOM      4  H10 2AW d   1       9.438  37.954   1.554  0.00  0.00     0.078 H 
BRANCH   2   5
ATOM      5  OAS 2AW d   1       8.439  36.300   0.799  0.00  0.00    -0.320 OA
BRANCH   5   6
ATOM      6  CAV 2AW d   1       9.379  35.751  -0.031  0.00  0.00     0.258 C 
ATOM      7  OAE 2AW d   1      10.176  36.371  -0.736  0.00  0.00    -0.265 OA
BRANCH   6   8
ATOM      8  CAP 2AW d   1       9.391  34.223  -0.023  0.00  0.00     0.016 C 
ATOM      9  H7  2AW d   1       8.438  33.861   0.390  0.00  0.00     0.048 H 
ATOM     10  H8  2AW d   1       9.504  33.862  -1.056  0.00  0.00     0.048 H 
BRANCH   8  11
ATOM     11  CAN 2AW d   1      10.544  33.670   0.827  0.00  0.00    -0.056 C 
ATOM     12  H5  2AW d   1      10.612  32.582   0.677  0.00  0.00     0.033 H 
ATOM     13  H6  2AW d   1      11.485  34.144   0.510  0.00  0.00     0.033 H 
BRANCH  11  14
ATOM     14  CAM 2AW d   1      10.313  33.959   2.317  0.00  0.00    -0.056 C 
ATOM     15  H3  2AW d   1      10.320  35.047   2.477  0.00  0.00     0.033 H 
ATOM     16  H4  2AW d   1       9.336  33.551   2.615  0.00  0.00     0.033 H 
BRANCH  14  17
ATOM     17  CAO 2AW d   1      11.415  33.314   3.186  0.00  0.00     0.016 C 
ATOM     18  H1  2AW d   1      11.187  33.519   4.242  0.00  0.00     0.049 H 
ATOM     19  H2  2AW d   1      11.402  32.228   3.012  0.00  0.00     0.049 H 
BRANCH  17  20
ATOM     20  CAT 2AW d   1      12.837  33.838   2.885  0.00  0.00     0.172 C 
ATOM     21  OAC 2AW d   1      13.768  33.055   3.129  0.00  0.00    -0.648 OA
ATOM     22  OAH 2AW d   1      12.996  35.007   2.462  0.00  0.00    -0.648 OA
ENDBRANCH  17  20
ENDBRANCH  14  17
ENDBRANCH  11  14
ENDBRANCH   8  11
ENDBRANCH   6   8
ENDBRANCH   5   6
ENDBRANCH   2   5
ENDBRANCH   1   2
BRANCH   1  23
ATOM     23  CG2 2AW d   1       6.009  38.127   1.118  0.00  0.00    -0.052 C 
ATOM     24  H11 2AW d   1       5.174  38.453   1.755  0.00  0.00     0.029 H 
ATOM     25  H12 2AW d   1       5.826  37.100   0.770  0.00  0.00     0.029 H 
ATOM     26  H13 2AW d   1       6.092  38.798   0.251  0.00  0.00     0.029 H 
ENDBRANCH   1  23
BRANCH   1  27
ATOM     27  SAX 2AW d   1       7.615  40.012   2.452  0.00  0.00     0.150 S 
ATOM     28  OAF 2AW d   1       8.179  40.700   1.217  0.00  0.00    -0.230 OA
ATOM     29  OAG 2AW d   1       8.701  40.045   3.527  0.00  0.00    -0.230 OA
ATOM     30  H14 2AW d   1       6.767  40.451   2.775  0.00  0.00     0.172 HD
ENDBRANCH   1  27
BRANCH   1  31
ATOM     31  CA  2AW d   1       7.196  37.280   3.184  0.00  0.00     0.236 C 
ATOM     32  H15 2AW d   1       7.011  36.240   2.878  0.00  0.00     0.108 H 
BRANCH  31  33
ATOM     33  C   2AW d   1       6.041  37.764   4.076  0.00  0.00     0.209 C 
ATOM     34  OXT 2AW d   1       6.253  38.750   4.827  0.00  0.00    -0.646 OA
ATOM     35  O   2AW d   1       4.964  37.138   4.000  0.00  0.00    -0.646 OA
ENDBRANCH  31  33
BRANCH  31  36
ATOM     36  N   2AW d   1       8.447  37.352   3.957  0.00  0.00     0.100 N 
ATOM     37  H16 2AW d   1       8.384  38.242   4.566  0.00  0.00     0.317 HD
BRANCH  36  38
ATOM     38  CAL 2AW d   1       8.795  36.361   4.767  0.00  0.00     0.118 C 
ATOM     39  H17 2AW d   1       8.816  36.772   5.787  0.00  0.00     0.080 H 
ATOM     40  H18 2AW d   1       9.809  36.050   4.476  0.00  0.00     0.080 H 
BRANCH  38  41
ATOM     41  CAK 2AW d   1       7.953  35.123   4.811  0.00  0.00     0.008 C 
ATOM     42  H19 2AW d   1       7.886  34.706   3.795  0.00  0.00     0.045 H 
ATOM     43  H20 2AW d   1       6.947  35.394   5.163  0.00  0.00     0.045 H 
BRANCH  41  44
ATOM     44  CAJ 2AW d   1       8.519  34.063   5.733  0.00  0.00     0.089 C 
ATOM     45  OAB 2AW d   1       9.524  34.201   6.419  0.00  0.00    -0.307 OA
ATOM     46  H21 2AW d   1       7.995  33.110   5.790  0.00  0.00     0.143 H 
ENDBRANCH  41  44
ENDBRANCH  38  41
ENDBRANCH  36  38
ENDBRANCH  31  36
ENDBRANCH   1  31
TORSDOF 16
