REMARK  7 active torsions:
REMARK  status: ('A' for Active; 'I' for Inactive)
REMARK    1  A    between atoms: N1_1  and  C2_10 
REMARK    2  A    between atoms: N1_1  and  C1_11 
REMARK    3  A    between atoms: C3_12  and  N1_1 
REMARK    4  A    between atoms: C4_3  and  C3_12 
REMARK    5  A    between atoms: N2_13  and  C4_3 
REMARK    6  A    between atoms: C5_4  and  N2_13 
REMARK    7  A    between atoms: C9_15  and  C10_8 
ROOT
ATOM      1  N3  26K d   1      23.660  38.004  -0.354  0.00  0.00    -0.249 N 
ATOM      2  C5  26K d   1      22.902  36.794  -2.699  0.00  0.00     0.127 A 
ATOM      3  C6  26K d   1      23.355  38.133  -2.670  0.00  0.00    -0.022 A 
ATOM      4  C7  26K d   1      23.750  38.725  -1.476  0.00  0.00     0.007 A 
ATOM      5  C8  26K d   1      23.212  36.737  -0.388  0.00  0.00     0.163 A 
ATOM      6  C13 26K d   1      23.761  37.350   1.753  0.00  0.00     0.009 A 
ATOM      7  N7  26K d   1      22.843  36.090  -1.530  0.00  0.00    -0.211 NA
ATOM      8  C9  26K d   1      23.276  36.322   0.939  0.00  0.00     0.042 A 
ATOM      9  N6  26K d   1      24.020  38.439   0.936  0.00  0.00    -0.303 N 
ATOM     10  H4  26K d   1      23.395  38.705  -3.590  0.00  0.00     0.091 H 
ATOM     11  H5  26K d   1      24.121  39.743  -1.455  0.00  0.00     0.115 H 
ATOM     12  H6  26K d   1      23.908  37.303   2.831  0.00  0.00     0.115 H 
ATOM     13  H19 26K d   1      24.392  39.359   1.210  0.00  0.00     0.186 HD
ENDROOT
BRANCH   2  14
ATOM     14  N2  26K d   1      22.552  36.228  -3.889  0.00  0.00    -0.373 N 
ATOM     15  H15 26K d   1      22.501  36.842  -4.715  0.00  0.00     0.161 HD
BRANCH  14  16
ATOM     16  C4  26K d   1      22.244  34.811  -4.075  0.00  0.00     0.017 C 
ATOM     17  H2  26K d   1      21.545  34.485  -3.291  0.00  0.00     0.066 H 
ATOM     18  H3  26K d   1      21.781  34.667  -5.062  0.00  0.00     0.066 H 
BRANCH  16  19
ATOM     19  C3  26K d   1      23.529  33.972  -3.990  0.00  0.00     0.097 C 
ATOM     20  H13 26K d   1      24.397  34.640  -4.096  0.00  0.00     0.078 H 
ATOM     21  H14 26K d   1      23.565  33.476  -3.009  0.00  0.00     0.078 H 
BRANCH  19  22
ATOM     22  N1  26K d   1      23.587  32.963  -5.026  0.00  0.00    -0.077 N 
ATOM     23  H1  26K d   1      24.380  33.151  -5.619  0.00  0.00     0.279 HD
BRANCH  22  24
ATOM     24  C2  26K d   1      23.734  31.632  -4.447  0.00  0.00     0.066 C 
ATOM     25  H7  26K d   1      23.776  30.884  -5.253  0.00  0.00     0.068 H 
ATOM     26  H8  26K d   1      22.875  31.419  -3.793  0.00  0.00     0.068 H 
ATOM     27  H9  26K d   1      24.662  31.589  -3.858  0.00  0.00     0.068 H 
ENDBRANCH  22  24
BRANCH  22  28
ATOM     28  C1  26K d   1      22.374  33.007  -5.824  0.00  0.00     0.066 C 
ATOM     29  H10 26K d   1      22.260  34.009  -6.262  0.00  0.00     0.068 H 
ATOM     30  H11 26K d   1      21.506  32.785  -5.185  0.00  0.00     0.068 H 
ATOM     31  H12 26K d   1      22.437  32.260  -6.629  0.00  0.00     0.068 H 
ENDBRANCH  22  28
ENDBRANCH  19  22
ENDBRANCH  16  19
ENDBRANCH  14  16
ENDBRANCH   2  14
BRANCH   8  32
ATOM     32  C10 26K d   1      22.917  35.048   1.424  0.00  0.00     0.015 A 
ATOM     33  C12 26K d   1      22.443  33.993   0.643  0.00  0.00     0.008 A 
ATOM     34  N5  26K d   1      22.206  32.966   1.488  0.00  0.00    -0.289 N 
ATOM     35  H16 26K d   1      22.294  33.997  -0.436  0.00  0.00     0.115 H 
ATOM     36  N4  26K d   1      22.543  33.405   2.773  0.00  0.00    -0.187 NA
ATOM     37  H17 26K d   1      21.845  32.035   1.234  0.00  0.00     0.188 HD
ATOM     38  C11 26K d   1      22.990  34.694   2.767  0.00  0.00     0.034 A 
ATOM     39  H18 26K d   1      23.323  35.299   3.609  0.00  0.00     0.118 H 
ENDBRANCH   8  32
TORSDOF 7
