REMARK  7 active torsions:
REMARK  status: ('A' for Active; 'I' for Inactive)
REMARK    1  A    between atoms: C5_5  and  N10_10 
REMARK       I    between atoms: N10_10  and  C11_11 
REMARK    2  A    between atoms: C11_11  and  C12_12 
REMARK    3  A    between atoms: C15_15  and  N21_21 
REMARK    4  A    between atoms: N21_21  and  S22_22 
REMARK    5  A    between atoms: S22_22  and  C23_23 
REMARK    6  A    between atoms: C23_23  and  C24_24 
REMARK    7  A    between atoms: C24_24  and  C25_25 
ROOT
ATOM      1  C12 DFS d   1      12.104 -27.019  -2.595  0.00  0.00     0.111 A 
ATOM      2  C14 DFS d   1      12.562 -28.023  -3.366  0.00  0.00     0.162 A 
ATOM      3  C15 DFS d   1      11.617 -28.885  -4.074  0.00  0.00     0.082 A 
ATOM      4  C16 DFS d   1      10.306 -28.695  -3.964  0.00  0.00    -0.051 A 
ATOM      5  C17 DFS d   1       9.851 -27.688  -3.173  0.00  0.00    -0.042 A 
ATOM      6  C18 DFS d   1      10.774 -26.828  -2.483  0.00  0.00     0.135 A 
ATOM      7  F19 DFS d   1      10.316 -25.805  -1.709  0.00  0.00    -0.205 F 
ATOM      8  F20 DFS d   1      13.887 -28.212  -3.472  0.00  0.00    -0.203 F 
ATOM      9  H6  DFS d   1       9.611 -29.333  -4.497  0.00  0.00     0.087 H 
ATOM     10  H7  DFS d   1       8.784 -27.532  -3.061  0.00  0.00     0.088 H 
ENDROOT
BRANCH   1  11
ATOM     11  C11 DFS d   1      13.051 -26.088  -1.888  0.00  0.00     0.262 C 
ATOM     12  N10 DFS d   1      14.323 -26.504  -1.780  0.00  0.00    -0.321 N 
ATOM     13  H5  DFS d   1      14.530 -27.410  -2.149  0.00  0.00     0.169 HD
ATOM     14  O13 DFS d   1      12.651 -24.996  -1.487  0.00  0.00    -0.267 OA
BRANCH  12  15
ATOM     15  C5  DFS d   1      15.406 -25.791  -1.196  0.00  0.00     0.054 A 
ATOM     16  C4  DFS d   1      16.660 -26.332  -1.040  0.00  0.00     0.030 A 
ATOM     17  N3  DFS d   1      17.727 -25.684  -0.487  0.00  0.00    -0.237 NA
ATOM     18  H1  DFS d   1      16.813 -27.349  -1.382  0.00  0.00     0.118 H 
ATOM     19  C2  DFS d   1      17.456 -24.417  -0.089  0.00  0.00     0.177 A 
ATOM     20  C1  DFS d   1      16.259 -23.799  -0.198  0.00  0.00     0.083 A 
ATOM     21  N9  DFS d   1      18.298 -23.479   0.505  0.00  0.00    -0.222 NA
ATOM     22  C6  DFS d   1      15.200 -24.481  -0.761  0.00  0.00    -0.026 A 
ATOM     23  N7  DFS d   1      16.265 -22.500   0.291  0.00  0.00    -0.348 N 
ATOM     24  H2  DFS d   1      14.229 -24.010  -0.863  0.00  0.00     0.090 H 
ATOM     25  C8  DFS d   1      17.531 -22.389   0.694  0.00  0.00     0.067 A 
ATOM     26  H3  DFS d   1      15.501 -21.811   0.331  0.00  0.00     0.167 HD
ATOM     27  H4  DFS d   1      17.919 -21.477   1.146  0.00  0.00     0.143 H 
ENDBRANCH  12  15
ENDBRANCH   1  11
BRANCH   3  28
ATOM     28  N21 DFS d   1      11.914 -29.785  -4.804  0.00  0.00    -0.281 N 
ATOM     29  H8  DFS d   1      12.891 -29.963  -4.918  0.00  0.00     0.178 HD
BRANCH  28  30
ATOM     30  S22 DFS d   1      10.845 -30.802  -5.676  0.00  0.00     0.231 S 
ATOM     31  O26 DFS d   1       9.963 -29.971  -6.526  0.00  0.00    -0.206 OA
ATOM     32  O27 DFS d   1      11.618 -31.881  -6.322  0.00  0.00    -0.206 OA
BRANCH  30  33
ATOM     33  C23 DFS d   1       9.816 -31.527  -4.350  0.00  0.00     0.046 C 
ATOM     34  H9  DFS d   1       9.704 -30.793  -3.538  0.00  0.00     0.058 H 
ATOM     35  H10 DFS d   1      10.311 -32.429  -3.962  0.00  0.00     0.058 H 
BRANCH  33  36
ATOM     36  C24 DFS d   1       8.426 -31.905  -4.880  0.00  0.00    -0.055 C 
ATOM     37  H11 DFS d   1       7.966 -32.620  -4.182  0.00  0.00     0.033 H 
ATOM     38  H12 DFS d   1       8.542 -32.379  -5.866  0.00  0.00     0.033 H 
BRANCH  36  39
ATOM     39  C25 DFS d   1       7.494 -30.689  -5.025  0.00  0.00    -0.076 C 
ATOM     40  H13 DFS d   1       6.517 -31.020  -5.407  0.00  0.00     0.027 H 
ATOM     41  H14 DFS d   1       7.938 -29.969  -5.728  0.00  0.00     0.027 H 
ATOM     42  H15 DFS d   1       7.361 -30.210  -4.044  0.00  0.00     0.027 H 
ENDBRANCH  36  39
ENDBRANCH  33  36
ENDBRANCH  30  33
ENDBRANCH  28  30
ENDBRANCH   3  28
TORSDOF 7
