REMARK  4 active torsions:
REMARK  status: ('A' for Active; 'I' for Inactive)
REMARK    1  A    between atoms: N1_1  and  C1_2 
REMARK    2  A    between atoms: C6_3  and  N2_8 
REMARK    3  A    between atoms: N2_8  and  C7_9 
REMARK    4  A    between atoms: C9_17  and  C10_18 
ROOT
ATOM      1  C7  26L d   1      38.350   3.096   2.632  0.00  0.00     0.127 A 
ATOM      2  C22 26L d   1      37.069   3.411   2.205  0.00  0.00    -0.022 A 
ATOM      3  C21 26L d   1      36.792   3.467   0.867  0.00  0.00     0.010 A 
ATOM      4  N5  26L d   1      37.863   3.287   0.007  0.00  0.00    -0.226 N 
ATOM      5  C8  26L d   1      39.127   3.030   0.510  0.00  0.00     0.165 A 
ATOM      6  N3  26L d   1      39.369   2.917   1.811  0.00  0.00    -0.211 NA
ATOM      7  N4  26L d   1      37.841   3.402  -1.340  0.00  0.00    -0.178 NA
ATOM      8  C20 26L d   1      39.127   3.109  -1.728  0.00  0.00     0.037 A 
ATOM      9  C9  26L d   1      39.988   2.929  -0.629  0.00  0.00     0.041 A 
ATOM     10  H15 26L d   1      36.285   3.613   2.933  0.00  0.00     0.091 H 
ATOM     11  H16 26L d   1      35.783   3.644   0.497  0.00  0.00     0.115 H 
ATOM     12  H17 26L d   1      39.443   3.026  -2.767  0.00  0.00     0.118 H 
ENDROOT
BRANCH   1  13
ATOM     13  N2  26L d   1      38.605   2.947   3.974  0.00  0.00    -0.368 N 
ATOM     14  H14 26L d   1      37.844   2.833   4.659  0.00  0.00     0.161 HD
BRANCH  13  15
ATOM     15  C6  26L d   1      39.993   2.958   4.378  0.00  0.00     0.038 C 
ATOM     16  C1  26L d   1      40.372   4.127   5.287  0.00  0.00     0.119 C 
ATOM     17  C2  26L d   1      41.888   4.247   5.373  0.00  0.00    -0.037 C 
ATOM     18  H4  26L d   1      39.993   3.903   6.295  0.00  0.00     0.087 H 
ATOM     19  C3  26L d   1      42.542   2.936   5.848  0.00  0.00    -0.063 C 
ATOM     20  H12 26L d   1      42.142   5.048   6.083  0.00  0.00     0.036 H 
ATOM     21  H13 26L d   1      42.282   4.500   4.378  0.00  0.00     0.036 H 
ATOM     22  C4  26L d   1      42.052   1.697   5.056  0.00  0.00    -0.063 C 
ATOM     23  H10 26L d   1      43.632   3.023   5.725  0.00  0.00     0.033 H 
ATOM     24  H11 26L d   1      42.303   2.790   6.912  0.00  0.00     0.033 H 
ATOM     25  C5  26L d   1      40.525   1.645   4.947  0.00  0.00    -0.044 C 
ATOM     26  H8  26L d   1      42.478   1.734   4.043  0.00  0.00     0.033 H 
ATOM     27  H9  26L d   1      42.401   0.788   5.568  0.00  0.00     0.033 H 
ATOM     28  H6  26L d   1      40.236   0.817   4.283  0.00  0.00     0.036 H 
ATOM     29  H7  26L d   1      40.095   1.481   5.946  0.00  0.00     0.036 H 
ATOM     30  H5  26L d   1      40.552   3.117   3.444  0.00  0.00     0.075 H 
BRANCH  16  31
ATOM     31  N1  26L d   1      39.757   5.391   4.856  0.00  0.00    -0.073 N 
ATOM     32  H1  26L d   1      40.034   6.130   5.483  0.00  0.00     0.274 HD
ATOM     33  H2  26L d   1      38.753   5.298   4.869  0.00  0.00     0.274 HD
ATOM     34  H3  26L d   1      40.062   5.611   3.921  0.00  0.00     0.274 HD
ENDBRANCH  16  31
ENDBRANCH  13  15
ENDBRANCH   1  13
BRANCH   9  35
ATOM     35  C10 26L d   1      41.448   2.618  -0.665  0.00  0.00    -0.020 A 
ATOM     36  C19 26L d   1      42.134   2.581  -1.883  0.00  0.00    -0.071 A 
ATOM     37  C18 26L d   1      43.462   2.262  -1.936  0.00  0.00    -0.071 A 
ATOM     38  H18 26L d   1      41.604   2.809  -2.800  0.00  0.00     0.084 H 
ATOM     39  C17 26L d   1      44.196   1.989  -0.752  0.00  0.00    -0.026 A 
ATOM     40  H19 26L d   1      43.962   2.217  -2.897  0.00  0.00     0.084 H 
ATOM     41  C12 26L d   1      43.513   2.034   0.492  0.00  0.00    -0.025 A 
ATOM     42  C16 26L d   1      45.599   1.754  -0.748  0.00  0.00    -0.072 A 
ATOM     43  C11 26L d   1      42.132   2.359   0.504  0.00  0.00    -0.061 A 
ATOM     44  C13 26L d   1      44.241   1.758   1.678  0.00  0.00    -0.072 A 
ATOM     45  H20 26L d   1      41.605   2.405   1.450  0.00  0.00     0.086 H 
ATOM     46  C14 26L d   1      45.591   1.521   1.632  0.00  0.00    -0.082 A 
ATOM     47  H24 26L d   1      43.725   1.734   2.631  0.00  0.00     0.084 H 
ATOM     48  C15 26L d   1      46.262   1.501   0.423  0.00  0.00    -0.082 A 
ATOM     49  H23 26L d   1      46.137   1.348   2.552  0.00  0.00     0.083 H 
ATOM     50  H22 26L d   1      47.324   1.283   0.402  0.00  0.00     0.083 H 
ATOM     51  H21 26L d   1      46.149   1.775  -1.682  0.00  0.00     0.084 H 
ENDBRANCH   9  35
TORSDOF 4
