REMARK  24 active torsions:
REMARK  status: ('A' for Active; 'I' for Inactive)
REMARK    1  A    between atoms: O4_20  and  C1_1 
REMARK    2  A    between atoms: C2_2  and  O2_7 
REMARK    3  A    between atoms: C3_3  and  O3_8 
REMARK    4  A    between atoms: C4_4  and  O4_9 
REMARK    5  A    between atoms: C5_5  and  C6_6 
REMARK    6  A    between atoms: C6_6  and  O6_11 
REMARK    7  A    between atoms: O4_31  and  C1_12 
REMARK    8  A    between atoms: C2_13  and  O2_18 
REMARK    9  A    between atoms: C3_14  and  O3_19 
REMARK   10  A    between atoms: C4_15  and  O4_20 
REMARK   11  A    between atoms: C5_16  and  C6_17 
REMARK   12  A    between atoms: C6_17  and  O6_22 
REMARK   13  A    between atoms: O4_43  and  C1_23 
REMARK   14  A    between atoms: C2_24  and  O2_29 
REMARK   15  A    between atoms: C3_25  and  O3_30 
REMARK   16  A    between atoms: C4_26  and  O4_31 
REMARK   17  A    between atoms: C5_27  and  C6_28 
REMARK   18  A    between atoms: C6_28  and  O6_33 
REMARK   19  A    between atoms: C1_34  and  O1_40 
REMARK   20  A    between atoms: C2_35  and  O2_41 
REMARK   21  A    between atoms: C3_36  and  O3_42 
REMARK   22  A    between atoms: C4_37  and  O4_43 
REMARK   23  A    between atoms: C5_38  and  C6_39 
REMARK   24  A    between atoms: C6_39  and  O6_45 
ROOT
ATOM      1  O4  MOL d   1      11.311  19.591  42.564  0.00  0.00    -0.348 OA
ENDROOT
BRANCH   1   2
ATOM      2  C1  MOL d   1      11.786  20.651  43.441  0.00  0.00     0.159 C 
ATOM      3  C2  MOL d   1      10.624  21.449  43.868  0.00  0.00     0.110 C 
ATOM      4  C3  MOL d   1       9.991  22.152  42.602  0.00  0.00     0.092 C 
ATOM      5  H13 MOL d   1      10.925  22.217  44.595  0.00  0.00     0.094 H 
ATOM      6  C4  MOL d   1      11.029  22.939  41.742  0.00  0.00     0.096 C 
ATOM      7  H14 MOL d   1       9.525  21.373  41.981  0.00  0.00     0.091 H 
ATOM      8  C5  MOL d   1      12.273  22.129  41.509  0.00  0.00     0.089 C 
ATOM      9  H15 MOL d   1      11.287  23.887  42.237  0.00  0.00     0.091 H 
ATOM     10  O5  MOL d   1      12.672  21.435  42.735  0.00  0.00    -0.348 OA
ATOM     11  H16 MOL d   1      12.051  21.386  40.729  0.00  0.00     0.090 H 
ATOM     12  H12 MOL d   1      12.288  20.221  44.321  0.00  0.00     0.133 H 
BRANCH   3  13
ATOM     13  O2  MOL d   1       9.719  20.499  44.497  0.00  0.00    -0.388 OA
ATOM     14  H19 MOL d   1      10.146  20.107  45.249  0.00  0.00     0.210 HD
ENDBRANCH   3  13
BRANCH   4  15
ATOM     15  O3  MOL d   1       8.976  23.147  42.985  0.00  0.00    -0.390 OA
ATOM     16  H20 MOL d   1       8.579  23.510  42.202  0.00  0.00     0.210 HD
ENDBRANCH   4  15
BRANCH   6  17
ATOM     17  O4  MOL d   1      10.408  23.184  40.448  0.00  0.00    -0.348 OA
BRANCH  17  18
ATOM     18  C1  MOL d   1       9.769  24.475  40.234  0.00  0.00     0.159 C 
ATOM     19  C2  MOL d   1       8.851  24.351  38.985  0.00  0.00     0.110 C 
ATOM     20  C3  MOL d   1       9.621  24.081  37.754  0.00  0.00     0.092 C 
ATOM     21  H2  MOL d   1       8.259  25.271  38.873  0.00  0.00     0.094 H 
ATOM     22  C4  MOL d   1      10.601  25.284  37.569  0.00  0.00     0.090 C 
ATOM     23  H3  MOL d   1      10.228  23.176  37.906  0.00  0.00     0.091 H 
ATOM     24  C5  MOL d   1      11.442  25.659  38.762  0.00  0.00     0.089 C 
ATOM     25  H4  MOL d   1      10.045  26.161  37.205  0.00  0.00     0.091 H 
ATOM     26  O5  MOL d   1      10.728  25.523  40.092  0.00  0.00    -0.348 OA
ATOM     27  H5  MOL d   1      12.346  25.032  38.781  0.00  0.00     0.090 H 
ATOM     28  H1  MOL d   1       9.143  24.707  41.108  0.00  0.00     0.133 H 
BRANCH  19  29
ATOM     29  O2  MOL d   1       8.018  23.233  39.127  0.00  0.00    -0.388 OA
ATOM     30  H8  MOL d   1       7.485  23.334  39.907  0.00  0.00     0.210 HD
ENDBRANCH  19  29
BRANCH  20  31
ATOM     31  O3  MOL d   1       8.726  23.807  36.647  0.00  0.00    -0.390 OA
ATOM     32  H9  MOL d   1       8.177  23.062  36.862  0.00  0.00     0.210 HD
ENDBRANCH  20  31
BRANCH  22  33
ATOM     33  O4  MOL d   1      11.600  24.826  36.622  0.00  0.00    -0.390 OA
ATOM     34  H10 MOL d   1      11.172  24.559  35.817  0.00  0.00     0.210 HD
ENDBRANCH  22  33
BRANCH  24  35
ATOM     35  C6  MOL d   1      11.809  27.102  38.563  0.00  0.00     0.043 C 
ATOM     36  H6  MOL d   1      10.902  27.713  38.439  0.00  0.00     0.078 H 
ATOM     37  H7  MOL d   1      12.451  27.214  37.677  0.00  0.00     0.078 H 
BRANCH  35  38
ATOM     38  O6  MOL d   1      12.508  27.494  39.727  0.00  0.00    -0.398 OA
ATOM     39  H11 MOL d   1      11.945  27.385  40.485  0.00  0.00     0.209 HD
ENDBRANCH  35  38
ENDBRANCH  24  35
ENDBRANCH  17  18
ENDBRANCH   6  17
BRANCH   8  40
ATOM     40  C6  MOL d   1      13.503  22.982  41.050  0.00  0.00     0.043 C 
ATOM     41  H17 MOL d   1      13.969  23.504  41.899  0.00  0.00     0.078 H 
ATOM     42  H18 MOL d   1      13.218  23.715  40.281  0.00  0.00     0.078 H 
BRANCH  40  43
ATOM     43  O6  MOL d   1      14.356  21.991  40.525  0.00  0.00    -0.398 OA
ATOM     44  H21 MOL d   1      13.919  21.546  39.808  0.00  0.00     0.209 HD
ENDBRANCH  40  43
ENDBRANCH   8  40
ENDBRANCH   1   2
BRANCH   1  45
ATOM     45  C4  MOL d   1      11.876  18.289  42.780  0.00  0.00     0.096 C 
ATOM     46  C3  MOL d   1      10.717  17.369  43.204  0.00  0.00     0.092 C 
ATOM     47  C2  MOL d   1      11.223  15.968  43.380  0.00  0.00     0.110 C 
ATOM     48  H24 MOL d   1       9.939  17.370  42.426  0.00  0.00     0.091 H 
ATOM     49  C1  MOL d   1      11.827  15.502  41.973  0.00  0.00     0.159 C 
ATOM     50  H23 MOL d   1      11.973  15.925  44.184  0.00  0.00     0.094 H 
ATOM     51  O5  MOL d   1      12.838  16.419  41.581  0.00  0.00    -0.348 OA
ATOM     52  H22 MOL d   1      12.228  14.479  42.015  0.00  0.00     0.133 H 
ATOM     53  C5  MOL d   1      12.532  17.774  41.479  0.00  0.00     0.089 C 
ATOM     54  H26 MOL d   1      11.858  17.959  40.630  0.00  0.00     0.090 H 
ATOM     55  H25 MOL d   1      12.633  18.332  43.577  0.00  0.00     0.091 H 
BRANCH  46  56
ATOM     56  O3  MOL d   1      10.118  17.947  44.534  0.00  0.00    -0.390 OA
ATOM     57  H30 MOL d   1      10.792  17.962  45.203  0.00  0.00     0.210 HD
ENDBRANCH  46  56
BRANCH  47  58
ATOM     58  O2  MOL d   1      10.128  15.044  43.634  0.00  0.00    -0.388 OA
ATOM     59  H29 MOL d   1       9.525  15.060  42.900  0.00  0.00     0.210 HD
ENDBRANCH  47  58
BRANCH  49  60
ATOM     60  O4  MOL d   1      10.712  15.595  41.097  0.00  0.00    -0.348 OA
BRANCH  60  61
ATOM     61  C4  MOL d   1      10.512  14.493  40.208  0.00  0.00     0.096 C 
ATOM     62  C3  MOL d   1       9.429  13.537  40.598  0.00  0.00     0.092 C 
ATOM     63  C2  MOL d   1       9.227  12.460  39.613  0.00  0.00     0.110 C 
ATOM     64  H34 MOL d   1       8.479  14.082  40.703  0.00  0.00     0.091 H 
ATOM     65  C1  MOL d   1       9.023  13.036  38.045  0.00  0.00     0.156 C 
ATOM     66  H33 MOL d   1      10.084  11.772  39.663  0.00  0.00     0.094 H 
ATOM     67  O5  MOL d   1      10.018  14.026  37.923  0.00  0.00    -0.349 OA
ATOM     68  H32 MOL d   1       9.005  12.249  37.277  0.00  0.00     0.133 H 
ATOM     69  C5  MOL d   1      10.264  15.124  38.732  0.00  0.00     0.089 C 
ATOM     70  H36 MOL d   1       9.407  15.813  38.734  0.00  0.00     0.090 H 
ATOM     71  H35 MOL d   1      11.447  13.914  40.183  0.00  0.00     0.091 H 
BRANCH  62  72
ATOM     72  O3  MOL d   1       9.862  13.009  41.946  0.00  0.00    -0.390 OA
ATOM     73  H41 MOL d   1       9.937  13.731  42.559  0.00  0.00     0.210 HD
ENDBRANCH  62  72
BRANCH  63  74
ATOM     74  O2  MOL d   1       8.016  11.769  39.834  0.00  0.00    -0.388 OA
ATOM     75  H40 MOL d   1       8.027  11.383  40.702  0.00  0.00     0.210 HD
ENDBRANCH  63  74
BRANCH  65  76
ATOM     76  O1  MOL d   1       7.907  13.967  38.022  0.00  0.00    -0.369 OA
ATOM     77  H39 MOL d   1       7.917  14.451  37.205  0.00  0.00     0.212 HD
ENDBRANCH  65  76
BRANCH  69  78
ATOM     78  C6  MOL d   1      11.561  15.878  38.251  0.00  0.00     0.043 C 
ATOM     79  H37 MOL d   1      12.393  15.181  38.070  0.00  0.00     0.078 H 
ATOM     80  H38 MOL d   1      11.876  16.646  38.973  0.00  0.00     0.078 H 
BRANCH  78  81
ATOM     81  O6  MOL d   1      11.091  16.451  37.052  0.00  0.00    -0.398 OA
ATOM     82  H42 MOL d   1      10.360  17.027  37.243  0.00  0.00     0.209 HD
ENDBRANCH  78  81
ENDBRANCH  69  78
ENDBRANCH  60  61
ENDBRANCH  49  60
BRANCH  53  83
ATOM     83  C6  MOL d   1      13.896  18.454  41.253  0.00  0.00     0.043 C 
ATOM     84  H27 MOL d   1      14.650  18.080  41.962  0.00  0.00     0.078 H 
ATOM     85  H28 MOL d   1      13.816  19.547  41.345  0.00  0.00     0.078 H 
BRANCH  83  86
ATOM     86  O6  MOL d   1      14.238  18.036  39.796  0.00  0.00    -0.398 OA
ATOM     87  H31 MOL d   1      13.563  18.356  39.209  0.00  0.00     0.209 HD
ENDBRANCH  83  86
ENDBRANCH  53  83
ENDBRANCH   1  45
TORSDOF 24
