REMARK  7 active torsions:
REMARK  status: ('A' for Active; 'I' for Inactive)
REMARK    1  A    between atoms: C17_16  and  C19_9 
REMARK    2  A    between atoms: C3_10  and  C15_17 
REMARK    3  A    between atoms: C7_18  and  C6_11 
REMARK    4  A    between atoms: C9_19  and  C10_13 
REMARK       I    between atoms: N16_24  and  C17_16 
REMARK    5  A    between atoms: C15_17  and  N16_24 
REMARK    6  A    between atoms: N8_25  and  C7_18 
REMARK    7  A    between atoms: C9_19  and  N8_25 
ROOT
ATOM      1  C2  21W d   1      25.193  44.249  -2.568  0.00  0.00    -0.075 A 
ATOM      2  C4  21W d   1      23.675  42.888  -3.821  0.00  0.00    -0.075 A 
ATOM      3  C1  21W d   1      26.258  43.530  -3.080  0.00  0.00    -0.075 A 
ATOM      4  C5  21W d   1      24.743  42.155  -4.316  0.00  0.00    -0.075 A 
ATOM      5  C3  21W d   1      23.897  43.938  -2.951  0.00  0.00    -0.041 A 
ATOM      6  C6  21W d   1      26.037  42.483  -3.964  0.00  0.00    -0.033 A 
ATOM      7  H1  21W d   1      25.372  45.056  -1.867  0.00  0.00     0.084 H 
ATOM      8  H2  21W d   1      22.663  42.636  -4.117  0.00  0.00     0.084 H 
ATOM      9  H3  21W d   1      27.270  43.786  -2.789  0.00  0.00     0.084 H 
ATOM     10  H4  21W d   1      24.561  41.320  -4.983  0.00  0.00     0.084 H 
ENDROOT
BRANCH   5  11
ATOM     11  C15 21W d   1      22.740  44.702  -2.396  0.00  0.00     0.019 C 
ATOM     12  H9  21W d   1      22.213  45.203  -3.221  0.00  0.00     0.071 H 
ATOM     13  H10 21W d   1      23.115  45.456  -1.689  0.00  0.00     0.071 H 
BRANCH  11  14
ATOM     14  N16 21W d   1      21.812  43.828  -1.705  0.00  0.00    -0.353 N 
ATOM     15  C17 21W d   1      21.672  43.888  -0.351  0.00  0.00     0.253 C 
ATOM     16  O18 21W d   1      22.196  44.771   0.322  0.00  0.00    -0.268 OA
ATOM     17  H17 21W d   1      21.268  43.173  -2.229  0.00  0.00     0.163 HD
BRANCH  15  18
ATOM     18  C19 21W d   1      20.886  42.843   0.289  0.00  0.00     0.057 A 
ATOM     19  C20 21W d   1      20.732  42.949   1.653  0.00  0.00    -0.026 A 
ATOM     20  S21 21W d   1      19.825  41.698   2.382  0.00  0.00    -0.080 SA
ATOM     21  H7  21W d   1      21.158  43.771   2.226  0.00  0.00     0.096 H 
ATOM     22  C22 21W d   1      19.581  40.984   0.831  0.00  0.00     0.115 A 
ATOM     23  C23 21W d   1      20.211  41.675  -0.193  0.00  0.00     0.084 A 
ATOM     24  N28 21W d   1      18.863  39.837   0.739  0.00  0.00    -0.236 NA
ATOM     25  C24 21W d   1      20.081  41.126  -1.536  0.00  0.00     0.260 A 
ATOM     26  N26 21W d   1      19.354  39.954  -1.569  0.00  0.00    -0.317 N 
ATOM     27  O25 21W d   1      20.566  41.614  -2.549  0.00  0.00    -0.267 OA
ATOM     28  C27 21W d   1      18.775  39.357  -0.463  0.00  0.00     0.068 A 
ATOM     29  H16 21W d   1      19.237  39.504  -2.454  0.00  0.00     0.170 HD
ATOM     30  H8  21W d   1      18.215  38.434  -0.610  0.00  0.00     0.143 H 
ENDBRANCH  15  18
ENDBRANCH  11  14
ENDBRANCH   5  11
BRANCH   6  31
ATOM     31  C7  21W d   1      27.180  41.680  -4.521  0.00  0.00     0.106 C 
ATOM     32  H11 21W d   1      26.913  40.614  -4.476  0.00  0.00     0.083 H 
ATOM     33  H12 21W d   1      28.070  41.861  -3.901  0.00  0.00     0.083 H 
BRANCH  31  34
ATOM     34  N8  21W d   1      27.501  42.020  -5.903  0.00  0.00    -0.065 N 
ATOM     35  H18 21W d   1      27.629  43.017  -5.978  0.00  0.00     0.277 HD
ATOM     36  H19 21W d   1      26.741  41.733  -6.500  0.00  0.00     0.277 HD
BRANCH  34  37
ATOM     37  C9  21W d   1      28.728  41.344  -6.328  0.00  0.00     0.136 C 
ATOM     38  H13 21W d   1      29.314  42.043  -6.943  0.00  0.00     0.087 H 
ATOM     39  H14 21W d   1      29.304  41.073  -5.431  0.00  0.00     0.087 H 
BRANCH  37  40
ATOM     40  C10 21W d   1      28.487  40.118  -7.116  0.00  0.00     0.129 A 
ATOM     41  N14 21W d   1      28.299  40.029  -8.417  0.00  0.00    -0.351 N 
ATOM     42  C13 21W d   1      28.115  38.690  -8.667  0.00  0.00    -0.005 A 
ATOM     43  H15 21W d   1      28.291  40.799  -9.101  0.00  0.00     0.166 HD
ATOM     44  C12 21W d   1      28.188  37.949  -7.510  0.00  0.00     0.019 A 
ATOM     45  H5  21W d   1      27.934  38.269  -9.655  0.00  0.00     0.113 H 
ATOM     46  N11 21W d   1      28.428  38.879  -6.536  0.00  0.00    -0.244 NA
ATOM     47  H6  21W d   1      28.080  36.871  -7.396  0.00  0.00     0.117 H 
ENDBRANCH  37  40
ENDBRANCH  34  37
ENDBRANCH  31  34
ENDBRANCH   6  31
TORSDOF 7
