REMARK  5 active torsions:
REMARK  status: ('A' for Active; 'I' for Inactive)
REMARK    1  A    between atoms: C11_13  and  C13_7 
REMARK    2  A    between atoms: C6_8  and  C7_14 
REMARK    3  A    between atoms: C9_15  and  C3_9 
REMARK       I    between atoms: N10_19  and  C11_13 
REMARK    4  A    between atoms: C7_14  and  N8_18 
REMARK    5  A    between atoms: C9_15  and  N10_19 
ROOT
ATOM      1  C9  21X d   1      22.419  44.951  -2.386  0.00  0.00     0.019 C 
ATOM      2  H9  21X d   1      21.882  45.361  -3.254  0.00  0.00     0.071 H 
ATOM      3  H10 21X d   1      22.674  45.767  -1.694  0.00  0.00     0.071 H 
ENDROOT
BRANCH   1   4
ATOM      4  C3  21X d   1      23.671  44.285  -2.848  0.00  0.00    -0.041 A 
ATOM      5  C2  21X d   1      24.881  44.634  -2.274  0.00  0.00    -0.075 A 
ATOM      6  C1  21X d   1      26.049  44.017  -2.680  0.00  0.00    -0.075 A 
ATOM      7  H3  21X d   1      24.913  45.395  -1.502  0.00  0.00     0.084 H 
ATOM      8  C6  21X d   1      26.012  43.041  -3.656  0.00  0.00    -0.033 A 
ATOM      9  H1  21X d   1      26.995  44.299  -2.232  0.00  0.00     0.084 H 
ATOM     10  C5  21X d   1      24.801  42.679  -4.215  0.00  0.00    -0.075 A 
ATOM     11  C4  21X d   1      23.631  43.306  -3.818  0.00  0.00    -0.075 A 
ATOM     12  H2  21X d   1      24.766  41.900  -4.968  0.00  0.00     0.084 H 
ATOM     13  H4  21X d   1      22.686  43.027  -4.269  0.00  0.00     0.084 H 
BRANCH   8  14
ATOM     14  C7  21X d   1      27.285  42.367  -4.065  0.00  0.00     0.103 C 
ATOM     15  H7  21X d   1      27.251  41.324  -3.717  0.00  0.00     0.082 H 
ATOM     16  H8  21X d   1      28.123  42.888  -3.579  0.00  0.00     0.082 H 
BRANCH  14  17
ATOM     17  N8  21X d   1      27.521  42.362  -5.503  0.00  0.00    -0.075 N 
ATOM     18  H12 21X d   1      28.392  41.894  -5.699  0.00  0.00     0.274 HD
ATOM     19  H13 21X d   1      27.567  43.311  -5.839  0.00  0.00     0.274 HD
ATOM     20  H14 21X d   1      26.768  41.878  -5.965  0.00  0.00     0.274 HD
ENDBRANCH  14  17
ENDBRANCH   8  14
ENDBRANCH   1   4
BRANCH   1  21
ATOM     21  N10 21X d   1      21.576  43.993  -1.709  0.00  0.00    -0.353 N 
ATOM     22  C11 21X d   1      21.493  44.043  -0.381  0.00  0.00     0.253 C 
ATOM     23  O12 21X d   1      21.991  44.934   0.308  0.00  0.00    -0.268 OA
ATOM     24  H15 21X d   1      21.065  43.307  -2.227  0.00  0.00     0.163 HD
BRANCH  22  25
ATOM     25  C13 21X d   1      20.744  42.986   0.255  0.00  0.00     0.057 A 
ATOM     26  C14 21X d   1      20.626  43.066   1.623  0.00  0.00    -0.026 A 
ATOM     27  S15 21X d   1      19.727  41.796   2.324  0.00  0.00    -0.080 SA
ATOM     28  H5  21X d   1      21.068  43.871   2.208  0.00  0.00     0.096 H 
ATOM     29  C16 21X d   1      19.449  41.113   0.768  0.00  0.00     0.115 A 
ATOM     30  C17 21X d   1      20.060  41.834  -0.245  0.00  0.00     0.084 A 
ATOM     31  N22 21X d   1      18.730  39.973   0.664  0.00  0.00    -0.236 NA
ATOM     32  C18 21X d   1      19.916  41.331  -1.597  0.00  0.00     0.260 A 
ATOM     33  N20 21X d   1      19.202  40.152  -1.655  0.00  0.00    -0.317 N 
ATOM     34  O19 21X d   1      20.385  41.865  -2.592  0.00  0.00    -0.267 OA
ATOM     35  C21 21X d   1      18.637  39.526  -0.550  0.00  0.00     0.068 A 
ATOM     36  H11 21X d   1      19.083  39.720  -2.549  0.00  0.00     0.170 HD
ATOM     37  H6  21X d   1      18.082  38.603  -0.714  0.00  0.00     0.143 H 
ENDBRANCH  22  25
ENDBRANCH   1  21
TORSDOF 5
