REMARK  1 active torsions:
REMARK  status: ('A' for Active; 'I' for Inactive)
REMARK    1  A    between atoms: C7_4  and  C4_10 
ROOT
ATOM      1  C7  22L d   1      21.863  65.088  68.718  0.00  0.00    -0.001 A 
ATOM      2  C8  22L d   1      23.126  65.634  68.831  0.00  0.00    -0.031 A 
ATOM      3  C10 22L d   1      21.830  66.791  67.084  0.00  0.00     0.115 A 
ATOM      4  C11 22L d   1      21.119  65.777  67.692  0.00  0.00     0.079 A 
ATOM      5  C12 22L d   1      19.758  65.582  67.224  0.00  0.00     0.260 A 
ATOM      6  C15 22L d   1      20.232  67.440  65.696  0.00  0.00     0.068 A 
ATOM      7  S9  22L d   1      23.410  66.928  67.733  0.00  0.00    -0.080 SA
ATOM      8  O13 22L d   1      18.975  64.741  67.655  0.00  0.00    -0.267 OA
ATOM      9  N14 22L d   1      19.407  66.463  66.214  0.00  0.00    -0.317 N 
ATOM     10  N16 22L d   1      21.450  67.639  66.098  0.00  0.00    -0.236 NA
ATOM     11  H4  22L d   1      23.869  65.281  69.544  0.00  0.00     0.096 H 
ATOM     12  H5  22L d   1      19.840  68.079  64.906  0.00  0.00     0.143 H 
ATOM     13  H8  22L d   1      18.486  66.385  65.832  0.00  0.00     0.170 HD
ENDROOT
BRANCH   1  14
ATOM     14  C4  22L d   1      21.482  64.010  69.633  0.00  0.00    -0.024 A 
ATOM     15  C3  22L d   1      21.899  64.044  70.959  0.00  0.00    -0.072 A 
ATOM     16  C2  22L d   1      21.510  63.074  71.872  0.00  0.00    -0.082 A 
ATOM     17  H3  22L d   1      22.545  64.850  71.288  0.00  0.00     0.084 H 
ATOM     18  C1  22L d   1      20.685  62.029  71.488  0.00  0.00    -0.083 A 
ATOM     19  H2  22L d   1      21.856  63.135  72.898  0.00  0.00     0.083 H 
ATOM     20  C6  22L d   1      20.281  61.983  70.164  0.00  0.00    -0.082 A 
ATOM     21  H1  22L d   1      20.367  61.275  72.198  0.00  0.00     0.083 H 
ATOM     22  C5  22L d   1      20.668  62.962  69.264  0.00  0.00    -0.072 A 
ATOM     23  H7  22L d   1      19.652  61.167  69.827  0.00  0.00     0.083 H 
ATOM     24  H6  22L d   1      20.320  62.902  68.239  0.00  0.00     0.084 H 
ENDBRANCH   1  14
TORSDOF 1
