REMARK  9 active torsions:
REMARK  status: ('A' for Active; 'I' for Inactive)
REMARK    1  A    between atoms: N21_24  and  C22_6 
REMARK    2  A    between atoms: C22_6  and  C23_25 
REMARK    3  A    between atoms: C23_25  and  C24_7 
REMARK    4  A    between atoms: C24_7  and  C25_26 
REMARK    5  A    between atoms: C04_12  and  C05_13 
REMARK    6  A    between atoms: C05_13  and  C06_14 
REMARK    7  A    between atoms: C06_14  and  C07_15 
REMARK    8  A    between atoms: C06_14  and  C08_16 
REMARK    9  A    between atoms: C25_26  and  N26_27 
ROOT
ATOM      1  C10 29K d   1      86.420  71.317 -40.832  0.00  0.00     0.054 A 
ATOM      2  C13 29K d   1      88.738  72.671 -39.812  0.00  0.00     0.074 A 
ATOM      3  C15 29K d   1      90.343  71.444 -40.953  0.00  0.00     0.004 A 
ATOM      4  C17 29K d   1      92.424  72.516 -40.160  0.00  0.00    -0.056 A 
ATOM      5  C20 29K d   1      91.106  70.568 -41.747  0.00  0.00    -0.070 A 
ATOM      6  C28 29K d   1      85.611  74.101 -38.405  0.00  0.00     0.043 A 
ATOM      7  O01 29K d   1      84.152  70.474 -41.418  0.00  0.00    -0.268 OA
ATOM      8  C02 29K d   1      85.433  70.434 -41.528  0.00  0.00     0.253 A 
ATOM      9  N03 29K d   1      86.170  69.515 -42.352  0.00  0.00    -0.348 N 
ATOM     10  C04 29K d   1      87.563  69.799 -42.207  0.00  0.00     0.040 A 
ATOM     11  C09 29K d   1      87.701  70.926 -41.240  0.00  0.00    -0.005 A 
ATOM     12  C11 29K d   1      86.264  72.440 -39.864  0.00  0.00     0.022 A 
ATOM     13  C12 29K d   1      87.398  73.091 -39.375  0.00  0.00     0.073 A 
ATOM     14  C14 29K d   1      88.883  71.620 -40.718  0.00  0.00     0.015 A 
ATOM     15  C16 29K d   1      90.998  72.426 -40.154  0.00  0.00     0.046 A 
ATOM     16  C18 29K d   1      93.170  71.648 -40.945  0.00  0.00    -0.081 A 
ATOM     17  C19 29K d   1      92.501  70.656 -41.754  0.00  0.00    -0.082 A 
ATOM     18  N21 29K d   1      90.048  73.147 -39.485  0.00  0.00    -0.344 N 
ATOM     19  N27 29K d   1      86.991  74.082 -38.503  0.00  0.00    -0.353 N 
ATOM     20  C29 29K d   1      84.729  74.919 -37.655  0.00  0.00    -0.056 A 
ATOM     21  C30 29K d   1      83.318  74.717 -37.746  0.00  0.00    -0.081 A 
ATOM     22  C31 29K d   1      82.807  73.706 -38.579  0.00  0.00    -0.082 A 
ATOM     23  C32 29K d   1      83.677  72.902 -39.317  0.00  0.00    -0.070 A 
ATOM     24  C33 29K d   1      85.104  73.101 -39.230  0.00  0.00     0.004 A 
ATOM     25  H1  29K d   1      92.923  73.262 -39.552  0.00  0.00     0.087 H 
ATOM     26  H2  29K d   1      90.610  69.821 -42.356  0.00  0.00     0.084 H 
ATOM     27  H7  29K d   1      85.775  68.799 -42.928  0.00  0.00     0.163 HD
ATOM     28  H8  29K d   1      88.133  68.929 -41.849  0.00  0.00     0.080 H 
ATOM     29  H18 29K d   1      94.252  71.714 -40.951  0.00  0.00     0.083 H 
ATOM     30  H19 29K d   1      93.082  69.978 -42.368  0.00  0.00     0.083 H 
ATOM     31  H27 29K d   1      87.625  74.717 -37.997  0.00  0.00     0.166 HD
ATOM     32  H28 29K d   1      85.125  75.697 -37.013  0.00  0.00     0.086 H 
ATOM     33  H29 29K d   1      82.642  75.342 -37.174  0.00  0.00     0.083 H 
ATOM     34  H30 29K d   1      81.736  73.551 -38.648  0.00  0.00     0.083 H 
ATOM     35  H31 29K d   1      83.279  72.124 -39.959  0.00  0.00     0.084 H 
ENDROOT
BRANCH  18  36
ATOM     36  C22 29K d   1      90.362  74.262 -38.544  0.00  0.00     0.001 C 
ATOM     37  H3  29K d   1      89.627  75.063 -38.713  0.00  0.00     0.064 H 
ATOM     38  H4  29K d   1      91.370  74.632 -38.785  0.00  0.00     0.064 H 
BRANCH  36  39
ATOM     39  C23 29K d   1      90.336  73.913 -37.070  0.00  0.00    -0.048 C 
ATOM     40  H20 29K d   1      89.792  72.963 -36.965  0.00  0.00     0.035 H 
ATOM     41  H21 29K d   1      89.784  74.711 -36.552  0.00  0.00     0.035 H 
BRANCH  39  42
ATOM     42  C24 29K d   1      91.690  73.750 -36.357  0.00  0.00    -0.041 C 
ATOM     43  H5  29K d   1      91.533  73.976 -35.292  0.00  0.00     0.035 H 
ATOM     44  H6  29K d   1      92.383  74.486 -36.790  0.00  0.00     0.035 H 
BRANCH  42  45
ATOM     45  C25 29K d   1      92.349  72.404 -36.442  0.00  0.00     0.080 C 
ATOM     46  H22 29K d   1      92.839  72.340 -37.425  0.00  0.00     0.075 H 
ATOM     47  H23 29K d   1      91.555  71.646 -36.378  0.00  0.00     0.075 H 
BRANCH  45  48
ATOM     48  N26 29K d   1      93.330  72.077 -35.456  0.00  0.00    -0.079 N 
ATOM     49  H24 29K d   1      93.688  71.151 -35.632  0.00  0.00     0.274 HD
ATOM     50  H25 29K d   1      92.909  72.106 -34.541  0.00  0.00     0.274 HD
ATOM     51  H26 29K d   1      94.085  72.743 -35.500  0.00  0.00     0.274 HD
ENDBRANCH  45  48
ENDBRANCH  42  45
ENDBRANCH  39  42
ENDBRANCH  36  39
ENDBRANCH  18  36
BRANCH  10  52
ATOM     52  C05 29K d   1      87.950  70.157 -43.644  0.00  0.00    -0.040 C 
ATOM     53  H9  29K d   1      88.305  71.198 -43.627  0.00  0.00     0.037 H 
ATOM     54  H10 29K d   1      87.031  70.093 -44.245  0.00  0.00     0.037 H 
BRANCH  52  55
ATOM     55  C06 29K d   1      88.999  69.353 -44.368  0.00  0.00    -0.059 C 
ATOM     56  H11 29K d   1      89.881  69.373 -43.711  0.00  0.00     0.038 H 
BRANCH  55  57
ATOM     57  C07 29K d   1      89.434  69.970 -45.624  0.00  0.00    -0.073 C 
ATOM     58  H12 29K d   1      90.196  69.335 -46.099  0.00  0.00     0.028 H 
ATOM     59  H13 29K d   1      89.861  70.963 -45.417  0.00  0.00     0.028 H 
ATOM     60  H14 29K d   1      88.572  70.075 -46.299  0.00  0.00     0.028 H 
ENDBRANCH  55  57
BRANCH  55  61
ATOM     61  C08 29K d   1      88.648  67.851 -44.535  0.00  0.00    -0.073 C 
ATOM     62  H15 29K d   1      88.329  67.439 -43.566  0.00  0.00     0.028 H 
ATOM     63  H16 29K d   1      89.534  67.305 -44.892  0.00  0.00     0.028 H 
ATOM     64  H17 29K d   1      87.832  67.744 -45.265  0.00  0.00     0.028 H 
ENDBRANCH  55  61
ENDBRANCH  52  55
ENDBRANCH  10  52
TORSDOF 9
