REMARK  4 active torsions:
REMARK  status: ('A' for Active; 'I' for Inactive)
REMARK    1  A    between atoms: C22_3  and  O3_4 
REMARK    2  A    between atoms: C17_7  and  C16_8 
REMARK    3  A    between atoms: C16_8  and  C10_9 
REMARK    4  A    between atoms: C11_22  and  C12_23 
ROOT
ATOM      1  C10 24E d   1      44.737  16.699  46.195  0.00  0.00     0.049 A 
ATOM      2  N1  24E d   1      44.952  17.762  47.139  0.00  0.00    -0.355 N 
ATOM      3  C9  24E d   1      44.190  15.636  46.902  0.00  0.00     0.115 A 
ATOM      4  O1  24E d   1      43.832  14.333  46.454  0.00  0.00    -0.307 OA
ATOM      5  C4  24E d   1      43.349  13.314  47.323  0.00  0.00     0.090 A 
ATOM      6  C6  24E d   1      43.048  12.056  46.812  0.00  0.00    -0.049 A 
ATOM      7  C5  24E d   1      42.605  11.048  47.661  0.00  0.00    -0.080 A 
ATOM      8  C3  24E d   1      42.459  11.294  49.022  0.00  0.00    -0.082 A 
ATOM      9  C1  24E d   1      42.756  12.552  49.536  0.00  0.00    -0.066 A 
ATOM     10  C2  24E d   1      43.203  13.556  48.684  0.00  0.00     0.049 A 
ATOM     11  C7  24E d   1      43.568  14.946  49.232  0.00  0.00     0.200 A 
ATOM     12  O2  24E d   1      43.455  15.198  50.430  0.00  0.00    -0.286 OA
ATOM     13  C8  24E d   1      44.075  16.000  48.231  0.00  0.00     0.079 A 
ATOM     14  C11 24E d   1      44.488  17.255  48.404  0.00  0.00     0.067 A 
ATOM     15  H   24E d   1      45.354  18.691  46.950  0.00  0.00     0.166 HD
ATOM     16  H   24E d   1      43.159  11.861  45.751  0.00  0.00     0.087 H 
ATOM     17  H   24E d   1      42.373  10.068  47.261  0.00  0.00     0.083 H 
ATOM     18  H   24E d   1      42.114  10.506  49.682  0.00  0.00     0.083 H 
ATOM     19  H   24E d   1      42.640  12.749  50.596  0.00  0.00     0.085 H 
ENDROOT
BRANCH   1  20
ATOM     20  C16 24E d   1      45.091  16.715  44.696  0.00  0.00    -0.000 C 
ATOM     21  H   24E d   1      44.751  15.777  44.233  0.00  0.00     0.049 H 
ATOM     22  H   24E d   1      44.587  17.566  44.214  0.00  0.00     0.049 H 
BRANCH  20  23
ATOM     23  C17 24E d   1      46.613  16.852  44.507  0.00  0.00    -0.052 A 
ATOM     24  C18 24E d   1      47.489  16.230  45.390  0.00  0.00    -0.074 A 
ATOM     25  C19 24E d   1      48.862  16.335  45.199  0.00  0.00    -0.051 A 
ATOM     26  H   24E d   1      47.101  15.663  46.228  0.00  0.00     0.084 H 
ATOM     27  C22 24E d   1      49.361  17.061  44.123  0.00  0.00     0.065 A 
ATOM     28  H   24E d   1      49.544  15.851  45.889  0.00  0.00     0.087 H 
ATOM     29  C21 24E d   1      48.486  17.678  43.236  0.00  0.00    -0.051 A 
ATOM     30  C20 24E d   1      47.113  17.576  43.430  0.00  0.00    -0.074 A 
ATOM     31  H   24E d   1      48.874  18.238  42.393  0.00  0.00     0.087 H 
ATOM     32  H   24E d   1      46.431  18.061  42.741  0.00  0.00     0.084 H 
BRANCH  27  33
ATOM     33  O3  24E d   1      50.703  17.221  43.974  0.00  0.00    -0.361 OA
ATOM     34  H   24E d   1      50.875  17.738  43.195  0.00  0.00     0.217 HD
ENDBRANCH  27  33
ENDBRANCH  20  23
ENDBRANCH   1  20
BRANCH  14  35
ATOM     35  C12 24E d   1      44.496  17.974  49.582  0.00  0.00     0.032 A 
ATOM     36  S1  24E d   1      45.110  19.562  49.765  0.00  0.00    -0.100 SA
ATOM     37  C15 24E d   1      44.464  19.941  51.295  0.00  0.00    -0.044 A 
ATOM     38  C14 24E d   1      43.772  18.876  51.694  0.00  0.00    -0.075 A 
ATOM     39  H   24E d   1      44.592  20.874  51.841  0.00  0.00     0.095 H 
ATOM     40  C13 24E d   1      43.791  17.711  50.681  0.00  0.00    -0.064 A 
ATOM     41  H   24E d   1      43.243  18.831  52.645  0.00  0.00     0.084 H 
ATOM     42  H   24E d   1      43.278  16.765  50.849  0.00  0.00     0.085 H 
ENDBRANCH  14  35
TORSDOF 4
