REMARK  14 active torsions:
REMARK  status: ('A' for Active; 'I' for Inactive)
REMARK    1  A    between atoms: CBB_6  and  CAQ_7 
REMARK    2  A    between atoms: CAQ_7  and  NAU_8 
REMARK       I    between atoms: NAU_8  and  CAZ_9 
REMARK    3  A    between atoms: CAZ_9  and  CBI_11 
REMARK    4  A    between atoms: CBI_11  and  N_12 
REMARK    5  A    between atoms: CBI_11  and  CBD_22 
REMARK    6  A    between atoms: N_12  and  CA_13 
REMARK    7  A    between atoms: CA_13  and  CB_14 
REMARK    8  A    between atoms: CA_13  and  C_18 
REMARK    9  A    between atoms: CB_14  and  CG_15 
REMARK   10  A    between atoms: CG_15  and  CD2_16 
REMARK   11  A    between atoms: CG_15  and  CD1_17 
REMARK       I    between atoms: C_18  and  NAT_20 
REMARK   12  A    between atoms: NAT_20  and  OAG_21 
REMARK   13  A    between atoms: CBC_31  and  CAX_32 
REMARK       I    between atoms: CAX_32  and  NAS_34 
REMARK   14  A    between atoms: NAS_34  and  OAF_35 
ROOT
ATOM      1  CBI 28W d   1       4.126  24.007  11.912  0.00  0.00     0.207 C 
ATOM      2  H9  28W d   1       4.977  24.704  11.911  0.00  0.00     0.107 H 
ENDROOT
BRANCH   1   3
ATOM      3  CAZ 28W d   1       4.640  23.181  13.045  0.00  0.00     0.253 C 
ATOM      4  NAU 28W d   1       5.759  22.434  12.900  0.00  0.00    -0.355 N 
ATOM      5  H8  28W d   1       6.291  22.513  12.057  0.00  0.00     0.162 HD
ATOM      6  OAE 28W d   1       3.859  23.033  13.967  0.00  0.00    -0.271 OA
BRANCH   4   7
ATOM      7  CAQ 28W d   1       6.218  21.502  13.958  0.00  0.00     0.019 C 
ATOM      8  H6  28W d   1       7.290  21.658  14.149  0.00  0.00     0.071 H 
ATOM      9  H7  28W d   1       5.651  21.683  14.883  0.00  0.00     0.071 H 
BRANCH   7  10
ATOM     10  CBB 28W d   1       6.003  20.192  13.524  0.00  0.00    -0.041 A 
ATOM     11  CAL 28W d   1       4.896  19.793  12.762  0.00  0.00    -0.075 A 
ATOM     12  CAJ 28W d   1       4.742  18.478  12.344  0.00  0.00    -0.082 A 
ATOM     13  H1  28W d   1       4.144  20.527  12.493  0.00  0.00     0.084 H 
ATOM     14  CAI 28W d   1       5.682  17.513  12.688  0.00  0.00    -0.083 A 
ATOM     15  H2  28W d   1       3.882  18.201  11.745  0.00  0.00     0.083 H 
ATOM     16  CAK 28W d   1       6.786  17.881  13.448  0.00  0.00    -0.082 A 
ATOM     17  H3  28W d   1       5.555  16.485  12.367  0.00  0.00     0.083 H 
ATOM     18  CAM 28W d   1       6.944  19.212  13.861  0.00  0.00    -0.075 A 
ATOM     19  H4  28W d   1       7.526  17.138  13.722  0.00  0.00     0.083 H 
ATOM     20  H5  28W d   1       7.810  19.487  14.452  0.00  0.00     0.084 H 
ENDBRANCH   7  10
ENDBRANCH   4   7
ENDBRANCH   1   3
BRANCH   1  21
ATOM     21  N   28W d   1       3.199  25.013  12.280  0.00  0.00    -0.045 N 
ATOM     22  H10 28W d   1       3.454  25.328  13.203  0.00  0.00     0.279 HD
ATOM     23  H11 28W d   1       2.289  24.580  12.312  0.00  0.00     0.279 HD
BRANCH  21  24
ATOM     24  CA  28W d   1       3.077  26.228  11.420  0.00  0.00     0.181 C 
ATOM     25  H12 28W d   1       3.413  25.962  10.407  0.00  0.00     0.099 H 
BRANCH  24  26
ATOM     26  CB  28W d   1       1.646  26.728  11.377  0.00  0.00    -0.027 C 
ATOM     27  H13 28W d   1       1.615  27.678  10.823  0.00  0.00     0.037 H 
ATOM     28  H14 28W d   1       1.292  26.891  12.406  0.00  0.00     0.037 H 
BRANCH  26  29
ATOM     29  CG  28W d   1       0.718  25.709  10.681  0.00  0.00    -0.059 C 
ATOM     30  H15 28W d   1       0.710  24.769  11.252  0.00  0.00     0.038 H 
BRANCH  29  31
ATOM     31  CD2 28W d   1      -0.693  26.326  10.662  0.00  0.00    -0.073 C 
ATOM     32  H16 28W d   1      -1.391  25.631  10.173  0.00  0.00     0.028 H 
ATOM     33  H17 28W d   1      -0.671  27.275  10.106  0.00  0.00     0.028 H 
ATOM     34  H18 28W d   1      -1.025  26.513  11.694  0.00  0.00     0.028 H 
ENDBRANCH  29  31
BRANCH  29  35
ATOM     35  CD1 28W d   1       1.166  25.419   9.253  0.00  0.00    -0.073 C 
ATOM     36  H19 28W d   1       2.174  24.978   9.267  0.00  0.00     0.028 H 
ATOM     37  H20 28W d   1       1.184  26.356   8.677  0.00  0.00     0.028 H 
ATOM     38  H21 28W d   1       0.464  24.713   8.785  0.00  0.00     0.028 H 
ENDBRANCH  29  35
ENDBRANCH  26  29
ENDBRANCH  24  26
BRANCH  24  39
ATOM     39  C   28W d   1       3.892  27.457  11.928  0.00  0.00     0.272 C 
ATOM     40  O   28W d   1       4.450  28.261  11.170  0.00  0.00    -0.269 OA
ATOM     41  NAT 28W d   1       3.901  27.721  13.205  0.00  0.00    -0.236 N 
ATOM     42  H22 28W d   1       3.456  27.168  13.909  0.00  0.00     0.197 HD
BRANCH  41  43
ATOM     43  OAG 28W d   1       4.717  29.039  13.471  0.00  0.00    -0.287 OA
ATOM     44  H23 28W d   1       5.610  28.924  13.167  0.00  0.00     0.244 HD
ENDBRANCH  41  43
ENDBRANCH  24  39
ENDBRANCH  21  24
ENDBRANCH   1  21
BRANCH   1  45
ATOM     45  CBD 28W d   1       4.421  23.534  10.498  0.00  0.00     0.026 A 
ATOM     46  CBF 28W d   1       3.657  22.524  10.064  0.00  0.00     0.002 A 
ATOM     47  CAO 28W d   1       2.651  21.848  10.664  0.00  0.00    -0.069 A 
ATOM     48  CBE 28W d   1       4.056  22.228   8.823  0.00  0.00     0.045 A 
ATOM     49  CAN 28W d   1       1.986  20.816   9.993  0.00  0.00    -0.061 A 
ATOM     50  H24 28W d   1       2.357  22.108  11.674  0.00  0.00     0.085 H 
ATOM     51  CBA 28W d   1       2.395  20.515   8.697  0.00  0.00     0.036 A 
ATOM     52  H25 28W d   1       1.179  20.269  10.467  0.00  0.00     0.086 H 
ATOM     53 CLH  28W d   1       1.609  19.233   7.799  0.00  0.00    -0.084 Cl
ATOM     54  CAP 28W d   1       3.453  21.236   8.138  0.00  0.00    -0.035 A 
ATOM     55  H26 28W d   1       3.794  20.994   7.138  0.00  0.00     0.089 H 
ATOM     56  NAW 28W d   1       5.059  23.064   8.514  0.00  0.00    -0.350 N 
ATOM     57  CBC 28W d   1       5.308  23.860   9.554  0.00  0.00     0.113 A 
ATOM     58  H27 28W d   1       5.559  23.087   7.614  0.00  0.00     0.166 HD
BRANCH  57  59
ATOM     59  CAX 28W d   1       6.262  24.824   9.492  0.00  0.00     0.292 C 
ATOM     60  OAC 28W d   1       6.993  24.924   8.500  0.00  0.00    -0.264 OA
ATOM     61  NAS 28W d   1       6.326  25.736  10.453  0.00  0.00    -0.232 N 
ATOM     62  H28 28W d   1       5.734  25.716  11.259  0.00  0.00     0.197 HD
BRANCH  61  63
ATOM     63  OAF 28W d   1       7.243  26.679  10.256  0.00  0.00    -0.287 OA
ATOM     64  H29 28W d   1       7.053  27.140   9.448  0.00  0.00     0.244 HD
ENDBRANCH  61  63
ENDBRANCH  57  59
ENDBRANCH   1  45
TORSDOF 14
