REMARK WARNING: 32 MAX_TORS EXCEEDED!!!
REMARK  35 active torsions:
REMARK  status: ('A' for Active; 'I' for Inactive)
REMARK    1  A    between atoms: N_1  and  CA_2 
REMARK    2  A    between atoms: CA_2  and  C_3 
REMARK    3  A    between atoms: CA_2  and  CB_5 
REMARK       I    between atoms: C_3  and  N_8 
REMARK    4  A    between atoms: CB_5  and  OG1_6 
REMARK    5  A    between atoms: CB_5  and  CG2_7 
REMARK    6  A    between atoms: N_8  and  CA_9 
REMARK    7  A    between atoms: CA_9  and  C_10 
REMARK    8  A    between atoms: CA_9  and  CB_12 
REMARK       I    between atoms: C_10  and  N_20 
REMARK    9  A    between atoms: CB_12  and  CG_13 
REMARK   10  A    between atoms: CZ_18  and  OH_19 
REMARK   11  A    between atoms: N_20  and  CA_21 
REMARK   12  A    between atoms: CA_21  and  C_22 
REMARK   13  A    between atoms: CA_21  and  CB_24 
REMARK       I    between atoms: C_22  and  N_29 
REMARK   14  A    between atoms: CB_24  and  CG_25 
REMARK   15  A    between atoms: CG_25  and  CD_26 
REMARK   16  A    between atoms: CD_26  and  CE_27 
REMARK   17  A    between atoms: CE_27  and  NZ_28 
REMARK   18  A    between atoms: N_29  and  CA_30 
REMARK   19  A    between atoms: CA_30  and  C_31 
REMARK   20  A    between atoms: CA_30  and  CB_33 
REMARK       I    between atoms: C_31  and  N_40 
REMARK   21  A    between atoms: CB_33  and  CG_34 
REMARK   22  A    between atoms: N_40  and  CA_41 
REMARK   23  A    between atoms: CA_41  and  C_42 
REMARK   24  A    between atoms: CA_41  and  CB_44 
REMARK       I    between atoms: C_42  and  N_51 
REMARK   25  A    between atoms: CB_44  and  CG_45 
REMARK   26  A    between atoms: N_51  and  CA_52 
REMARK   27  A    between atoms: CA_52  and  C_53 
REMARK   28  A    between atoms: CA_52  and  CB_55 
REMARK       I    between atoms: C_53  and  N_60 
REMARK   29  A    between atoms: CB_55  and  CG_56 
REMARK   30  A    between atoms: CG_56  and  CD_57 
REMARK   31  A    between atoms: N_60  and  CA_61 
REMARK   32  A    between atoms: CA_61  and  C_62 
REMARK   33  A    between atoms: CA_61  and  CB_64 
REMARK   34  A    between atoms: CB_64  and  CG_65 
REMARK   35  A    between atoms: CG_65  and  CD_66 
REMARK       I    between atoms: CD_66  and  NE2_68 
ROOT
ATOM      1  CA  PHE d   1     -24.514   5.825  26.669  0.00  0.00     0.093 C 
ATOM      2  H   PHE d   1     -23.855   4.947  26.593  0.00  0.00     0.088 H 
ENDROOT
BRANCH   1   3
ATOM      3  N   PHE d   1     -23.888   6.713  27.620  0.00  0.00    -0.346 N 
ATOM      4  C   LYS d   1     -22.758   6.423  28.260  0.00  0.00     0.241 C 
ATOM      5  O   LYS d   1     -22.113   5.343  28.131  0.00  0.00    -0.271 OA
ATOM      6  H   PHE d   1     -24.327   7.592  27.808  0.00  0.00     0.163 HD
BRANCH   4   7
ATOM      7  CA  LYS d   1     -22.261   7.500  29.207  0.00  0.00     0.089 C 
ATOM      8  H   LYS d   1     -23.102   8.163  29.458  0.00  0.00     0.087 H 
BRANCH   7   9
ATOM      9  N   LYS d   1     -21.757   6.898  30.432  0.00  0.00    -0.346 N 
ATOM     10  C   TYR d   1     -22.569   6.804  31.479  0.00  0.00     0.241 C 
ATOM     11  O   TYR d   1     -23.690   7.259  31.454  0.00  0.00    -0.271 OA
ATOM     12  H   LYS d   1     -20.817   6.561  30.485  0.00  0.00     0.163 HD
BRANCH  10  13
ATOM     13  CA  TYR d   1     -22.049   6.120  32.728  0.00  0.00     0.093 C 
ATOM     14  H   TYR d   1     -20.959   6.259  32.781  0.00  0.00     0.088 H 
BRANCH  13  15
ATOM     15  N   TYR d   1     -22.655   6.697  33.947  0.00  0.00    -0.346 N 
ATOM     16  C   THR d   1     -21.941   7.289  34.897  0.00  0.00     0.251 C 
ATOM     17  O   THR d   1     -20.734   7.464  34.785  0.00  0.00    -0.271 OA
ATOM     18  H   TYR d   1     -23.647   6.639  34.061  0.00  0.00     0.163 HD
BRANCH  16  19
ATOM     19  CA  THR d   1     -22.724   7.837  36.144  0.00  0.00     0.199 C 
ATOM     20  H   THR d   1     -22.244   8.795  36.391  0.00  0.00     0.103 H 
BRANCH  19  21
ATOM     21  N   THR d   1     -24.153   8.157  35.795  0.00  0.00    -0.064 N 
ATOM     22  H   THR d   1     -24.177   8.707  34.951  0.00  0.00     0.275 HD
ATOM     23  H   THR d   1     -24.574   8.678  36.548  0.00  0.00     0.275 HD
ATOM     24  H   THR d   1     -24.664   7.300  35.652  0.00  0.00     0.275 HD
ENDBRANCH  19  21
BRANCH  19  25
ATOM     25  CB  THR d   1     -22.636   6.967  37.473  0.00  0.00     0.068 C 
ATOM     26  H   THR d   1     -22.754   7.655  38.323  0.00  0.00     0.086 H 
BRANCH  25  27
ATOM     27  OG1 THR d   1     -21.358   6.320  37.604  0.00  0.00    -0.393 OA
ATOM     28  H   THR d   1     -21.343   5.811  38.406  0.00  0.00     0.210 HD
ENDBRANCH  25  27
BRANCH  25  29
ATOM     29  CG2 THR d   1     -23.764   5.917  37.558  0.00  0.00    -0.050 C 
ATOM     30  H   THR d   1     -23.661   5.343  38.491  0.00  0.00     0.031 H 
ATOM     31  H   THR d   1     -23.695   5.235  36.698  0.00  0.00     0.031 H 
ATOM     32  H   THR d   1     -24.740   6.425  37.546  0.00  0.00     0.031 H 
ENDBRANCH  25  29
ENDBRANCH  19  25
ENDBRANCH  16  19
ENDBRANCH  13  15
BRANCH  13  33
ATOM     33  CB  TYR d   1     -22.354   4.636  32.638  0.00  0.00    -0.014 C 
ATOM     34  H   TYR d   1     -21.947   4.264  31.686  0.00  0.00     0.043 H 
ATOM     35  H   TYR d   1     -23.447   4.514  32.642  0.00  0.00     0.043 H 
BRANCH  33  36
ATOM     36  CG  TYR d   1     -21.786   3.783  33.752  0.00  0.00    -0.056 A 
ATOM     37  CD1 TYR d   1     -20.408   3.611  33.898  0.00  0.00    -0.074 A 
ATOM     38  CE1 TYR d   1     -19.889   2.799  34.914  0.00  0.00    -0.051 A 
ATOM     39  H   TYR d   1     -19.731   4.113  33.216  0.00  0.00     0.084 H 
ATOM     40  CZ  TYR d   1     -20.781   2.144  35.807  0.00  0.00     0.065 A 
ATOM     41  H   TYR d   1     -18.818   2.671  35.019  0.00  0.00     0.087 H 
ATOM     42  CE2 TYR d   1     -22.162   2.296  35.662  0.00  0.00    -0.051 A 
ATOM     43  CD2 TYR d   1     -22.648   3.113  34.642  0.00  0.00    -0.074 A 
ATOM     44  H   TYR d   1     -22.845   1.787  36.332  0.00  0.00     0.087 H 
ATOM     45  H   TYR d   1     -23.719   3.236  34.531  0.00  0.00     0.084 H 
BRANCH  40  46
ATOM     46  OH  TYR d   1     -20.313   1.326  36.817  0.00  0.00    -0.361 OA
ATOM     47  H   TYR d   1     -19.363   1.315  36.800  0.00  0.00     0.217 HD
ENDBRANCH  40  46
ENDBRANCH  33  36
ENDBRANCH  13  33
ENDBRANCH  10  13
ENDBRANCH   7   9
BRANCH   7  48
ATOM     48  CB  LYS d   1     -21.179   8.319  28.560  0.00  0.00    -0.038 C 
ATOM     49  H   LYS d   1     -20.380   7.640  28.230  0.00  0.00     0.036 H 
ATOM     50  H   LYS d   1     -20.779   9.019  29.308  0.00  0.00     0.036 H 
BRANCH  48  51
ATOM     51  CG  LYS d   1     -21.647   9.105  27.381  0.00  0.00    -0.061 C 
ATOM     52  H   LYS d   1     -22.741   9.205  27.427  0.00  0.00     0.033 H 
ATOM     53  H   LYS d   1     -21.366   8.573  26.460  0.00  0.00     0.033 H 
BRANCH  51  54
ATOM     54  CD  LYS d   1     -21.013  10.512  27.365  0.00  0.00    -0.043 C 
ATOM     55  H   LYS d   1     -20.021  10.473  27.839  0.00  0.00     0.035 H 
ATOM     56  H   LYS d   1     -21.657  11.211  27.919  0.00  0.00     0.035 H 
BRANCH  54  57
ATOM     57  CE  LYS d   1     -20.871  10.983  25.930  0.00  0.00     0.080 C 
ATOM     58  H   LYS d   1     -21.775  11.544  25.649  0.00  0.00     0.075 H 
ATOM     59  H   LYS d   1     -20.766  10.105  25.276  0.00  0.00     0.075 H 
BRANCH  57  60
ATOM     60  NZ  LYS d   1     -19.661  11.879  25.746  0.00  0.00    -0.079 N 
ATOM     61  H   LYS d   1     -19.602  12.170  24.783  0.00  0.00     0.274 HD
ATOM     62  H   LYS d   1     -18.826  11.372  25.996  0.00  0.00     0.274 HD
ATOM     63  H   LYS d   1     -19.751  12.691  26.337  0.00  0.00     0.274 HD
ENDBRANCH  57  60
ENDBRANCH  54  57
ENDBRANCH  51  54
ENDBRANCH  48  51
ENDBRANCH   7  48
ENDBRANCH   4   7
ENDBRANCH   1   3
BRANCH   1  64
ATOM     64  C   PHE d   1     -24.626   6.410  25.279  0.00  0.00     0.241 C 
ATOM     65  O   PHE d   1     -24.686   7.638  25.083  0.00  0.00    -0.271 OA
ATOM     66  N   PHE d   1     -24.668   5.540  24.292  0.00  0.00    -0.346 N 
ATOM     67  H   PHE d   1     -24.538   4.568  24.487  0.00  0.00     0.163 HD
BRANCH  66  68
ATOM     68  CA  PHE d   1     -24.904   5.976  22.906  0.00  0.00     0.093 C 
ATOM     69  H   PHE d   1     -25.268   7.014  22.913  0.00  0.00     0.088 H 
BRANCH  68  70
ATOM     70  C   PHE d   1     -25.971   5.092  22.294  0.00  0.00     0.241 C 
ATOM     71  O   PHE d   1     -26.153   3.961  22.738  0.00  0.00    -0.271 OA
ATOM     72  N   GLU d   1     -26.620   5.589  21.250  0.00  0.00    -0.346 N 
ATOM     73  H   GLU d   1     -26.386   6.507  20.930  0.00  0.00     0.163 HD
BRANCH  72  74
ATOM     74  CA  GLU d   1     -27.652   4.855  20.557  0.00  0.00     0.090 C 
ATOM     75  H   GLU d   1     -28.092   4.147  21.274  0.00  0.00     0.087 H 
BRANCH  74  76
ATOM     76  C   GLU d   1     -27.119   4.039  19.371  0.00  0.00     0.241 C 
ATOM     77  O   GLU d   1     -27.680   3.002  19.015  0.00  0.00    -0.271 OA
ATOM     78  N   GLN d   1     -26.033   4.494  18.776  0.00  0.00    -0.345 N 
ATOM     79  H   GLN d   1     -25.691   5.411  18.981  0.00  0.00     0.163 HD
BRANCH  78  80
ATOM     80  CA  GLN d   1     -25.326   3.630  17.800  0.00  0.00     0.096 C 
ATOM     81  H   GLN d   1     -25.463   2.581  18.100  0.00  0.00     0.089 H 
BRANCH  80  82
ATOM     82  C   GLN d   1     -23.810   3.952  17.812  0.00  0.00     0.196 C 
ATOM     83  O   GLN d   1     -22.998   3.093  17.379  0.00  0.00    -0.646 OA
ATOM     84  OXT GLN d   1     -23.382   5.071  18.228  0.00  0.00    -0.646 OA
ENDBRANCH  80  82
BRANCH  80  85
ATOM     85  CB  GLN d   1     -25.909   3.809  16.376  0.00  0.00    -0.029 C 
ATOM     86  H   GLN d   1     -26.971   3.523  16.397  0.00  0.00     0.037 H 
ATOM     87  H   GLN d   1     -25.363   3.143  15.691  0.00  0.00     0.037 H 
BRANCH  85  88
ATOM     88  CG  GLN d   1     -25.804   5.251  15.839  0.00  0.00     0.011 C 
ATOM     89  H   GLN d   1     -24.754   5.571  15.907  0.00  0.00     0.047 H 
ATOM     90  H   GLN d   1     -26.428   5.902  16.469  0.00  0.00     0.047 H 
BRANCH  88  91
ATOM     91  CD  GLN d   1     -26.261   5.401  14.388  0.00  0.00     0.215 C 
ATOM     92  OE1 GLN d   1     -26.270   4.423  13.600  0.00  0.00    -0.274 OA
ATOM     93  NE2 GLN d   1     -26.647   6.619  14.023  0.00  0.00    -0.370 N 
ATOM     94  H   GLN d   1     -26.958   6.786  13.087  0.00  0.00     0.159 HD
ATOM     95  H   GLN d   1     -26.627   7.369  14.684  0.00  0.00     0.159 HD
ENDBRANCH  88  91
ENDBRANCH  85  88
ENDBRANCH  80  85
ENDBRANCH  78  80
ENDBRANCH  74  76
BRANCH  74  96
ATOM     96  CB  GLU d   1     -28.752   5.802  20.093  0.00  0.00    -0.029 C 
ATOM     97  H   GLU d   1     -29.516   5.216  19.561  0.00  0.00     0.037 H 
ATOM     98  H   GLU d   1     -28.311   6.539  19.406  0.00  0.00     0.037 H 
BRANCH  96  99
ATOM     99  CG  GLU d   1     -29.438   6.564  21.260  0.00  0.00     0.018 C 
ATOM    100  H   GLU d   1     -30.180   7.259  20.839  0.00  0.00     0.049 H 
ATOM    101  H   GLU d   1     -28.672   7.133  21.807  0.00  0.00     0.049 H 
BRANCH  99 102
ATOM    102  CD  GLU d   1     -30.154   5.616  22.252  0.00  0.00     0.172 C 
ATOM    103  OE1 GLU d   1     -30.810   4.656  21.794  0.00  0.00    -0.648 OA
ATOM    104  OE2 GLU d   1     -30.065   5.840  23.482  0.00  0.00    -0.648 OA
ENDBRANCH  99 102
ENDBRANCH  96  99
ENDBRANCH  74  96
ENDBRANCH  72  74
ENDBRANCH  68  70
BRANCH  68 105
ATOM    105  CB  PHE d   1     -23.574   5.926  22.100  0.00  0.00    -0.014 C 
ATOM    106  H   PHE d   1     -22.888   6.676  22.521  0.00  0.00     0.043 H 
ATOM    107  H   PHE d   1     -23.797   6.180  21.053  0.00  0.00     0.043 H 
BRANCH 105 108
ATOM    108  CG  PHE d   1     -22.855   4.540  22.123  0.00  0.00    -0.056 A 
ATOM    109  CD1 PHE d   1     -23.252   3.530  21.286  0.00  0.00    -0.077 A 
ATOM    110  CE1 PHE d   1     -22.569   2.284  21.260  0.00  0.00    -0.082 A 
ATOM    111  H   PHE d   1     -24.102   3.684  20.632  0.00  0.00     0.084 H 
ATOM    112  CZ  PHE d   1     -21.521   2.070  22.082  0.00  0.00    -0.083 A 
ATOM    113  H   PHE d   1     -22.891   1.504  20.579  0.00  0.00     0.083 H 
ATOM    114  CE2 PHE d   1     -21.072   3.087  22.921  0.00  0.00    -0.082 A 
ATOM    115  H   PHE d   1     -21.027   1.105  22.090  0.00  0.00     0.083 H 
ATOM    116  CD2 PHE d   1     -21.734   4.337  22.907  0.00  0.00    -0.077 A 
ATOM    117  H   PHE d   1     -20.225   2.922  23.577  0.00  0.00     0.083 H 
ATOM    118  H   PHE d   1     -21.357   5.148  23.520  0.00  0.00     0.084 H 
ENDBRANCH 105 108
ENDBRANCH  68 105
ENDBRANCH  66  68
ENDBRANCH   1  64
BRANCH   1 119
ATOM    119  CB  PHE d   1     -25.877   5.316  27.117  0.00  0.00    -0.014 C 
ATOM    120  H   PHE d   1     -26.319   4.735  26.294  0.00  0.00     0.043 H 
ATOM    121  H   PHE d   1     -26.516   6.183  27.338  0.00  0.00     0.043 H 
BRANCH 119 122
ATOM    122  CG  PHE d   1     -25.823   4.452  28.325  0.00  0.00    -0.056 A 
ATOM    123  CD1 PHE d   1     -25.824   5.015  29.622  0.00  0.00    -0.077 A 
ATOM    124  CE1 PHE d   1     -25.774   4.178  30.784  0.00  0.00    -0.082 A 
ATOM    125  H   PHE d   1     -25.863   6.092  29.739  0.00  0.00     0.084 H 
ATOM    126  CZ  PHE d   1     -25.756   2.822  30.634  0.00  0.00    -0.083 A 
ATOM    127  H   PHE d   1     -25.751   4.619  31.774  0.00  0.00     0.083 H 
ATOM    128  CE2 PHE d   1     -25.792   2.260  29.355  0.00  0.00    -0.082 A 
ATOM    129  H   PHE d   1     -25.714   2.181  31.507  0.00  0.00     0.083 H 
ATOM    130  CD2 PHE d   1     -25.844   3.077  28.209  0.00  0.00    -0.077 A 
ATOM    131  H   PHE d   1     -25.780   1.182  29.244  0.00  0.00     0.083 H 
ATOM    132  H   PHE d   1     -25.901   2.622  27.227  0.00  0.00     0.084 H 
ENDBRANCH 119 122
ENDBRANCH   1 119
TORSDOF 35
