REMARK  14 active torsions:
REMARK  status: ('A' for Active; 'I' for Inactive)
REMARK       I    between atoms: C1_2  and  N1_3 
REMARK    1  A    between atoms: C1_2  and  C4_29 
REMARK    2  A    between atoms: N1_3  and  C2_4 
REMARK    3  A    between atoms: N1_3  and  C11_19 
REMARK    4  A    between atoms: C2_4  and  C3_5 
REMARK    5  A    between atoms: C2_4  and  C19_13 
REMARK       I    between atoms: C3_5  and  N2_7 
REMARK    6  A    between atoms: N2_7  and  C24_8 
REMARK    7  A    between atoms: C24_8  and  C25_9 
REMARK    8  A    between atoms: C24_8  and  C27_10 
REMARK    9  A    between atoms: C24_8  and  C26_12 
REMARK   10  A    between atoms: C27_10  and  C28_11 
REMARK   11  A    between atoms: N7_17  and  C23_18 
REMARK   12  A    between atoms: C14_24  and  N6_25 
REMARK       I    between atoms: N6_25  and  C17_26 
REMARK   13  A    between atoms: C17_26  and  C18_27 
REMARK   14  A    between atoms: C4_29  and  N3_30 
ROOT
ATOM      1  O1  23H d   1     -13.412  16.290 -23.514  0.00  0.00    -0.271 OA
ATOM      2  C1  23H d   1     -14.039  15.246 -23.752  0.00  0.00     0.245 C 
ATOM      3  N1  23H d   1     -15.349  15.213 -23.456  0.00  0.00    -0.297 N 
ENDROOT
BRANCH   3   4
ATOM      4  C2  23H d   1     -16.072  16.411 -22.937  0.00  0.00     0.136 C 
ATOM      5  H1  23H d   1     -15.471  16.812 -22.108  0.00  0.00     0.098 H 
BRANCH   4   6
ATOM      6  C3  23H d   1     -16.143  17.480 -24.007  0.00  0.00     0.247 C 
ATOM      7  O2  23H d   1     -16.387  17.174 -25.172  0.00  0.00    -0.271 OA
ATOM      8  N2  23H d   1     -15.912  18.732 -23.600  0.00  0.00    -0.350 N 
ATOM      9  H2  23H d   1     -15.658  18.840 -22.639  0.00  0.00     0.163 HD
BRANCH   8  10
ATOM     10  C24 23H d   1     -15.986  19.976 -24.395  0.00  0.00     0.025 C 
BRANCH  10  11
ATOM     11  C25 23H d   1     -17.461  20.209 -24.778  0.00  0.00    -0.053 C 
ATOM     12  H3  23H d   1     -17.544  21.131 -25.372  0.00  0.00     0.030 H 
ATOM     13  H4  23H d   1     -18.066  20.305 -23.864  0.00  0.00     0.030 H 
ATOM     14  H5  23H d   1     -17.825  19.357 -25.371  0.00  0.00     0.030 H 
ENDBRANCH  10  11
BRANCH  10  15
ATOM     15  C27 23H d   1     -15.135  19.979 -25.655  0.00  0.00    -0.046 C 
ATOM     16  H6  23H d   1     -15.070  21.015 -26.018  0.00  0.00     0.036 H 
ATOM     17  H7  23H d   1     -15.642  19.358 -26.408  0.00  0.00     0.036 H 
BRANCH  15  18
ATOM     18  C28 23H d   1     -13.723  19.453 -25.488  0.00  0.00    -0.074 C 
ATOM     19  H8  23H d   1     -13.198  19.499 -26.453  0.00  0.00     0.027 H 
ATOM     20  H9  23H d   1     -13.759  18.410 -25.140  0.00  0.00     0.027 H 
ATOM     21  H10 23H d   1     -13.188  20.068 -24.750  0.00  0.00     0.027 H 
ENDBRANCH  15  18
ENDBRANCH  10  15
BRANCH  10  22
ATOM     22  C26 23H d   1     -15.539  21.095 -23.439  0.00  0.00    -0.053 C 
ATOM     23  H11 23H d   1     -15.569  22.060 -23.965  0.00  0.00     0.030 H 
ATOM     24  H12 23H d   1     -14.513  20.896 -23.096  0.00  0.00     0.030 H 
ATOM     25  H13 23H d   1     -16.216  21.129 -22.572  0.00  0.00     0.030 H 
ENDBRANCH  10  22
ENDBRANCH   8  10
ENDBRANCH   4   6
BRANCH   4  26
ATOM     26  C19 23H d   1     -17.430  16.118 -22.381  0.00  0.00     0.043 A 
ATOM     27  C20 23H d   1     -18.574  16.211 -23.174  0.00  0.00    -0.057 A 
ATOM     28  C21 23H d   1     -19.606  15.844 -22.342  0.00  0.00    -0.066 A 
ATOM     29  H14 23H d   1     -18.636  16.508 -24.220  0.00  0.00     0.086 H 
ATOM     30  C22 23H d   1     -19.089  15.550 -21.096  0.00  0.00    -0.021 A 
ATOM     31  H15 23H d   1     -20.658  15.794 -22.620  0.00  0.00     0.085 H 
ATOM     32  N7  23H d   1     -17.755  15.723 -21.152  0.00  0.00    -0.362 N 
ATOM     33  H16 23H d   1     -19.659  15.234 -20.223  0.00  0.00     0.111 H 
BRANCH  32  34
ATOM     34  C23 23H d   1     -16.798  15.515 -20.035  0.00  0.00    -0.015 C 
ATOM     35  H17 23H d   1     -15.777  15.734 -20.381  0.00  0.00     0.057 H 
ATOM     36  H18 23H d   1     -16.853  14.470 -19.695  0.00  0.00     0.057 H 
ATOM     37  H19 23H d   1     -17.055  16.186 -19.202  0.00  0.00     0.057 H 
ENDBRANCH  32  34
ENDBRANCH   4  26
ENDBRANCH   3   4
BRANCH   3  38
ATOM     38  C11 23H d   1     -16.103  14.034 -23.742  0.00  0.00     0.038 A 
ATOM     39  C12 23H d   1     -17.007  14.078 -24.793  0.00  0.00    -0.055 A 
ATOM     40  C13 23H d   1     -17.804  12.973 -25.116  0.00  0.00    -0.055 A 
ATOM     41  H20 23H d   1     -17.098  14.987 -25.377  0.00  0.00     0.087 H 
ATOM     42  C14 23H d   1     -17.688  11.786 -24.394  0.00  0.00     0.034 A 
ATOM     43  H21 23H d   1     -18.515  13.041 -25.932  0.00  0.00     0.087 H 
ATOM     44  C15 23H d   1     -16.777  11.737 -23.337  0.00  0.00    -0.055 A 
ATOM     45  C16 23H d   1     -15.997  12.856 -23.001  0.00  0.00    -0.055 A 
ATOM     46  H23 23H d   1     -16.670  10.821 -22.767  0.00  0.00     0.087 H 
ATOM     47  H22 23H d   1     -15.311  12.804 -22.164  0.00  0.00     0.087 H 
BRANCH  42  48
ATOM     48  N6  23H d   1     -18.407  10.627 -24.637  0.00  0.00    -0.328 N 
ATOM     49  C17 23H d   1     -19.380  10.385 -25.522  0.00  0.00     0.218 C 
ATOM     50  O3  23H d   1     -19.766  11.279 -26.261  0.00  0.00    -0.274 OA
ATOM     51  H24 23H d   1     -18.160   9.849 -24.060  0.00  0.00     0.169 HD
BRANCH  49  52
ATOM     52  C18 23H d   1     -20.053   9.058 -25.645  0.00  0.00    -0.003 C 
ATOM     53  H25 23H d   1     -20.814   9.105 -26.437  0.00  0.00     0.040 H 
ATOM     54  H26 23H d   1     -20.534   8.801 -24.690  0.00  0.00     0.040 H 
ATOM     55  H27 23H d   1     -19.307   8.291 -25.899  0.00  0.00     0.040 H 
ENDBRANCH  49  52
ENDBRANCH  42  48
ENDBRANCH   3  38
BRANCH   2  56
ATOM     56  C4  23H d   1     -13.297  14.052 -24.338  0.00  0.00     0.088 C 
ATOM     57  H28 23H d   1     -13.855  13.637 -25.190  0.00  0.00     0.081 H 
ATOM     58  H29 23H d   1     -13.163  13.273 -23.573  0.00  0.00     0.081 H 
BRANCH  56  59
ATOM     59  N3  23H d   1     -12.018  14.547 -24.774  0.00  0.00    -0.263 N 
ATOM     60  N4  23H d   1     -10.907  14.323 -24.018  0.00  0.00     0.006 NA
ATOM     61  N5  23H d   1      -9.814  14.943 -24.563  0.00  0.00    -0.158 NA
ATOM     62  C10 23H d   1     -10.281  15.585 -25.666  0.00  0.00     0.102 A 
ATOM     63  C5  23H d   1     -11.659  15.349 -25.788  0.00  0.00     0.079 A 
ATOM     64  C9  23H d   1      -9.583  16.376 -26.572  0.00  0.00    -0.052 A 
ATOM     65  C6  23H d   1     -12.387  15.914 -26.848  0.00  0.00    -0.054 A 
ATOM     66  C7  23H d   1     -11.680  16.703 -27.763  0.00  0.00    -0.081 A 
ATOM     67  H33 23H d   1     -13.453  15.746 -26.953  0.00  0.00     0.087 H 
ATOM     68  C8  23H d   1     -10.302  16.940 -27.640  0.00  0.00    -0.081 A 
ATOM     69  H32 23H d   1     -12.215  17.146 -28.595  0.00  0.00     0.083 H 
ATOM     70  H31 23H d   1      -9.792  17.559 -28.369  0.00  0.00     0.083 H 
ATOM     71  H30 23H d   1      -8.519  16.552 -26.458  0.00  0.00     0.087 H 
ENDBRANCH  56  59
ENDBRANCH   2  56
TORSDOF 14
