REMARK  30 active torsions:
REMARK  status: ('A' for Active; 'I' for Inactive)
REMARK    1  A    between atoms: C13_5  and  C14_16 
REMARK    2  A    between atoms: O10_47  and  C13_5 
REMARK    3  A    between atoms: C3_6  and  N11_32 
REMARK    4  A    between atoms: C2_7  and  O10_47 
REMARK    5  A    between atoms: C1_8  and  O9_40 
REMARK    6  A    between atoms: C26_9  and  O30_41 
REMARK    7  A    between atoms: C27_10  and  O31_42 
REMARK    8  A    between atoms: C24_17  and  C25_11 
REMARK    9  A    between atoms: C6_12  and  C7_18 
REMARK   10  A    between atoms: C28_13  and  N32_31 
REMARK   11  A    between atoms: O12_48  and  C4_14 
REMARK   12  A    between atoms: C51_19  and  C52_15 
REMARK   13  A    between atoms: C14_16  and  C40_29 
REMARK   14  A    between atoms: O23_49  and  C24_17 
REMARK   15  A    between atoms: C7_18  and  O8_43 
REMARK   16  A    between atoms: C50_20  and  C51_19 
REMARK   17  A    between atoms: C49_21  and  C50_20 
REMARK   18  A    between atoms: C48_22  and  C49_21 
REMARK   19  A    between atoms: C47_23  and  C48_22 
REMARK   20  A    between atoms: C46_24  and  C47_23 
REMARK   21  A    between atoms: C45_25  and  C46_24 
REMARK   22  A    between atoms: C44_26  and  C45_25 
REMARK   23  A    between atoms: C43_27  and  C44_26 
REMARK   24  A    between atoms: C42_28  and  C43_27 
REMARK   25  A    between atoms: C40_29  and  C42_28 
REMARK   26  A    between atoms: C40_29  and  O41_44 
REMARK   27  A    between atoms: P16_51  and  O12_48 
REMARK   28  A    between atoms: P20_52  and  O23_49 
REMARK   29  A    between atoms: O19_50  and  P16_51 
REMARK   30  A    between atoms: O19_50  and  P20_52 
ROOT
ATOM      1  C3  24G d   1      33.887 -42.761  -8.110  0.00  0.00     0.175 C 
ATOM      2  C2  24G d   1      34.968 -43.012  -9.148  0.00  0.00     0.107 C 
ATOM      3  C1  24G d   1      34.452 -43.217 -10.583  0.00  0.00     0.090 C 
ATOM      4  C6  24G d   1      33.306 -42.248 -10.895  0.00  0.00     0.089 C 
ATOM      5  C4  24G d   1      32.722 -41.911  -8.624  0.00  0.00     0.173 C 
ATOM      6  O5  24G d   1      32.267 -42.355  -9.917  0.00  0.00    -0.348 OA
ATOM      7  H3  24G d   1      33.473 -43.734  -7.809  0.00  0.00     0.096 H 
ATOM      8  H4  24G d   1      35.607 -42.117  -9.179  0.00  0.00     0.091 H 
ATOM      9  H5  24G d   1      34.115 -44.256 -10.716  0.00  0.00     0.091 H 
ATOM     10  H9  24G d   1      33.720 -41.230 -10.846  0.00  0.00     0.090 H 
ATOM     11  H11 24G d   1      31.883 -42.118  -7.944  0.00  0.00     0.133 H 
ENDROOT
BRANCH   2  12
ATOM     12  O10 24G d   1      35.771 -44.103  -8.667  0.00  0.00    -0.311 OA
BRANCH  12  13
ATOM     13  C13 24G d   1      37.083 -43.749  -8.416  0.00  0.00     0.261 C 
ATOM     14  O15 24G d   1      37.587 -42.665  -8.685  0.00  0.00    -0.265 OA
BRANCH  13  15
ATOM     15  C14 24G d   1      37.897 -44.831  -7.756  0.00  0.00     0.040 C 
ATOM     16  H15 24G d   1      38.051 -44.549  -6.704  0.00  0.00     0.051 H 
ATOM     17  H16 24G d   1      38.870 -44.887  -8.267  0.00  0.00     0.051 H 
BRANCH  15  18
ATOM     18  C40 24G d   1      37.269 -46.209  -7.787  0.00  0.00     0.044 C 
ATOM     19  H41 24G d   1      37.035 -46.510  -8.819  0.00  0.00     0.083 H 
BRANCH  18  20
ATOM     20  C42 24G d   1      38.221 -47.188  -7.140  0.00  0.00    -0.041 C 
ATOM     21  H39 24G d   1      39.173 -46.675  -6.938  0.00  0.00     0.036 H 
ATOM     22  H40 24G d   1      37.783 -47.535  -6.193  0.00  0.00     0.036 H 
BRANCH  20  23
ATOM     23  C43 24G d   1      38.491 -48.388  -8.021  0.00  0.00    -0.063 C 
ATOM     24  H37 24G d   1      37.548 -48.924  -8.206  0.00  0.00     0.033 H 
ATOM     25  H38 24G d   1      38.914 -48.050  -8.978  0.00  0.00     0.033 H 
BRANCH  23  26
ATOM     26  C44 24G d   1      39.475 -49.320  -7.337  0.00  0.00    -0.065 C 
ATOM     27  H35 24G d   1      40.409 -48.770  -7.152  0.00  0.00     0.033 H 
ATOM     28  H36 24G d   1      39.044 -49.644  -6.378  0.00  0.00     0.033 H 
BRANCH  26  29
ATOM     29  C45 24G d   1      39.793 -50.549  -8.165  0.00  0.00    -0.065 C 
ATOM     30  H33 24G d   1      39.146 -51.380  -7.846  0.00  0.00     0.033 H 
ATOM     31  H34 24G d   1      39.611 -50.329  -9.227  0.00  0.00     0.033 H 
BRANCH  29  32
ATOM     32  C46 24G d   1      41.246 -50.942  -7.975  0.00  0.00    -0.065 C 
ATOM     33  H31 24G d   1      41.829 -50.027  -7.792  0.00  0.00     0.033 H 
ATOM     34  H32 24G d   1      41.312 -51.601  -7.097  0.00  0.00     0.033 H 
BRANCH  32  35
ATOM     35  C47 24G d   1      41.858 -51.665  -9.158  0.00  0.00    -0.065 C 
ATOM     36  H29 24G d   1      41.096 -52.304  -9.629  0.00  0.00     0.033 H 
ATOM     37  H30 24G d   1      42.221 -50.927  -9.889  0.00  0.00     0.033 H 
BRANCH  35  38
ATOM     38  C48 24G d   1      43.009 -52.518  -8.695  0.00  0.00    -0.065 C 
ATOM     39  H27 24G d   1      43.788 -51.868  -8.270  0.00  0.00     0.033 H 
ATOM     40  H28 24G d   1      42.651 -53.214  -7.923  0.00  0.00     0.033 H 
BRANCH  38  41
ATOM     41  C49 24G d   1      43.598 -53.311  -9.838  0.00  0.00    -0.065 C 
ATOM     42  H25 24G d   1      43.239 -54.349  -9.789  0.00  0.00     0.033 H 
ATOM     43  H26 24G d   1      43.292 -52.861 -10.794  0.00  0.00     0.033 H 
BRANCH  41  44
ATOM     44  C50 24G d   1      45.111 -53.292  -9.730  0.00  0.00    -0.065 C 
ATOM     45  H23 24G d   1      45.538 -53.245 -10.743  0.00  0.00     0.033 H 
ATOM     46  H24 24G d   1      45.414 -52.400  -9.162  0.00  0.00     0.033 H 
BRANCH  44  47
ATOM     47  C51 24G d   1      45.652 -54.525  -9.029  0.00  0.00    -0.069 C 
ATOM     48  H21 24G d   1      46.041 -54.234  -8.042  0.00  0.00     0.032 H 
ATOM     49  H22 24G d   1      44.836 -55.252  -8.902  0.00  0.00     0.032 H 
BRANCH  47  50
ATOM     50  C52 24G d   1      46.765 -55.167  -9.829  0.00  0.00    -0.077 C 
ATOM     51  H12 24G d   1      47.135 -56.055  -9.296  0.00  0.00     0.027 H 
ATOM     52  H13 24G d   1      47.587 -54.447  -9.956  0.00  0.00     0.027 H 
ATOM     53  H14 24G d   1      46.382 -55.465 -10.816  0.00  0.00     0.027 H 
ENDBRANCH  47  50
ENDBRANCH  44  47
ENDBRANCH  41  44
ENDBRANCH  38  41
ENDBRANCH  35  38
ENDBRANCH  32  35
ENDBRANCH  29  32
ENDBRANCH  26  29
ENDBRANCH  23  26
ENDBRANCH  20  23
ENDBRANCH  18  20
BRANCH  18  54
ATOM     54  O41 24G d   1      36.095 -46.168  -6.984  0.00  0.00    -0.395 OA
ATOM     55  H50 24G d   1      35.473 -45.559  -7.365  0.00  0.00     0.210 HD
ENDBRANCH  18  54
ENDBRANCH  15  18
ENDBRANCH  13  15
ENDBRANCH  12  13
ENDBRANCH   2  12
BRANCH   1  56
ATOM     56  N11 24G d   1      34.519 -42.152  -6.952  0.00  0.00    -0.068 N 
ATOM     57  H43 24G d   1      35.280 -42.735  -6.639  0.00  0.00     0.275 HD
ATOM     58  H44 24G d   1      33.842 -42.057  -6.211  0.00  0.00     0.275 HD
ATOM     59  H45 24G d   1      34.874 -41.242  -7.202  0.00  0.00     0.275 HD
ENDBRANCH   1  56
BRANCH   3  60
ATOM     60  O9  24G d   1      35.517 -42.914 -11.483  0.00  0.00    -0.390 OA
ATOM     61  H46 24G d   1      36.247 -43.499 -11.316  0.00  0.00     0.210 HD
ENDBRANCH   3  60
BRANCH   5  62
ATOM     62  O12 24G d   1      32.964 -40.500  -8.486  0.00  0.00    -0.256 OA
BRANCH  62  63
ATOM     63  P16 24G d   1      31.717 -39.468  -8.211  0.00  0.00     0.420 P 
ATOM     64  O18 24G d   1      31.972 -38.338  -7.244  0.00  0.00    -0.624 OA
ATOM     65  O17 24G d   1      30.377 -40.339  -7.878  0.00  0.00    -0.624 OA
BRANCH  63  66
ATOM     66  O19 24G d   1      31.375 -38.959  -9.703  0.00  0.00    -0.180 OA
BRANCH  66  67
ATOM     67  P20 24G d   1      31.894 -37.631 -10.467  0.00  0.00     0.417 P 
ATOM     68  O21 24G d   1      32.476 -36.615  -9.508  0.00  0.00    -0.624 OA
ATOM     69  O22 24G d   1      30.510 -37.189 -11.217  0.00  0.00    -0.624 OA
BRANCH  67  70
ATOM     70  O23 24G d   1      32.861 -38.289 -11.622  0.00  0.00    -0.287 OA
BRANCH  70  71
ATOM     71  C24 24G d   1      34.070 -37.652 -12.011  0.00  0.00     0.058 C 
ATOM     72  H17 24G d   1      34.147 -36.682 -11.498  0.00  0.00     0.079 H 
ATOM     73  H18 24G d   1      34.920 -38.288 -11.723  0.00  0.00     0.079 H 
BRANCH  71  74
ATOM     74  C25 24G d   1      34.107 -37.423 -13.519  0.00  0.00     0.089 C 
ATOM     75  C26 24G d   1      33.676 -36.011 -13.857  0.00  0.00     0.091 C 
ATOM     76  C27 24G d   1      32.406 -36.170 -14.664  0.00  0.00     0.105 C 
ATOM     77  H6  24G d   1      33.468 -35.439 -12.941  0.00  0.00     0.091 H 
ATOM     78  C28 24G d   1      32.405 -37.622 -15.124  0.00  0.00     0.141 C 
ATOM     79  H7  24G d   1      31.541 -36.005 -14.004  0.00  0.00     0.093 H 
ATOM     80  O29 24G d   1      33.263 -38.348 -14.224  0.00  0.00    -0.353 OA
ATOM     81  H10 24G d   1      32.858 -37.651 -16.126  0.00  0.00     0.123 H 
ATOM     82  H8  24G d   1      35.143 -37.567 -13.861  0.00  0.00     0.090 H 
BRANCH  75  83
ATOM     83  O30 24G d   1      34.715 -35.364 -14.583  0.00  0.00    -0.390 OA
ATOM     84  H47 24G d   1      34.447 -34.478 -14.796  0.00  0.00     0.210 HD
ENDBRANCH  75  83
BRANCH  76  85
ATOM     85  O31 24G d   1      32.304 -35.238 -15.739  0.00  0.00    -0.388 OA
ATOM     86  H48 24G d   1      33.041 -35.353 -16.327  0.00  0.00     0.210 HD
ENDBRANCH  76  85
BRANCH  78  87
ATOM     87  N32 24G d   1      31.080 -38.241 -15.249  0.00  0.00    -0.280 N 
ATOM     88  C37 24G d   1      30.291 -38.345 -14.123  0.00  0.00    -0.008 A 
ATOM     89  C36 24G d   1      29.068 -38.882 -14.084  0.00  0.00    -0.002 A 
ATOM     90  H2  24G d   1      30.698 -37.958 -13.190  0.00  0.00     0.112 H 
ATOM     91  C35 24G d   1      28.544 -39.401 -15.366  0.00  0.00     0.250 A 
ATOM     92  H1  24G d   1      28.491 -38.934 -13.162  0.00  0.00     0.094 H 
ATOM     93  N34 24G d   1      29.360 -39.274 -16.468  0.00  0.00    -0.275 N 
ATOM     94  O39 24G d   1      27.435 -39.905 -15.398  0.00  0.00    -0.268 OA
ATOM     95  C33 24G d   1      30.629 -38.726 -16.484  0.00  0.00     0.331 A 
ATOM     96  H42 24G d   1      29.001 -39.610 -17.339  0.00  0.00     0.173 HD
ATOM     97  O38 24G d   1      31.267 -38.692 -17.533  0.00  0.00    -0.246 OA
ENDBRANCH  78  87
ENDBRANCH  71  74
ENDBRANCH  70  71
ENDBRANCH  67  70
ENDBRANCH  66  67
ENDBRANCH  63  66
ENDBRANCH  62  63
ENDBRANCH   5  62
BRANCH   4  98
ATOM     98  C7  24G d   1      32.703 -42.430 -12.269  0.00  0.00     0.043 C 
ATOM     99  H19 24G d   1      32.274 -43.439 -12.357  0.00  0.00     0.078 H 
ATOM    100  H20 24G d   1      33.478 -42.292 -13.037  0.00  0.00     0.078 H 
BRANCH  98 101
ATOM    101  O8  24G d   1      31.684 -41.459 -12.435  0.00  0.00    -0.398 OA
ATOM    102  H49 24G d   1      31.020 -41.581 -11.767  0.00  0.00     0.209 HD
ENDBRANCH  98 101
ENDBRANCH   4  98
TORSDOF 30
