REMARK  6 active torsions:
REMARK  status: ('A' for Active; 'I' for Inactive)
REMARK    1  A    between atoms: C10_1  and  C9_2 
REMARK    2  A    between atoms: C7_10  and  N_11 
REMARK    3  A    between atoms: N_11  and  C6_12 
REMARK    4  A    between atoms: N_11  and  C5_13 
REMARK    5  A    between atoms: C5_13  and  C4_14 
REMARK    6  A    between atoms: C1_19  and  C_20 
ROOT
ATOM      1  N   25K d   1      29.279  15.255  -0.205  0.00  0.00    -0.365 N 
ENDROOT
BRANCH   1   2
ATOM      2  C7  25K d   1      30.341  16.125  -0.054  0.00  0.00     0.147 A 
ATOM      3  C8  25K d   1      30.178  17.288   0.756  0.00  0.00    -0.014 A 
ATOM      4  C9  25K d   1      31.297  18.132   1.003  0.00  0.00     0.053 A 
ATOM      5  H4  25K d   1      29.205  17.528   1.182  0.00  0.00     0.092 H 
ATOM      6  N1  25K d   1      32.556  17.944   0.469  0.00  0.00    -0.066 NA
ATOM      7  C11 25K d   1      32.702  16.872  -0.326  0.00  0.00     0.752 A 
ATOM      8  N4  25K d   1      31.612  15.908  -0.616  0.00  0.00    -0.042 N 
ATOM      9  N2  25K d   1      33.788  16.521  -1.046  0.00  0.00    -0.052 NA
ATOM     10  N3  25K d   1      32.070  14.924  -1.537  0.00  0.00    -0.143 NA
ATOM     11  C12 25K d   1      33.368  15.352  -1.755  0.00  0.00     0.126 A 
ATOM     12  H5  25K d   1      34.037  14.824  -2.433  0.00  0.00     0.150 H 
BRANCH   4  13
ATOM     13  C10 25K d   1      31.082  19.343   1.898  0.00  0.00    -0.035 C 
ATOM     14  H1  25K d   1      30.039  19.361   2.246  0.00  0.00     0.035 H 
ATOM     15  H2  25K d   1      31.295  20.261   1.330  0.00  0.00     0.035 H 
ATOM     16  H3  25K d   1      31.757  19.283   2.764  0.00  0.00     0.035 H 
ENDBRANCH   4  13
ENDBRANCH   1   2
BRANCH   1  17
ATOM     17  C6  25K d   1      28.077  15.415   0.679  0.00  0.00    -0.017 C 
ATOM     18  H6  25K d   1      27.332  14.646   0.427  0.00  0.00     0.056 H 
ATOM     19  H7  25K d   1      27.640  16.413   0.527  0.00  0.00     0.056 H 
ATOM     20  H8  25K d   1      28.378  15.303   1.731  0.00  0.00     0.056 H 
ENDBRANCH   1  17
BRANCH   1  21
ATOM     21  C5  25K d   1      29.133  14.513  -1.493  0.00  0.00     0.020 C 
ATOM     22  H9  25K d   1      28.341  13.758  -1.378  0.00  0.00     0.071 H 
ATOM     23  H10 25K d   1      30.085  14.013  -1.723  0.00  0.00     0.071 H 
BRANCH  21  24
ATOM     24  C4  25K d   1      28.774  15.421  -2.640  0.00  0.00    -0.040 A 
ATOM     25  C3  25K d   1      27.510  16.046  -2.622  0.00  0.00    -0.075 A 
ATOM     26  C2  25K d   1      27.123  16.867  -3.677  0.00  0.00    -0.077 A 
ATOM     27  H11 25K d   1      26.839  15.887  -1.786  0.00  0.00     0.084 H 
ATOM     28  C1  25K d   1      27.914  17.076  -4.734  0.00  0.00    -0.062 A 
ATOM     29  H12 25K d   1      26.153  17.350  -3.640  0.00  0.00     0.084 H 
ATOM     30  C14 25K d   1      29.194  16.452  -4.773  0.00  0.00    -0.077 A 
ATOM     31  C13 25K d   1      29.621  15.628  -3.706  0.00  0.00    -0.075 A 
ATOM     32  H14 25K d   1      29.845  16.610  -5.626  0.00  0.00     0.084 H 
ATOM     33  H13 25K d   1      30.601  15.166  -3.727  0.00  0.00     0.084 H 
BRANCH  28  34
ATOM     34  C   25K d   1      27.428  17.941  -5.870  0.00  0.00    -0.051 C 
ATOM     35  H15 25K d   1      26.422  18.321  -5.637  0.00  0.00     0.033 H 
ATOM     36  H16 25K d   1      27.390  17.346  -6.794  0.00  0.00     0.033 H 
ATOM     37  H17 25K d   1      28.117  18.787  -6.007  0.00  0.00     0.033 H 
ENDBRANCH  28  34
ENDBRANCH  21  24
ENDBRANCH   1  21
TORSDOF 6
