REMARK  5 active torsions:
REMARK  status: ('A' for Active; 'I' for Inactive)
REMARK    1  A    between atoms: C1_2  and  C_3 
REMARK       I    between atoms: C1_2  and  N_4 
REMARK    2  A    between atoms: N_4  and  C2_5 
REMARK    3  A    between atoms: C4_9  and  C5_11 
REMARK    4  A    between atoms: N1_18  and  O_19 
REMARK    5  A    between atoms: C7_20  and  C8_21 
ROOT
ATOM      1  C5  25V d   1      29.823  15.976  -0.046  0.00  0.00    -0.015 A 
ATOM      2  C14 25V d   1      30.794  15.415  -1.042  0.00  0.00     0.004 A 
ATOM      3  C13 25V d   1      30.519  14.311  -1.930  0.00  0.00    -0.070 A 
ATOM      4  C12 25V d   1      31.470  13.828  -2.808  0.00  0.00    -0.082 A 
ATOM      5  C11 25V d   1      32.778  14.430  -2.866  0.00  0.00    -0.081 A 
ATOM      6  C10 25V d   1      33.082  15.466  -2.031  0.00  0.00    -0.054 A 
ATOM      7  C9  25V d   1      32.085  15.993  -1.079  0.00  0.00     0.068 A 
ATOM      8  N1  25V d   1      32.426  17.116  -0.137  0.00  0.00    -0.252 N 
ATOM      9  C7  25V d   1      31.510  17.573   0.778  0.00  0.00     0.052 A 
ATOM     10  C6  25V d   1      30.212  17.029   0.839  0.00  0.00    -0.068 A 
ATOM     11  H9  25V d   1      29.539  13.848  -1.907  0.00  0.00     0.084 H 
ATOM     12  H10 25V d   1      31.231  12.992  -3.456  0.00  0.00     0.083 H 
ATOM     13  H11 25V d   1      33.517  14.062  -3.569  0.00  0.00     0.083 H 
ATOM     14  H12 25V d   1      34.071  15.909  -2.068  0.00  0.00     0.087 H 
ATOM     15  H14 25V d   1      31.156  18.337   0.070  0.00  0.00     0.082 H 
ATOM     16  H18 25V d   1      29.499  17.414   1.567  0.00  0.00     0.081 H 
ENDROOT
BRANCH   1  17
ATOM     17  C4  25V d   1      28.458  15.499   0.093  0.00  0.00    -0.023 A 
ATOM     18  C15 25V d   1      27.625  15.447  -1.023  0.00  0.00    -0.072 A 
ATOM     19  C16 25V d   1      26.347  14.980  -0.857  0.00  0.00    -0.080 A 
ATOM     20  H7  25V d   1      27.978  15.767  -1.996  0.00  0.00     0.084 H 
ATOM     21  C17 25V d   1      25.846  14.566   0.413  0.00  0.00    -0.057 A 
ATOM     22  H6  25V d   1      25.694  14.923  -1.721  0.00  0.00     0.083 H 
ATOM     23  C2  25V d   1      26.700  14.610   1.540  0.00  0.00     0.035 A 
ATOM     24  H5  25V d   1      24.823  14.222   0.513  0.00  0.00     0.086 H 
ATOM     25  C3  25V d   1      28.022  15.095   1.371  0.00  0.00    -0.046 A 
ATOM     26  H8  25V d   1      28.693  15.155   2.220  0.00  0.00     0.088 H 
BRANCH  23  27
ATOM     27  N   25V d   1      26.210  14.082   2.795  0.00  0.00    -0.327 N 
ATOM     28  C1  25V d   1      26.966  13.350   3.815  0.00  0.00     0.218 C 
ATOM     29  O1  25V d   1      28.171  13.129   3.743  0.00  0.00    -0.274 OA
ATOM     30  H4  25V d   1      25.241  14.235   2.989  0.00  0.00     0.169 HD
BRANCH  28  31
ATOM     31  C   25V d   1      26.175  12.901   4.985  0.00  0.00    -0.003 C 
ATOM     32  H1  25V d   1      25.124  13.197   4.852  0.00  0.00     0.040 H 
ATOM     33  H2  25V d   1      26.575  13.366   5.898  0.00  0.00     0.040 H 
ATOM     34  H3  25V d   1      26.239  11.806   5.073  0.00  0.00     0.040 H 
ENDBRANCH  28  31
ENDBRANCH  23  27
ENDBRANCH   1  17
BRANCH   9  35
ATOM     35  C8  25V d   1      31.972  18.644   1.735  0.00  0.00    -0.052 C 
ATOM     36  H15 25V d   1      31.145  18.916   2.408  0.00  0.00     0.030 H 
ATOM     37  H16 25V d   1      32.290  19.531   1.167  0.00  0.00     0.030 H 
ATOM     38  H17 25V d   1      32.818  18.266   2.328  0.00  0.00     0.030 H 
ENDBRANCH   9  35
BRANCH   8  39
ATOM     39  O   25V d   1      33.657  17.683  -0.222  0.00  0.00    -0.286 OA
ATOM     40  H13 25V d   1      33.732  18.372   0.427  0.00  0.00     0.244 HD
ENDBRANCH   8  39
TORSDOF 5
