REMARK  4 active torsions:
REMARK  status: ('A' for Active; 'I' for Inactive)
REMARK    1  A    between atoms: C7_8  and  C6_9 
REMARK    2  A    between atoms: C12_11  and  C13_12 
REMARK    3  A    between atoms: N1_19  and  C5_20 
REMARK    4  A    between atoms: C1_21  and  C_22 
ROOT
ATOM      1  C6  24Y d   1      36.162  25.025  11.234  0.00  0.00     0.145 A 
ATOM      2  N3  24Y d   1      36.027  24.119  12.222  0.00  0.00    -0.210 NA
ATOM      3  C12 24Y d   1      36.770  22.977  11.808  0.00  0.00     0.181 A 
ATOM      4  N4  24Y d   1      37.308  23.162  10.602  0.00  0.00    -0.143 NA
ATOM      5  N1  24Y d   1      36.941  24.389  10.204  0.00  0.00    -0.198 N 
ENDROOT
BRANCH   5   6
ATOM      6  C5  24Y d   1      37.289  24.876   8.890  0.00  0.00     0.158 A 
ATOM      7  C1  24Y d   1      36.447  24.810   7.737  0.00  0.00    -0.014 A 
ATOM      8  C2  24Y d   1      37.000  25.304   6.554  0.00  0.00    -0.072 A 
ATOM      9  C3  24Y d   1      38.297  25.851   6.557  0.00  0.00    -0.065 A 
ATOM     10  H14 24Y d   1      36.430  25.266   5.633  0.00  0.00     0.084 H 
ATOM     11  C4  24Y d   1      39.042  25.884   7.728  0.00  0.00     0.004 A 
ATOM     12  H13 24Y d   1      38.716  26.249   5.640  0.00  0.00     0.085 H 
ATOM     13  N   24Y d   1      38.563  25.397   8.899  0.00  0.00    -0.241 NA
ATOM     14  H12 24Y d   1      40.038  26.312   7.705  0.00  0.00     0.114 H 
BRANCH   7  15
ATOM     15  C   24Y d   1      35.046  24.330   7.724  0.00  0.00    -0.048 C 
ATOM     16  H9  24Y d   1      34.647  24.391   6.701  0.00  0.00     0.033 H 
ATOM     17  H10 24Y d   1      34.438  24.956   8.393  0.00  0.00     0.033 H 
ATOM     18  H11 24Y d   1      35.013  23.286   8.069  0.00  0.00     0.033 H 
ENDBRANCH   7  15
ENDBRANCH   5   6
BRANCH   1  19
ATOM     19  C7  24Y d   1      35.647  26.354  11.220  0.00  0.00     0.056 A 
ATOM     20  C8  24Y d   1      34.492  26.642  12.040  0.00  0.00    -0.061 A 
ATOM     21  C9  24Y d   1      33.946  27.909  11.934  0.00  0.00     0.101 A 
ATOM     22  H1  24Y d   1      34.070  25.895  12.711  0.00  0.00     0.081 H 
ATOM     23 CL   24Y d   1      32.584  28.377  12.799  0.00  0.00    -0.079 Cl
ATOM     24  C10 24Y d   1      34.458  28.973  11.043  0.00  0.00     0.287 A 
ATOM     25  O   24Y d   1      33.986  30.106  10.888  0.00  0.00    -0.264 OA
ATOM     26  N2  24Y d   1      35.604  28.593  10.255  0.00  0.00    -0.224 NA
ATOM     27  C11 24Y d   1      36.175  27.386  10.350  0.00  0.00     0.001 A 
ATOM     28  H2  24Y d   1      37.063  27.173   9.756  0.00  0.00     0.109 H 
ATOM     29  H3  24Y d   1      36.336  26.654  12.023  0.00  0.00     0.066 H 
ENDBRANCH   1  19
BRANCH   3  30
ATOM     30  C13 24Y d   1      36.827  21.701  12.532  0.00  0.00     0.013 A 
ATOM     31  C18 24Y d   1      35.965  21.489  13.563  0.00  0.00    -0.069 A 
ATOM     32  C17 24Y d   1      35.975  20.277  14.308  0.00  0.00    -0.082 A 
ATOM     33  H4  24Y d   1      35.252  22.263  13.823  0.00  0.00     0.085 H 
ATOM     34  C16 24Y d   1      36.854  19.299  13.962  0.00  0.00    -0.083 A 
ATOM     35  H5  24Y d   1      35.293  20.136  15.138  0.00  0.00     0.083 H 
ATOM     36  C15 24Y d   1      37.704  19.506  12.884  0.00  0.00    -0.082 A 
ATOM     37  H6  24Y d   1      36.891  18.370  14.520  0.00  0.00     0.083 H 
ATOM     38  C14 24Y d   1      37.691  20.652  12.152  0.00  0.00    -0.069 A 
ATOM     39  H7  24Y d   1      38.405  18.724  12.616  0.00  0.00     0.083 H 
ATOM     40  H8  24Y d   1      38.336  20.758  11.287  0.00  0.00     0.085 H 
ENDBRANCH   3  30
TORSDOF 4
