REMARK  3 active torsions:
REMARK  status: ('A' for Active; 'I' for Inactive)
REMARK    1  A    between atoms: C3_11  and  C4_1 
REMARK    2  A    between atoms: C11_4  and  N3_12 
REMARK    3  A    between atoms: C1_13  and  C_14 
ROOT
ATOM      1  C11 25O d   1      33.099  15.500  -1.929  0.00  0.00     0.258 A 
ATOM      2  C10 25O d   1      32.667  16.934  -0.372  0.00  0.00     0.753 A 
ATOM      3  N1  25O d   1      32.669  17.878   0.568  0.00  0.00    -0.066 NA
ATOM      4  N2  25O d   1      33.702  16.484  -1.132  0.00  0.00    -0.023 NA
ATOM      5  C3  25O d   1      30.192  16.552  -0.188  0.00  0.00     0.089 A 
ATOM      6  C1  25O d   1      31.454  18.159   1.143  0.00  0.00     0.052 A 
ATOM      7  N4  25O d   1      31.735  15.297  -1.743  0.00  0.00    -0.113 NA
ATOM      8  N   25O d   1      31.445  16.214  -0.766  0.00  0.00    -0.056 N 
ATOM      9  C2  25O d   1      30.257  17.522   0.789  0.00  0.00    -0.030 A 
ATOM     10  H11 25O d   1      29.341  17.805   1.307  0.00  0.00     0.090 H 
ENDROOT
BRANCH   5  11
ATOM     11  C4  25O d   1      29.031  15.791  -0.610  0.00  0.00    -0.007 A 
ATOM     12  C5  25O d   1      27.961  15.472   0.180  0.00  0.00    -0.071 A 
ATOM     13  C6  25O d   1      26.823  14.949  -0.377  0.00  0.00    -0.082 A 
ATOM     14  H1  25O d   1      28.013  15.633   1.251  0.00  0.00     0.084 H 
ATOM     15  C7  25O d   1      26.704  14.790  -1.711  0.00  0.00    -0.083 A 
ATOM     16  H2  25O d   1      26.002  14.657   0.268  0.00  0.00     0.083 H 
ATOM     17  C8  25O d   1      27.707  15.126  -2.528  0.00  0.00    -0.082 A 
ATOM     18  H3  25O d   1      25.787  14.386  -2.124  0.00  0.00     0.083 H 
ATOM     19  C9  25O d   1      28.897  15.616  -1.986  0.00  0.00    -0.071 A 
ATOM     20  H4  25O d   1      27.598  15.019  -3.601  0.00  0.00     0.083 H 
ATOM     21  H5  25O d   1      29.724  15.863  -2.642  0.00  0.00     0.084 H 
ENDBRANCH   5  11
BRANCH   6  22
ATOM     22  C   25O d   1      31.338  19.249   2.225  0.00  0.00    -0.035 C 
ATOM     23  H8  25O d   1      30.293  19.324   2.559  0.00  0.00     0.035 H 
ATOM     24  H9  25O d   1      31.660  20.215   1.809  0.00  0.00     0.035 H 
ATOM     25  H10 25O d   1      31.978  18.986   3.080  0.00  0.00     0.035 H 
ENDBRANCH   6  22
BRANCH   1  26
ATOM     26  N3  25O d   1      33.891  14.783  -2.839  0.00  0.00    -0.366 N 
ATOM     27  H6  25O d   1      34.897  14.990  -2.921  0.00  0.00     0.159 HD
ATOM     28  H7  25O d   1      33.467  14.050  -3.425  0.00  0.00     0.159 HD
ENDBRANCH   1  26
TORSDOF 3
