REMARK  20 active torsions:
REMARK  status: ('A' for Active; 'I' for Inactive)
REMARK    1  A    between atoms: CCA_2  and  CCB_1 
REMARK    2  A    between atoms: CCA_2  and  CCC_3 
REMARK    3  A    between atoms: CBZ_4  and  CCA_2 
REMARK    4  A    between atoms: CBZ_4  and  OCF_5 
REMARK    5  A    between atoms: CBY_6  and  CBZ_4 
REMARK    6  A    between atoms: CBY_6  and  CCE_7 
REMARK    7  A    between atoms: CBX_8  and  CBY_6 
REMARK       I    between atoms: N_10  and  CBX_8 
REMARK    8  A    between atoms: CA_11  and  N_10 
REMARK    9  A    between atoms: CB_14  and  CG2_16 
REMARK   10  A    between atoms: CA_18  and  CB_19 
REMARK   11  A    between atoms: CB_19  and  CG2_20 
REMARK   12  A    between atoms: CB_19  and  CG1_21 
REMARK   13  A    between atoms: CG1_21  and  CD1_22 
REMARK   14  A    between atoms: N_37  and  C1_36 
REMARK   15  A    between atoms: CA_38  and  CB_41 
REMARK   16  A    between atoms: CB_41  and  CG_42 
REMARK   17  A    between atoms: CA_49  and  CB_50 
REMARK   18  A    between atoms: CB_50  and  OG1_51 
REMARK   19  A    between atoms: CB_50  and  CG2_52 
REMARK   20  A    between atoms: CAH_65  and  CBP_66 
ROOT
ATOM      1  CA  THR d   1      22.799 105.709   1.928  0.00  0.00     0.114 C 
ATOM      2  C   THR d   1      21.503 105.249   1.722  0.00  0.00     0.243 C 
ATOM      3  O   THR d   1      21.206 104.648   0.691  0.00  0.00    -0.271 OA
ATOM      4  CB  THR d   1      23.500 104.814   2.937  0.00  0.00     0.072 C 
ATOM      5  OG1 THR d   1      22.576 103.836   3.435  0.00  0.00    -0.312 OA
ATOM      6  H   THR d   1      23.350 105.689   0.976  0.00  0.00     0.091 H 
ATOM      7  H   THR d   1      24.345 104.305   2.450  0.00  0.00     0.087 H 
ATOM      8  N   28J d   1      20.526 105.474   2.699  0.00  0.00    -0.346 N 
ATOM      9  CA  28J d   1      19.144 104.988   2.487  0.00  0.00     0.092 C 
ATOM     10  C   28J d   1      18.542 104.751   3.718  0.00  0.00     0.241 C 
ATOM     11  O   28J d   1      18.382 105.665   4.526  0.00  0.00    -0.271 OA
ATOM     12  H   28J d   1      20.762 105.963   3.539  0.00  0.00     0.163 HD
ATOM     13  H   28J d   1      19.181 104.048   1.917  0.00  0.00     0.088 H 
ATOM     14  N   D4P d   1      18.112 103.459   4.040  0.00  0.00    -0.342 N 
ATOM     15  CA  D4P d   1      17.470 103.197   5.348  0.00  0.00     0.115 C 
ATOM     16  C   D4P d   1      18.437 102.824   6.274  0.00  0.00     0.247 C 
ATOM     17  O   D4P d   1      19.343 102.053   5.961  0.00  0.00    -0.271 OA
ATOM     18  C1  D4P d   1      16.540 102.173   5.211  0.00  0.00    -0.026 A 
ATOM     19  C2  D4P d   1      16.748 100.956   5.850  0.00  0.00    -0.072 A 
ATOM     20  C3  D4P d   1      15.818  99.932   5.713  0.00  0.00    -0.050 A 
ATOM     21  C4  D4P d   1      14.680 100.124   4.938  0.00  0.00     0.069 A 
ATOM     22  O4  D4P d   1      13.771  99.122   4.804  0.00  0.00    -0.343 OA
ATOM     23  C5  D4P d   1      14.473 101.342   4.299  0.00  0.00    -0.050 A 
ATOM     24  C6  D4P d   1      15.403 102.366   4.436  0.00  0.00    -0.072 A 
ATOM     25  H   D4P d   1      18.238 102.713   3.387  0.00  0.00     0.163 HD
ATOM     26  H   D4P d   1      16.962 104.109   5.696  0.00  0.00     0.095 H 
ATOM     27  H   D4P d   1      17.635 100.806   6.455  0.00  0.00     0.084 H 
ATOM     28  H   D4P d   1      15.980  98.983   6.211  0.00  0.00     0.087 H 
ATOM     29  H   D4P d   1      13.586 101.493   3.694  0.00  0.00     0.087 H 
ATOM     30  H   D4P d   1      15.241 103.315   3.938  0.00  0.00     0.084 H 
ATOM     31  N   MEA d   1      18.383 103.311   7.521  0.00  0.00    -0.341 N 
ATOM     32  CA  MEA d   1      19.409 102.919   8.513  0.00  0.00     0.095 C 
ATOM     33  C   MEA d   1      20.649 103.405   8.115  0.00  0.00     0.241 C 
ATOM     34  O   MEA d   1      21.653 102.698   8.183  0.00  0.00    -0.271 OA
ATOM     35  H   MEA d   1      19.146 103.357   9.487  0.00  0.00     0.088 H 
ATOM     36  N   2TL d   1      20.756 104.714   7.630  0.00  0.00    -0.344 N 
ATOM     37  CA  2TL d   1      22.073 105.239   7.204  0.00  0.00     0.113 C 
ATOM     38  C   2TL d   1      22.743 104.267   6.469  0.00  0.00     0.243 C 
ATOM     39  O   2TL d   1      23.967 104.301   6.352  0.00  0.00    -0.271 OA
ATOM     40  H   2TL d   1      19.943 105.294   7.571  0.00  0.00     0.163 HD
ATOM     41  H   2TL d   1      22.664 105.486   8.098  0.00  0.00     0.091 H 
ATOM     42  N   SER d   1      22.016 103.239   5.856  0.00  0.00    -0.343 N 
ATOM     43  CA  SER d   1      22.720 102.200   5.073  0.00  0.00     0.117 C 
ATOM     44  C   SER d   1      23.263 102.771   3.927  0.00  0.00     0.284 C 
ATOM     45  O   SER d   1      24.290 102.322   3.421  0.00  0.00    -0.263 OA
ATOM     46  CB  SER d   1      21.773 101.078   4.680  0.00  0.00     0.056 C 
ATOM     47  OG  SER d   1      20.878 101.543   3.659  0.00  0.00    -0.318 OA
ATOM     48  H   SER d   1      21.021 103.207   5.948  0.00  0.00     0.163 HD
ATOM     49  H   SER d   1      23.531 101.781   5.687  0.00  0.00     0.091 H 
ATOM     50  H   SER d   1      21.193 100.763   5.560  0.00  0.00     0.079 H 
ATOM     51  H   SER d   1      22.353 100.225   4.298  0.00  0.00     0.079 H 
ATOM     52  N   GLY d   1      18.806 100.138   1.291  0.00  0.00    -0.348 N 
ATOM     53  CA  GLY d   1      20.078 100.829   1.603  0.00  0.00     0.075 C 
ATOM     54  C   GLY d   1      20.485 100.493   2.889  0.00  0.00     0.276 C 
ATOM     55  O   GLY d   1      20.478  99.324   3.271  0.00  0.00    -0.263 OA
ATOM     56  H   GLY d   1      18.727  99.585   0.461  0.00  0.00     0.163 HD
ATOM     57  H   GLY d   1      19.930 101.917   1.538  0.00  0.00     0.079 H 
ATOM     58  H   GLY d   1      20.849 100.520   0.882  0.00  0.00     0.079 H 
ATOM     59  CAH 28K d   1      13.164  99.197   3.506  0.00  0.00     0.077 C 
ATOM     60  CAG 28K d   1      14.240  99.082   2.433  0.00  0.00     0.126 A 
ATOM     61  OBO 28K d   1      14.303  97.859   1.680  0.00  0.00    -0.368 OA
ATOM     62  CBN 28K d   1      13.794  99.041   1.003  0.00  0.00     0.056 A 
ATOM     63  CAF 28K d   1      15.434  99.730   2.725  0.00  0.00    -0.060 C 
ATOM     64  CAE 28K d   1      16.519  99.611   1.865  0.00  0.00    -0.018 C 
ATOM     65  CAD 28K d   1      17.714 100.259   2.158  0.00  0.00     0.241 C 
ATOM     66  OBM 28K d   1      17.810 100.938   3.178  0.00  0.00    -0.269 OA
ATOM     67  H   28K d   1      12.644 100.160   3.400  0.00  0.00     0.088 H 
ATOM     68  H   28K d   1      14.391  99.533   0.221  0.00  0.00     0.079 H 
ATOM     69  H   28K d   1      12.726  99.120   0.752  0.00  0.00     0.079 H 
ATOM     70  H   28K d   1      15.520 100.332   3.629  0.00  0.00     0.082 H 
ATOM     71  H   28K d   1      16.433  99.010   0.961  0.00  0.00     0.091 H 
ENDROOT
BRANCH   1  72
ATOM     72  N   THR d   1      22.756 107.086   2.439  0.00  0.00    -0.345 N 
ATOM     73  CBX 28H d   1      22.118 108.067   1.786  0.00  0.00     0.224 C 
ATOM     74  OCD 28H d   1      21.521 107.910   0.722  0.00  0.00    -0.273 OA
ATOM     75  H   THR d   1      23.217 107.298   3.301  0.00  0.00     0.163 HD
BRANCH  73  76
ATOM     76  CBY 28H d   1      22.175 109.438   2.463  0.00  0.00     0.045 C 
ATOM     77  H   28H d   1      22.041 110.225   1.707  0.00  0.00     0.058 H 
BRANCH  76  78
ATOM     78  CBZ 28H d   1      21.060 109.539   3.506  0.00  0.00     0.050 C 
ATOM     79  H   28H d   1      21.392 110.181   4.335  0.00  0.00     0.084 H 
BRANCH  78  80
ATOM     80  CCA 28H d   1      19.811 110.145   2.862  0.00  0.00    -0.035 C 
ATOM     81  H   28H d   1      19.013 110.226   3.615  0.00  0.00     0.042 H 
BRANCH  80  82
ATOM     82  CCB 28H d   1      20.140 111.536   2.318  0.00  0.00    -0.071 C 
ATOM     83  H   28H d   1      19.242 111.971   1.855  0.00  0.00     0.028 H 
ATOM     84  H   28H d   1      20.938 111.456   1.565  0.00  0.00     0.028 H 
ATOM     85  H   28H d   1      20.477 112.182   3.142  0.00  0.00     0.028 H 
ENDBRANCH  80  82
BRANCH  80  86
ATOM     86  CCC 28H d   1      19.341 109.246   1.717  0.00  0.00    -0.071 C 
ATOM     87  H   28H d   1      19.105 108.246   2.109  0.00  0.00     0.028 H 
ATOM     88  H   28H d   1      20.138 109.165   0.963  0.00  0.00     0.028 H 
ATOM     89  H   28H d   1      18.442 109.680   1.255  0.00  0.00     0.028 H 
ENDBRANCH  80  86
ENDBRANCH  78  80
BRANCH  78  90
ATOM     90  OCF 28H d   1      20.755 108.235   4.007  0.00  0.00    -0.394 OA
ATOM     91  H   28H d   1      21.532 107.861   4.406  0.00  0.00     0.210 HD
ENDBRANCH  78  90
ENDBRANCH  76  78
BRANCH  76  92
ATOM     92  CCE 28H d   1      23.532 109.614   3.146  0.00  0.00    -0.062 C 
ATOM     93  H   28H d   1      24.333 109.541   2.395  0.00  0.00     0.028 H 
ATOM     94  H   28H d   1      23.666 108.827   3.903  0.00  0.00     0.028 H 
ATOM     95  H   28H d   1      23.573 110.600   3.631  0.00  0.00     0.028 H 
ENDBRANCH  76  92
ENDBRANCH  73  76
ENDBRANCH   1  72
BRANCH   4  96
ATOM     96  CG2 THR d   1      24.019 105.664   4.099  0.00  0.00    -0.049 C 
ATOM     97  H   THR d   1      24.526 105.016   4.829  0.00  0.00     0.031 H 
ATOM     98  H   THR d   1      23.175 106.174   4.586  0.00  0.00     0.031 H 
ATOM     99  H   THR d   1      24.729 106.412   3.717  0.00  0.00     0.031 H 
ENDBRANCH   4  96
BRANCH   9 100
ATOM    100  CB  28J d   1      18.318 106.009   1.703  0.00  0.00    -0.030 C 
ATOM    101  H   28J d   1      18.830 106.982   1.717  0.00  0.00     0.043 H 
BRANCH 100 102
ATOM    102  CG2 28J d   1      18.162 105.537   0.256  0.00  0.00    -0.071 C 
ATOM    103  H   28J d   1      17.568 106.272  -0.307  0.00  0.00     0.028 H 
ATOM    104  H   28J d   1      17.651 104.563   0.241  0.00  0.00     0.028 H 
ATOM    105  H   28J d   1      19.155 105.437  -0.206  0.00  0.00     0.028 H 
ENDBRANCH 100 102
BRANCH 100 106
ATOM    106  CG1 28J d   1      16.937 106.151   2.345  0.00  0.00    -0.063 C 
ATOM    107  H   28J d   1      16.869 105.487   3.219  0.00  0.00     0.033 H 
ATOM    108  H   28J d   1      16.163 105.875   1.614  0.00  0.00     0.033 H 
BRANCH 106 109
ATOM    109  CD1 28J d   1      16.726 107.601   2.788  0.00  0.00    -0.076 C 
ATOM    110  H   28J d   1      15.733 107.703   3.250  0.00  0.00     0.027 H 
ATOM    111  H   28J d   1      16.794 108.265   1.914  0.00  0.00     0.027 H 
ATOM    112  H   28J d   1      17.500 107.877   3.519  0.00  0.00     0.027 H 
ENDBRANCH 106 109
ENDBRANCH 100 106
ENDBRANCH   9 100
BRANCH  37 113
ATOM    113  CB  2TL d   1      21.911 106.501   6.354  0.00  0.00     0.060 C 
ATOM    114  H   2TL d   1      21.675 106.217   5.318  0.00  0.00     0.086 H 
BRANCH 113 115
ATOM    115  OG1 2TL d   1      23.128 107.251   6.376  0.00  0.00    -0.393 OA
ATOM    116  H   2TL d   1      23.832 106.720   6.024  0.00  0.00     0.210 HD
ENDBRANCH 113 115
BRANCH 113 117
ATOM    117  CG2 2TL d   1      20.774 107.355   6.919  0.00  0.00    -0.050 C 
ATOM    118  H   2TL d   1      20.658 108.262   6.308  0.00  0.00     0.031 H 
ATOM    119  H   2TL d   1      21.009 107.639   7.955  0.00  0.00     0.031 H 
ATOM    120  H   2TL d   1      19.838 106.778   6.900  0.00  0.00     0.031 H 
ENDBRANCH 113 117
ENDBRANCH  37 113
BRANCH  31 121
ATOM    121  C1  MEA d   1      17.297 104.240   7.906  0.00  0.00    -0.015 C 
ATOM    122  H   MEA d   1      16.637 104.411   7.042  0.00  0.00     0.056 H 
ATOM    123  H   MEA d   1      17.731 105.197   8.231  0.00  0.00     0.056 H 
ATOM    124  H   MEA d   1      16.715 103.802   8.731  0.00  0.00     0.056 H 
ENDBRANCH  31 121
BRANCH  32 125
ATOM    125  CB  MEA d   1      19.479 101.398   8.658  0.00  0.00    -0.014 C 
ATOM    126  H   MEA d   1      20.525 101.069   8.571  0.00  0.00     0.043 H 
ATOM    127  H   MEA d   1      18.879 100.926   7.866  0.00  0.00     0.043 H 
BRANCH 125 128
ATOM    128  CG  MEA d   1      18.979 101.026   9.901  0.00  0.00    -0.056 A 
ATOM    129  CD1 MEA d   1      19.630 100.052  10.648  0.00  0.00    -0.077 A 
ATOM    130  CE1 MEA d   1      19.131  99.680  11.891  0.00  0.00    -0.082 A 
ATOM    131  H   MEA d   1      20.527  99.582  10.261  0.00  0.00     0.084 H 
ATOM    132  CZ  MEA d   1      17.980 100.282  12.386  0.00  0.00    -0.083 A 
ATOM    133  H   MEA d   1      19.639  98.921  12.474  0.00  0.00     0.083 H 
ATOM    134  CE2 MEA d   1      17.329 101.257  11.639  0.00  0.00    -0.082 A 
ATOM    135  H   MEA d   1      17.590  99.991  13.355  0.00  0.00     0.083 H 
ATOM    136  CD2 MEA d   1      17.829 101.629  10.396  0.00  0.00    -0.077 A 
ATOM    137  H   MEA d   1      16.432 101.727  12.025  0.00  0.00     0.083 H 
ATOM    138  H   MEA d   1      17.322 102.389   9.813  0.00  0.00     0.084 H 
ENDBRANCH 125 128
ENDBRANCH  32 125
BRANCH  59 139
ATOM    139  CBP 28K d   1      12.158  98.055   3.346  0.00  0.00    -0.049 C 
ATOM    140  H   28K d   1      11.693  98.113   2.351  0.00  0.00     0.031 H 
ATOM    141  H   28K d   1      11.381  98.140   4.120  0.00  0.00     0.031 H 
ATOM    142  H   28K d   1      12.677  97.091   3.453  0.00  0.00     0.031 H 
ENDBRANCH  59 139
TORSDOF 20
