REMARK  8 active torsions:
REMARK  status: ('A' for Active; 'I' for Inactive)
REMARK    1  A    between atoms: C1_1  and  N2_2 
REMARK    2  A    between atoms: N2_2  and  C3_3 
REMARK    3  A    between atoms: N2_2  and  C4_4 
REMARK    4  A    between atoms: C4_4  and  C5_5 
REMARK    5  A    between atoms: C8_8  and  C11_11 
REMARK    6  A    between atoms: C13_13  and  C14_14 
REMARK       I    between atoms: C14_14  and  N16_16 
REMARK    7  A    between atoms: N16_16  and  C17_17 
REMARK    8  A    between atoms: C22_22  and  C26_26 
ROOT
ATOM      1  C11 29Z d   1      -2.192  65.603   2.987  0.00  0.00    -0.016 A 
ATOM      2  C12 29Z d   1      -1.737  66.044   1.590  0.00  0.00    -0.045 A 
ATOM      3  C13 29Z d   1      -2.914  65.072   1.741  0.00  0.00     0.032 A 
ATOM      4  H14 29Z d   1      -2.692  66.317   3.658  0.00  0.00     0.048 H 
ATOM      5  H15 29Z d   1      -0.778  65.688   1.186  0.00  0.00     0.035 H 
ATOM      6  H16 29Z d   1      -1.916  67.076   1.254  0.00  0.00     0.035 H 
ATOM      7  H17 29Z d   1      -2.797  64.016   1.456  0.00  0.00     0.055 H 
ENDROOT
BRANCH   3   8
ATOM      8  C14 29Z d   1      -4.315  65.532   1.384  0.00  0.00     0.228 C 
ATOM      9  O15 29Z d   1      -4.596  66.715   1.368  0.00  0.00    -0.273 OA
ATOM     10  N16 29Z d   1      -5.215  64.581   1.035  0.00  0.00    -0.305 N 
ATOM     11  H18 29Z d   1      -4.880  63.639   1.033  0.00  0.00     0.171 HD
BRANCH  10  12
ATOM     12  C17 29Z d   1      -6.550  64.756   0.679  0.00  0.00     0.174 A 
ATOM     13  N18 29Z d   1      -7.309  63.774   0.309  0.00  0.00    -0.223 NA
ATOM     14  C19 29Z d   1      -8.597  64.036   0.025  0.00  0.00     0.076 A 
ATOM     15  C20 29Z d   1      -9.595  63.140  -0.425  0.00  0.00    -0.053 A 
ATOM     16  C24 29Z d   1      -8.928  65.399   0.196  0.00  0.00     0.038 A 
ATOM     17  C21 29Z d   1     -10.863  63.597  -0.659  0.00  0.00    -0.070 A 
ATOM     18  H19 29Z d   1      -9.356  62.095  -0.584  0.00  0.00     0.087 H 
ATOM     19  C22 29Z d   1     -11.207  64.960  -0.486  0.00  0.00    -0.023 A 
ATOM     20  H20 29Z d   1     -11.624  62.898  -0.985  0.00  0.00     0.084 H 
ATOM     21  C23 29Z d   1     -10.222  65.865  -0.067  0.00  0.00    -0.053 A 
ATOM     22  H21 29Z d   1     -10.460  66.916   0.052  0.00  0.00     0.087 H 
ATOM     23  S25 29Z d   1      -7.481  66.258   0.729  0.00  0.00    -0.050 SA
BRANCH  19  24
ATOM     24  C26 29Z d   1     -12.603  65.424  -0.757  0.00  0.00    -0.008 A 
ATOM     25  C27 29Z d   1     -13.297  65.001  -1.913  0.00  0.00    -0.070 A 
ATOM     26  C28 29Z d   1     -14.597  65.451  -2.154  0.00  0.00    -0.065 A 
ATOM     27  H22 29Z d   1     -12.819  64.326  -2.614  0.00  0.00     0.085 H 
ATOM     28  C29 29Z d   1     -15.192  66.298  -1.222  0.00  0.00     0.002 A 
ATOM     29  H23 29Z d   1     -15.131  65.148  -3.047  0.00  0.00     0.085 H 
ATOM     30  N30 29Z d   1     -14.522  66.686  -0.138  0.00  0.00    -0.272 NA
ATOM     31  H24 29Z d   1     -16.207  66.644  -1.380  0.00  0.00     0.114 H 
ATOM     32  C31 29Z d   1     -13.278  66.287   0.122  0.00  0.00     0.013 A 
ATOM     33  H25 29Z d   1     -12.781  66.632   1.022  0.00  0.00     0.116 H 
ENDBRANCH  19  24
ENDBRANCH  10  12
ENDBRANCH   3   8
BRANCH   1  34
ATOM     34  C8  29Z d   1      -1.320  64.655   3.796  0.00  0.00    -0.053 A 
ATOM     35  C7  29Z d   1      -1.708  64.342   5.100  0.00  0.00    -0.076 A 
ATOM     36  C6  29Z d   1      -0.939  63.482   5.884  0.00  0.00    -0.075 A 
ATOM     37  H11 29Z d   1      -2.616  64.772   5.507  0.00  0.00     0.084 H 
ATOM     38  C5  29Z d   1       0.241  62.933   5.373  0.00  0.00    -0.033 A 
ATOM     39  H10 29Z d   1      -1.257  63.239   6.891  0.00  0.00     0.084 H 
ATOM     40  C10 29Z d   1       0.647  63.270   4.081  0.00  0.00    -0.075 A 
ATOM     41  C9  29Z d   1      -0.124  64.130   3.301  0.00  0.00    -0.076 A 
ATOM     42  H13 29Z d   1       1.568  62.860   3.682  0.00  0.00     0.084 H 
ATOM     43  H12 29Z d   1       0.207  64.393   2.303  0.00  0.00     0.084 H 
BRANCH  38  44
ATOM     44  C4  29Z d   1       1.127  62.026   6.207  0.00  0.00     0.106 C 
ATOM     45  H8  29Z d   1       1.711  61.391   5.525  0.00  0.00     0.083 H 
ATOM     46  H9  29Z d   1       1.810  62.656   6.797  0.00  0.00     0.083 H 
BRANCH  44  47
ATOM     47  N2  29Z d   1       0.383  61.152   7.134  0.00  0.00    -0.075 N 
ATOM     48  H4  29Z d   1      -0.603  61.271   6.959  0.00  0.00     0.279 HD
BRANCH  47  49
ATOM     49  C1  29Z d   1       0.731  59.742   6.905  0.00  0.00     0.066 C 
ATOM     50  H1  29Z d   1       0.167  59.107   7.604  0.00  0.00     0.068 H 
ATOM     51  H2  29Z d   1       1.809  59.599   7.068  0.00  0.00     0.068 H 
ATOM     52  H3  29Z d   1       0.477  59.465   5.871  0.00  0.00     0.068 H 
ENDBRANCH  47  49
BRANCH  47  53
ATOM     53  C3  29Z d   1       0.654  61.515   8.534  0.00  0.00     0.066 C 
ATOM     54  H5  29Z d   1       0.391  62.571   8.697  0.00  0.00     0.068 H 
ATOM     55  H6  29Z d   1       1.722  61.365   8.752  0.00  0.00     0.068 H 
ATOM     56  H7  29Z d   1       0.052  60.880   9.201  0.00  0.00     0.068 H 
ENDBRANCH  47  53
ENDBRANCH  44  47
ENDBRANCH  38  44
ENDBRANCH   1  34
TORSDOF 8
