REMARK  8 active torsions:
REMARK  status: ('A' for Active; 'I' for Inactive)
REMARK    1  A    between atoms: C1_1  and  N2_2 
REMARK    2  A    between atoms: N2_2  and  C3_3 
REMARK    3  A    between atoms: N2_2  and  C4_4 
REMARK    4  A    between atoms: C4_4  and  C5_5 
REMARK    5  A    between atoms: C8_8  and  C11_11 
REMARK    6  A    between atoms: C14_13  and  C16_14 
REMARK       I    between atoms: C16_14  and  N18_16 
REMARK    7  A    between atoms: N18_16  and  C19_17 
REMARK    8  A    between atoms: C24_22  and  C28_26 
ROOT
ATOM      1  C11 29Y d   1      11.659 -12.372  -1.545  0.00  0.00    -0.016 A 
ATOM      2  C13 29Y d   1      11.574 -10.869  -1.276  0.00  0.00    -0.045 A 
ATOM      3  C14 29Y d   1      10.723 -11.486  -2.389  0.00  0.00     0.032 A 
ATOM      4  H14 29Y d   1      11.289 -13.096  -0.805  0.00  0.00     0.048 H 
ATOM      5  H15 29Y d   1      12.422 -10.217  -1.531  0.00  0.00     0.035 H 
ATOM      6  H16 29Y d   1      11.093 -10.502  -0.357  0.00  0.00     0.035 H 
ATOM      7  H17 29Y d   1      10.943 -11.298  -3.450  0.00  0.00     0.055 H 
ENDROOT
BRANCH   3   8
ATOM      8  C16 29Y d   1       9.238 -11.529  -2.160  0.00  0.00     0.228 C 
ATOM      9  O17 29Y d   1       8.835 -11.551  -1.020  0.00  0.00    -0.273 OA
ATOM     10  N18 29Y d   1       8.375 -11.536  -3.212  0.00  0.00    -0.305 N 
ATOM     11  H18 29Y d   1       8.736 -11.538  -4.145  0.00  0.00     0.171 HD
BRANCH  10  12
ATOM     12  C19 29Y d   1       7.000 -11.541  -3.011  0.00  0.00     0.174 A 
ATOM     13  N20 29Y d   1       6.098 -11.451  -3.939  0.00  0.00    -0.223 NA
ATOM     14  C21 29Y d   1       4.796 -11.439  -3.553  0.00  0.00     0.076 A 
ATOM     15  C22 29Y d   1       3.629 -11.351  -4.349  0.00  0.00    -0.053 A 
ATOM     16  C26 29Y d   1       4.634 -11.534  -2.169  0.00  0.00     0.038 A 
ATOM     17  C23 29Y d   1       2.394 -11.341  -3.775  0.00  0.00    -0.070 A 
ATOM     18  H19 29Y d   1       3.719 -11.291  -5.428  0.00  0.00     0.087 H 
ATOM     19  C24 29Y d   1       2.247 -11.442  -2.391  0.00  0.00    -0.022 A 
ATOM     20  H20 29Y d   1       1.514 -11.253  -4.401  0.00  0.00     0.084 H 
ATOM     21  C25 29Y d   1       3.371 -11.537  -1.586  0.00  0.00    -0.053 A 
ATOM     22  H21 29Y d   1       3.267 -11.613  -0.510  0.00  0.00     0.087 H 
ATOM     23  S27 29Y d   1       6.226 -11.626  -1.435  0.00  0.00    -0.050 SA
BRANCH  19  24
ATOM     24  C28 29Y d   1       0.902 -11.422  -1.770  0.00  0.00     0.010 A 
ATOM     25  C29 29Y d   1      -0.216 -10.866  -2.305  0.00  0.00     0.008 A 
ATOM     26  N30 29Y d   1      -1.224 -11.035  -1.426  0.00  0.00    -0.289 N 
ATOM     27  H22 29Y d   1      -0.286 -10.371  -3.273  0.00  0.00     0.115 H 
ATOM     28  N32 29Y d   1      -0.715 -11.704  -0.310  0.00  0.00    -0.187 NA
ATOM     29  H23 29Y d   1      -2.198 -10.725  -1.554  0.00  0.00     0.188 HD
ATOM     30  C33 29Y d   1       0.554 -11.931  -0.508  0.00  0.00     0.034 A 
ATOM     31  H24 29Y d   1       1.228 -12.430   0.186  0.00  0.00     0.118 H 
ENDBRANCH  19  24
ENDBRANCH  10  12
ENDBRANCH   3   8
BRANCH   1  32
ATOM     32  C8  29Y d   1      12.816 -12.929  -2.337  0.00  0.00    -0.053 A 
ATOM     33  C7  29Y d   1      13.314 -14.208  -2.128  0.00  0.00    -0.076 A 
ATOM     34  C6  29Y d   1      14.367 -14.670  -2.907  0.00  0.00    -0.075 A 
ATOM     35  H11 29Y d   1      12.884 -14.842  -1.361  0.00  0.00     0.084 H 
ATOM     36  C5  29Y d   1      14.912 -13.865  -3.899  0.00  0.00    -0.033 A 
ATOM     37  H10 29Y d   1      14.766 -15.664  -2.740  0.00  0.00     0.084 H 
ATOM     38  C10 29Y d   1      14.402 -12.599  -4.105  0.00  0.00    -0.075 A 
ATOM     39  C9  29Y d   1      13.358 -12.140  -3.330  0.00  0.00    -0.076 A 
ATOM     40  H13 29Y d   1      14.823 -11.965  -4.877  0.00  0.00     0.084 H 
ATOM     41  H12 29Y d   1      12.959 -11.147  -3.503  0.00  0.00     0.084 H 
BRANCH  36  42
ATOM     42  C4  29Y d   1      16.065 -14.335  -4.761  0.00  0.00     0.106 C 
ATOM     43  H8  29Y d   1      16.618 -15.122  -4.228  0.00  0.00     0.083 H 
ATOM     44  H9  29Y d   1      15.670 -14.739  -5.705  0.00  0.00     0.083 H 
BRANCH  42  45
ATOM     45  N2  29Y d   1      16.981 -13.210  -5.057  0.00  0.00    -0.075 N 
ATOM     46  H4  29Y d   1      16.435 -12.366  -4.987  0.00  0.00     0.279 HD
BRANCH  45  47
ATOM     47  C1  29Y d   1      18.064 -13.106  -4.068  0.00  0.00     0.066 C 
ATOM     48  H1  29Y d   1      18.717 -12.260  -4.327  0.00  0.00     0.068 H 
ATOM     49  H2  29Y d   1      18.651 -14.036  -4.068  0.00  0.00     0.068 H 
ATOM     50  H3  29Y d   1      17.634 -12.944  -3.069  0.00  0.00     0.068 H 
ENDBRANCH  45  47
BRANCH  45  51
ATOM     51  C3  29Y d   1      17.519 -13.260  -6.426  0.00  0.00     0.066 C 
ATOM     52  H5  29Y d   1      16.689 -13.338  -7.144  0.00  0.00     0.068 H 
ATOM     53  H6  29Y d   1      18.176 -14.136  -6.530  0.00  0.00     0.068 H 
ATOM     54  H7  29Y d   1      18.094 -12.344  -6.628  0.00  0.00     0.068 H 
ENDBRANCH  45  51
ENDBRANCH  42  45
ENDBRANCH  36  42
ENDBRANCH   1  32
TORSDOF 8
