REMARK  3 active torsions:
REMARK  status: ('A' for Active; 'I' for Inactive)
REMARK    1  A    between atoms: C1_1  and  C2_4 
REMARK    2  A    between atoms: C2_4  and  C3_6 
REMARK    3  A    between atoms: C3_6  and  O4_7 
ROOT
ATOM      1  C2  3PY d   1     -38.676  -6.298  11.829  0.00  0.00     0.248 C 
ATOM      2  O3  3PY d   1     -37.584  -6.385  12.365  0.00  0.00    -0.283 OA
ENDROOT
BRANCH   1   3
ATOM      3  C1  3PY d   1     -39.681  -5.365  12.290  0.00  0.00     0.249 C 
ATOM      4  O1  3PY d   1     -40.671  -5.143  11.529  0.00  0.00    -0.642 OA
ATOM      5  O2  3PY d   1     -39.576  -4.858  13.429  0.00  0.00    -0.642 OA
ENDBRANCH   1   3
BRANCH   1   6
ATOM      6  C3  3PY d   1     -39.069  -7.129  10.632  0.00  0.00     0.082 C 
ATOM      7  H1  3PY d   1     -38.782  -6.595   9.714  0.00  0.00     0.086 H 
ATOM      8  H2  3PY d   1     -40.158  -7.281  10.642  0.00  0.00     0.086 H 
BRANCH   6   9
ATOM      9  O4  3PY d   1     -38.422  -8.396  10.655  0.00  0.00    -0.393 OA
ATOM     10  H3  3PY d   1     -37.480  -8.270  10.643  0.00  0.00     0.210 HD
ENDBRANCH   6   9
ENDBRANCH   1   6
TORSDOF 3
