REMARK  1 active torsions:
REMARK  status: ('A' for Active; 'I' for Inactive)
REMARK    1  A    between atoms: CAG_9  and  CAF_11 
ROOT
ATOM      1  OAU 27E d   1      -8.852  -2.651  23.945  0.00  0.00    -0.293 OA
ATOM      2  CAA 27E d   1      -7.933  -3.047  23.233  0.00  0.00     0.180 C 
ATOM      3  CAB 27E d   1      -7.871  -4.235  22.528  0.00  0.00     0.148 C 
ATOM      4 CLT  27E d   1      -9.354  -5.249  22.504  0.00  0.00    -0.106 Cl
ATOM      5  CAC 27E d   1      -6.568  -4.882  23.040  0.00  0.00     0.119 C 
ATOM      6 CLS  27E d   1      -6.653  -6.335  24.109  0.00  0.00    -0.112 Cl
ATOM      7  CAH 27E d   1      -6.231  -5.086  21.535  0.00  0.00     0.123 C 
ATOM      8 CLN  27E d   1      -6.624  -6.686  20.775  0.00  0.00    -0.111 Cl
ATOM      9  CAG 27E d   1      -7.163  -3.905  21.206  0.00  0.00     0.101 C 
ATOM     10 CLO  27E d   1      -8.150  -3.837  19.694  0.00  0.00    -0.114 Cl
ATOM     11  CAF 27E d   1      -6.302  -2.656  21.605  0.00  0.00     0.026 C 
ATOM     12  CAE 27E d   1      -6.662  -2.487  23.103  0.00  0.00     0.132 C 
ATOM     13 CLQ  27E d   1      -6.394  -0.879  23.842  0.00  0.00    -0.108 Cl
ATOM     14  CAD 27E d   1      -5.691  -3.657  23.422  0.00  0.00     0.116 C 
ATOM     15 CLR  27E d   1      -4.854  -3.619  25.013  0.00  0.00    -0.112 Cl
ATOM     16  CAJ 27E d   1      -4.974  -3.266  22.108  0.00  0.00     0.107 C 
ATOM     17 CLK  27E d   1      -3.542  -2.160  22.220  0.00  0.00    -0.113 Cl
ATOM     18  CAI 27E d   1      -4.803  -4.572  21.351  0.00  0.00     0.162 C 
ATOM     19 CLM  27E d   1      -4.350  -4.334  19.622  0.00  0.00    -0.097 Cl
ATOM     20 CLL  27E d   1      -3.524  -5.623  22.066  0.00  0.00    -0.097 Cl
ATOM     21  H   27E d   1      -6.302  -1.798  20.917  0.00  0.00     0.050 H 
ENDROOT
TORSDOF 1
