REMARK  10 active torsions:
REMARK  status: ('A' for Active; 'I' for Inactive)
REMARK    1  A    between atoms: CAA_1  and  CAM_2 
REMARK    2  A    between atoms: CAM_2  and  CAN_3 
REMARK    3  A    between atoms: CAN_3  and  CAO_4 
REMARK    4  A    between atoms: CAO_4  and  OAQ_5 
REMARK    5  A    between atoms: OAQ_5  and  CAS_6 
REMARK    6  A    between atoms: CAS_6  and  CAV_8 
REMARK    7  A    between atoms: CAW_13  and  CAT_14 
REMARK    8  A    between atoms: CAT_14  and  OAR_16 
REMARK    9  A    between atoms: OAR_16  and  CAP_17 
REMARK   10  A    between atoms: CAP_17  and  CAU_18 
ROOT
ATOM      1  CAV 27G d   1      19.999   4.765   7.189  0.00  0.00     0.055 A 
ATOM      2  CAK 27G d   1      19.367   4.643   8.421  0.00  0.00    -0.066 A 
ATOM      3  CAG 27G d   1      18.016   4.934   8.556  0.00  0.00    -0.082 A 
ATOM      4  CAH 27G d   1      17.285   5.360   7.457  0.00  0.00    -0.082 A 
ATOM      5  CAL 27G d   1      17.912   5.492   6.228  0.00  0.00    -0.066 A 
ATOM      6  CAW 27G d   1      19.262   5.197   6.086  0.00  0.00     0.055 A 
ATOM      7  H   27G d   1      19.935   4.317   9.285  0.00  0.00     0.085 H 
ATOM      8  H   27G d   1      17.533   4.828   9.521  0.00  0.00     0.083 H 
ATOM      9  H   27G d   1      16.230   5.588   7.559  0.00  0.00     0.083 H 
ATOM     10  H   27G d   1      17.343   5.829   5.369  0.00  0.00     0.085 H 
ENDROOT
BRANCH   6  11
ATOM     11  CAT 27G d   1      19.832   5.345   4.827  0.00  0.00     0.294 C 
ATOM     12  OAC 27G d   1      19.121   5.588   3.852  0.00  0.00    -0.259 OA
BRANCH  11  13
ATOM     13  OAR 27G d   1      21.187   5.226   4.769  0.00  0.00    -0.313 OA
BRANCH  13  14
ATOM     14  CAP 27G d   1      21.631   5.661   3.486  0.00  0.00     0.053 C 
ATOM     15  H   27G d   1      20.771   6.029   2.907  0.00  0.00     0.082 H 
ATOM     16  H   27G d   1      22.096   4.818   2.955  0.00  0.00     0.082 H 
BRANCH  14  17
ATOM     17  CAU 27G d   1      22.559   6.682   3.633  0.00  0.00    -0.034 A 
ATOM     18  CAI 27G d   1      22.271   7.782   4.432  0.00  0.00    -0.075 A 
ATOM     19  CAE 27G d   1      23.204   8.805   4.574  0.00  0.00    -0.082 A 
ATOM     20  H   27G d   1      21.318   7.843   4.945  0.00  0.00     0.084 H 
ATOM     21  CAD 27G d   1      24.430   8.732   3.925  0.00  0.00    -0.083 A 
ATOM     22  H   27G d   1      22.973   9.663   5.194  0.00  0.00     0.083 H 
ATOM     23  CAF 27G d   1      24.717   7.630   3.129  0.00  0.00    -0.082 A 
ATOM     24  H   27G d   1      25.157   9.528   4.039  0.00  0.00     0.083 H 
ATOM     25  CAJ 27G d   1      23.785   6.606   2.986  0.00  0.00    -0.075 A 
ATOM     26  H   27G d   1      25.671   7.567   2.617  0.00  0.00     0.083 H 
ATOM     27  H   27G d   1      24.017   5.747   2.368  0.00  0.00     0.084 H 
ENDBRANCH  14  17
ENDBRANCH  13  14
ENDBRANCH  11  13
ENDBRANCH   6  11
BRANCH   1  28
ATOM     28  CAS 27G d   1      21.356   4.462   7.097  0.00  0.00     0.294 C 
ATOM     29  OAB 27G d   1      22.206   5.282   7.430  0.00  0.00    -0.259 OA
BRANCH  28  30
ATOM     30  OAQ 27G d   1      21.656   3.207   6.663  0.00  0.00    -0.317 OA
BRANCH  30  31
ATOM     31  CAO 27G d   1      23.080   3.034   6.606  0.00  0.00     0.029 C 
ATOM     32  H   27G d   1      23.574   4.003   6.770  0.00  0.00     0.075 H 
ATOM     33  H   27G d   1      23.395   2.326   7.387  0.00  0.00     0.075 H 
BRANCH  31  34
ATOM     34  CAN 27G d   1      23.475   2.486   5.231  0.00  0.00    -0.045 C 
ATOM     35  H   27G d   1      23.269   1.406   5.196  0.00  0.00     0.036 H 
ATOM     36  H   27G d   1      22.888   2.996   4.453  0.00  0.00     0.036 H 
BRANCH  34  37
ATOM     37  CAM 27G d   1      24.967   2.726   4.980  0.00  0.00    -0.067 C 
ATOM     38  H   27G d   1      25.303   3.591   5.571  0.00  0.00     0.032 H 
ATOM     39  H   27G d   1      25.536   1.834   5.280  0.00  0.00     0.032 H 
BRANCH  37  40
ATOM     40  CAA 27G d   1      25.202   3.003   3.495  0.00  0.00    -0.076 C 
ATOM     41  H   27G d   1      26.274   3.175   3.319  0.00  0.00     0.027 H 
ATOM     42  H   27G d   1      24.634   3.895   3.194  0.00  0.00     0.027 H 
ATOM     43  H   27G d   1      24.867   2.138   2.903  0.00  0.00     0.027 H 
ENDBRANCH  37  40
ENDBRANCH  34  37
ENDBRANCH  31  34
ENDBRANCH  30  31
ENDBRANCH  28  30
ENDBRANCH   1  28
TORSDOF 10
