REMARK  10 active torsions:
REMARK  status: ('A' for Active; 'I' for Inactive)
REMARK    1  A    between atoms: CAB_1  and  CAV_2 
REMARK    2  A    between atoms: CAV_2  and  CAC_3 
REMARK    3  A    between atoms: CAV_2  and  CAZ_4 
REMARK    4  A    between atoms: CAZ_4  and  OAG_6 
REMARK    5  A    between atoms: CAY_9  and  CAD_10 
REMARK    6  A    between atoms: CAR_13  and  CAA_14 
REMARK    7  A    between atoms: CAW_16  and  OAQ_17 
REMARK    8  A    between atoms: OAQ_17  and  CAS_18 
REMARK    9  A    between atoms: CAS_18  and  CAU_20 
REMARK   10  A    between atoms: CAT_23  and  OAF_24 
ROOT
ATOM      1  CAZ 27H d   1      -6.356  -4.574  23.087  0.00  0.00     0.067 C 
ATOM      2  CAX 27H d   1      -7.078  -3.204  22.878  0.00  0.00     0.009 C 
ATOM      3  CAO 27H d   1      -7.487  -5.471  23.391  0.00  0.00    -0.035 C 
ATOM      4  CAN 27H d   1      -8.686  -4.596  23.524  0.00  0.00    -0.055 C 
ATOM      5  CAY 27H d   1      -8.223  -3.255  23.870  0.00  0.00    -0.032 C 
ATOM      6  CAM 27H d   1      -9.252  -2.153  23.595  0.00  0.00    -0.042 C 
ATOM      7  CAH 27H d   1      -8.802  -0.924  24.009  0.00  0.00    -0.100 C 
ATOM      8  CAR 27H d   1      -7.720  -0.236  23.543  0.00  0.00    -0.085 C 
ATOM      9  CAP 27H d   1      -6.882  -0.699  22.541  0.00  0.00    -0.020 C 
ATOM     10  CAW 27H d   1      -6.170  -1.983  22.926  0.00  0.00     0.059 C 
ATOM     11  H   27H d   1      -7.515  -3.201  21.868  0.00  0.00     0.049 H 
ATOM     12  H   27H d   1      -7.303  -6.012  24.331  0.00  0.00     0.037 H 
ATOM     13  H   27H d   1      -7.631  -6.194  22.574  0.00  0.00     0.037 H 
ATOM     14  H   27H d   1      -9.344  -4.981  24.317  0.00  0.00     0.034 H 
ATOM     15  H   27H d   1      -9.236  -4.568  22.572  0.00  0.00     0.034 H 
ATOM     16  H   27H d   1     -10.182  -2.392  24.132  0.00  0.00     0.040 H 
ATOM     17  H   27H d   1      -9.452  -2.114  22.514  0.00  0.00     0.040 H 
ATOM     18  H   27H d   1      -9.375  -0.443  24.800  0.00  0.00     0.077 H 
ATOM     19  H   27H d   1      -6.127   0.072  22.328  0.00  0.00     0.043 H 
ATOM     20  H   27H d   1      -7.481  -0.885  21.638  0.00  0.00     0.043 H 
ATOM     21  H   27H d   1      -5.744  -1.885  23.935  0.00  0.00     0.085 H 
ENDROOT
BRANCH  10  22
ATOM     22  OAQ 27H d   1      -5.187  -2.149  21.999  0.00  0.00    -0.311 OA
BRANCH  22  23
ATOM     23  CAS 27H d   1      -3.918  -2.189  22.351  0.00  0.00     0.293 C 
ATOM     24  OAE 27H d   1      -3.583  -2.114  23.512  0.00  0.00    -0.259 OA
BRANCH  23  25
ATOM     25  CAU 27H d   1      -2.989  -2.525  21.337  0.00  0.00     0.039 A 
ATOM     26  CAK 27H d   1      -1.672  -2.737  21.662  0.00  0.00    -0.065 A 
ATOM     27  CAI 27H d   1      -0.749  -3.102  20.720  0.00  0.00    -0.050 A 
ATOM     28  H   27H d   1      -1.355  -2.612  22.691  0.00  0.00     0.085 H 
ATOM     29  CAT 27H d   1      -1.100  -3.268  19.409  0.00  0.00     0.065 A 
ATOM     30  H   27H d   1       0.281  -3.263  21.019  0.00  0.00     0.087 H 
ATOM     31  CAJ 27H d   1      -2.412  -3.065  19.033  0.00  0.00    -0.050 A 
ATOM     32  CAL 27H d   1      -3.319  -2.697  20.007  0.00  0.00    -0.065 A 
ATOM     33  H   27H d   1      -2.722  -3.191  18.002  0.00  0.00     0.087 H 
ATOM     34  H   27H d   1      -4.349  -2.534  19.711  0.00  0.00     0.085 H 
BRANCH  29  35
ATOM     35  OAF 27H d   1      -0.203  -3.617  18.514  0.00  0.00    -0.361 OA
ATOM     36  H   27H d   1       0.482  -2.960  18.481  0.00  0.00     0.217 HD
ENDBRANCH  29  35
ENDBRANCH  23  25
ENDBRANCH  22  23
ENDBRANCH  10  22
BRANCH   1  37
ATOM     37  CAV 27H d   1      -5.593  -4.967  21.760  0.00  0.00    -0.031 C 
ATOM     38  H   27H d   1      -4.730  -4.288  21.703  0.00  0.00     0.043 H 
BRANCH  37  39
ATOM     39  CAB 27H d   1      -5.050  -6.370  21.803  0.00  0.00    -0.070 C 
ATOM     40  H   27H d   1      -4.531  -6.591  20.859  0.00  0.00     0.028 H 
ATOM     41  H   27H d   1      -5.879  -7.080  21.941  0.00  0.00     0.028 H 
ATOM     42  H   27H d   1      -4.344  -6.464  22.641  0.00  0.00     0.028 H 
ENDBRANCH  37  39
BRANCH  37  43
ATOM     43  CAC 27H d   1      -6.373  -4.784  20.455  0.00  0.00    -0.070 C 
ATOM     44  H   27H d   1      -5.743  -5.088  19.606  0.00  0.00     0.028 H 
ATOM     45  H   27H d   1      -6.656  -3.727  20.342  0.00  0.00     0.028 H 
ATOM     46  H   27H d   1      -7.280  -5.405  20.480  0.00  0.00     0.028 H 
ENDBRANCH  37  43
ENDBRANCH   1  37
BRANCH   1  47
ATOM     47  OAG 27H d   1      -5.474  -4.576  24.197  0.00  0.00    -0.389 OA
ATOM     48  H   27H d   1      -4.804  -3.914  24.069  0.00  0.00     0.210 HD
ENDBRANCH   1  47
BRANCH   5  49
ATOM     49  CAD 27H d   1      -7.833  -3.335  25.391  0.00  0.00    -0.068 C 
ATOM     50  H   27H d   1      -7.471  -2.353  25.729  0.00  0.00     0.028 H 
ATOM     51  H   27H d   1      -7.040  -4.085  25.527  0.00  0.00     0.028 H 
ATOM     52  H   27H d   1      -8.715  -3.623  25.981  0.00  0.00     0.028 H 
ENDBRANCH   5  49
BRANCH   8  53
ATOM     53  CAA 27H d   1      -7.426   0.943  24.154  0.00  0.00    -0.055 C 
ATOM     54  H   27H d   1      -6.538   1.389  23.683  0.00  0.00     0.033 H 
ATOM     55  H   27H d   1      -7.224   0.763  25.220  0.00  0.00     0.033 H 
ATOM     56  H   27H d   1      -8.278   1.631  24.053  0.00  0.00     0.033 H 
ENDBRANCH   8  53
TORSDOF 10
