REMARK  4 active torsions:
REMARK  status: ('A' for Active; 'I' for Inactive)
REMARK    1  A    between atoms: CAV_4  and  CAA_5 
REMARK    2  A    between atoms: CAS_10  and  OAD_11 
REMARK    3  A    between atoms: CAR_13  and  OAC_14 
REMARK    4  A    between atoms: CAW_22  and  OAE_23 
ROOT
ATOM      1  CAO 27J d   1      -7.653  -5.125  24.395  0.00  0.00    -0.041 C 
ATOM      2  CAK 27J d   1      -6.456  -4.224  24.495  0.00  0.00    -0.060 C 
ATOM      3  CAM 27J d   1      -6.653  -2.968  23.735  0.00  0.00    -0.041 C 
ATOM      4  CAV 27J d   1      -5.343  -2.217  23.580  0.00  0.00     0.045 C 
ATOM      5  OAP 27J d   1      -4.518  -2.864  22.624  0.00  0.00    -0.312 OA
ATOM      6  CAQ 27J d   1      -3.222  -2.753  22.780  0.00  0.00     0.297 C 
ATOM      7  OAB 27J d   1      -2.747  -2.207  23.755  0.00  0.00    -0.259 OA
ATOM      8  CAU 27J d   1      -2.385  -3.206  21.703  0.00  0.00     0.079 A 
ATOM      9  CAS 27J d   1      -1.026  -3.023  21.798  0.00  0.00     0.085 A 
ATOM     10  CAF 27J d   1      -0.142  -3.392  20.825  0.00  0.00    -0.018 A 
ATOM     11  CAR 27J d   1      -0.604  -3.941  19.684  0.00  0.00     0.068 A 
ATOM     12  CAG 27J d   1      -1.942  -4.120  19.532  0.00  0.00    -0.044 A 
ATOM     13  CAT 27J d   1      -2.854  -3.788  20.496  0.00  0.00    -0.036 A 
ATOM     14  CAL 27J d   1      -4.170  -4.025  20.189  0.00  0.00    -0.040 C 
ATOM     15  CAI 27J d   1      -4.592  -5.368  20.667  0.00  0.00    -0.061 C 
ATOM     16  CAH 27J d   1      -6.031  -5.604  20.515  0.00  0.00    -0.065 C 
ATOM     17  CAJ 27J d   1      -6.497  -6.898  21.175  0.00  0.00    -0.063 C 
ATOM     18  CAN 27J d   1      -6.797  -6.769  22.704  0.00  0.00    -0.041 C 
ATOM     19  CAW 27J d   1      -7.861  -5.762  23.024  0.00  0.00     0.035 C 
ATOM     20  H   27J d   1      -8.548  -4.533  24.637  0.00  0.00     0.036 H 
ATOM     21  H   27J d   1      -7.537  -5.932  25.133  0.00  0.00     0.036 H 
ATOM     22  H   27J d   1      -5.578  -4.751  24.092  0.00  0.00     0.033 H 
ATOM     23  H   27J d   1      -6.282  -3.977  25.553  0.00  0.00     0.033 H 
ATOM     24  H   27J d   1      -7.372  -2.331  24.272  0.00  0.00     0.036 H 
ATOM     25  H   27J d   1      -7.050  -3.209  22.738  0.00  0.00     0.036 H 
ATOM     26  H   27J d   1      -4.817  -2.236  24.546  0.00  0.00     0.083 H 
ATOM     27  H   27J d   1       0.922  -3.245  20.969  0.00  0.00     0.092 H 
ATOM     28  H   27J d   1      -2.304  -4.546  18.603  0.00  0.00     0.088 H 
ATOM     29  H   27J d   1      -4.300  -3.974  19.098  0.00  0.00     0.040 H 
ATOM     30  H   27J d   1      -4.796  -3.259  20.670  0.00  0.00     0.040 H 
ATOM     31  H   27J d   1      -4.333  -5.458  21.732  0.00  0.00     0.033 H 
ATOM     32  H   27J d   1      -4.049  -6.132  20.091  0.00  0.00     0.033 H 
ATOM     33  H   27J d   1      -6.266  -5.654  19.442  0.00  0.00     0.033 H 
ATOM     34  H   27J d   1      -6.574  -4.763  20.971  0.00  0.00     0.033 H 
ATOM     35  H   27J d   1      -5.711  -7.656  21.041  0.00  0.00     0.033 H 
ATOM     36  H   27J d   1      -7.416  -7.230  20.671  0.00  0.00     0.033 H 
ATOM     37  H   27J d   1      -5.870  -6.471  23.216  0.00  0.00     0.036 H 
ATOM     38  H   27J d   1      -7.123  -7.750  23.078  0.00  0.00     0.036 H 
ATOM     39  H   27J d   1      -7.853  -4.969  22.262  0.00  0.00     0.082 H 
ENDROOT
BRANCH   4  40
ATOM     40  CAA 27J d   1      -5.622  -0.753  23.225  0.00  0.00    -0.052 C 
ATOM     41  H   27J d   1      -4.669  -0.215  23.114  0.00  0.00     0.030 H 
ATOM     42  H   27J d   1      -6.215  -0.288  24.026  0.00  0.00     0.030 H 
ATOM     43  H   27J d   1      -6.182  -0.705  22.280  0.00  0.00     0.030 H 
ENDBRANCH   4  40
BRANCH  19  44
ATOM     44  OAE 27J d   1      -9.068  -6.430  22.987  0.00  0.00    -0.396 OA
ATOM     45  H   27J d   1      -9.771  -5.823  23.186  0.00  0.00     0.210 HD
ENDBRANCH  19  44
BRANCH   9  46
ATOM     46  OAD 27J d   1      -0.541  -2.481  22.919  0.00  0.00    -0.360 OA
ATOM     47  H   27J d   1      -0.915  -1.616  23.039  0.00  0.00     0.217 HD
ENDBRANCH   9  46
BRANCH  11  48
ATOM     48  OAC 27J d   1       0.274  -4.299  18.747  0.00  0.00    -0.361 OA
ATOM     49  H   27J d   1       0.765  -3.536  18.467  0.00  0.00     0.217 HD
ENDBRANCH  11  48
TORSDOF 4
