REMARK  7 active torsions:
REMARK  status: ('A' for Active; 'I' for Inactive)
REMARK    1  A    between atoms: CAA_1  and  CAH_2 
REMARK    2  A    between atoms: CAH_2  and  CAI_3 
REMARK    3  A    between atoms: CAI_3  and  CAJ_4 
REMARK    4  A    between atoms: CAJ_4  and  OAK_5 
REMARK    5  A    between atoms: OAK_5  and  CAL_6 
REMARK    6  A    between atoms: CAL_6  and  CAN_8 
REMARK    7  A    between atoms: CAM_11  and  OAC_12 
ROOT
ATOM      1  OAK 27K d   1      -4.406  -2.286  22.832  0.00  0.00    -0.318 OA
ENDROOT
BRANCH   1   2
ATOM      2  CAJ 27K d   1      -5.745  -1.935  23.260  0.00  0.00     0.029 C 
ATOM      3  H   27K d   1      -5.666  -1.054  23.913  0.00  0.00     0.075 H 
ATOM      4  H   27K d   1      -6.325  -1.675  22.362  0.00  0.00     0.075 H 
BRANCH   2   5
ATOM      5  CAI 27K d   1      -6.528  -3.014  24.025  0.00  0.00    -0.045 C 
ATOM      6  H   27K d   1      -5.956  -3.292  24.923  0.00  0.00     0.036 H 
ATOM      7  H   27K d   1      -7.500  -2.596  24.324  0.00  0.00     0.036 H 
BRANCH   5   8
ATOM      8  CAH 27K d   1      -6.774  -4.274  23.194  0.00  0.00    -0.067 C 
ATOM      9  H   27K d   1      -7.341  -4.016  22.287  0.00  0.00     0.032 H 
ATOM     10  H   27K d   1      -5.812  -4.725  22.909  0.00  0.00     0.032 H 
BRANCH   8  11
ATOM     11  CAA 27K d   1      -7.578  -5.264  24.042  0.00  0.00    -0.076 C 
ATOM     12  H   27K d   1      -7.765  -6.178  23.460  0.00  0.00     0.027 H 
ATOM     13  H   27K d   1      -8.538  -4.808  24.327  0.00  0.00     0.027 H 
ATOM     14  H   27K d   1      -7.009  -5.517  24.949  0.00  0.00     0.027 H 
ENDBRANCH   8  11
ENDBRANCH   5   8
ENDBRANCH   2   5
ENDBRANCH   1   2
BRANCH   1  15
ATOM     15  CAL 27K d   1      -4.246  -2.938  21.641  0.00  0.00     0.293 C 
ATOM     16  OAB 27K d   1      -5.152  -3.446  20.979  0.00  0.00    -0.259 OA
BRANCH  15  17
ATOM     17  CAN 27K d   1      -2.912  -2.992  21.239  0.00  0.00     0.039 A 
ATOM     18  CAF 27K d   1      -2.504  -3.528  20.017  0.00  0.00    -0.065 A 
ATOM     19  CAD 27K d   1      -1.152  -3.510  19.673  0.00  0.00    -0.050 A 
ATOM     20  H   27K d   1      -3.233  -3.956  19.339  0.00  0.00     0.085 H 
ATOM     21  CAM 27K d   1      -0.239  -2.938  20.558  0.00  0.00     0.065 A 
ATOM     22  H   27K d   1      -0.817  -3.934  18.733  0.00  0.00     0.087 H 
ATOM     23  CAE 27K d   1      -0.647  -2.396  21.764  0.00  0.00    -0.050 A 
ATOM     24  CAG 27K d   1      -1.984  -2.412  22.091  0.00  0.00    -0.065 A 
ATOM     25  H   27K d   1       0.078  -1.964  22.444  0.00  0.00     0.087 H 
ATOM     26  H   27K d   1      -2.314  -1.967  23.023  0.00  0.00     0.085 H 
BRANCH  21  27
ATOM     27  OAC 27K d   1       1.084  -2.885  20.276  0.00  0.00    -0.361 OA
ATOM     28  H   27K d   1       1.418  -3.767  20.161  0.00  0.00     0.217 HD
ENDBRANCH  21  27
ENDBRANCH  15  17
ENDBRANCH   1  15
TORSDOF 7
