REMARK  9 active torsions:
REMARK  status: ('A' for Active; 'I' for Inactive)
REMARK    1  A    between atoms: CAA_1  and  CAN_2 
REMARK    2  A    between atoms: CAN_2  and  CAB_3 
REMARK    3  A    between atoms: CAN_2  and  CAC_4 
REMARK    4  A    between atoms: CAN_2  and  CAK_5 
REMARK    5  A    between atoms: CAK_5  and  CAO_6 
REMARK    6  A    between atoms: CAO_6  and  CAD_7 
REMARK    7  A    between atoms: CAO_6  and  CAE_8 
REMARK    8  A    between atoms: CAO_6  and  CAM_9 
REMARK    9  A    between atoms: CAL_12  and  OAF_13 
ROOT
ATOM      1  CAO 27L d   1      -4.965  -2.995  22.048  0.00  0.00    -0.020 C 
ENDROOT
BRANCH   1   2
ATOM      2  CAK 27L d   1      -5.850  -4.105  21.428  0.00  0.00    -0.049 C 
ATOM      3  H   27L d   1      -6.880  -3.917  21.767  0.00  0.00     0.035 H 
ATOM      4  H   27L d   1      -5.795  -3.983  20.336  0.00  0.00     0.035 H 
BRANCH   2   5
ATOM      5  CAN 27L d   1      -5.544  -5.592  21.728  0.00  0.00    -0.050 C 
BRANCH   5   6
ATOM      6  CAA 27L d   1      -6.498  -6.434  20.883  0.00  0.00    -0.070 C 
ATOM      7  H   27L d   1      -6.309  -7.501  21.071  0.00  0.00     0.028 H 
ATOM      8  H   27L d   1      -6.335  -6.215  19.817  0.00  0.00     0.028 H 
ATOM      9  H   27L d   1      -7.537  -6.193  21.152  0.00  0.00     0.028 H 
ENDBRANCH   5   6
BRANCH   5  10
ATOM     10  CAB 27L d   1      -4.103  -6.014  21.482  0.00  0.00    -0.070 C 
ATOM     11  H   27L d   1      -3.430  -5.398  22.098  0.00  0.00     0.028 H 
ATOM     12  H   27L d   1      -3.857  -5.875  20.419  0.00  0.00     0.028 H 
ATOM     13  H   27L d   1      -3.980  -7.073  21.752  0.00  0.00     0.028 H 
ENDBRANCH   5  10
BRANCH   5  14
ATOM     14  CAC 27L d   1      -5.932  -5.892  23.181  0.00  0.00    -0.070 C 
ATOM     15  H   27L d   1      -6.974  -5.585  23.353  0.00  0.00     0.028 H 
ATOM     16  H   27L d   1      -5.269  -5.336  23.860  0.00  0.00     0.028 H 
ATOM     17  H   27L d   1      -5.831  -6.971  23.372  0.00  0.00     0.028 H 
ENDBRANCH   5  14
ENDBRANCH   2   5
ENDBRANCH   1   2
BRANCH   1  18
ATOM     18  CAD 27L d   1      -4.928  -3.071  23.576  0.00  0.00    -0.065 C 
ATOM     19  H   27L d   1      -4.289  -2.266  23.968  0.00  0.00     0.028 H 
ATOM     20  H   27L d   1      -4.521  -4.045  23.885  0.00  0.00     0.028 H 
ATOM     21  H   27L d   1      -5.947  -2.957  23.974  0.00  0.00     0.028 H 
ENDBRANCH   1  18
BRANCH   1  22
ATOM     22  CAE 27L d   1      -5.592  -1.659  21.662  0.00  0.00    -0.065 C 
ATOM     23  H   27L d   1      -5.632  -1.576  20.566  0.00  0.00     0.028 H 
ATOM     24  H   27L d   1      -4.985  -0.838  22.070  0.00  0.00     0.028 H 
ATOM     25  H   27L d   1      -6.611  -1.600  22.072  0.00  0.00     0.028 H 
ENDBRANCH   1  22
BRANCH   1  26
ATOM     26  CAM 27L d   1      -3.635  -3.002  21.569  0.00  0.00    -0.050 A 
ATOM     27  CAI 27L d   1      -2.585  -2.618  22.401  0.00  0.00    -0.073 A 
ATOM     28  CAG 27L d   1      -1.277  -2.588  21.926  0.00  0.00    -0.051 A 
ATOM     29  H   27L d   1      -2.789  -2.340  23.429  0.00  0.00     0.084 H 
ATOM     30  CAL 27L d   1      -1.017  -2.929  20.603  0.00  0.00     0.065 A 
ATOM     31  H   27L d   1      -0.465  -2.300  22.584  0.00  0.00     0.087 H 
ATOM     32  CAH 27L d   1      -2.056  -3.295  19.756  0.00  0.00    -0.051 A 
ATOM     33  CAJ 27L d   1      -3.366  -3.321  20.234  0.00  0.00    -0.073 A 
ATOM     34  H   27L d   1      -1.849  -3.560  18.726  0.00  0.00     0.087 H 
ATOM     35  H   27L d   1      -4.178  -3.589  19.569  0.00  0.00     0.084 H 
BRANCH  30  36
ATOM     36  OAF 27L d   1       0.260  -2.896  20.137  0.00  0.00    -0.361 OA
ATOM     37  H   27L d   1       0.269  -3.154  19.223  0.00  0.00     0.217 HD
ENDBRANCH  30  36
ENDBRANCH   1  26
TORSDOF 9
