REMARK  6 active torsions:
REMARK  status: ('A' for Active; 'I' for Inactive)
REMARK    1  A    between atoms: CAU_21  and  CAA_1 
REMARK    2  A    between atoms: CAU_21  and  CAB_2 
REMARK    3  A    between atoms: CAM_13  and  OAC_3 
REMARK    4  A    between atoms: CAN_14  and  OAD_4 
REMARK    5  A    between atoms: CAU_21  and  CAS_19 
REMARK    6  A    between atoms: CAT_20  and  CAU_21 
ROOT
ATOM      1  CAU XDH d   1      -5.234  -4.879  21.057  0.00  0.00     0.007 C 
ENDROOT
BRANCH   1   2
ATOM      2  CAA XDH d   1      -4.980  -6.245  21.699  0.00  0.00    -0.061 C 
ATOM      3  H   XDH d   1      -4.264  -6.811  21.085  0.00  0.00     0.029 H 
ATOM      4  H   XDH d   1      -5.927  -6.801  21.765  0.00  0.00     0.029 H 
ATOM      5  H   XDH d   1      -4.567  -6.104  22.709  0.00  0.00     0.029 H 
ENDBRANCH   1   2
BRANCH   1   6
ATOM      6  CAB XDH d   1      -5.850  -5.094  19.675  0.00  0.00    -0.061 C 
ATOM      7  H   XDH d   1      -6.038  -4.119  19.202  0.00  0.00     0.029 H 
ATOM      8  H   XDH d   1      -6.799  -5.641  19.777  0.00  0.00     0.029 H 
ATOM      9  H   XDH d   1      -5.157  -5.677  19.051  0.00  0.00     0.029 H 
ENDBRANCH   1   6
BRANCH   1  10
ATOM     10  CAS XDH d   1      -4.017  -4.196  20.939  0.00  0.00    -0.042 A 
ATOM     11  CAI XDH d   1      -3.481  -4.016  19.667  0.00  0.00    -0.052 A 
ATOM     12  CAO XDH d   1      -2.274  -3.357  19.504  0.00  0.00     0.069 A 
ATOM     13  H   XDH d   1      -4.011  -4.394  18.800  0.00  0.00     0.087 H 
ATOM     14 CLAE XDH d   1      -1.618  -3.123  17.963  0.00  0.00    -0.081 Cl
ATOM     15  CAM XDH d   1      -1.611  -2.884  20.616  0.00  0.00     0.109 A 
ATOM     16  CAP XDH d   1      -2.114  -3.049  21.898  0.00  0.00     0.069 A 
ATOM     17 CLAF XDH d   1      -1.242  -2.437  23.234  0.00  0.00    -0.081 Cl
ATOM     18  CAJ XDH d   1      -3.330  -3.718  22.061  0.00  0.00    -0.052 A 
ATOM     19  H   XDH d   1      -3.740  -3.866  23.053  0.00  0.00     0.087 H 
BRANCH  15  20
ATOM     20  OAC XDH d   1      -0.425  -2.236  20.439  0.00  0.00    -0.357 OA
ATOM     21  H   XDH d   1      -0.083  -1.967  21.284  0.00  0.00     0.217 HD
ENDBRANCH  15  20
ENDBRANCH   1  10
BRANCH   1  22
ATOM     22  CAT XDH d   1      -6.139  -4.149  21.822  0.00  0.00    -0.042 A 
ATOM     23  CAK XDH d   1      -6.891  -4.793  22.805  0.00  0.00    -0.052 A 
ATOM     24  CAQ XDH d   1      -7.803  -4.073  23.568  0.00  0.00     0.069 A 
ATOM     25  H   XDH d   1      -6.764  -5.856  22.974  0.00  0.00     0.087 H 
ATOM     26 CLAG XDH d   1      -8.735  -4.861  24.791  0.00  0.00    -0.081 Cl
ATOM     27  CAN XDH d   1      -7.938  -2.713  23.329  0.00  0.00     0.109 A 
ATOM     28  CAR XDH d   1      -7.199  -2.056  22.356  0.00  0.00     0.069 A 
ATOM     29 CLAH XDH d   1      -7.401  -0.374  22.095  0.00  0.00    -0.081 Cl
ATOM     30  CAL XDH d   1      -6.292  -2.784  21.592  0.00  0.00    -0.052 A 
ATOM     31  H   XDH d   1      -5.708  -2.292  20.823  0.00  0.00     0.087 H 
BRANCH  27  32
ATOM     32  OAD XDH d   1      -8.827  -1.996  24.073  0.00  0.00    -0.357 OA
ATOM     33  H   XDH d   1      -8.808  -1.087  23.797  0.00  0.00     0.217 HD
ENDBRANCH  27  32
ENDBRANCH   1  22
TORSDOF 6
