REMARK  6 active torsions:
REMARK  status: ('A' for Active; 'I' for Inactive)
REMARK    1  A    between atoms: OAD_1  and  CAO_2 
REMARK    2  A    between atoms: CAM_4  and  OAB_5 
REMARK    3  A    between atoms: CAQ_8  and  CAL_9 
REMARK    4  A    between atoms: CAL_9  and  CAR_11 
REMARK    5  A    between atoms: CAN_14  and  OAC_15 
REMARK    6  A    between atoms: CAP_17  and  OAE_18 
ROOT
ATOM      1  CAL 27M d   1      -4.732  -4.809  21.989  0.00  0.00     0.197 C 
ATOM      2  OAA 27M d   1      -4.191  -4.381  23.006  0.00  0.00    -0.286 OA
ENDROOT
BRANCH   1   3
ATOM      3  CAQ 27M d   1      -3.949  -5.175  20.879  0.00  0.00     0.048 A 
ATOM      4  CAO 27M d   1      -2.560  -5.159  20.978  0.00  0.00     0.082 A 
ATOM      5  CAJ 27M d   1      -1.740  -5.475  19.902  0.00  0.00    -0.018 A 
ATOM      6  CAM 27M d   1      -2.303  -5.726  18.661  0.00  0.00     0.068 A 
ATOM      7  H   27M d   1      -0.665  -5.525  20.033  0.00  0.00     0.092 H 
ATOM      8  CAF 27M d   1      -3.686  -5.681  18.515  0.00  0.00    -0.050 A 
ATOM      9  CAH 27M d   1      -4.492  -5.380  19.612  0.00  0.00    -0.064 A 
ATOM     10  H   27M d   1      -4.136  -5.880  17.549  0.00  0.00     0.087 H 
ATOM     11  H   27M d   1      -5.565  -5.304  19.476  0.00  0.00     0.085 H 
BRANCH   4  12
ATOM     12  OAD 27M d   1      -2.023  -4.933  22.206  0.00  0.00    -0.360 OA
ATOM     13  H   27M d   1      -2.718  -4.731  22.822  0.00  0.00     0.217 HD
ENDBRANCH   4  12
BRANCH   6  14
ATOM     14  OAB 27M d   1      -1.497  -6.014  17.606  0.00  0.00    -0.361 OA
ATOM     15  H   27M d   1      -0.994  -6.797  17.798  0.00  0.00     0.217 HD
ENDBRANCH   6  14
ENDBRANCH   1   3
BRANCH   1  16
ATOM     16  CAR 27M d   1      -6.126  -4.964  21.952  0.00  0.00     0.048 A 
ATOM     17  CAI 27M d   1      -6.752  -5.782  21.015  0.00  0.00    -0.064 A 
ATOM     18  CAG 27M d   1      -8.129  -5.977  21.038  0.00  0.00    -0.050 A 
ATOM     19  H   27M d   1      -6.156  -6.275  20.255  0.00  0.00     0.085 H 
ATOM     20  CAN 27M d   1      -8.902  -5.400  22.040  0.00  0.00     0.068 A 
ATOM     21  H   27M d   1      -8.602  -6.581  20.272  0.00  0.00     0.087 H 
ATOM     22  CAK 27M d   1      -8.291  -4.625  23.010  0.00  0.00    -0.018 A 
ATOM     23  CAP 27M d   1      -6.916  -4.461  22.985  0.00  0.00     0.082 A 
ATOM     24  H   27M d   1      -8.884  -4.150  23.783  0.00  0.00     0.092 H 
BRANCH  20  25
ATOM     25  OAC 27M d   1     -10.248  -5.593  22.070  0.00  0.00    -0.361 OA
ATOM     26  H   27M d   1     -10.616  -5.132  22.814  0.00  0.00     0.217 HD
ENDBRANCH  20  25
BRANCH  23  27
ATOM     27  OAE 27M d   1      -6.303  -3.685  23.915  0.00  0.00    -0.360 OA
ATOM     28  H   27M d   1      -5.367  -3.680  23.755  0.00  0.00     0.217 HD
ENDBRANCH  23  27
ENDBRANCH   1  16
TORSDOF 6
