REMARK  3 active torsions:
REMARK  status: ('A' for Active; 'I' for Inactive)
REMARK    1  A    between atoms: C2_2  and  C3_3 
REMARK       I    between atoms: C2_2  and  N13_13 
REMARK    2  A    between atoms: N13_13  and  N14_14 
REMARK       I    between atoms: N14_14  and  C15_15 
REMARK    3  A    between atoms: C15_15  and  C17_17 
ROOT
ATOM      1  C3  D5I d   1      -9.849   3.041  21.743  0.00  0.00     0.043 C 
ATOM      2  C4  D5I d   1      -9.997   2.606  23.224  0.00  0.00    -0.046 C 
ATOM      3  C5  D5I d   1      -8.644   2.200  23.781  0.00  0.00    -0.052 C 
ATOM      4  C12 D5I d   1      -8.162   1.039  22.909  0.00  0.00    -0.058 C 
ATOM      5  C10 D5I d   1      -7.971   1.467  21.443  0.00  0.00    -0.052 C 
ATOM      6  C11 D5I d   1      -9.337   1.879  20.888  0.00  0.00    -0.046 C 
ATOM      7  C6  D5I d   1      -7.705   3.414  23.627  0.00  0.00    -0.058 C 
ATOM      8  C7  D5I d   1      -7.484   3.842  22.164  0.00  0.00    -0.052 C 
ATOM      9  C9  D5I d   1      -6.979   2.650  21.362  0.00  0.00    -0.058 C 
ATOM     10  C8  D5I d   1      -8.844   4.201  21.564  0.00  0.00    -0.046 C 
ATOM     11  H1  D5I d   1     -10.688   1.752  23.286  0.00  0.00     0.035 H 
ATOM     12  H2  D5I d   1     -10.397   3.445  23.812  0.00  0.00     0.035 H 
ATOM     13  H3  D5I d   1      -8.715   1.896  24.836  0.00  0.00     0.040 H 
ATOM     14  H4  D5I d   1      -8.906   0.230  22.950  0.00  0.00     0.034 H 
ATOM     15  H5  D5I d   1      -7.202   0.674  23.301  0.00  0.00     0.034 H 
ATOM     16  H6  D5I d   1      -7.575   0.623  20.860  0.00  0.00     0.040 H 
ATOM     17  H7  D5I d   1      -9.236   2.199  19.841  0.00  0.00     0.035 H 
ATOM     18  H8  D5I d   1     -10.037   1.032  20.947  0.00  0.00     0.035 H 
ATOM     19  H9  D5I d   1      -6.729   3.157  24.065  0.00  0.00     0.034 H 
ATOM     20  H10 D5I d   1      -8.141   4.262  24.175  0.00  0.00     0.034 H 
ATOM     21  H11 D5I d   1      -6.782   4.687  22.106  0.00  0.00     0.040 H 
ATOM     22  H12 D5I d   1      -6.861   2.949  20.310  0.00  0.00     0.034 H 
ATOM     23  H13 D5I d   1      -6.006   2.332  21.765  0.00  0.00     0.034 H 
ATOM     24  H14 D5I d   1      -9.235   5.097  22.068  0.00  0.00     0.035 H 
ATOM     25  H15 D5I d   1      -8.721   4.408  20.491  0.00  0.00     0.035 H 
ENDROOT
BRANCH   1  26
ATOM     26  C2  D5I d   1     -11.206   3.518  21.308  0.00  0.00     0.244 C 
ATOM     27  O1  D5I d   1     -11.400   3.678  20.110  0.00  0.00    -0.271 OA
ATOM     28  N13 D5I d   1     -12.074   3.708  22.339  0.00  0.00    -0.267 N 
ATOM     29  H16 D5I d   1     -11.709   3.465  23.238  0.00  0.00     0.190 HD
BRANCH  28  30
ATOM     30  N14 D5I d   1     -13.421   4.197  22.358  0.00  0.00    -0.263 N 
ATOM     31  C15 D5I d   1     -13.446   5.448  22.817  0.00  0.00     0.270 C 
ATOM     32  O16 D5I d   1     -12.383   5.942  23.115  0.00  0.00    -0.266 OA
ATOM     33  H17 D5I d   1     -14.224   3.676  22.069  0.00  0.00     0.190 HD
BRANCH  31  34
ATOM     34  C17 D5I d   1     -14.625   6.359  23.028  0.00  0.00     0.036 A 
ATOM     35  C18 D5I d   1     -15.451   6.216  24.143  0.00  0.00    -0.051 A 
ATOM     36  C19 D5I d   1     -16.512   7.101  24.347  0.00  0.00     0.003 A 
ATOM     37  H18 D5I d   1     -15.269   5.417  24.852  0.00  0.00     0.087 H 
ATOM     38  N20 D5I d   1     -16.721   8.104  23.478  0.00  0.00    -0.273 NA
ATOM     39  H19 D5I d   1     -17.165   6.979  25.204  0.00  0.00     0.114 H 
ATOM     40  C21 D5I d   1     -15.934   8.280  22.399  0.00  0.00     0.003 A 
ATOM     41  C22 D5I d   1     -14.865   7.422  22.156  0.00  0.00    -0.051 A 
ATOM     42  H20 D5I d   1     -16.135   9.096  21.715  0.00  0.00     0.114 H 
ATOM     43  H21 D5I d   1     -14.224   7.578  21.296  0.00  0.00     0.087 H 
ENDBRANCH  31  34
ENDBRANCH  28  30
ENDBRANCH   1  26
TORSDOF 3
