REMARK  13 active torsions:
REMARK  status: ('A' for Active; 'I' for Inactive)
REMARK    1  A    between atoms: C01_1  and  C02_2 
REMARK    2  A    between atoms: C02_2  and  C03_3 
REMARK    3  A    between atoms: C03_3  and  C04_4 
REMARK    4  A    between atoms: C04_4  and  N05_5 
REMARK    5  A    between atoms: N05_5  and  C06_6 
REMARK    6  A    between atoms: C09_9  and  C10_10 
REMARK       I    between atoms: C10_10  and  N12_12 
REMARK    7  A    between atoms: N12_12  and  C13_13 
REMARK    8  A    between atoms: C13_13  and  C14_14 
REMARK    9  A    between atoms: C17_17  and  S20_20 
REMARK   10  A    between atoms: S20_20  and  N23_23 
REMARK   11  A    between atoms: C24_24  and  N25_25 
REMARK   12  A    between atoms: N25_25  and  C26_26 
REMARK   13  A    between atoms: C29_29  and  O30_30 
ROOT
ATOM      1  C06 4MH d   1       3.351   0.857  19.092  0.00  0.00     0.724 A 
ATOM      2  N07 4MH d   1       2.291   0.556  18.307  0.00  0.00    -0.074 NA
ATOM      3  C08 4MH d   1       2.050   1.288  17.177  0.00  0.00     0.040 A 
ATOM      4  C09 4MH d   1       2.892   2.355  16.824  0.00  0.00     0.096 A 
ATOM      5  C24 4MH d   1       4.000   2.648  17.674  0.00  0.00     0.160 A 
ATOM      6  N33 4MH d   1       4.199   1.897  18.775  0.00  0.00    -0.044 NA
ATOM      7  H   4MH d   1       1.202   1.042  16.549  0.00  0.00     0.117 H 
ENDROOT
BRANCH   4   8
ATOM      8  C10 4MH d   1       2.610   3.175  15.548  0.00  0.00     0.257 C 
ATOM      9  O11 4MH d   1       3.171   4.237  15.369  0.00  0.00    -0.267 OA
ATOM     10  N12 4MH d   1       1.665   2.649  14.568  0.00  0.00    -0.352 N 
ATOM     11  H   4MH d   1       1.224   1.769  14.744  0.00  0.00     0.163 HD
BRANCH  10  12
ATOM     12  C13 4MH d   1       1.349   3.355  13.359  0.00  0.00     0.019 C 
ATOM     13  H   4MH d   1       1.875   4.321  13.353  0.00  0.00     0.071 H 
ATOM     14  H   4MH d   1       0.264   3.527  13.310  0.00  0.00     0.071 H 
BRANCH  12  15
ATOM     15  C14 4MH d   1       1.792   2.522  12.133  0.00  0.00    -0.040 A 
ATOM     16  C15 4MH d   1       3.099   2.113  12.025  0.00  0.00    -0.074 A 
ATOM     17  C16 4MH d   1       3.507   1.363  10.921  0.00  0.00    -0.060 A 
ATOM     18  H   4MH d   1       3.814   2.373  12.797  0.00  0.00     0.084 H 
ATOM     19  C17 4MH d   1       2.589   1.026   9.936  0.00  0.00     0.079 A 
ATOM     20  H   4MH d   1       4.539   1.044  10.833  0.00  0.00     0.085 H 
ATOM     21  C18 4MH d   1       1.277   1.435  10.044  0.00  0.00    -0.060 A 
ATOM     22  C19 4MH d   1       0.871   2.188  11.146  0.00  0.00    -0.074 A 
ATOM     23  H   4MH d   1       0.561   1.172   9.273  0.00  0.00     0.085 H 
ATOM     24  H   4MH d   1      -0.160   2.512  11.233  0.00  0.00     0.084 H 
BRANCH  19  25
ATOM     25  S20 4MH d   1       3.110   0.069   8.535  0.00  0.00     0.256 S 
ATOM     26  O21 4MH d   1       4.508   0.246   8.278  0.00  0.00    -0.201 OA
ATOM     27  O22 4MH d   1       2.537   0.567   7.323  0.00  0.00    -0.201 OA
BRANCH  25  28
ATOM     28  N23 4MH d   1       2.741  -1.526   8.768  0.00  0.00    -0.324 N 
ATOM     29  H   4MH d   1       2.971  -2.200   8.066  0.00  0.00     0.169 HD
ATOM     30  H   4MH d   1       2.288  -1.817   9.611  0.00  0.00     0.169 HD
ENDBRANCH  25  28
ENDBRANCH  19  25
ENDBRANCH  12  15
ENDBRANCH  10  12
ENDBRANCH   4   8
BRANCH   5  31
ATOM     31  N25 4MH d   1       4.911   3.739  17.361  0.00  0.00    -0.369 N 
ATOM     32  H   4MH d   1       5.669   3.584  16.681  0.00  0.00     0.161 HD
BRANCH  31  33
ATOM     33  C26 4MH d   1       4.774   5.021  17.978  0.00  0.00     0.011 C 
ATOM     34  C27 4MH d   1       6.081   5.771  17.777  0.00  0.00    -0.044 C 
ATOM     35  C28 4MH d   1       6.145   7.057  18.570  0.00  0.00    -0.039 C 
ATOM     36  H   4MH d   1       6.188   6.011  16.709  0.00  0.00     0.036 H 
ATOM     37  H   4MH d   1       6.911   5.122  18.092  0.00  0.00     0.036 H 
ATOM     38  C29 4MH d   1       5.834   6.834  20.043  0.00  0.00     0.035 C 
ATOM     39  H   4MH d   1       5.413   7.766  18.156  0.00  0.00     0.036 H 
ATOM     40  H   4MH d   1       7.157   7.479  18.481  0.00  0.00     0.036 H 
ATOM     41  C31 4MH d   1       4.500   6.138  20.231  0.00  0.00    -0.039 C 
ATOM     42  H   4MH d   1       6.626   6.210  20.483  0.00  0.00     0.082 H 
ATOM     43  C32 4MH d   1       4.417   4.841  19.451  0.00  0.00    -0.044 C 
ATOM     44  H   4MH d   1       3.699   6.809  19.889  0.00  0.00     0.036 H 
ATOM     45  H   4MH d   1       4.362   5.918  21.300  0.00  0.00     0.036 H 
ATOM     46  H   4MH d   1       5.114   4.116  19.897  0.00  0.00     0.036 H 
ATOM     47  H   4MH d   1       3.390   4.453  19.520  0.00  0.00     0.036 H 
ATOM     48  H   4MH d   1       3.964   5.580  17.488  0.00  0.00     0.072 H 
BRANCH  38  49
ATOM     49  O30 4MH d   1       5.800   8.089  20.708  0.00  0.00    -0.396 OA
ATOM     50  H   4MH d   1       5.606   7.954  21.628  0.00  0.00     0.210 HD
ENDBRANCH  38  49
ENDBRANCH  31  33
ENDBRANCH   5  31
BRANCH   1  51
ATOM     51  N05 4MH d   1       3.597   0.068  20.302  0.00  0.00    -0.222 N 
ATOM     52  H   4MH d   1       4.149  -0.799  20.234  0.00  0.00     0.177 HD
BRANCH  51  53
ATOM     53  C04 4MH d   1       3.084   0.477  21.582  0.00  0.00     0.009 C 
ATOM     54  H   4MH d   1       2.008   0.252  21.615  0.00  0.00     0.064 H 
ATOM     55  H   4MH d   1       3.603  -0.096  22.365  0.00  0.00     0.064 H 
BRANCH  53  56
ATOM     56  C03 4MH d   1       3.280   1.987  21.865  0.00  0.00    -0.050 C 
ATOM     57  H   4MH d   1       3.164   2.538  20.920  0.00  0.00     0.035 H 
ATOM     58  H   4MH d   1       2.507   2.313  22.576  0.00  0.00     0.035 H 
BRANCH  56  59
ATOM     59  C02 4MH d   1       4.642   2.313  22.450  0.00  0.00    -0.067 C 
ATOM     60  H   4MH d   1       5.103   1.383  22.813  0.00  0.00     0.032 H 
ATOM     61  H   4MH d   1       5.271   2.750  21.660  0.00  0.00     0.032 H 
BRANCH  59  62
ATOM     62  C01 4MH d   1       4.553   3.305  23.614  0.00  0.00    -0.076 C 
ATOM     63  H   4MH d   1       5.562   3.507  24.001  0.00  0.00     0.027 H 
ATOM     64  H   4MH d   1       3.933   2.876  24.415  0.00  0.00     0.027 H 
ATOM     65  H   4MH d   1       4.100   4.244  23.262  0.00  0.00     0.027 H 
ENDBRANCH  59  62
ENDBRANCH  56  59
ENDBRANCH  53  56
ENDBRANCH  51  53
ENDBRANCH   1  51
TORSDOF 13
