REMARK  10 active torsions:
REMARK  status: ('A' for Active; 'I' for Inactive)
REMARK    1  A    between atoms: C12_6  and  C9_7 
REMARK    2  A    between atoms: C6_12  and  O5_13 
REMARK    3  A    between atoms: O5_13  and  C4_14 
REMARK    4  A    between atoms: C4_14  and  C2_15 
REMARK       I    between atoms: C2_15  and  N1_17 
REMARK    5  A    between atoms: N1_17  and  C1'_18 
REMARK    6  A    between atoms: C5'_20  and  C6'_21 
REMARK    7  A    between atoms: C6'_21  and  O6'_22 
REMARK    8  A    between atoms: C4'_23  and  O4'_24 
REMARK    9  A    between atoms: C3'_25  and  O3'_26 
REMARK   10  A    between atoms: C2'_27  and  O2'_28 
ROOT
ATOM      1  C2  26M d   1      33.842  24.110  30.194  0.00  0.00     0.243 C 
ATOM      2  O3  26M d   1      32.670  24.105  30.569  0.00  0.00    -0.271 OA
ATOM      3  N1  26M d   1      34.255  23.617  29.019  0.00  0.00    -0.330 N 
ATOM      4  H   26M d   1      35.225  23.680  28.783  0.00  0.00     0.165 HD
ENDROOT
BRANCH   1   5
ATOM      5  C4  26M d   1      34.956  24.752  31.046  0.00  0.00     0.099 C 
ATOM      6  H   26M d   1      35.764  24.022  31.201  0.00  0.00     0.089 H 
ATOM      7  H   26M d   1      35.354  25.634  30.523  0.00  0.00     0.089 H 
BRANCH   5   8
ATOM      8  O5  26M d   1      34.425  25.151  32.315  0.00  0.00    -0.342 OA
BRANCH   8   9
ATOM      9  C6  26M d   1      35.344  25.578  33.248  0.00  0.00     0.069 A 
ATOM     10  C7  26M d   1      36.653  25.961  32.887  0.00  0.00    -0.050 A 
ATOM     11  C8  26M d   1      37.553  26.404  33.870  0.00  0.00    -0.070 A 
ATOM     12  H   26M d   1      36.964  25.913  31.850  0.00  0.00     0.087 H 
ATOM     13  C9  26M d   1      37.152  26.492  35.216  0.00  0.00    -0.026 A 
ATOM     14  H   26M d   1      38.563  26.680  33.590  0.00  0.00     0.085 H 
ATOM     15  C10 26M d   1      35.850  26.126  35.570  0.00  0.00    -0.070 A 
ATOM     16  C11 26M d   1      34.939  25.680  34.591  0.00  0.00    -0.050 A 
ATOM     17  H   26M d   1      35.538  26.186  36.606  0.00  0.00     0.085 H 
ATOM     18  H   26M d   1      33.926  25.416  34.873  0.00  0.00     0.087 H 
BRANCH  13  19
ATOM     19  C12 26M d   1      38.072  26.948  36.187  0.00  0.00    -0.026 A 
ATOM     20  C17 26M d   1      37.658  27.815  37.203  0.00  0.00    -0.072 A 
ATOM     21  C16 26M d   1      38.572  28.289  38.147  0.00  0.00    -0.082 A 
ATOM     22  H   26M d   1      36.620  28.122  37.258  0.00  0.00     0.084 H 
ATOM     23  C15 26M d   1      39.911  27.892  38.096  0.00  0.00    -0.083 A 
ATOM     24  H   26M d   1      38.241  28.969  38.924  0.00  0.00     0.083 H 
ATOM     25  C14 26M d   1      40.338  27.014  37.097  0.00  0.00    -0.082 A 
ATOM     26  H   26M d   1      40.617  28.265  38.830  0.00  0.00     0.083 H 
ATOM     27  C13 26M d   1      39.417  26.550  36.134  0.00  0.00    -0.072 A 
ATOM     28  H   26M d   1      41.372  26.691  37.062  0.00  0.00     0.083 H 
ATOM     29  H   26M d   1      39.750  25.882  35.348  0.00  0.00     0.084 H 
ENDBRANCH  13  19
ENDBRANCH   8   9
ENDBRANCH   5   8
ENDBRANCH   1   5
BRANCH   3  30
ATOM     30  C1' 26M d   1      33.331  22.986  28.064  0.00  0.00     0.133 C 
ATOM     31  O5' 26M d   1      33.314  21.559  28.325  0.00  0.00    -0.354 OA
ATOM     32  C5' 26M d   1      32.238  20.954  27.583  0.00  0.00     0.088 C 
ATOM     33  C4' 26M d   1      32.456  21.112  26.034  0.00  0.00     0.089 C 
ATOM     34  H   26M d   1      31.293  21.451  27.848  0.00  0.00     0.090 H 
ATOM     35  C3' 26M d   1      32.718  22.606  25.656  0.00  0.00     0.091 C 
ATOM     36  H   26M d   1      33.330  20.513  25.738  0.00  0.00     0.091 H 
ATOM     37  C2' 26M d   1      33.775  23.242  26.609  0.00  0.00     0.104 C 
ATOM     38  H   26M d   1      31.774  23.164  25.739  0.00  0.00     0.091 H 
ATOM     39  H   26M d   1      34.747  22.757  26.439  0.00  0.00     0.093 H 
ATOM     40  H   26M d   1      32.322  23.399  28.208  0.00  0.00     0.122 H 
BRANCH  32  41
ATOM     41  C6' 26M d   1      32.164  19.485  28.010  0.00  0.00     0.043 C 
ATOM     42  H   26M d   1      31.232  19.039  27.633  0.00  0.00     0.078 H 
ATOM     43  H   26M d   1      32.183  19.420  29.108  0.00  0.00     0.078 H 
BRANCH  41  44
ATOM     44  O6' 26M d   1      33.284  18.780  27.470  0.00  0.00    -0.398 OA
ATOM     45  H   26M d   1      34.088  19.167  27.797  0.00  0.00     0.209 HD
ENDBRANCH  41  44
ENDBRANCH  32  41
BRANCH  33  46
ATOM     46  O4' 26M d   1      31.293  20.631  25.319  0.00  0.00    -0.390 OA
ATOM     47  H   26M d   1      30.531  21.134  25.581  0.00  0.00     0.210 HD
ENDBRANCH  33  46
BRANCH  35  48
ATOM     48  O3' 26M d   1      33.203  22.700  24.328  0.00  0.00    -0.390 OA
ATOM     49  H   26M d   1      33.358  23.612  24.112  0.00  0.00     0.210 HD
ENDBRANCH  35  48
BRANCH  37  50
ATOM     50  O2' 26M d   1      33.920  24.651  26.364  0.00  0.00    -0.389 OA
ATOM     51  H   26M d   1      33.086  25.083  26.506  0.00  0.00     0.210 HD
ENDBRANCH  37  50
ENDBRANCH   3  30
TORSDOF 10
