REMARK  10 active torsions:
REMARK  status: ('A' for Active; 'I' for Inactive)
REMARK    1  A    between atoms: C12_6  and  C9_7 
REMARK    2  A    between atoms: C6_12  and  C5_13 
REMARK    3  A    between atoms: C5_13  and  C4_14 
REMARK    4  A    between atoms: C4_14  and  C2_15 
REMARK       I    between atoms: C2_15  and  N1_17 
REMARK    5  A    between atoms: N1_17  and  C1'_18 
REMARK    6  A    between atoms: C5'_20  and  C6'_21 
REMARK    7  A    between atoms: C6'_21  and  O6'_22 
REMARK    8  A    between atoms: C4'_23  and  O4'_24 
REMARK    9  A    between atoms: C3'_25  and  O3'_26 
REMARK   10  A    between atoms: C2'_27  and  O2'_28 
ROOT
ATOM      1  C4  26Q d   1      35.217  24.563  31.066  0.00  0.00     0.013 C 
ATOM      2  H   26Q d   1      35.915  23.727  31.221  0.00  0.00     0.047 H 
ATOM      3  H   26Q d   1      35.721  25.362  30.503  0.00  0.00     0.047 H 
ENDROOT
BRANCH   1   4
ATOM      4  C5  26Q d   1      34.888  25.132  32.450  0.00  0.00    -0.033 C 
ATOM      5  H   26Q d   1      34.211  25.981  32.272  0.00  0.00     0.040 H 
ATOM      6  H   26Q d   1      34.346  24.335  32.980  0.00  0.00     0.040 H 
BRANCH   4   7
ATOM      7  C6  26Q d   1      35.858  25.599  33.351  0.00  0.00    -0.058 A 
ATOM      8  C7  26Q d   1      37.206  25.847  33.017  0.00  0.00    -0.076 A 
ATOM      9  C8  26Q d   1      38.081  26.329  33.998  0.00  0.00    -0.072 A 
ATOM     10  H   26Q d   1      37.561  25.666  32.009  0.00  0.00     0.084 H 
ATOM     11  C9  26Q d   1      37.653  26.560  35.323  0.00  0.00    -0.026 A 
ATOM     12  H   26Q d   1      39.113  26.530  33.733  0.00  0.00     0.084 H 
ATOM     13  C10 26Q d   1      36.312  26.302  35.646  0.00  0.00    -0.072 A 
ATOM     14  C11 26Q d   1      35.430  25.828  34.671  0.00  0.00    -0.076 A 
ATOM     15  H   26Q d   1      35.959  26.471  36.657  0.00  0.00     0.084 H 
ATOM     16  H   26Q d   1      34.397  25.633  34.937  0.00  0.00     0.084 H 
BRANCH  11  17
ATOM     17  C12 26Q d   1      38.551  27.046  36.305  0.00  0.00    -0.026 A 
ATOM     18  C17 26Q d   1      38.149  28.052  37.200  0.00  0.00    -0.072 A 
ATOM     19  C16 26Q d   1      39.038  28.547  38.160  0.00  0.00    -0.082 A 
ATOM     20  H   26Q d   1      37.141  28.448  37.146  0.00  0.00     0.084 H 
ATOM     21  C15 26Q d   1      40.337  28.036  38.238  0.00  0.00    -0.083 A 
ATOM     22  H   26Q d   1      38.720  29.326  38.843  0.00  0.00     0.083 H 
ATOM     23  C14 26Q d   1      40.753  27.022  37.369  0.00  0.00    -0.082 A 
ATOM     24  H   26Q d   1      41.026  28.428  38.977  0.00  0.00     0.083 H 
ATOM     25  C13 26Q d   1      39.863  26.546  36.401  0.00  0.00    -0.072 A 
ATOM     26  H   26Q d   1      41.753  26.610  37.445  0.00  0.00     0.083 H 
ATOM     27  H   26Q d   1      40.190  25.777  35.711  0.00  0.00     0.084 H 
ENDBRANCH  11  17
ENDBRANCH   4   7
ENDBRANCH   1   4
BRANCH   1  28
ATOM     28  C2  26Q d   1      34.076  24.034  30.171  0.00  0.00     0.219 C 
ATOM     29  O3  26Q d   1      32.888  24.103  30.525  0.00  0.00    -0.274 OA
ATOM     30  N1  26Q d   1      34.487  23.553  28.986  0.00  0.00    -0.332 N 
ATOM     31  H   26Q d   1      35.460  23.582  28.757  0.00  0.00     0.165 HD
BRANCH  30  32
ATOM     32  C1' 26Q d   1      33.537  22.985  28.019  0.00  0.00     0.133 C 
ATOM     33  O5' 26Q d   1      33.457  21.553  28.316  0.00  0.00    -0.354 OA
ATOM     34  C5' 26Q d   1      32.384  20.956  27.560  0.00  0.00     0.088 C 
ATOM     35  C4' 26Q d   1      32.603  21.124  26.004  0.00  0.00     0.089 C 
ATOM     36  H   26Q d   1      31.452  21.478  27.822  0.00  0.00     0.090 H 
ATOM     37  C3' 26Q d   1      32.896  22.587  25.616  0.00  0.00     0.091 C 
ATOM     38  H   26Q d   1      33.463  20.507  25.704  0.00  0.00     0.091 H 
ATOM     39  C2' 26Q d   1      34.009  23.169  26.563  0.00  0.00     0.104 C 
ATOM     40  H   26Q d   1      31.982  23.186  25.742  0.00  0.00     0.091 H 
ATOM     41  H   26Q d   1      34.939  22.602  26.411  0.00  0.00     0.093 H 
ATOM     42  H   26Q d   1      32.552  23.459  28.143  0.00  0.00     0.122 H 
BRANCH  34  43
ATOM     43  C6' 26Q d   1      32.232  19.504  27.953  0.00  0.00     0.043 C 
ATOM     44  H   26Q d   1      31.258  19.118  27.616  0.00  0.00     0.078 H 
ATOM     45  H   26Q d   1      32.312  19.394  29.044  0.00  0.00     0.078 H 
BRANCH  43  46
ATOM     46  O6' 26Q d   1      33.291  18.802  27.307  0.00  0.00    -0.398 OA
ATOM     47  H   26Q d   1      34.125  19.150  27.600  0.00  0.00     0.209 HD
ENDBRANCH  43  46
ENDBRANCH  34  43
BRANCH  35  48
ATOM     48  O4' 26Q d   1      31.433  20.662  25.310  0.00  0.00    -0.390 OA
ATOM     49  H   26Q d   1      30.681  21.174  25.584  0.00  0.00     0.210 HD
ENDBRANCH  35  48
BRANCH  37  50
ATOM     50  O3' 26Q d   1      33.286  22.624  24.230  0.00  0.00    -0.390 OA
ATOM     51  H   26Q d   1      33.470  23.521  23.978  0.00  0.00     0.210 HD
ENDBRANCH  37  50
BRANCH  39  52
ATOM     52  O2' 26Q d   1      34.271  24.552  26.285  0.00  0.00    -0.389 OA
ATOM     53  H   26Q d   1      34.564  24.643  25.386  0.00  0.00     0.210 HD
ENDBRANCH  39  52
ENDBRANCH  30  32
ENDBRANCH   1  28
TORSDOF 10
