REMARK  13 active torsions:
REMARK  status: ('A' for Active; 'I' for Inactive)
REMARK    1  A    between atoms: C14_1  and  C13_2 
REMARK    2  A    between atoms: C13_2  and  C15_3 
REMARK    3  A    between atoms: C13_2  and  C10_4 
REMARK    4  A    between atoms: C7_9  and  C6_10 
REMARK    5  A    between atoms: C6_10  and  C4_11 
REMARK    6  A    between atoms: C4_11  and  C5_12 
REMARK    7  A    between atoms: C4_11  and  C2_13 
REMARK       I    between atoms: C2_13  and  N1_15 
REMARK    8  A    between atoms: N1_15  and  C1'_16 
REMARK    9  A    between atoms: C5'_18  and  C6'_19 
REMARK   10  A    between atoms: C6'_19  and  O6'_20 
REMARK   11  A    between atoms: C4'_21  and  O4'_22 
REMARK   12  A    between atoms: C3'_23  and  O3'_24 
REMARK   13  A    between atoms: C2'_25  and  O2'_26 
ROOT
ATOM      1  C4  26R d   1      35.960  24.698  30.356  0.00  0.00     0.024 C 
ATOM      2  H   26R d   1      36.632  24.870  29.502  0.00  0.00     0.054 H 
ENDROOT
BRANCH   1   3
ATOM      3  C6  26R d   1      35.678  26.062  31.032  0.00  0.00    -0.030 C 
ATOM      4  H   26R d   1      35.491  26.803  30.241  0.00  0.00     0.041 H 
ATOM      5  H   26R d   1      34.778  25.955  31.655  0.00  0.00     0.041 H 
BRANCH   3   6
ATOM      6  C7  26R d   1      36.726  26.547  31.851  0.00  0.00    -0.057 A 
ATOM      7  C8  26R d   1      37.683  27.381  31.273  0.00  0.00    -0.076 A 
ATOM      8  C9  26R d   1      38.717  27.891  32.059  0.00  0.00    -0.076 A 
ATOM      9  H   26R d   1      37.624  27.631  30.220  0.00  0.00     0.084 H 
ATOM     10  C10 26R d   1      38.834  27.585  33.428  0.00  0.00    -0.055 A 
ATOM     11  H   26R d   1      39.453  28.543  31.602  0.00  0.00     0.084 H 
ATOM     12  C11 26R d   1      37.863  26.743  34.006  0.00  0.00    -0.076 A 
ATOM     13  C12 26R d   1      36.809  26.234  33.229  0.00  0.00    -0.076 A 
ATOM     14  H   26R d   1      37.930  26.486  35.057  0.00  0.00     0.084 H 
ATOM     15  H   26R d   1      36.058  25.600  33.686  0.00  0.00     0.084 H 
BRANCH  10  16
ATOM     16  C13 26R d   1      39.949  28.151  34.161  0.00  0.00    -0.036 C 
ATOM     17  H   26R d   1      40.646  28.573  33.422  0.00  0.00     0.046 H 
BRANCH  16  18
ATOM     18  C14 26R d   1      40.716  27.110  34.990  0.00  0.00    -0.069 C 
ATOM     19  H   26R d   1      41.545  27.602  35.519  0.00  0.00     0.028 H 
ATOM     20  H   26R d   1      41.116  26.333  34.323  0.00  0.00     0.028 H 
ATOM     21  H   26R d   1      40.035  26.650  35.722  0.00  0.00     0.028 H 
ENDBRANCH  16  18
BRANCH  16  22
ATOM     22  C15 26R d   1      39.491  29.282  35.085  0.00  0.00    -0.069 C 
ATOM     23  H   26R d   1      38.940  30.033  34.500  0.00  0.00     0.028 H 
ATOM     24  H   26R d   1      40.369  29.752  35.552  0.00  0.00     0.028 H 
ATOM     25  H   26R d   1      38.835  28.873  35.867  0.00  0.00     0.028 H 
ENDBRANCH  16  22
ENDBRANCH  10  16
ENDBRANCH   3   6
ENDBRANCH   1   3
BRANCH   1  26
ATOM     26  C5  26R d   1      36.646  23.751  31.313  0.00  0.00    -0.064 C 
ATOM     27  H   26R d   1      36.834  22.792  30.808  0.00  0.00     0.028 H 
ATOM     28  H   26R d   1      36.002  23.584  32.189  0.00  0.00     0.028 H 
ATOM     29  H   26R d   1      37.602  24.187  31.639  0.00  0.00     0.028 H 
ENDBRANCH   1  26
BRANCH   1  30
ATOM     30  C2  26R d   1      34.641  24.069  29.821  0.00  0.00     0.223 C 
ATOM     31  O3  26R d   1      33.551  24.172  30.381  0.00  0.00    -0.273 OA
ATOM     32  N1  26R d   1      34.792  23.446  28.661  0.00  0.00    -0.332 N 
ATOM     33  H   26R d   1      35.708  23.373  28.267  0.00  0.00     0.165 HD
BRANCH  32  34
ATOM     34  C1' 26R d   1      33.669  22.865  27.941  0.00  0.00     0.133 C 
ATOM     35  O5' 26R d   1      33.576  21.459  28.200  0.00  0.00    -0.354 OA
ATOM     36  C5' 26R d   1      32.391  20.938  27.581  0.00  0.00     0.088 C 
ATOM     37  C4' 26R d   1      32.471  21.091  26.020  0.00  0.00     0.089 C 
ATOM     38  H   26R d   1      31.518  21.506  27.936  0.00  0.00     0.090 H 
ATOM     39  C3' 26R d   1      32.716  22.550  25.599  0.00  0.00     0.091 C 
ATOM     40  H   26R d   1      33.313  20.480  25.662  0.00  0.00     0.091 H 
ATOM     41  C2' 26R d   1      33.914  23.118  26.423  0.00  0.00     0.104 C 
ATOM     42  H   26R d   1      31.814  23.145  25.806  0.00  0.00     0.091 H 
ATOM     43  H   26R d   1      34.829  22.588  26.119  0.00  0.00     0.093 H 
ATOM     44  H   26R d   1      32.734  23.352  28.255  0.00  0.00     0.122 H 
BRANCH  36  45
ATOM     45  C6' 26R d   1      32.245  19.492  28.021  0.00  0.00     0.043 C 
ATOM     46  H   26R d   1      31.258  19.102  27.731  0.00  0.00     0.078 H 
ATOM     47  H   26R d   1      32.365  19.411  29.111  0.00  0.00     0.078 H 
BRANCH  45  48
ATOM     48  O6' 26R d   1      33.284  18.765  27.350  0.00  0.00    -0.398 OA
ATOM     49  H   26R d   1      34.129  19.117  27.603  0.00  0.00     0.209 HD
ENDBRANCH  45  48
ENDBRANCH  36  45
BRANCH  37  50
ATOM     50  O4' 26R d   1      31.261  20.619  25.392  0.00  0.00    -0.390 OA
ATOM     51  H   26R d   1      30.522  21.124  25.711  0.00  0.00     0.210 HD
ENDBRANCH  37  50
BRANCH  39  52
ATOM     52  O3' 26R d   1      33.017  22.620  24.189  0.00  0.00    -0.390 OA
ATOM     53  H   26R d   1      33.166  23.525  23.943  0.00  0.00     0.210 HD
ENDBRANCH  39  52
BRANCH  41  54
ATOM     54  O2' 26R d   1      34.101  24.531  26.175  0.00  0.00    -0.389 OA
ATOM     55  H   26R d   1      33.314  25.002  26.422  0.00  0.00     0.210 HD
ENDBRANCH  41  54
ENDBRANCH  32  34
ENDBRANCH   1  30
TORSDOF 13
