REMARK  10 active torsions:
REMARK  status: ('A' for Active; 'I' for Inactive)
REMARK    1  A    between atoms: C7_10  and  C6_11 
REMARK    2  A    between atoms: C6_11  and  C5_12 
REMARK    3  A    between atoms: C5_12  and  C4_13 
REMARK    4  A    between atoms: C4_13  and  C2_14 
REMARK       I    between atoms: C2_14  and  N1_16 
REMARK    5  A    between atoms: N1_16  and  C1'_17 
REMARK    6  A    between atoms: C5'_19  and  C6'_20 
REMARK    7  A    between atoms: C6'_20  and  O6'_21 
REMARK    8  A    between atoms: C4'_22  and  O4'_23 
REMARK    9  A    between atoms: C3'_24  and  O3'_25 
REMARK   10  A    between atoms: C2'_26  and  O2'_27 
ROOT
ATOM      1  C4  26V d   1      36.854  24.100  30.066  0.00  0.00     0.010 C 
ATOM      2  H   26V d   1      37.465  23.228  29.790  0.00  0.00     0.047 H 
ATOM      3  H   26V d   1      37.223  24.990  29.535  0.00  0.00     0.047 H 
ENDROOT
BRANCH   1   4
ATOM      4  C5  26V d   1      37.049  24.349  31.603  0.00  0.00    -0.053 C 
ATOM      5  H   26V d   1      36.083  24.541  32.092  0.00  0.00     0.034 H 
ATOM      6  H   26V d   1      37.535  23.485  32.079  0.00  0.00     0.034 H 
BRANCH   4   7
ATOM      7  C6  26V d   1      37.940  25.573  31.676  0.00  0.00    -0.041 C 
ATOM      8  H   26V d   1      38.938  25.271  31.324  0.00  0.00     0.040 H 
ATOM      9  H   26V d   1      37.520  26.323  30.989  0.00  0.00     0.040 H 
BRANCH   7  10
ATOM     10  C7  26V d   1      38.110  26.200  32.925  0.00  0.00    -0.058 A 
ATOM     11  C12 26V d   1      37.136  26.319  33.931  0.00  0.00    -0.070 A 
ATOM     12  C11 26V d   1      37.414  27.058  35.111  0.00  0.00    -0.051 A 
ATOM     13  H   26V d   1      36.169  25.845  33.806  0.00  0.00     0.085 H 
ATOM     14  C16 26V d   1      36.429  27.099  36.101  0.00  0.00    -0.040 C 
ATOM     15  C10 26V d   1      38.661  27.699  35.279  0.00  0.00    -0.052 A 
ATOM     16  C15 26V d   1      36.641  28.225  37.138  0.00  0.00    -0.061 C 
ATOM     17  H   26V d   1      36.427  26.135  36.630  0.00  0.00     0.040 H 
ATOM     18  H   26V d   1      35.454  27.253  35.615  0.00  0.00     0.040 H 
ATOM     19  C14 26V d   1      38.091  28.310  37.593  0.00  0.00    -0.061 C 
ATOM     20  H   26V d   1      36.005  28.027  38.013  0.00  0.00     0.033 H 
ATOM     21  H   26V d   1      36.353  29.185  36.685  0.00  0.00     0.033 H 
ATOM     22  C13 26V d   1      39.044  28.465  36.408  0.00  0.00    -0.040 C 
ATOM     23  H   26V d   1      38.348  27.391  38.140  0.00  0.00     0.033 H 
ATOM     24  H   26V d   1      38.206  29.178  38.259  0.00  0.00     0.033 H 
ATOM     25  H   26V d   1      40.048  28.145  36.723  0.00  0.00     0.040 H 
ATOM     26  H   26V d   1      39.071  29.526  36.118  0.00  0.00     0.040 H 
ATOM     27  C9  26V d   1      39.599  27.605  34.265  0.00  0.00    -0.076 A 
ATOM     28  C8  26V d   1      39.318  26.882  33.108  0.00  0.00    -0.076 A 
ATOM     29  H   26V d   1      40.559  28.097  34.372  0.00  0.00     0.084 H 
ATOM     30  H   26V d   1      40.062  26.846  32.321  0.00  0.00     0.084 H 
ENDBRANCH   7  10
ENDBRANCH   4   7
ENDBRANCH   1   4
BRANCH   1  31
ATOM     31  C2  26V d   1      35.406  23.831  29.582  0.00  0.00     0.219 C 
ATOM     32  O3  26V d   1      34.402  24.178  30.203  0.00  0.00    -0.274 OA
ATOM     33  N1  26V d   1      35.343  23.223  28.400  0.00  0.00    -0.332 N 
ATOM     34  H   26V d   1      36.193  23.007  27.920  0.00  0.00     0.165 HD
BRANCH  33  35
ATOM     35  C1' 26V d   1      34.069  22.861  27.781  0.00  0.00     0.133 C 
ATOM     36  O5' 26V d   1      33.815  21.455  28.044  0.00  0.00    -0.354 OA
ATOM     37  C5' 26V d   1      32.589  20.992  27.448  0.00  0.00     0.088 C 
ATOM     38  C4' 26V d   1      32.673  21.166  25.910  0.00  0.00     0.089 C 
ATOM     39  H   26V d   1      31.756  21.605  27.823  0.00  0.00     0.090 H 
ATOM     40  C3' 26V d   1      32.938  22.621  25.541  0.00  0.00     0.091 C 
ATOM     41  H   26V d   1      33.501  20.549  25.531  0.00  0.00     0.091 H 
ATOM     42  C2' 26V d   1      34.195  23.139  26.280  0.00  0.00     0.104 C 
ATOM     43  H   26V d   1      32.071  23.234  25.827  0.00  0.00     0.091 H 
ATOM     44  H   26V d   1      35.079  22.616  25.887  0.00  0.00     0.093 H 
ATOM     45  H   26V d   1      33.253  23.466  28.203  0.00  0.00     0.122 H 
BRANCH  37  46
ATOM     46  C6' 26V d   1      32.338  19.549  27.849  0.00  0.00     0.043 C 
ATOM     47  H   26V d   1      31.359  19.218  27.471  0.00  0.00     0.078 H 
ATOM     48  H   26V d   1      32.360  19.454  28.945  0.00  0.00     0.078 H 
BRANCH  46  49
ATOM     49  O6' 26V d   1      33.385  18.753  27.265  0.00  0.00    -0.398 OA
ATOM     50  H   26V d   1      34.226  19.049  27.593  0.00  0.00     0.209 HD
ENDBRANCH  46  49
ENDBRANCH  37  46
BRANCH  38  51
ATOM     51  O4' 26V d   1      31.438  20.728  25.290  0.00  0.00    -0.390 OA
ATOM     52  H   26V d   1      30.716  21.247  25.624  0.00  0.00     0.210 HD
ENDBRANCH  38  51
BRANCH  40  53
ATOM     53  O3' 26V d   1      33.143  22.712  24.129  0.00  0.00    -0.390 OA
ATOM     54  H   26V d   1      33.309  23.617  23.892  0.00  0.00     0.210 HD
ENDBRANCH  40  53
BRANCH  42  55
ATOM     55  O2' 26V d   1      34.362  24.568  26.080  0.00  0.00    -0.389 OA
ATOM     56  H   26V d   1      33.600  25.025  26.416  0.00  0.00     0.210 HD
ENDBRANCH  42  55
ENDBRANCH  33  35
ENDBRANCH   1  31
TORSDOF 10
