REMARK  12 active torsions:
REMARK  status: ('A' for Active; 'I' for Inactive)
REMARK    1  A    between atoms: C14_1  and  C13_2 
REMARK    2  A    between atoms: C13_2  and  C10_3 
REMARK    3  A    between atoms: C7_8  and  C5_9 
REMARK    4  A    between atoms: C5_9  and  C6_10 
REMARK    5  A    between atoms: C5_9  and  C4_11 
REMARK    6  A    between atoms: C4_11  and  C2_12 
REMARK       I    between atoms: C2_12  and  N1_14 
REMARK    7  A    between atoms: N1_14  and  C1'_15 
REMARK    8  A    between atoms: C5'_17  and  C6'_18 
REMARK    9  A    between atoms: C6'_18  and  O6'_19 
REMARK   10  A    between atoms: C4'_20  and  O4'_21 
REMARK   11  A    between atoms: C3'_22  and  O3'_23 
REMARK   12  A    between atoms: C2'_24  and  O2'_25 
ROOT
ATOM      1  C4  26W d   1      35.385  25.114  30.589  0.00  0.00     0.016 C 
ATOM      2  H   26W d   1      36.110  25.477  29.845  0.00  0.00     0.048 H 
ATOM      3  H   26W d   1      34.884  25.972  31.062  0.00  0.00     0.048 H 
ENDROOT
BRANCH   1   4
ATOM      4  C5  26W d   1      36.110  24.323  31.641  0.00  0.00    -0.024 C 
ATOM      5  H   26W d   1      35.369  23.835  32.292  0.00  0.00     0.047 H 
BRANCH   4   6
ATOM      6  C7  26W d   1      36.890  25.227  32.417  0.00  0.00    -0.054 A 
ATOM      7  C12 26W d   1      36.457  25.628  33.684  0.00  0.00    -0.076 A 
ATOM      8  C11 26W d   1      37.225  26.512  34.453  0.00  0.00    -0.076 A 
ATOM      9  H   26W d   1      35.519  25.252  34.075  0.00  0.00     0.084 H 
ATOM     10  C10 26W d   1      38.425  27.020  33.953  0.00  0.00    -0.059 A 
ATOM     11  H   26W d   1      36.886  26.803  35.441  0.00  0.00     0.084 H 
ATOM     12  C9  26W d   1      38.836  26.631  32.677  0.00  0.00    -0.076 A 
ATOM     13  C8  26W d   1      38.082  25.739  31.912  0.00  0.00    -0.076 A 
ATOM     14  H   26W d   1      39.759  27.029  32.272  0.00  0.00     0.084 H 
ATOM     15  H   26W d   1      38.424  25.445  30.926  0.00  0.00     0.084 H 
BRANCH  10  16
ATOM     16  C13 26W d   1      39.223  27.934  34.700  0.00  0.00    -0.044 C 
ATOM     17  H   26W d   1      39.310  28.875  34.136  0.00  0.00     0.039 H 
ATOM     18  H   26W d   1      38.733  28.129  35.665  0.00  0.00     0.039 H 
BRANCH  16  19
ATOM     19  C14 26W d   1      40.633  27.375  34.960  0.00  0.00    -0.073 C 
ATOM     20  H   26W d   1      41.217  28.107  35.537  0.00  0.00     0.028 H 
ATOM     21  H   26W d   1      41.134  27.182  34.000  0.00  0.00     0.028 H 
ATOM     22  H   26W d   1      40.556  26.437  35.529  0.00  0.00     0.028 H 
ENDBRANCH  16  19
ENDBRANCH  10  16
ENDBRANCH   4   6
BRANCH   4  23
ATOM     23  C6  26W d   1      36.997  23.248  31.033  0.00  0.00    -0.068 C 
ATOM     24  H   26W d   1      36.381  22.558  30.437  0.00  0.00     0.028 H 
ATOM     25  H   26W d   1      37.500  22.690  31.837  0.00  0.00     0.028 H 
ATOM     26  H   26W d   1      37.752  23.718  30.385  0.00  0.00     0.028 H 
ENDBRANCH   4  23
ENDBRANCH   1   4
BRANCH   1  27
ATOM     27  C2  26W d   1      34.323  24.230  29.879  0.00  0.00     0.220 C 
ATOM     28  O3  26W d   1      33.222  24.090  30.406  0.00  0.00    -0.274 OA
ATOM     29  N1  26W d   1      34.632  23.729  28.669  0.00  0.00    -0.332 N 
ATOM     30  H   26W d   1      35.548  23.859  28.290  0.00  0.00     0.165 HD
BRANCH  29  31
ATOM     31  C1' 26W d   1      33.606  22.982  27.900  0.00  0.00     0.133 C 
ATOM     32  O5' 26W d   1      33.570  21.555  28.161  0.00  0.00    -0.354 OA
ATOM     33  C5' 26W d   1      32.399  20.975  27.537  0.00  0.00     0.088 C 
ATOM     34  C4' 26W d   1      32.475  21.149  25.959  0.00  0.00     0.089 C 
ATOM     35  H   26W d   1      31.509  21.515  27.893  0.00  0.00     0.090 H 
ATOM     36  C3' 26W d   1      32.697  22.589  25.554  0.00  0.00     0.091 C 
ATOM     37  H   26W d   1      33.330  20.559  25.597  0.00  0.00     0.091 H 
ATOM     38  C2' 26W d   1      33.854  23.207  26.399  0.00  0.00     0.104 C 
ATOM     39  H   26W d   1      31.774  23.163  25.722  0.00  0.00     0.091 H 
ATOM     40  H   26W d   1      34.795  22.710  26.120  0.00  0.00     0.093 H 
ATOM     41  H   26W d   1      32.622  23.395  28.165  0.00  0.00     0.122 H 
BRANCH  33  42
ATOM     42  C6' 26W d   1      32.270  19.522  27.962  0.00  0.00     0.043 C 
ATOM     43  H   26W d   1      31.301  19.122  27.630  0.00  0.00     0.078 H 
ATOM     44  H   26W d   1      32.342  19.447  29.057  0.00  0.00     0.078 H 
BRANCH  42  45
ATOM     45  O6' 26W d   1      33.340  18.775  27.352  0.00  0.00    -0.398 OA
ATOM     46  H   26W d   1      34.174  19.126  27.640  0.00  0.00     0.209 HD
ENDBRANCH  42  45
ENDBRANCH  33  42
BRANCH  34  47
ATOM     47  O4' 26W d   1      31.286  20.645  25.335  0.00  0.00    -0.390 OA
ATOM     48  H   26W d   1      30.532  21.122  25.661  0.00  0.00     0.210 HD
ENDBRANCH  34  47
BRANCH  36  49
ATOM     49  O3' 26W d   1      33.054  22.640  24.146  0.00  0.00    -0.390 OA
ATOM     50  H   26W d   1      33.194  23.544  23.889  0.00  0.00     0.210 HD
ENDBRANCH  36  49
BRANCH  38  51
ATOM     51  O2' 26W d   1      33.975  24.588  26.128  0.00  0.00    -0.389 OA
ATOM     52  H   26W d   1      34.163  24.713  25.205  0.00  0.00     0.210 HD
ENDBRANCH  38  51
ENDBRANCH  29  31
ENDBRANCH   1  27
TORSDOF 12
