REMARK  12 active torsions:
REMARK  status: ('A' for Active; 'I' for Inactive)
REMARK    1  A    between atoms: C1_1  and  C28_28 
REMARK    2  A    between atoms: C3_3  and  C24_24 
REMARK    3  A    between atoms: C4_4  and  O22_22 
REMARK    4  A    between atoms: C9_9  and  N11_11 
REMARK    5  A    between atoms: C14_14  and  C16_16 
REMARK    6  A    between atoms: C16_16  and  N17_17 
REMARK    7  A    between atoms: N17_17  and  S18_18 
REMARK    8  A    between atoms: S18_18  and  C21_21 
REMARK    9  A    between atoms: O22_22  and  C23_23 
REMARK   10  A    between atoms: C24_24  and  C25_25 
REMARK   11  A    between atoms: C24_24  and  C26_26 
REMARK   12  A    between atoms: C24_24  and  C27_27 
ROOT
ATOM      1  C1  28M d   1      -9.734   8.945  10.462  0.00  0.00     0.010 A 
ATOM      2  C2  28M d   1      -8.687   9.470  11.192  0.00  0.00    -0.060 A 
ATOM      3  C3  28M d   1      -7.555  10.105  10.676  0.00  0.00    -0.015 A 
ATOM      4  C4  28M d   1      -7.484  10.177   9.303  0.00  0.00     0.087 A 
ATOM      5  C5  28M d   1      -8.539   9.717   8.456  0.00  0.00     0.030 A 
ATOM      6  C6  28M d   1      -9.674   9.076   9.032  0.00  0.00     0.081 A 
ATOM      7  N7  28M d   1     -10.701   8.585   8.276  0.00  0.00    -0.257 NA
ATOM      8  C8  28M d   1     -10.628   8.718   6.960  0.00  0.00     0.028 A 
ATOM      9  C9  28M d   1      -9.565   9.367   6.304  0.00  0.00     0.049 A 
ATOM     10  C10 28M d   1      -8.516   9.869   7.053  0.00  0.00    -0.041 A 
ATOM     11  H   28M d   1      -8.749   9.381  12.271  0.00  0.00     0.086 H 
ATOM     12  H   28M d   1     -11.429   8.306   6.357  0.00  0.00     0.118 H 
ATOM     13  H   28M d   1      -7.687  10.373   6.569  0.00  0.00     0.088 H 
ENDROOT
BRANCH   9  14
ATOM     14  N11 28M d   1      -9.652   9.580   4.923  0.00  0.00    -0.379 N 
ATOM     15  C12 28M d   1      -8.686  10.379   4.152  0.00  0.00    -0.004 C 
ATOM     16  C13 28M d   1      -9.365  10.557   2.804  0.00  0.00    -0.044 C 
ATOM     17  H   28M d   1      -7.731   9.843   4.043  0.00  0.00     0.064 H 
ATOM     18  H   28M d   1      -8.508  11.352   4.633  0.00  0.00     0.064 H 
ATOM     19  C14 28M d   1     -10.233   9.300   2.668  0.00  0.00    -0.021 C 
ATOM     20  H   28M d   1      -8.622  10.611   1.994  0.00  0.00     0.036 H 
ATOM     21  H   28M d   1      -9.985  11.465   2.794  0.00  0.00     0.036 H 
ATOM     22  C15 28M d   1     -10.753   9.068   4.096  0.00  0.00     0.000 C 
ATOM     23  H   28M d   1      -9.632   8.449   2.314  0.00  0.00     0.045 H 
ATOM     24  H   28M d   1     -11.681   9.630   4.277  0.00  0.00     0.065 H 
ATOM     25  H   28M d   1     -10.929   7.999   4.286  0.00  0.00     0.065 H 
BRANCH  19  26
ATOM     26  C16 28M d   1     -11.433   9.507   1.737  0.00  0.00     0.007 C 
ATOM     27  H   28M d   1     -11.976  10.412   2.049  0.00  0.00     0.065 H 
ATOM     28  H   28M d   1     -12.099   8.635   1.813  0.00  0.00     0.065 H 
BRANCH  26  29
ATOM     29  N17 28M d   1     -11.001   9.665   0.322  0.00  0.00    -0.319 N 
ATOM     30  H   28M d   1     -10.635  10.542   0.010  0.00  0.00     0.172 HD
BRANCH  29  31
ATOM     31  S18 28M d   1     -11.118   8.435  -0.711  0.00  0.00     0.222 S 
ATOM     32  O19 28M d   1     -10.554   8.869  -1.950  0.00  0.00    -0.206 OA
ATOM     33  O20 28M d   1     -10.565   7.283  -0.070  0.00  0.00    -0.206 OA
BRANCH  31  34
ATOM     34  C21 28M d   1     -12.829   8.157  -0.955  0.00  0.00     0.032 C 
ATOM     35  H   28M d   1     -12.968   7.322  -1.657  0.00  0.00     0.051 H 
ATOM     36  H   28M d   1     -13.293   9.065  -1.369  0.00  0.00     0.051 H 
ATOM     37  H   28M d   1     -13.301   7.910   0.007  0.00  0.00     0.051 H 
ENDBRANCH  31  34
ENDBRANCH  29  31
ENDBRANCH  26  29
ENDBRANCH  19  26
ENDBRANCH   9  14
BRANCH   4  38
ATOM     38  O22 28M d   1      -6.316  10.614   8.707  0.00  0.00    -0.354 OA
BRANCH  38  39
ATOM     39  C23 28M d   1      -5.485   9.671   8.040  0.00  0.00     0.010 C 
ATOM     40  H   28M d   1      -4.605  10.186   7.627  0.00  0.00     0.066 H 
ATOM     41  H   28M d   1      -6.050   9.198   7.223  0.00  0.00     0.066 H 
ATOM     42  H   28M d   1      -5.158   8.901   8.754  0.00  0.00     0.066 H 
ENDBRANCH  38  39
ENDBRANCH   4  38
BRANCH   1  43
ATOM     43  C28 28M d   1     -10.861   8.300  11.189  0.00  0.00     0.043 A 
ATOM     44  C29 28M d   1     -11.170   6.888  10.947  0.00  0.00     0.277 A 
ATOM     45  O30 28M d   1     -10.643   6.165  10.096  0.00  0.00    -0.265 OA
ATOM     46  N31 28M d   1     -12.182   6.383  11.756  0.00  0.00    -0.226 NA
ATOM     47  C33 28M d   1     -12.866   7.101  12.688  0.00  0.00    -0.011 A 
ATOM     48  C34 28M d   1     -12.595   8.413  12.888  0.00  0.00    -0.018 A 
ATOM     49  H   28M d   1     -13.640   6.615  13.280  0.00  0.00     0.108 H 
ATOM     50  C35 28M d   1     -11.571   9.017  12.126  0.00  0.00    -0.082 A 
ATOM     51  H   28M d   1     -12.322   8.530  13.947  0.00  0.00     0.046 H 
ATOM     52  H   28M d   1     -13.521   8.970  12.684  0.00  0.00     0.046 H 
ATOM     53  H   28M d   1     -11.338  10.069  12.282  0.00  0.00     0.079 H 
ENDBRANCH   1  43
BRANCH   3  54
ATOM     54  C24 28M d   1      -6.503  10.704  11.652  0.00  0.00    -0.021 C 
BRANCH  54  55
ATOM     55  C25 28M d   1      -6.983  10.695  13.118  0.00  0.00    -0.066 C 
ATOM     56  H   28M d   1      -6.203  11.128  13.762  0.00  0.00     0.028 H 
ATOM     57  H   28M d   1      -7.184   9.660  13.432  0.00  0.00     0.028 H 
ATOM     58  H   28M d   1      -7.904  11.291  13.206  0.00  0.00     0.028 H 
ENDBRANCH  54  55
BRANCH  54  59
ATOM     59  C26 28M d   1      -5.190   9.910  11.612  0.00  0.00    -0.066 C 
ATOM     60  H   28M d   1      -4.806   9.888  10.581  0.00  0.00     0.028 H 
ATOM     61  H   28M d   1      -5.373   8.882  11.957  0.00  0.00     0.028 H 
ATOM     62  H   28M d   1      -4.450  10.391  12.269  0.00  0.00     0.028 H 
ENDBRANCH  54  59
BRANCH  54  63
ATOM     63  C27 28M d   1      -6.190  12.166  11.329  0.00  0.00    -0.066 C 
ATOM     64  H   28M d   1      -7.120  12.754  11.352  0.00  0.00     0.028 H 
ATOM     65  H   28M d   1      -5.740  12.232  10.328  0.00  0.00     0.028 H 
ATOM     66  H   28M d   1      -5.486  12.564  12.075  0.00  0.00     0.028 H 
ENDBRANCH  54  63
ENDBRANCH   3  54
TORSDOF 12
