REMARK  12 active torsions:
REMARK  status: ('A' for Active; 'I' for Inactive)
REMARK    1  A    between atoms: C14_1  and  C13_2 
REMARK    2  A    between atoms: C13_2  and  C15_3 
REMARK    3  A    between atoms: C13_2  and  C10_4 
REMARK    4  A    between atoms: C7_9  and  C6_10 
REMARK    5  A    between atoms: C6_10  and  C4_11 
REMARK    6  A    between atoms: C4_11  and  C2_12 
REMARK       I    between atoms: C2_12  and  N1_14 
REMARK    7  A    between atoms: N1_14  and  C1'_15 
REMARK    8  A    between atoms: C5'_17  and  C6'_18 
REMARK    9  A    between atoms: C6'_18  and  O6'_19 
REMARK   10  A    between atoms: C4'_20  and  O4'_21 
REMARK   11  A    between atoms: C3'_22  and  O3'_23 
REMARK   12  A    between atoms: C2'_24  and  O2'_25 
ROOT
ATOM      1  C4  26Y d   1      35.450  24.454  30.724  0.00  0.00     0.013 C 
ATOM      2  H   26Y d   1      36.153  23.617  30.844  0.00  0.00     0.047 H 
ATOM      3  H   26Y d   1      35.896  25.216  30.067  0.00  0.00     0.047 H 
ENDROOT
BRANCH   1   4
ATOM      4  C6  26Y d   1      35.308  25.106  32.113  0.00  0.00    -0.033 C 
ATOM      5  H   26Y d   1      34.582  25.925  31.999  0.00  0.00     0.040 H 
ATOM      6  H   26Y d   1      34.890  24.335  32.777  0.00  0.00     0.040 H 
BRANCH   4   7
ATOM      7  C7  26Y d   1      36.410  25.645  32.779  0.00  0.00    -0.058 A 
ATOM      8  C8  26Y d   1      37.555  26.009  32.076  0.00  0.00    -0.076 A 
ATOM      9  C9  26Y d   1      38.645  26.556  32.733  0.00  0.00    -0.076 A 
ATOM     10  H   26Y d   1      37.594  25.863  31.003  0.00  0.00     0.084 H 
ATOM     11  C10 26Y d   1      38.618  26.755  34.110  0.00  0.00    -0.055 A 
ATOM     12  H   26Y d   1      39.528  26.832  32.169  0.00  0.00     0.084 H 
ATOM     13  C11 26Y d   1      37.466  26.409  34.830  0.00  0.00    -0.076 A 
ATOM     14  C12 26Y d   1      36.372  25.858  34.160  0.00  0.00    -0.076 A 
ATOM     15  H   26Y d   1      37.425  26.568  35.901  0.00  0.00     0.084 H 
ATOM     16  H   26Y d   1      35.482  25.592  34.718  0.00  0.00     0.084 H 
BRANCH  11  17
ATOM     17  C13 26Y d   1      39.759  27.328  34.691  0.00  0.00    -0.036 C 
ATOM     18  H   26Y d   1      40.619  27.121  34.037  0.00  0.00     0.046 H 
BRANCH  17  19
ATOM     19  C14 26Y d   1      39.553  28.848  34.769  0.00  0.00    -0.069 C 
ATOM     20  H   26Y d   1      40.439  29.315  35.223  0.00  0.00     0.028 H 
ATOM     21  H   26Y d   1      38.668  29.067  35.384  0.00  0.00     0.028 H 
ATOM     22  H   26Y d   1      39.404  29.250  33.756  0.00  0.00     0.028 H 
ENDBRANCH  17  19
BRANCH  17  23
ATOM     23  C15 26Y d   1      40.074  26.759  36.074  0.00  0.00    -0.069 C 
ATOM     24  H   26Y d   1      40.218  25.671  35.999  0.00  0.00     0.028 H 
ATOM     25  H   26Y d   1      39.238  26.972  36.757  0.00  0.00     0.028 H 
ATOM     26  H   26Y d   1      40.992  27.224  36.462  0.00  0.00     0.028 H 
ENDBRANCH  17  23
ENDBRANCH  11  17
ENDBRANCH   4   7
ENDBRANCH   1   4
BRANCH   1  27
ATOM     27  C2  26Y d   1      34.233  23.893  29.973  0.00  0.00     0.219 C 
ATOM     28  O3  26Y d   1      33.094  23.959  30.434  0.00  0.00    -0.274 OA
ATOM     29  N1  26Y d   1      34.533  23.338  28.792  0.00  0.00    -0.332 N 
ATOM     30  H   26Y d   1      35.486  23.329  28.491  0.00  0.00     0.165 HD
BRANCH  29  31
ATOM     31  C1' 26Y d   1      33.507  22.741  27.923  0.00  0.00     0.133 C 
ATOM     32  O5' 26Y d   1      33.426  21.311  28.179  0.00  0.00    -0.354 OA
ATOM     33  C5' 26Y d   1      32.330  20.742  27.446  0.00  0.00     0.088 C 
ATOM     34  C4' 26Y d   1      32.488  20.978  25.910  0.00  0.00     0.089 C 
ATOM     35  H   26Y d   1      31.402  21.236  27.769  0.00  0.00     0.090 H 
ATOM     36  C3' 26Y d   1      32.732  22.458  25.597  0.00  0.00     0.091 C 
ATOM     37  H   26Y d   1      33.332  20.379  25.538  0.00  0.00     0.091 H 
ATOM     38  C2' 26Y d   1      33.883  22.976  26.466  0.00  0.00     0.104 C 
ATOM     39  H   26Y d   1      31.823  23.029  25.838  0.00  0.00     0.091 H 
ATOM     40  H   26Y d   1      34.803  22.424  26.225  0.00  0.00     0.093 H 
ATOM     41  H   26Y d   1      32.532  23.207  28.131  0.00  0.00     0.122 H 
BRANCH  33  42
ATOM     42  C6' 26Y d   1      32.227  19.262  27.782  0.00  0.00     0.043 C 
ATOM     43  H   26Y d   1      31.402  18.802  27.218  0.00  0.00     0.078 H 
ATOM     44  H   26Y d   1      32.053  19.130  28.860  0.00  0.00     0.078 H 
BRANCH  42  45
ATOM     45  O6' 26Y d   1      33.481  18.660  27.405  0.00  0.00    -0.398 OA
ATOM     46  H   26Y d   1      34.186  19.068  27.893  0.00  0.00     0.209 HD
ENDBRANCH  42  45
ENDBRANCH  33  42
BRANCH  34  47
ATOM     47  O4' 26Y d   1      31.286  20.593  25.243  0.00  0.00    -0.390 OA
ATOM     48  H   26Y d   1      30.562  21.114  25.571  0.00  0.00     0.210 HD
ENDBRANCH  34  47
BRANCH  36  49
ATOM     49  O3' 26Y d   1      33.020  22.624  24.201  0.00  0.00    -0.390 OA
ATOM     50  H   26Y d   1      33.170  23.544  24.017  0.00  0.00     0.210 HD
ENDBRANCH  36  49
BRANCH  38  51
ATOM     51  O2' 26Y d   1      34.102  24.377  26.245  0.00  0.00    -0.389 OA
ATOM     52  H   26Y d   1      34.319  24.522  25.332  0.00  0.00     0.210 HD
ENDBRANCH  38  51
ENDBRANCH  29  31
ENDBRANCH   1  27
TORSDOF 12
