REMARK WARNING: 32 MAX_TORS EXCEEDED!!!
REMARK  34 active torsions:
REMARK  status: ('A' for Active; 'I' for Inactive)
REMARK    1  A    between atoms: N_1  and  CA_2 
REMARK    2  A    between atoms: CA_2  and  C_3 
REMARK    3  A    between atoms: CA_2  and  CB_5 
REMARK       I    between atoms: C_3  and  N_8 
REMARK    4  A    between atoms: CB_5  and  OG1_6 
REMARK    5  A    between atoms: CB_5  and  CG2_7 
REMARK    6  A    between atoms: N_8  and  CA_9 
REMARK    7  A    between atoms: CA_9  and  C_10 
REMARK    8  A    between atoms: CA_9  and  CB_12 
REMARK       I    between atoms: C_10  and  N_13 
REMARK    9  A    between atoms: N_13  and  CA_14 
REMARK   10  A    between atoms: CA_14  and  C_15 
REMARK   11  A    between atoms: CA_14  and  CB_17 
REMARK       I    between atoms: C_15  and  N_24 
REMARK   12  A    between atoms: CB_17  and  CG_18 
REMARK   13  A    between atoms: N_24  and  CA_25 
REMARK   14  A    between atoms: CA_25  and  C_26 
REMARK   15  A    between atoms: CA_25  and  CB_28 
REMARK       I    between atoms: C_26  and  N_31 
REMARK   16  A    between atoms: CB_28  and  OG1_29 
REMARK   17  A    between atoms: CB_28  and  CG2_30 
REMARK   18  A    between atoms: N_31  and  CA_32 
REMARK   19  A    between atoms: CA_32  and  C_33 
REMARK   20  A    between atoms: CA_32  and  CB_35 
REMARK       I    between atoms: C_33  and  N_39 
REMARK   21  A    between atoms: CB_35  and  CG1_36 
REMARK   22  A    between atoms: CB_35  and  CG2_37 
REMARK   23  A    between atoms: CG1_36  and  CD1_38 
REMARK   24  A    between atoms: CA_40  and  C_41 
REMARK       I    between atoms: C_41  and  N_46 
REMARK   25  A    between atoms: N_46  and  CA_47 
REMARK   26  A    between atoms: CA_47  and  C_48 
REMARK   27  A    between atoms: CA_47  and  CB_50 
REMARK       I    between atoms: C_48  and  N_52 
REMARK   28  A    between atoms: CB_50  and  OG_51 
REMARK   29  A    between atoms: N_52  and  CA_53 
REMARK   30  A    between atoms: CA_53  and  C_54 
REMARK   31  A    between atoms: CA_53  and  CB_56 
REMARK   32  A    between atoms: CB_56  and  CG1_57 
REMARK   33  A    between atoms: CB_56  and  CG2_58 
REMARK   34  A    between atoms: CG1_57  and  CD1_59 
ROOT
ATOM      1  C   THR d   1      42.902   4.853-141.752  0.00  0.00     0.243 C 
ATOM      2  O   THR d   1      43.017   5.895-141.112  0.00  0.00    -0.271 OA
ATOM      3  N   ILE d   1      41.724   4.318-142.058  0.00  0.00    -0.346 N 
ATOM      4  H   ILE d   1      41.669   3.381-142.403  0.00  0.00     0.163 HD
ENDROOT
BRANCH   3   5
ATOM      5  CA  ILE d   1      40.514   5.111-141.885  0.00  0.00     0.092 C 
ATOM      6  H   ILE d   1      40.840   6.157-141.978  0.00  0.00     0.088 H 
BRANCH   5   7
ATOM      7  C   ILE d   1      39.898   4.989-140.510  0.00  0.00     0.243 C 
ATOM      8  O   ILE d   1      40.051   3.952-139.841  0.00  0.00    -0.271 OA
ATOM      9  N   PRO d   1      39.176   6.042-140.099  0.00  0.00    -0.337 N 
ATOM     10  CA  PRO d   1      38.449   6.140-138.849  0.00  0.00     0.091 C 
ATOM     11  CD  PRO d   1      38.939   7.218-140.952  0.00  0.00    -0.001 C 
ATOM     12  CB  PRO d   1      37.925   7.573-138.885  0.00  0.00    -0.036 C 
ATOM     13  H   PRO d   1      39.085   5.939-137.974  0.00  0.00     0.087 H 
ATOM     14  CG  PRO d   1      37.733   7.848-140.339  0.00  0.00    -0.048 C 
ATOM     15  H   PRO d   1      38.657   8.268-138.448  0.00  0.00     0.036 H 
ATOM     16  H   PRO d   1      36.972   7.655-138.342  0.00  0.00     0.036 H 
ATOM     17  H   PRO d   1      37.705   8.929-140.538  0.00  0.00     0.035 H 
ATOM     18  H   PRO d   1      36.809   7.383-140.712  0.00  0.00     0.035 H 
ATOM     19  H   PRO d   1      38.741   6.918-141.992  0.00  0.00     0.064 H 
ATOM     20  H   PRO d   1      39.798   7.904-140.925  0.00  0.00     0.064 H 
BRANCH  10  21
ATOM     21  C   PRO d   1      37.265   5.215-138.893  0.00  0.00     0.241 C 
ATOM     22  O   PRO d   1      36.876   4.802-139.970  0.00  0.00    -0.271 OA
ATOM     23  N   SER d   1      36.663   4.913-137.755  0.00  0.00    -0.344 N 
ATOM     24  H   SER d   1      37.065   5.179-136.879  0.00  0.00     0.163 HD
BRANCH  23  25
ATOM     25  CA  SER d   1      35.410   4.190-137.804  0.00  0.00     0.109 C 
ATOM     26  H   SER d   1      35.428   3.538-138.690  0.00  0.00     0.090 H 
BRANCH  25  27
ATOM     27  C   SER d   1      34.239   5.145-137.942  0.00  0.00     0.243 C 
ATOM     28  O   SER d   1      34.375   6.362-137.761  0.00  0.00    -0.271 OA
ATOM     29  N   ILE d   1      33.090   4.547-138.251  0.00  0.00    -0.344 N 
ATOM     30  H   ILE d   1      33.124   3.554-138.360  0.00  0.00     0.163 HD
BRANCH  29  31
ATOM     31  CA  ILE d   1      31.757   5.188-138.453  0.00  0.00     0.099 C 
ATOM     32  H   ILE d   1      31.040   4.449-138.067  0.00  0.00     0.090 H 
BRANCH  31  33
ATOM     33  C   ILE d   1      31.378   5.338-139.943  0.00  0.00     0.197 C 
ATOM     34  O   ILE d   1      30.474   4.626-140.415  0.00  0.00    -0.646 OA
ATOM     35  OXT ILE d   1      31.964   6.129-140.695  0.00  0.00    -0.646 OA
ENDBRANCH  31  33
BRANCH  31  36
ATOM     36  CB  ILE d   1      31.503   6.453-137.569  0.00  0.00    -0.029 C 
ATOM     37  H   ILE d   1      32.380   7.114-137.627  0.00  0.00     0.043 H 
BRANCH  36  38
ATOM     38  CG1 ILE d   1      31.265   6.027-136.117  0.00  0.00    -0.063 C 
ATOM     39  H   ILE d   1      30.695   5.086-136.129  0.00  0.00     0.033 H 
ATOM     40  H   ILE d   1      30.669   6.811-135.627  0.00  0.00     0.033 H 
BRANCH  38  41
ATOM     41  CD1 ILE d   1      32.523   5.804-135.286  0.00  0.00    -0.076 C 
ATOM     42  H   ILE d   1      32.240   5.503-134.266  0.00  0.00     0.027 H 
ATOM     43  H   ILE d   1      33.105   6.736-135.245  0.00  0.00     0.027 H 
ATOM     44  H   ILE d   1      33.131   5.012-135.747  0.00  0.00     0.027 H 
ENDBRANCH  38  41
ENDBRANCH  36  38
BRANCH  36  45
ATOM     45  CG2 ILE d   1      30.273   7.203-138.023  0.00  0.00    -0.070 C 
ATOM     46  H   ILE d   1      30.405   7.527-139.066  0.00  0.00     0.028 H 
ATOM     47  H   ILE d   1      30.123   8.084-137.381  0.00  0.00     0.028 H 
ATOM     48  H   ILE d   1      29.395   6.544-137.952  0.00  0.00     0.028 H 
ENDBRANCH  36  45
ENDBRANCH  31  36
ENDBRANCH  29  31
ENDBRANCH  25  27
BRANCH  25  49
ATOM     49  CB  SER d   1      35.233   3.316-136.579  0.00  0.00     0.044 C 
ATOM     50  H   SER d   1      35.989   2.517-136.587  0.00  0.00     0.077 H 
ATOM     51  H   SER d   1      34.228   2.870-136.589  0.00  0.00     0.077 H 
BRANCH  49  52
ATOM     52  OG  SER d   1      35.388   4.098-135.416  0.00  0.00    -0.398 OA
ATOM     53  H   SER d   1      35.277   3.549-134.649  0.00  0.00     0.209 HD
ENDBRANCH  49  52
ENDBRANCH  25  49
ENDBRANCH  23  25
ENDBRANCH  10  21
ENDBRANCH   5   7
BRANCH   5  54
ATOM     54  CB  ILE d   1      39.435   4.903-142.993  0.00  0.00    -0.030 C 
ATOM     55  H   ILE d   1      38.530   5.438-142.668  0.00  0.00     0.043 H 
BRANCH  54  56
ATOM     56  CG1 ILE d   1      39.037   3.435-143.174  0.00  0.00    -0.063 C 
ATOM     57  H   ILE d   1      39.769   2.810-142.642  0.00  0.00     0.033 H 
ATOM     58  H   ILE d   1      39.066   3.199-144.248  0.00  0.00     0.033 H 
BRANCH  56  59
ATOM     59  CD1 ILE d   1      37.659   3.102-142.651  0.00  0.00    -0.076 C 
ATOM     60  H   ILE d   1      37.451   2.035-142.818  0.00  0.00     0.027 H 
ATOM     61  H   ILE d   1      36.909   3.709-143.180  0.00  0.00     0.027 H 
ATOM     62  H   ILE d   1      37.613   3.320-141.574  0.00  0.00     0.027 H 
ENDBRANCH  56  59
ENDBRANCH  54  56
BRANCH  54  63
ATOM     63  CG2 ILE d   1      39.893   5.540-144.294  0.00  0.00    -0.071 C 
ATOM     64  H   ILE d   1      40.167   6.590-144.112  0.00  0.00     0.028 H 
ATOM     65  H   ILE d   1      39.077   5.496-145.031  0.00  0.00     0.028 H 
ATOM     66  H   ILE d   1      40.767   4.995-144.681  0.00  0.00     0.028 H 
ENDBRANCH  54  63
ENDBRANCH   5  54
ENDBRANCH   3   5
BRANCH   1  67
ATOM     67  CA  THR d   1      44.140   4.140-142.257  0.00  0.00     0.113 C 
ATOM     68  H   THR d   1      43.824   3.323-142.923  0.00  0.00     0.091 H 
BRANCH  67  69
ATOM     69  N   THR d   1      45.003   5.057-143.053  0.00  0.00    -0.344 N 
ATOM     70  C   PHE d   1      45.105   4.972-144.391  0.00  0.00     0.241 C 
ATOM     71  O   PHE d   1      44.654   4.037-145.057  0.00  0.00    -0.271 OA
ATOM     72  H   THR d   1      45.526   5.762-142.574  0.00  0.00     0.163 HD
BRANCH  70  73
ATOM     73  CA  PHE d   1      45.808   6.113-145.092  0.00  0.00     0.093 C 
ATOM     74  H   PHE d   1      46.515   6.590-144.397  0.00  0.00     0.088 H 
BRANCH  73  75
ATOM     75  N   PHE d   1      46.517   5.695-146.286  0.00  0.00    -0.346 N 
ATOM     76  C   ALA d   1      47.579   4.896-146.277  0.00  0.00     0.240 C 
ATOM     77  O   ALA d   1      48.123   4.494-145.244  0.00  0.00    -0.271 OA
ATOM     78  H   PHE d   1      46.187   6.028-147.169  0.00  0.00     0.163 HD
BRANCH  76  79
ATOM     79  CA  ALA d   1      48.076   4.452-147.654  0.00  0.00     0.086 C 
ATOM     80  H   ALA d   1      47.853   5.266-148.360  0.00  0.00     0.086 H 
BRANCH  79  81
ATOM     81  N   ALA d   1      49.507   4.197-147.731  0.00  0.00    -0.346 N 
ATOM     82  C   THR d   1      50.377   5.184-147.874  0.00  0.00     0.251 C 
ATOM     83  O   THR d   1      50.048   6.359-147.827  0.00  0.00    -0.271 OA
ATOM     84  H   ALA d   1      49.840   3.256-147.675  0.00  0.00     0.163 HD
BRANCH  82  85
ATOM     85  CA  THR d   1      51.839   4.791-148.109  0.00  0.00     0.199 C 
ATOM     86  H   THR d   1      51.901   4.264-149.073  0.00  0.00     0.103 H 
BRANCH  85  87
ATOM     87  N   THR d   1      52.686   6.000-148.189  0.00  0.00    -0.064 N 
ATOM     88  H   THR d   1      52.336   6.608-148.913  0.00  0.00     0.275 HD
ATOM     89  H   THR d   1      53.634   5.733-148.404  0.00  0.00     0.275 HD
ATOM     90  H   THR d   1      52.665   6.484-147.305  0.00  0.00     0.275 HD
ENDBRANCH  85  87
BRANCH  85  91
ATOM     91  CB  THR d   1      52.342   3.834-147.011  0.00  0.00     0.068 C 
ATOM     92  H   THR d   1      51.804   2.878-147.097  0.00  0.00     0.086 H 
BRANCH  91  93
ATOM     93  OG1 THR d   1      52.090   4.406-145.725  0.00  0.00    -0.393 OA
ATOM     94  H   THR d   1      52.401   3.814-145.050  0.00  0.00     0.210 HD
ENDBRANCH  91  93
BRANCH  91  95
ATOM     95  CG2 THR d   1      53.837   3.578-147.151  0.00  0.00    -0.050 C 
ATOM     96  H   THR d   1      54.168   2.893-146.356  0.00  0.00     0.031 H 
ATOM     97  H   THR d   1      54.382   4.530-147.065  0.00  0.00     0.031 H 
ATOM     98  H   THR d   1      54.041   3.126-148.133  0.00  0.00     0.031 H 
ENDBRANCH  91  95
ENDBRANCH  85  91
ENDBRANCH  82  85
ENDBRANCH  79  81
BRANCH  79  99
ATOM     99  CB  ALA d   1      47.308   3.218-148.093  0.00  0.00    -0.049 C 
ATOM    100  H   ALA d   1      46.228   3.417-148.032  0.00  0.00     0.030 H 
ATOM    101  H   ALA d   1      47.562   2.374-147.435  0.00  0.00     0.030 H 
ATOM    102  H   ALA d   1      47.577   2.968-149.130  0.00  0.00     0.030 H 
ENDBRANCH  79  99
ENDBRANCH  76  79
ENDBRANCH  73  75
BRANCH  73 103
ATOM    103  CB  PHE d   1      44.745   7.088-145.515  0.00  0.00    -0.014 C 
ATOM    104  H   PHE d   1      43.981   6.539-146.085  0.00  0.00     0.043 H 
ATOM    105  H   PHE d   1      45.210   7.847-146.161  0.00  0.00     0.043 H 
BRANCH 103 106
ATOM    106  CG  PHE d   1      44.072   7.787-144.383  0.00  0.00    -0.056 A 
ATOM    107  CD1 PHE d   1      44.803   8.574-143.500  0.00  0.00    -0.077 A 
ATOM    108  CE1 PHE d   1      44.179   9.236-142.463  0.00  0.00    -0.082 A 
ATOM    109  H   PHE d   1      45.875   8.668-143.628  0.00  0.00     0.084 H 
ATOM    110  CZ  PHE d   1      42.816   9.141-142.321  0.00  0.00    -0.083 A 
ATOM    111  H   PHE d   1      44.760   9.827-141.765  0.00  0.00     0.083 H 
ATOM    112  CE2 PHE d   1      42.077   8.369-143.204  0.00  0.00    -0.082 A 
ATOM    113  H   PHE d   1      42.318   9.671-141.517  0.00  0.00     0.083 H 
ATOM    114  CD2 PHE d   1      42.703   7.697-144.227  0.00  0.00    -0.077 A 
ATOM    115  H   PHE d   1      41.002   8.295-143.087  0.00  0.00     0.083 H 
ATOM    116  H   PHE d   1      42.120   7.094-144.914  0.00  0.00     0.084 H 
ENDBRANCH 103 106
ENDBRANCH  73 103
ENDBRANCH  70  73
ENDBRANCH  67  69
BRANCH  67 117
ATOM    117  CB  THR d   1      44.856   3.525-141.064  0.00  0.00     0.060 C 
ATOM    118  H   THR d   1      44.993   4.285-140.281  0.00  0.00     0.086 H 
BRANCH 117 119
ATOM    119  OG1 THR d   1      46.131   3.029-141.484  0.00  0.00    -0.393 OA
ATOM    120  H   THR d   1      46.580   2.644-140.741  0.00  0.00     0.210 HD
ENDBRANCH 117 119
BRANCH 117 121
ATOM    121  CG2 THR d   1      44.037   2.390-140.530  0.00  0.00    -0.050 C 
ATOM    122  H   THR d   1      44.551   1.942-139.667  0.00  0.00     0.031 H 
ATOM    123  H   THR d   1      43.907   1.630-141.315  0.00  0.00     0.031 H 
ATOM    124  H   THR d   1      43.052   2.765-140.216  0.00  0.00     0.031 H 
ENDBRANCH 117 121
ENDBRANCH  67 117
ENDBRANCH   1  67
TORSDOF 34
