REMARK  10 active torsions:
REMARK  status: ('A' for Active; 'I' for Inactive)
REMARK       I    between atoms: C5_2  and  N3_1 
REMARK    1  A    between atoms: N3_1  and  S1_11 
REMARK       I    between atoms: N11_15  and  C5_2 
REMARK    2  A    between atoms: C6_3  and  N11_15 
REMARK    3  A    between atoms: N12_7  and  C7_4 
REMARK    4  A    between atoms: C10_6  and  C23_24 
REMARK       I    between atoms: C14_16  and  N12_7 
REMARK    5  A    between atoms: C13_8  and  C25_26 
REMARK    6  A    between atoms: N22_23  and  C28_10 
REMARK    7  A    between atoms: S1_11  and  C2_12 
REMARK       I    between atoms: C14_16  and  N22_23 
REMARK    8  A    between atoms: C23_24  and  C27_28 
REMARK    9  A    between atoms: C27_28  and  O26_27 
REMARK   10  A    between atoms: O26_27  and  C29_29 
ROOT
ATOM      1  N3  2C1 d   1      38.830  12.286 -22.805  0.00  0.00    -0.231 N 
ATOM      2  C5  2C1 d   1      38.910  11.032 -22.407  0.00  0.00     0.335 C 
ATOM      3  N11 2C1 d   1      39.449  10.254 -23.324  0.00  0.00    -0.292 N 
ATOM      4  O20 2C1 d   1      38.487  10.647 -21.324  0.00  0.00    -0.246 OA
ATOM      5  H1  2C1 d   1      39.167  12.515 -23.718  0.00  0.00     0.183 HD
ATOM      6  H8  2C1 d   1      39.662  10.693 -24.197  0.00  0.00     0.172 HD
ENDROOT
BRANCH   1   7
ATOM      7  S1  2C1 d   1      38.264  13.382 -21.967  0.00  0.00     0.273 S 
ATOM      8  O17 2C1 d   1      38.705  14.536 -22.608  0.00  0.00    -0.200 OA
ATOM      9  O18 2C1 d   1      38.941  13.494 -20.720  0.00  0.00    -0.200 OA
BRANCH   7  10
ATOM     10  C2  2C1 d   1      36.690  13.433 -21.843  0.00  0.00     0.121 C 
ATOM     11  C8  2C1 d   1      35.970  12.925 -20.910  0.00  0.00    -0.047 C 
ATOM     12  C13 2C1 d   1      34.723  13.137 -21.152  0.00  0.00    -0.047 C 
ATOM     13  H2  2C1 d   1      36.356  12.393 -20.042  0.00  0.00     0.087 H 
ATOM     14  C10 2C1 d   1      34.468  13.735 -22.296  0.00  0.00    -0.008 C 
ATOM     15  S4  2C1 d   1      35.824  14.260 -23.018  0.00  0.00    -0.081 SA
BRANCH  12  16
ATOM     16  C25 2C1 d   1      33.581  12.806 -20.220  0.00  0.00    -0.050 C 
ATOM     17  H13 2C1 d   1      33.974  12.313 -19.319  0.00  0.00     0.033 H 
ATOM     18  H14 2C1 d   1      32.876  12.132 -20.729  0.00  0.00     0.033 H 
ATOM     19  H15 2C1 d   1      33.061  13.732 -19.934  0.00  0.00     0.033 H 
ENDBRANCH  12  16
BRANCH  14  20
ATOM     20  C23 2C1 d   1      33.122  14.082 -22.841  0.00  0.00    -0.015 C 
ATOM     21  H11 2C1 d   1      32.347  13.392 -22.475  0.00  0.00     0.044 H 
ATOM     22  H12 2C1 d   1      33.120  14.086 -23.941  0.00  0.00     0.044 H 
BRANCH  20  23
ATOM     23  C27 2C1 d   1      32.936  15.487 -22.274  0.00  0.00     0.023 C 
ATOM     24  H16 2C1 d   1      33.836  16.087 -22.472  0.00  0.00     0.074 H 
ATOM     25  H17 2C1 d   1      32.766  15.428 -21.189  0.00  0.00     0.074 H 
BRANCH  23  26
ATOM     26  O26 2C1 d   1      31.832  16.082 -22.889  0.00  0.00    -0.396 OA
BRANCH  26  27
ATOM     27  C29 2C1 d   1      31.736  17.476 -22.599  0.00  0.00     0.004 C 
ATOM     28  H18 2C1 d   1      30.854  17.896 -23.105  0.00  0.00     0.066 H 
ATOM     29  H19 2C1 d   1      32.642  17.988 -22.956  0.00  0.00     0.066 H 
ATOM     30  H20 2C1 d   1      31.638  17.619 -21.513  0.00  0.00     0.066 H 
ENDBRANCH  26  27
ENDBRANCH  23  26
ENDBRANCH  20  23
ENDBRANCH  14  20
ENDBRANCH   7  10
ENDBRANCH   1   7
BRANCH   3  31
ATOM     31  C6  2C1 d   1      39.748   8.953 -23.238  0.00  0.00     0.135 A 
ATOM     32  C15 2C1 d   1      39.503   8.134 -22.126  0.00  0.00    -0.022 A 
ATOM     33  C19 2C1 d   1      39.925   6.803 -22.125  0.00  0.00     0.018 A 
ATOM     34  H4  2C1 d   1      38.984   8.536 -21.264  0.00  0.00     0.091 H 
ATOM     35  C16 2C1 d   1      40.615   6.392 -23.274  0.00  0.00    -0.022 A 
ATOM     36 BR1  2C1 d   1      39.605   5.595 -20.638  0.00  0.00    -0.051 Br
ATOM     37  C7  2C1 d   1      40.858   7.251 -24.338  0.00  0.00     0.135 A 
ATOM     38  H9  2C1 d   1      40.971   5.370 -23.334  0.00  0.00     0.091 H 
ATOM     39  N9  2C1 d   1      40.435   8.507 -24.283  0.00  0.00    -0.213 NA
BRANCH  37  40
ATOM     40  N12 2C1 d   1      41.524   6.789 -25.420  0.00  0.00    -0.293 N 
ATOM     41  C14 2C1 d   1      41.834   7.479 -26.526  0.00  0.00     0.321 C 
ATOM     42  O21 2C1 d   1      42.431   6.894 -27.397  0.00  0.00    -0.247 OA
ATOM     43  N22 2C1 d   1      41.524   8.760 -26.713  0.00  0.00    -0.347 N 
ATOM     44  H10 2C1 d   1      41.027   9.203 -25.967  0.00  0.00     0.163 HD
ATOM     45  H3  2C1 d   1      41.816   5.833 -25.392  0.00  0.00     0.172 HD
BRANCH  43  46
ATOM     46  C28 2C1 d   1      41.817   9.593 -27.864  0.00  0.00    -0.017 C 
ATOM     47  H5  2C1 d   1      41.420  10.605 -27.695  0.00  0.00     0.056 H 
ATOM     48  H6  2C1 d   1      41.347   9.160 -28.759  0.00  0.00     0.056 H 
ATOM     49  H7  2C1 d   1      42.906   9.646 -28.011  0.00  0.00     0.056 H 
ENDBRANCH  43  46
ENDBRANCH  37  40
ENDBRANCH   3  31
TORSDOF 10
