REMARK  4 active torsions:
REMARK  status: ('A' for Active; 'I' for Inactive)
REMARK    1  A    between atoms: C_15  and  C7_4 
REMARK    2  A    between atoms: C12_10  and  C13_7 
REMARK    3  A    between atoms: C11_11  and  C12_10 
REMARK    4  A    between atoms: C_15  and  C1_17 
ROOT
ATOM      1  C7  27R d   1     -26.390  -0.670 -21.645  0.00  0.00     0.042 A 
ATOM      2  C8  27R d   1     -25.787  -0.087 -20.532  0.00  0.00    -0.067 A 
ATOM      3  C10 27R d   1     -27.442  -0.996 -19.008  0.00  0.00    -0.074 A 
ATOM      4  C11 27R d   1     -28.139  -1.609 -20.042  0.00  0.00    -0.021 A 
ATOM      5  C9  27R d   1     -26.290  -0.254 -19.247  0.00  0.00    -0.081 A 
ATOM      6  C14 27R d   1     -27.625  -1.471 -21.437  0.00  0.00     0.047 A 
ATOM      7  N   27R d   1     -28.246  -2.051 -22.501  0.00  0.00    -0.398 N 
ATOM      8  H   27R d   1     -24.897   0.516 -20.673  0.00  0.00     0.085 H 
ATOM      9  H   27R d   1     -27.804  -1.098 -17.991  0.00  0.00     0.084 H 
ATOM     10  H   27R d   1     -25.773   0.204 -18.412  0.00  0.00     0.083 H 
ATOM     11  H   27R d   1     -27.861  -1.933 -23.449  0.00  0.00     0.156 HD
ATOM     12  H   27R d   1     -29.101  -2.608 -22.358  0.00  0.00     0.156 HD
ENDROOT
BRANCH   1  13
ATOM     13  C   27R d   1     -25.820  -0.505 -23.027  0.00  0.00     0.194 C 
ATOM     14  O   27R d   1     -26.483  -0.809 -24.006  0.00  0.00    -0.287 OA
BRANCH  13  15
ATOM     15  C1  27R d   1     -24.411  -0.042 -23.243  0.00  0.00     0.015 A 
ATOM     16  C6  27R d   1     -23.400  -0.537 -22.428  0.00  0.00    -0.068 A 
ATOM     17  C5  27R d   1     -22.101  -0.121 -22.612  0.00  0.00    -0.065 A 
ATOM     18  H   27R d   1     -23.635  -1.251 -21.647  0.00  0.00     0.085 H 
ATOM     19  C4  27R d   1     -21.793   0.774 -23.620  0.00  0.00     0.011 A 
ATOM     20  H   27R d   1     -21.317  -0.496 -21.965  0.00  0.00     0.085 H 
ATOM     21 BR   27R d   1     -20.010   1.293 -23.837  0.00  0.00    -0.051 Br
ATOM     22  C3  27R d   1     -22.787   1.266 -24.459  0.00  0.00    -0.065 A 
ATOM     23  C2  27R d   1     -24.100   0.852 -24.267  0.00  0.00    -0.068 A 
ATOM     24  H   27R d   1     -22.541   1.963 -25.252  0.00  0.00     0.085 H 
ATOM     25  H   27R d   1     -24.884   1.225 -24.915  0.00  0.00     0.085 H 
ENDBRANCH  13  15
ENDBRANCH   1  13
BRANCH   4  26
ATOM     26  C12 27R d   1     -29.372  -2.422 -19.681  0.00  0.00     0.042 C 
ATOM     27  H   27R d   1     -29.527  -3.188 -20.455  0.00  0.00     0.056 H 
ATOM     28  H   27R d   1     -29.199  -2.911 -18.711  0.00  0.00     0.056 H 
BRANCH  26  29
ATOM     29  C13 27R d   1     -30.615  -1.582 -19.580  0.00  0.00     0.177 C 
ATOM     30  O2  27R d   1     -30.548  -0.371 -19.547  0.00  0.00    -0.648 OA
ATOM     31  O1  27R d   1     -31.811  -2.161 -19.519  0.00  0.00    -0.648 OA
ENDBRANCH  26  29
ENDBRANCH   4  26
TORSDOF 4
