REMARK  3 active torsions:
REMARK  status: ('A' for Active; 'I' for Inactive)
REMARK    1  A    between atoms: C7_14  and  C10_15 
REMARK    2  A    between atoms: C10_15  and  C14_16 
REMARK    3  A    between atoms: C10_15  and  C11_17 
ROOT
ATOM      1 CL   0LA d   1     -19.496   0.581 -24.429  0.00  0.00    -0.084 Cl
ATOM      2  C3  0LA d   1     -21.198   1.057 -24.185  0.00  0.00     0.035 A 
ATOM      3  C2  0LA d   1     -21.582   2.179 -24.904  0.00  0.00    -0.060 A 
ATOM      4  C1  0LA d   1     -22.860   2.704 -24.817  0.00  0.00    -0.055 A 
ATOM      5  C9A 0LA d   1     -23.780   2.074 -24.003  0.00  0.00     0.043 A 
ATOM      6  N9  0LA d   1     -25.090   2.317 -23.701  0.00  0.00    -0.355 N 
ATOM      7  C4  0LA d   1     -22.070   0.374 -23.345  0.00  0.00    -0.049 A 
ATOM      8  C4A 0LA d   1     -23.355   0.878 -23.246  0.00  0.00     0.005 A 
ATOM      9  C4B 0LA d   1     -24.525   0.438 -22.493  0.00  0.00     0.003 A 
ATOM     10  C5  0LA d   1     -24.743  -0.617 -21.615  0.00  0.00    -0.069 A 
ATOM     11  C6  0LA d   1     -26.031  -0.736 -21.054  0.00  0.00    -0.075 A 
ATOM     12  C8A 0LA d   1     -25.594   1.401 -22.829  0.00  0.00     0.044 A 
ATOM     13  C8  0LA d   1     -26.838   1.237 -22.246  0.00  0.00    -0.049 A 
ATOM     14  C7  0LA d   1     -27.062   0.184 -21.359  0.00  0.00    -0.042 A 
ATOM     15  H   0LA d   1     -20.860   2.659 -25.554  0.00  0.00     0.086 H 
ATOM     16  H   0LA d   1     -23.133   3.591 -25.377  0.00  0.00     0.087 H 
ATOM     17  H   0LA d   1     -25.633   3.102 -24.088  0.00  0.00     0.166 HD
ATOM     18  H   0LA d   1     -21.759  -0.508 -22.796  0.00  0.00     0.087 H 
ATOM     19  H   0LA d   1     -23.955  -1.320 -21.371  0.00  0.00     0.085 H 
ATOM     20  H   0LA d   1     -26.237  -1.553 -20.372  0.00  0.00     0.084 H 
ATOM     21  H   0LA d   1     -27.640   1.928 -22.479  0.00  0.00     0.087 H 
ENDROOT
BRANCH  14  22
ATOM     22  C10 0LA d   1     -28.450   0.064 -20.831  0.00  0.00     0.052 C 
ATOM     23  H   0LA d   1     -29.093   0.731 -21.424  0.00  0.00     0.063 H 
BRANCH  22  24
ATOM     24  C14 0LA d   1     -28.622   0.436 -19.382  0.00  0.00    -0.060 C 
ATOM     25  H   0LA d   1     -28.291   1.474 -19.228  0.00  0.00     0.029 H 
ATOM     26  H   0LA d   1     -28.018  -0.238 -18.756  0.00  0.00     0.029 H 
ATOM     27  H   0LA d   1     -29.682   0.344 -19.103  0.00  0.00     0.029 H 
ENDBRANCH  22  24
BRANCH  22  28
ATOM     28  C11 0LA d   1     -28.904  -1.352 -21.026  0.00  0.00     0.181 C 
ATOM     29  O13 0LA d   1     -29.198  -1.796 -22.246  0.00  0.00    -0.647 OA
ATOM     30  O12 0LA d   1     -29.009  -2.108 -20.073  0.00  0.00    -0.647 OA
ENDBRANCH  22  28
ENDBRANCH  14  22
TORSDOF 3
