REMARK  4 active torsions:
REMARK  status: ('A' for Active; 'I' for Inactive)
REMARK    1  A    between atoms: C1_7  and  C7_8 
REMARK    2  A    between atoms: C12_13  and  C13_14 
REMARK    3  A    between atoms: C13_14  and  O14_15 
REMARK    4  A    between atoms: O14_15  and  C15_16 
ROOT
ATOM      1  C7  29X d   1     -17.530  29.428  17.781  0.00  0.00    -0.020 C 
ATOM      2  C8  29X d   1     -16.448  30.500  17.958  0.00  0.00    -0.035 C 
ATOM      3  C9  29X d   1     -16.972  31.787  18.590  0.00  0.00     0.082 C 
ATOM      4  N10 29X d   1     -17.792  31.500  19.745  0.00  0.00    -0.075 N 
ATOM      5  C11 29X d   1     -18.829  30.485  19.658  0.00  0.00     0.087 C 
ATOM      6  C12 29X d   1     -18.276  29.181  19.092  0.00  0.00    -0.002 C 
ATOM      7  H   29X d   1     -18.257  29.792  17.040  0.00  0.00     0.048 H 
ATOM      8  H   29X d   1     -16.030  30.741  16.969  0.00  0.00     0.036 H 
ATOM      9  H   29X d   1     -15.655  30.093  18.602  0.00  0.00     0.036 H 
ATOM     10  H   29X d   1     -17.574  32.333  17.848  0.00  0.00     0.075 H 
ATOM     11  H   29X d   1     -16.119  32.409  18.900  0.00  0.00     0.075 H 
ATOM     12  H   29X d   1     -18.247  32.362  20.002  0.00  0.00     0.277 HD
ATOM     13  H   29X d   1     -17.167  31.217  20.484  0.00  0.00     0.277 HD
ATOM     14  H   29X d   1     -19.633  30.849  19.002  0.00  0.00     0.076 H 
ATOM     15  H   29X d   1     -19.233  30.297  20.664  0.00  0.00     0.076 H 
ATOM     16  H   29X d   1     -17.559  28.766  19.816  0.00  0.00     0.046 H 
ENDROOT
BRANCH   6  17
ATOM     17  C13 29X d   1     -19.410  28.179  18.919  0.00  0.00     0.032 C 
ATOM     18  H   29X d   1     -20.149  28.343  19.717  0.00  0.00     0.075 H 
ATOM     19  H   29X d   1     -18.997  27.163  19.005  0.00  0.00     0.075 H 
BRANCH  17  20
ATOM     20  O14 29X d   1     -20.071  28.300  17.649  0.00  0.00    -0.351 OA
BRANCH  20  21
ATOM     21  C15 29X d   1     -21.276  27.671  17.437  0.00  0.00     0.069 A 
ATOM     22  C16 29X d   1     -21.649  26.563  18.207  0.00  0.00    -0.042 A 
ATOM     23  C17 29X d   1     -22.876  25.966  17.970  0.00  0.00    -0.022 A 
ATOM     24  H   29X d   1     -20.988  26.179  18.976  0.00  0.00     0.088 H 
ATOM     25  C18 29X d   1     -23.717  26.445  16.994  0.00  0.00     0.040 A 
ATOM     26  C24 29X d   1     -23.410  24.818  18.691  0.00  0.00     0.020 A 
ATOM     27  C19 29X d   1     -23.371  27.534  16.212  0.00  0.00    -0.065 A 
ATOM     28  C22 29X d   1     -24.884  25.520  17.101  0.00  0.00     0.252 A 
ATOM     29  C20 29X d   1     -22.137  28.151  16.445  0.00  0.00    -0.050 A 
ATOM     30  H   29X d   1     -24.038  27.899  15.440  0.00  0.00     0.085 H 
ATOM     31  H   29X d   1     -21.846  29.009  15.851  0.00  0.00     0.087 H 
ATOM     32  O25 29X d   1     -25.942  25.568  16.378  0.00  0.00    -0.268 OA
ATOM     33  N23 29X d   1     -24.717  24.600  18.057  0.00  0.00    -0.353 N 
ATOM     34  H   29X d   1     -25.372  23.884  18.299  0.00  0.00     0.163 HD
ATOM     35  H   29X d   1     -23.524  25.043  19.762  0.00  0.00     0.071 H 
ATOM     36  H   29X d   1     -22.761  23.939  18.568  0.00  0.00     0.071 H 
ENDBRANCH  20  21
ENDBRANCH  17  20
ENDBRANCH   6  17
BRANCH   1  37
ATOM     37  C1  29X d   1     -16.924  28.167  17.259  0.00  0.00    -0.053 A 
ATOM     38  C6  29X d   1     -16.018  27.439  18.035  0.00  0.00    -0.074 A 
ATOM     39  C5  29X d   1     -15.443  26.264  17.556  0.00  0.00    -0.045 A 
ATOM     40  H   29X d   1     -15.758  27.794  19.026  0.00  0.00     0.084 H 
ATOM     41  C4  29X d   1     -15.771  25.803  16.289  0.00  0.00     0.116 A 
ATOM     42  H   29X d   1     -14.742  25.712  18.171  0.00  0.00     0.088 H 
ATOM     43  F21 29X d   1     -15.210  24.668  15.839  0.00  0.00    -0.206 F 
ATOM     44  C3  29X d   1     -16.676  26.515  15.506  0.00  0.00    -0.045 A 
ATOM     45  C2  29X d   1     -17.251  27.695  15.984  0.00  0.00    -0.074 A 
ATOM     46  H   29X d   1     -16.936  26.151  14.519  0.00  0.00     0.088 H 
ATOM     47  H   29X d   1     -17.951  28.245  15.366  0.00  0.00     0.084 H 
ENDBRANCH   1  37
TORSDOF 4
