REMARK  2 active torsions:
REMARK  status: ('A' for Active; 'I' for Inactive)
REMARK    1  A    between atoms: O01_1  and  C02_2 
REMARK    2  A    between atoms: C08_8  and  O09_9 
ROOT
ATOM      1  C02 27Y d   1      10.328  21.766  -9.209  0.00  0.00     0.119 A 
ATOM      2  C03 27Y d   1      11.155  22.448 -10.107  0.00  0.00    -0.029 A 
ATOM      3  C04 27Y d   1      11.436  21.820 -11.326  0.00  0.00     0.031 A 
ATOM      4 BR   27Y d   1      12.580  22.687 -12.641  0.00  0.00    -0.050 Br
ATOM      5  C06 27Y d   1      10.896  20.572 -11.612  0.00  0.00     0.022 A 
ATOM      6  N07 27Y d   1      10.115  19.956 -10.721  0.00  0.00    -0.234 NA
ATOM      7  C08 27Y d   1       9.824  20.516  -9.546  0.00  0.00     0.196 A 
ATOM      8  H2  27Y d   1      11.562  23.424  -9.869  0.00  0.00     0.090 H 
ATOM      9  H3  27Y d   1      11.110  20.096 -12.562  0.00  0.00     0.117 H 
ENDROOT
BRANCH   1  10
ATOM     10  O01 27Y d   1      10.034  22.310  -7.981  0.00  0.00    -0.357 OA
ATOM     11  H1  27Y d   1       9.464  21.719  -7.502  0.00  0.00     0.218 HD
ENDBRANCH   1  10
BRANCH   7  12
ATOM     12  O09 27Y d   1       9.053  19.852  -8.656  0.00  0.00    -0.343 OA
ATOM     13  H4  27Y d   1       8.941  20.384  -7.877  0.00  0.00     0.219 HD
ENDBRANCH   7  12
TORSDOF 2
