REMARK  2 active torsions:
REMARK  status: ('A' for Active; 'I' for Inactive)
REMARK    1  A    between atoms: C03_3  and  O04_4 
REMARK    2  A    between atoms: C06_6  and  C07_7 
ROOT
ATOM      1  C07 28B d   1      11.559  22.812 -12.305  0.00  0.00    -0.023 A 
ATOM      2  C08 28B d   1      12.584  23.686 -11.983  0.00  0.00    -0.072 A 
ATOM      3  C09 28B d   1      13.184  24.432 -12.984  0.00  0.00    -0.081 A 
ATOM      4  C10 28B d   1      12.763  24.309 -14.298  0.00  0.00    -0.063 A 
ATOM      5  C11 28B d   1      11.737  23.433 -14.618  0.00  0.00     0.045 A 
ATOM      6  C12 28B d   1      11.269  23.282 -16.028  0.00  0.00     0.099 C 
ATOM      7  N13 28B d   1      10.890  23.146 -17.099  0.00  0.00    -0.191 NA
ATOM      8  C14 28B d   1      11.131  22.683 -13.621  0.00  0.00    -0.052 A 
ATOM      9  H3  28B d   1      12.914  23.785 -10.955  0.00  0.00     0.084 H 
ATOM     10  H4  28B d   1      13.988  25.116 -12.738  0.00  0.00     0.083 H 
ATOM     11  H5  28B d   1      13.236  24.898 -15.076  0.00  0.00     0.085 H 
ATOM     12  H6  28B d   1      10.327  21.999 -13.867  0.00  0.00     0.087 H 
ENDROOT
BRANCH   1  13
ATOM     13  C06 28B d   1      10.893  22.006 -11.246  0.00  0.00    -0.008 A 
ATOM     14  C05 28B d   1      10.694  22.555  -9.944  0.00  0.00    -0.033 A 
ATOM     15  C03 28B d   1      10.051  21.750  -8.954  0.00  0.00     0.135 A 
ATOM     16  H2  28B d   1      11.025  23.566  -9.710  0.00  0.00     0.089 H 
ATOM     17  C02 28B d   1       9.594  20.430  -9.256  0.00  0.00     0.278 A 
ATOM     18  O01 28B d   1       9.040  19.767  -8.389  0.00  0.00    -0.265 OA
ATOM     19  N16 28B d   1       9.804  19.901 -10.544  0.00  0.00    -0.330 N 
ATOM     20  C15 28B d   1      10.450  20.691 -11.551  0.00  0.00    -0.009 A 
ATOM     21  H8  28B d   1       9.502  18.972 -10.757  0.00  0.00     0.168 HD
ATOM     22  H7  28B d   1      10.601  20.283 -12.549  0.00  0.00     0.112 H 
BRANCH  15  23
ATOM     23  O04 28B d   1       9.861  22.229  -7.699  0.00  0.00    -0.356 OA
ATOM     24  H1  28B d   1      10.211  23.110  -7.641  0.00  0.00     0.218 HD
ENDBRANCH  15  23
ENDBRANCH   1  13
TORSDOF 2
