REMARK  5 active torsions:
REMARK  status: ('A' for Active; 'I' for Inactive)
REMARK    1  A    between atoms: O01_1  and  C02_2 
REMARK    2  A    between atoms: C05_5  and  C06_6 
REMARK    3  A    between atoms: C08_8  and  O09_9 
REMARK    4  A    between atoms: O09_9  and  C10_10 
REMARK    5  A    between atoms: C15_15  and  O16_16 
ROOT
ATOM      1  C06 28A d   1      10.626  20.224 -12.827  0.00  0.00    -0.005 A 
ATOM      2  C07 28A d   1      10.561  21.020 -13.975  0.00  0.00    -0.039 A 
ATOM      3  C08 28A d   1      10.674  20.409 -15.209  0.00  0.00     0.069 A 
ATOM      4  C11 28A d   1      10.876  19.043 -15.327  0.00  0.00    -0.051 A 
ATOM      5  C12 28A d   1      10.951  18.244 -14.186  0.00  0.00    -0.080 A 
ATOM      6  C13 28A d   1      10.840  18.853 -12.936  0.00  0.00    -0.071 A 
ATOM      7  H4  28A d   1      10.425  22.093 -13.898  0.00  0.00     0.089 H 
ATOM      8  H8  28A d   1      10.976  18.594 -16.309  0.00  0.00     0.087 H 
ATOM      9  H9  28A d   1      11.093  17.172 -14.269  0.00  0.00     0.083 H 
ATOM     10  H10 28A d   1      10.921  18.251 -12.038  0.00  0.00     0.084 H 
ENDROOT
BRANCH   1  11
ATOM     11  C05 28A d   1      10.482  20.868 -11.501  0.00  0.00     0.070 A 
ATOM     12  C04 28A d   1      10.937  22.158 -11.242  0.00  0.00    -0.051 A 
ATOM     13  C03 28A d   1      10.770  22.699  -9.937  0.00  0.00    -0.044 A 
ATOM     14  H3  28A d   1      11.411  22.741 -12.023  0.00  0.00     0.087 H 
ATOM     15  C02 28A d   1      10.121  21.885  -8.993  0.00  0.00     0.118 A 
ATOM     16  H2  28A d   1      11.126  23.691  -9.683  0.00  0.00     0.088 H 
ATOM     17  C15 28A d   1       9.691  20.615  -9.334  0.00  0.00     0.196 A 
ATOM     18  N14 28A d   1       9.879  20.132 -10.549  0.00  0.00    -0.222 NA
BRANCH  15  19
ATOM     19  O01 28A d   1       9.923  22.306  -7.689  0.00  0.00    -0.357 OA
ATOM     20  H1  28A d   1       9.471  21.626  -7.203  0.00  0.00     0.218 HD
ENDBRANCH  15  19
BRANCH  17  21
ATOM     21  O16 28A d   1       9.067  19.836  -8.420  0.00  0.00    -0.343 OA
ATOM     22  H11 28A d   1       9.000  20.306  -7.597  0.00  0.00     0.219 HD
ENDBRANCH  17  21
ENDBRANCH   1  11
BRANCH   3  23
ATOM     23  O09 28A d   1      10.590  21.200 -16.318  0.00  0.00    -0.356 OA
BRANCH  23  24
ATOM     24  C10 28A d   1      10.579  20.584 -17.570  0.00  0.00     0.010 C 
ATOM     25  H5  28A d   1      10.508  21.351 -18.355  0.00  0.00     0.066 H 
ATOM     26  H6  28A d   1       9.714  19.908 -17.639  0.00  0.00     0.066 H 
ATOM     27  H7  28A d   1      11.506  20.008 -17.703  0.00  0.00     0.066 H 
ENDBRANCH  23  24
ENDBRANCH   3  23
TORSDOF 5
