REMARK  7 active torsions:
REMARK  status: ('A' for Active; 'I' for Inactive)
REMARK    1  A    between atoms: C1_1  and  C13_13 
REMARK    2  A    between atoms: C4_4  and  O11_11 
REMARK    3  A    between atoms: C5_5  and  C7_7 
REMARK    4  A    between atoms: C7_7  and  C8_8 
REMARK    5  A    between atoms: C7_7  and  C9_9 
REMARK    6  A    between atoms: C7_7  and  C10_10 
REMARK    7  A    between atoms: O11_11  and  C12_12 
ROOT
ATOM      1  C1  28O d   1     -10.548   9.329  19.283  0.00  0.00    -0.020 A 
ATOM      2  C2  28O d   1     -10.425   9.021  17.930  0.00  0.00    -0.069 A 
ATOM      3  C3  28O d   1      -9.287   9.372  17.226  0.00  0.00    -0.049 A 
ATOM      4  C4  28O d   1      -8.250  10.037  17.881  0.00  0.00     0.075 A 
ATOM      5  C5  28O d   1      -8.369  10.416  19.232  0.00  0.00    -0.016 A 
ATOM      6  C6  28O d   1      -9.531  10.046  19.908  0.00  0.00    -0.063 A 
ATOM      7  H1  28O d   1     -11.230   8.501  17.423  0.00  0.00     0.085 H 
ATOM      8  H2  28O d   1      -9.202   9.132  16.172  0.00  0.00     0.087 H 
ATOM      9  H3  28O d   1      -9.646  10.324  20.949  0.00  0.00     0.085 H 
ENDROOT
BRANCH   5  10
ATOM     10  C7  28O d   1      -7.270  11.178  20.018  0.00  0.00    -0.021 C 
BRANCH  10  11
ATOM     11  C8  28O d   1      -7.806  11.686  21.369  0.00  0.00    -0.066 C 
ATOM     12  H4  28O d   1      -7.007  12.221  21.903  0.00  0.00     0.028 H 
ATOM     13  H5  28O d   1      -8.143  10.832  21.974  0.00  0.00     0.028 H 
ATOM     14  H6  28O d   1      -8.651  12.368  21.195  0.00  0.00     0.028 H 
ENDBRANCH  10  11
BRANCH  10  15
ATOM     15  C9  28O d   1      -6.084  10.254  20.327  0.00  0.00    -0.066 C 
ATOM     16  H7  28O d   1      -5.667   9.866  19.386  0.00  0.00     0.028 H 
ATOM     17  H8  28O d   1      -6.426   9.415  20.951  0.00  0.00     0.028 H 
ATOM     18  H9  28O d   1      -5.309  10.819  20.866  0.00  0.00     0.028 H 
ENDBRANCH  10  15
BRANCH  10  19
ATOM     19  C10 28O d   1      -6.752  12.412  19.260  0.00  0.00    -0.066 C 
ATOM     20  H10 28O d   1      -7.594  13.083  19.033  0.00  0.00     0.028 H 
ATOM     21  H11 28O d   1      -6.274  12.092  18.322  0.00  0.00     0.028 H 
ATOM     22  H12 28O d   1      -6.018  12.944  19.883  0.00  0.00     0.028 H 
ENDBRANCH  10  19
ENDBRANCH   5  10
BRANCH   4  23
ATOM     23  O11 28O d   1      -7.031  10.266  17.298  0.00  0.00    -0.355 OA
BRANCH  23  24
ATOM     24  C12 28O d   1      -6.805   9.761  15.978  0.00  0.00     0.010 C 
ATOM     25  H13 28O d   1      -5.788  10.025  15.653  0.00  0.00     0.066 H 
ATOM     26  H14 28O d   1      -7.537  10.203  15.286  0.00  0.00     0.066 H 
ATOM     27  H15 28O d   1      -6.917   8.667  15.980  0.00  0.00     0.066 H 
ENDBRANCH  23  24
ENDBRANCH   4  23
BRANCH   1  28
ATOM     28  C13 28O d   1     -11.709   8.847  20.078  0.00  0.00     0.042 A 
ATOM     29  C14 28O d   1     -12.177   7.476  19.873  0.00  0.00     0.256 A 
ATOM     30  O15 28O d   1     -11.701   6.659  19.077  0.00  0.00    -0.267 OA
ATOM     31  N16 28O d   1     -13.252   7.110  20.695  0.00  0.00    -0.333 N 
ATOM     32  C18 28O d   1     -13.834   7.920  21.620  0.00  0.00    -0.020 A 
ATOM     33  H16 28O d   1     -13.618   6.185  20.594  0.00  0.00     0.168 HD
ATOM     34  C19 28O d   1     -13.388   9.186  21.809  0.00  0.00    -0.067 A 
ATOM     35  H17 28O d   1     -14.667   7.548  22.215  0.00  0.00     0.111 H 
ATOM     36  C20 28O d   1     -12.313   9.651  21.020  0.00  0.00    -0.066 A 
ATOM     37  H18 28O d   1     -13.850   9.832  22.555  0.00  0.00     0.085 H 
ATOM     38  H19 28O d   1     -11.953  10.669  21.159  0.00  0.00     0.085 H 
ENDBRANCH   1  28
TORSDOF 7
