REMARK  13 active torsions:
REMARK  status: ('A' for Active; 'I' for Inactive)
REMARK    1  A    between atoms: C2_2  and  C30_29 
REMARK    2  A    between atoms: C3_3  and  O28_27 
REMARK    3  A    between atoms: C4_4  and  C15_14 
REMARK    4  A    between atoms: C6_6  and  C7_7 
REMARK    5  A    between atoms: C15_14  and  C16_15 
REMARK    6  A    between atoms: C16_15  and  C17_16 
REMARK    7  A    between atoms: C20_19  and  N23_22 
REMARK    8  A    between atoms: N23_22  and  S24_23 
REMARK    9  A    between atoms: S24_23  and  C27_26 
REMARK   10  A    between atoms: O28_27  and  C29_28 
REMARK   11  A    between atoms: C30_29  and  C31_30 
REMARK   12  A    between atoms: C30_29  and  C32_31 
REMARK   13  A    between atoms: C30_29  and  C33_32 
ROOT
ATOM      1  C1  28Q d   1     -51.118  -8.921 -13.571  0.00  0.00    -0.062 A 
ATOM      2  C2  28Q d   1     -50.003  -9.486 -12.949  0.00  0.00    -0.016 A 
ATOM      3  C3  28Q d   1     -49.972  -9.441 -11.523  0.00  0.00     0.081 A 
ATOM      4  C4  28Q d   1     -50.990  -8.828 -10.775  0.00  0.00    -0.023 A 
ATOM      5  C5  28Q d   1     -52.067  -8.269 -11.459  0.00  0.00    -0.063 A 
ATOM      6  C6  28Q d   1     -52.138  -8.310 -12.850  0.00  0.00    -0.019 A 
ATOM      7  H1  28Q d   1     -51.191  -8.960 -14.652  0.00  0.00     0.085 H 
ATOM      8  H2  28Q d   1     -52.864  -7.793 -10.899  0.00  0.00     0.085 H 
ENDROOT
BRANCH   4   9
ATOM      9  C15 28Q d   1     -50.946  -8.707  -9.257  0.00  0.00    -0.035 C 
ATOM     10  H7  28Q d   1     -50.928  -7.641  -8.986  0.00  0.00     0.040 H 
ATOM     11  H8  28Q d   1     -50.032  -9.195  -8.888  0.00  0.00     0.040 H 
BRANCH   9  12
ATOM     12  C16 28Q d   1     -52.188  -9.381  -8.581  0.00  0.00    -0.037 C 
ATOM     13  H9  28Q d   1     -52.209 -10.441  -8.876  0.00  0.00     0.040 H 
ATOM     14  H10 28Q d   1     -53.095  -8.880  -8.950  0.00  0.00     0.040 H 
BRANCH  12  15
ATOM     15  C17 28Q d   1     -52.188  -9.310  -7.075  0.00  0.00    -0.058 A 
ATOM     16  C18 28Q d   1     -51.644 -10.338  -6.313  0.00  0.00    -0.075 A 
ATOM     17  C19 28Q d   1     -51.755 -10.342  -4.934  0.00  0.00    -0.056 A 
ATOM     18  H11 28Q d   1     -51.124 -11.150  -6.808  0.00  0.00     0.084 H 
ATOM     19  C20 28Q d   1     -52.417  -9.306  -4.284  0.00  0.00     0.042 A 
ATOM     20  H12 28Q d   1     -51.325 -11.154  -4.359  0.00  0.00     0.087 H 
ATOM     21  C21 28Q d   1     -52.933  -8.257  -5.037  0.00  0.00    -0.056 A 
ATOM     22  C22 28Q d   1     -52.817  -8.265  -6.416  0.00  0.00    -0.075 A 
ATOM     23  H13 28Q d   1     -53.428  -7.430  -4.542  0.00  0.00     0.087 H 
ATOM     24  H14 28Q d   1     -53.225  -7.441  -6.990  0.00  0.00     0.084 H 
BRANCH  19  25
ATOM     25  N23 28Q d   1     -52.595  -9.374  -2.870  0.00  0.00    -0.285 N 
ATOM     26  H15 28Q d   1     -52.340 -10.238  -2.436  0.00  0.00     0.178 HD
BRANCH  25  27
ATOM     27  S24 28Q d   1     -53.162  -8.217  -1.881  0.00  0.00     0.227 S 
ATOM     28  O25 28Q d   1     -52.886  -8.659  -0.549  0.00  0.00    -0.206 OA
ATOM     29  O26 28Q d   1     -52.611  -6.970  -2.318  0.00  0.00    -0.206 OA
BRANCH  27  30
ATOM     30  C27 28Q d   1     -54.897  -8.175  -2.095  0.00  0.00     0.033 C 
ATOM     31  H16 28Q d   1     -55.328  -7.402  -1.442  0.00  0.00     0.051 H 
ATOM     32  H17 28Q d   1     -55.322  -9.155  -1.834  0.00  0.00     0.051 H 
ATOM     33  H18 28Q d   1     -55.132  -7.941  -3.144  0.00  0.00     0.051 H 
ENDBRANCH  27  30
ENDBRANCH  25  27
ENDBRANCH  19  25
ENDBRANCH  12  15
ENDBRANCH   9  12
ENDBRANCH   4   9
BRANCH   3  34
ATOM     34  O28 28Q d   1     -48.860  -9.933 -10.862  0.00  0.00    -0.355 OA
BRANCH  34  35
ATOM     35  C29 28Q d   1     -49.012 -11.181 -10.185  0.00  0.00     0.010 C 
ATOM     36  H19 28Q d   1     -48.061 -11.456  -9.705  0.00  0.00     0.066 H 
ATOM     37  H20 28Q d   1     -49.295 -11.959 -10.909  0.00  0.00     0.066 H 
ATOM     38  H21 28Q d   1     -49.796 -11.090  -9.419  0.00  0.00     0.066 H 
ENDBRANCH  34  35
ENDBRANCH   3  34
BRANCH   2  39
ATOM     39  C30 28Q d   1     -48.827  -9.934 -13.861  0.00  0.00    -0.021 C 
BRANCH  39  40
ATOM     40  C31 28Q d   1     -49.193  -9.863 -15.355  0.00  0.00    -0.066 C 
ATOM     41  H22 28Q d   1     -48.333 -10.188 -15.959  0.00  0.00     0.028 H 
ATOM     42  H23 28Q d   1     -49.456  -8.828 -15.619  0.00  0.00     0.028 H 
ATOM     43  H24 28Q d   1     -50.051 -10.522 -15.554  0.00  0.00     0.028 H 
ENDBRANCH  39  40
BRANCH  39  44
ATOM     44  C32 28Q d   1     -47.601  -9.016 -13.665  0.00  0.00    -0.066 C 
ATOM     45  H25 28Q d   1     -47.297  -9.031 -12.608  0.00  0.00     0.028 H 
ATOM     46  H26 28Q d   1     -47.862  -7.988 -13.957  0.00  0.00     0.028 H 
ATOM     47  H27 28Q d   1     -46.770  -9.375 -14.290  0.00  0.00     0.028 H 
ENDBRANCH  39  44
BRANCH  39  48
ATOM     48  C33 28Q d   1     -48.403 -11.385 -13.598  0.00  0.00    -0.066 C 
ATOM     49  H28 28Q d   1     -49.268 -12.050 -13.734  0.00  0.00     0.028 H 
ATOM     50  H29 28Q d   1     -48.029 -11.477 -12.568  0.00  0.00     0.028 H 
ATOM     51  H30 28Q d   1     -47.608 -11.668 -14.303  0.00  0.00     0.028 H 
ENDBRANCH  39  48
ENDBRANCH   2  39
BRANCH   6  52
ATOM     52  C7  28Q d   1     -53.310  -7.732 -13.560  0.00  0.00     0.042 A 
ATOM     53  C8  28Q d   1     -53.926  -8.406 -14.593  0.00  0.00    -0.066 A 
ATOM     54  C9  28Q d   1     -55.013  -7.835 -15.308  0.00  0.00    -0.067 A 
ATOM     55  H3  28Q d   1     -53.571  -9.399 -14.867  0.00  0.00     0.085 H 
ATOM     56  C10 28Q d   1     -55.449  -6.602 -14.954  0.00  0.00    -0.020 A 
ATOM     57  H4  28Q d   1     -55.486  -8.378 -16.125  0.00  0.00     0.085 H 
ATOM     58  N11 28Q d   1     -54.872  -5.932 -13.919  0.00  0.00    -0.333 N 
ATOM     59  H5  28Q d   1     -56.269  -6.142 -15.503  0.00  0.00     0.111 H 
ATOM     60  C13 28Q d   1     -53.790  -6.412 -13.155  0.00  0.00     0.256 A 
ATOM     61  H6  28Q d   1     -55.243  -5.034 -13.684  0.00  0.00     0.168 HD
ATOM     62  O14 28Q d   1     -53.331  -5.736 -12.230  0.00  0.00    -0.267 OA
ENDBRANCH   6  52
TORSDOF 13
