REMARK  11 active torsions:
REMARK  status: ('A' for Active; 'I' for Inactive)
REMARK    1  A    between atoms: C1_1  and  C27_27 
REMARK    2  A    between atoms: C3_3  and  C23_23 
REMARK    3  A    between atoms: C4_4  and  O21_21 
REMARK    4  A    between atoms: C5_5  and  C7_7 
REMARK    5  A    between atoms: C14_14  and  N16_16 
REMARK    6  A    between atoms: N16_16  and  S17_17 
REMARK    7  A    between atoms: S17_17  and  C20_20 
REMARK    8  A    between atoms: O21_21  and  C22_22 
REMARK    9  A    between atoms: C23_23  and  C24_24 
REMARK   10  A    between atoms: C23_23  and  C25_25 
REMARK   11  A    between atoms: C23_23  and  C26_26 
ROOT
ATOM      1  C1  28R d   1      -9.524   8.363  12.317  0.00  0.00    -0.019 A 
ATOM      2  C2  28R d   1      -8.451   8.932  12.997  0.00  0.00    -0.062 A 
ATOM      3  C3  28R d   1      -7.372   9.516  12.330  0.00  0.00    -0.015 A 
ATOM      4  C4  28R d   1      -7.420   9.507  10.910  0.00  0.00     0.089 A 
ATOM      5  C5  28R d   1      -8.516   8.983  10.201  0.00  0.00     0.052 A 
ATOM      6  C6  28R d   1      -9.552   8.387  10.924  0.00  0.00    -0.055 A 
ATOM      7  H1  28R d   1      -8.453   8.921  14.081  0.00  0.00     0.085 H 
ATOM      8  H2  28R d   1     -10.386   7.939  10.396  0.00  0.00     0.086 H 
ENDROOT
BRANCH   5   9
ATOM      9  C7  28R d   1      -8.716   9.210   8.761  0.00  0.00     0.183 A 
ATOM     10  N8  28R d   1      -9.198   8.423   7.847  0.00  0.00    -0.221 NA
ATOM     11  C9  28R d   1      -9.204   9.196   6.679  0.00  0.00     0.095 A 
ATOM     12  C10 28R d   1      -8.708  10.444   6.979  0.00  0.00     0.106 A 
ATOM     13  C15 28R d   1      -9.606   8.907   5.365  0.00  0.00    -0.026 A 
ATOM     14  O11 28R d   1      -8.384  10.465   8.320  0.00  0.00    -0.289 OA
ATOM     15  C12 28R d   1      -8.596  11.459   6.055  0.00  0.00    -0.046 A 
ATOM     16  C13 28R d   1      -8.996  11.184   4.758  0.00  0.00    -0.054 A 
ATOM     17  H3  28R d   1      -8.210  12.434   6.332  0.00  0.00     0.087 H 
ATOM     18  C14 28R d   1      -9.485   9.921   4.405  0.00  0.00     0.044 A 
ATOM     19  H4  28R d   1      -8.929  11.960   4.004  0.00  0.00     0.087 H 
ATOM     20  H5  28R d   1      -9.997   7.931   5.102  0.00  0.00     0.090 H 
BRANCH  18  21
ATOM     21  N16 28R d   1      -9.794   9.746   3.014  0.00  0.00    -0.285 N 
ATOM     22  H6  28R d   1      -9.628  10.559   2.456  0.00  0.00     0.178 HD
BRANCH  21  23
ATOM     23  S17 28R d   1     -10.363   8.474   2.176  0.00  0.00     0.227 S 
ATOM     24  O18 28R d   1     -10.161   8.779   0.793  0.00  0.00    -0.206 OA
ATOM     25  O19 28R d   1      -9.756   7.295   2.718  0.00  0.00    -0.206 OA
BRANCH  23  26
ATOM     26  C20 28R d   1     -12.086   8.414   2.470  0.00  0.00     0.033 C 
ATOM     27  H7  28R d   1     -12.522   7.566   1.922  0.00  0.00     0.051 H 
ATOM     28  H8  28R d   1     -12.550   9.350   2.126  0.00  0.00     0.051 H 
ATOM     29  H9  28R d   1     -12.270   8.288   3.547  0.00  0.00     0.051 H 
ENDBRANCH  23  26
ENDBRANCH  21  23
ENDBRANCH  18  21
ENDBRANCH   5   9
BRANCH   4  30
ATOM     30  O21 28R d   1      -6.366  10.064  10.206  0.00  0.00    -0.354 OA
BRANCH  30  31
ATOM     31  C22 28R d   1      -5.541   9.200   9.416  0.00  0.00     0.010 C 
ATOM     32  H10 28R d   1      -4.755   9.792   8.924  0.00  0.00     0.066 H 
ATOM     33  H11 28R d   1      -6.157   8.702   8.653  0.00  0.00     0.066 H 
ATOM     34  H12 28R d   1      -5.077   8.442  10.065  0.00  0.00     0.066 H 
ENDBRANCH  30  31
ENDBRANCH   4  30
BRANCH   3  35
ATOM     35  C23 28R d   1      -6.236  10.161  13.175  0.00  0.00    -0.021 C 
BRANCH  35  36
ATOM     36  C24 28R d   1      -6.575  10.161  14.683  0.00  0.00    -0.066 C 
ATOM     37  H13 28R d   1      -5.750  10.624  15.244  0.00  0.00     0.028 H 
ATOM     38  H14 28R d   1      -6.717   9.126  15.027  0.00  0.00     0.028 H 
ATOM     39  H15 28R d   1      -7.499  10.733  14.851  0.00  0.00     0.028 H 
ENDBRANCH  35  36
BRANCH  35  40
ATOM     40  C25 28R d   1      -4.906   9.391  13.033  0.00  0.00    -0.066 C 
ATOM     41  H16 28R d   1      -4.613   9.358  11.973  0.00  0.00     0.028 H 
ATOM     42  H17 28R d   1      -5.034   8.366  13.410  0.00  0.00     0.028 H 
ATOM     43  H18 28R d   1      -4.123   9.900  13.614  0.00  0.00     0.028 H 
ENDBRANCH  35  40
BRANCH  35  44
ATOM     44  C26 28R d   1      -6.006  11.641  12.792  0.00  0.00    -0.066 C 
ATOM     45  H19 28R d   1      -6.950  12.196  12.891  0.00  0.00     0.028 H 
ATOM     46  H20 28R d   1      -5.653  11.700  11.752  0.00  0.00     0.028 H 
ATOM     47  H21 28R d   1      -5.251  12.080  13.461  0.00  0.00     0.028 H 
ENDBRANCH  35  44
ENDBRANCH   3  35
BRANCH   1  48
ATOM     48  C27 28R d   1     -10.658   7.779  13.080  0.00  0.00     0.041 A 
ATOM     49  C28 28R d   1     -11.124   6.436  12.728  0.00  0.00     0.277 A 
ATOM     50  O29 28R d   1     -10.743   5.770  11.762  0.00  0.00    -0.265 OA
ATOM     51  N30 28R d   1     -12.110   5.927  13.581  0.00  0.00    -0.226 NA
ATOM     52  C32 28R d   1     -12.644   6.597  14.637  0.00  0.00    -0.011 A 
ATOM     53  C33 28R d   1     -12.247   7.861  14.925  0.00  0.00    -0.018 A 
ATOM     54  H22 28R d   1     -13.398   6.114  15.257  0.00  0.00     0.108 H 
ATOM     55  C34 28R d   1     -11.228   8.453  14.137  0.00  0.00    -0.082 A 
ATOM     56  H23 28R d   1     -11.891   7.859  15.966  0.00  0.00     0.046 H 
ATOM     57  H24 28R d   1     -13.135   8.505  14.843  0.00  0.00     0.046 H 
ATOM     58  H25 28R d   1     -10.889   9.461  14.372  0.00  0.00     0.079 H 
ENDBRANCH   1  48
TORSDOF 11
