REMARK  11 active torsions:
REMARK  status: ('A' for Active; 'I' for Inactive)
REMARK    1  A    between atoms: N1_1  and  S2_2 
REMARK    2  A    between atoms: N1_1  and  C6_6 
REMARK    3  A    between atoms: S2_2  and  C5_5 
REMARK    4  A    between atoms: C11_11  and  C17_17 
REMARK    5  A    between atoms: C18_18  and  O35_34 
REMARK    6  A    between atoms: C19_19  and  C31_30 
REMARK    7  A    between atoms: C21_21  and  C23_23 
REMARK    8  A    between atoms: C31_30  and  C32_31 
REMARK    9  A    between atoms: C31_30  and  C33_32 
REMARK   10  A    between atoms: C31_30  and  C34_33 
REMARK   11  A    between atoms: O35_34  and  C36_35 
ROOT
ATOM      1  C17 2AY d   1      -8.557   9.041  10.322  0.00  0.00     0.033 A 
ATOM      2  C18 2AY d   1      -7.453   9.611  10.991  0.00  0.00     0.088 A 
ATOM      3  C19 2AY d   1      -7.373   9.660  12.415  0.00  0.00    -0.015 A 
ATOM      4  C20 2AY d   1      -8.444   9.115  13.127  0.00  0.00    -0.062 A 
ATOM      5  C21 2AY d   1      -9.535   8.540  12.483  0.00  0.00    -0.019 A 
ATOM      6  C22 2AY d   1      -9.585   8.516  11.095  0.00  0.00    -0.057 A 
ATOM      7  H9  2AY d   1      -8.425   9.141  14.210  0.00  0.00     0.085 H 
ATOM      8  H10 2AY d   1     -10.446   8.078  10.604  0.00  0.00     0.086 H 
ENDROOT
BRANCH   1   9
ATOM      9  C11 2AY d   1      -8.718   9.026   8.854  0.00  0.00     0.093 A 
ATOM     10  C10 2AY d   1      -8.503  10.022   7.990  0.00  0.00    -0.038 A 
ATOM     11  C9  2AY d   1      -8.916   9.929   6.612  0.00  0.00    -0.017 A 
ATOM     12  H7  2AY d   1      -8.004  10.926   8.335  0.00  0.00     0.089 H 
ATOM     13  C8  2AY d   1      -8.706  10.966   5.697  0.00  0.00    -0.070 A 
ATOM     14  C15 2AY d   1      -9.566   8.752   6.170  0.00  0.00     0.052 A 
ATOM     15  C7  2AY d   1      -9.123  10.860   4.383  0.00  0.00    -0.056 A 
ATOM     16  H6  2AY d   1      -8.207  11.871   6.025  0.00  0.00     0.084 H 
ATOM     17  C6  2AY d   1      -9.762   9.709   3.940  0.00  0.00     0.043 A 
ATOM     18  H5  2AY d   1      -8.950  11.680   3.695  0.00  0.00     0.087 H 
ATOM     19  C16 2AY d   1      -9.991   8.659   4.833  0.00  0.00    -0.040 A 
ATOM     20  H8  2AY d   1     -10.501   7.765   4.492  0.00  0.00     0.088 H 
ATOM     21  C13 2AY d   1      -9.784   7.643   7.118  0.00  0.00     0.299 A 
ATOM     22  O12 2AY d   1      -9.329   7.844   8.434  0.00  0.00    -0.274 OA
ATOM     23  O14 2AY d   1     -10.299   6.569   6.878  0.00  0.00    -0.259 OA
BRANCH  17  24
ATOM     24  N1  2AY d   1     -10.159   9.689   2.560  0.00  0.00    -0.285 N 
ATOM     25  H1  2AY d   1     -10.190  10.588   2.124  0.00  0.00     0.178 HD
BRANCH  24  26
ATOM     26  S2  2AY d   1     -10.567   8.451   1.585  0.00  0.00     0.227 S 
ATOM     27  O3  2AY d   1     -10.344   8.904   0.247  0.00  0.00    -0.206 OA
ATOM     28  O4  2AY d   1      -9.870   7.288   2.047  0.00  0.00    -0.206 OA
BRANCH  26  29
ATOM     29  C5  2AY d   1     -12.285   8.197   1.793  0.00  0.00     0.033 C 
ATOM     30  H2  2AY d   1     -12.613   7.366   1.152  0.00  0.00     0.051 H 
ATOM     31  H3  2AY d   1     -12.828   9.112   1.513  0.00  0.00     0.051 H 
ATOM     32  H4  2AY d   1     -12.495   7.954   2.845  0.00  0.00     0.051 H 
ENDBRANCH  26  29
ENDBRANCH  24  26
ENDBRANCH  17  24
ENDBRANCH   1   9
BRANCH   2  33
ATOM     33  O35 2AY d   1      -6.443  10.197  10.252  0.00  0.00    -0.354 OA
BRANCH  33  34
ATOM     34  C36 2AY d   1      -5.424   9.351   9.727  0.00  0.00     0.010 C 
ATOM     35  H24 2AY d   1      -4.697   9.957   9.167  0.00  0.00     0.066 H 
ATOM     36  H25 2AY d   1      -5.876   8.606   9.055  0.00  0.00     0.066 H 
ATOM     37  H26 2AY d   1      -4.913   8.836  10.554  0.00  0.00     0.066 H 
ENDBRANCH  33  34
ENDBRANCH   2  33
BRANCH   3  38
ATOM     38  C31 2AY d   1      -6.178  10.243  13.224  0.00  0.00    -0.021 C 
BRANCH  38  39
ATOM     39  C32 2AY d   1      -6.523  10.395  14.715  0.00  0.00    -0.066 C 
ATOM     40  H15 2AY d   1      -5.656  10.809  15.252  0.00  0.00     0.028 H 
ATOM     41  H16 2AY d   1      -6.778   9.411  15.134  0.00  0.00     0.028 H 
ATOM     42  H17 2AY d   1      -7.381  11.075  14.825  0.00  0.00     0.028 H 
ENDBRANCH  38  39
BRANCH  38  43
ATOM     43  C33 2AY d   1      -4.934   9.328  13.158  0.00  0.00    -0.066 C 
ATOM     44  H18 2AY d   1      -4.640   9.184  12.108  0.00  0.00     0.028 H 
ATOM     45  H19 2AY d   1      -5.171   8.354  13.610  0.00  0.00     0.028 H 
ATOM     46  H20 2AY d   1      -4.105   9.796  13.709  0.00  0.00     0.028 H 
ENDBRANCH  38  43
BRANCH  38  47
ATOM     47  C34 2AY d   1      -5.780  11.637  12.734  0.00  0.00    -0.066 C 
ATOM     48  H21 2AY d   1      -6.654  12.303  12.774  0.00  0.00     0.028 H 
ATOM     49  H22 2AY d   1      -5.416  11.572  11.698  0.00  0.00     0.028 H 
ATOM     50  H23 2AY d   1      -4.984  12.038  13.378  0.00  0.00     0.028 H 
ENDBRANCH  38  47
ENDBRANCH   3  38
BRANCH   5  51
ATOM     51  C23 2AY d   1     -10.628   7.912  13.268  0.00  0.00     0.041 A 
ATOM     52  C24 2AY d   1     -11.058   6.578  12.870  0.00  0.00     0.277 A 
ATOM     53  O25 2AY d   1     -10.590   5.934  11.927  0.00  0.00    -0.265 OA
ATOM     54  N26 2AY d   1     -12.124   6.073  13.618  0.00  0.00    -0.226 NA
ATOM     55  C28 2AY d   1     -12.749   6.740  14.624  0.00  0.00    -0.011 A 
ATOM     56  C29 2AY d   1     -12.354   7.988  14.977  0.00  0.00    -0.018 A 
ATOM     57  H11 2AY d   1     -13.576   6.267  15.152  0.00  0.00     0.108 H 
ATOM     58  C30 2AY d   1     -11.269   8.579  14.287  0.00  0.00    -0.082 A 
ATOM     59  H12 2AY d   1     -12.079   7.951  16.041  0.00  0.00     0.046 H 
ATOM     60  H13 2AY d   1     -13.221   8.651  14.845  0.00  0.00     0.046 H 
ATOM     61  H14 2AY d   1     -10.936   9.577  14.567  0.00  0.00     0.079 H 
ENDBRANCH   5  51
TORSDOF 11
