REMARK  2 active torsions:
REMARK  status: ('A' for Active; 'I' for Inactive)
REMARK    1  A    between atoms: C6_1  and  C1_2 
REMARK    2  A    between atoms: C3_6  and  S1_7 
ROOT
ATOM      1  C1  TM4 d   1      16.310   3.308  14.240  0.00  0.00     0.099 A 
ATOM      2  O1  TM4 d   1      15.572   4.314  14.743  0.00  0.00    -0.351 OA
ATOM      3  C5  TM4 d   1      14.839   4.051  15.814  0.00  0.00     0.011 A 
ATOM      4  C4  TM4 d   1      14.778   2.863  16.417  0.00  0.00    -0.062 A 
ATOM      5  C3  TM4 d   1      15.526   1.781  15.938  0.00  0.00     0.066 A 
ATOM      6  C2  TM4 d   1      16.338   2.041  14.775  0.00  0.00     0.172 A 
ATOM      7  O2  TM4 d   1      17.048   1.098  14.275  0.00  0.00    -0.294 OA
ATOM      8  H4  TM4 d   1      15.466   3.010  13.601  0.00  0.00     0.095 H 
ATOM      9  H5  TM4 d   1      14.244   4.862  16.232  0.00  0.00     0.122 H 
ATOM     10  H6  TM4 d   1      14.140   2.733  17.290  0.00  0.00     0.082 H 
ATOM     11  H7  TM4 d   1      16.361   2.057  16.598  0.00  0.00     0.074 H 
ENDROOT
BRANCH   1  12
ATOM     12  C6  TM4 d   1      17.148   3.613  13.031  0.00  0.00    -0.045 C 
ATOM     13  H1  TM4 d   1      17.696   2.709  12.727  0.00  0.00     0.031 H 
ATOM     14  H2  TM4 d   1      17.864   4.412  13.274  0.00  0.00     0.031 H 
ATOM     15  H3  TM4 d   1      16.497   3.942  12.207  0.00  0.00     0.031 H 
ENDBRANCH   1  12
BRANCH   5  16
ATOM     16  S1  TM4 d   1      15.487   0.239  16.667  0.00  0.00    -0.166 SA
ATOM     17  H8  TM4 d   1      16.097  -0.385  16.163  0.00  0.00     0.102 HD
ENDBRANCH   5  16
TORSDOF 2
