REMARK  4 active torsions:
REMARK  status: ('A' for Active; 'I' for Inactive)
REMARK    1  A    between atoms: CAM_13  and  OAO_15 
REMARK    2  A    between atoms: CAW_23  and  CAM_13 
REMARK    3  A    between atoms: OAO_15  and  CAS_19 
REMARK    4  A    between atoms: CAT_20  and  CAX_24 
ROOT
ATOM      1  CAI 8PR d   1     118.343 -16.720 107.976  0.00  0.00     0.082 C 
ATOM      2  CAJ 8PR d   1     118.203 -17.808 106.944  0.00  0.00    -0.035 C 
ATOM      3  CAK 8PR d   1     116.439 -15.543 107.025  0.00  0.00     0.087 C 
ATOM      4  NAN 8PR d   1     117.050 -16.042 108.260  0.00  0.00    -0.075 N 
ATOM      5  CAW 8PR d   1     116.156 -16.712 106.110  0.00  0.00    -0.002 C 
ATOM      6  CAX 8PR d   1     117.417 -17.400 105.750  0.00  0.00    -0.020 C 
ATOM      7  H8  8PR d   1     119.061 -15.973 107.607  0.00  0.00     0.075 H 
ATOM      8  H9  8PR d   1     118.722 -17.163 108.909  0.00  0.00     0.075 H 
ATOM      9  H10 8PR d   1     117.703 -18.669 107.412  0.00  0.00     0.036 H 
ATOM     10  H11 8PR d   1     119.209 -18.105 106.613  0.00  0.00     0.036 H 
ATOM     11  H12 8PR d   1     117.128 -14.844 106.528  0.00  0.00     0.076 H 
ATOM     12  H13 8PR d   1     115.499 -15.024 107.262  0.00  0.00     0.076 H 
ATOM     13  H18 8PR d   1     117.214 -15.267 108.884  0.00  0.00     0.277 HD
ATOM     14  H19 8PR d   1     116.422 -16.698 108.697  0.00  0.00     0.277 HD
ATOM     15  H20 8PR d   1     115.508 -17.423 106.643  0.00  0.00     0.046 H 
ATOM     16  H21 8PR d   1     118.033 -16.667 105.208  0.00  0.00     0.048 H 
ENDROOT
BRANCH   5  17
ATOM     17  CAM 8PR d   1     115.436 -16.252 104.856  0.00  0.00     0.032 C 
ATOM     18  H16 8PR d   1     116.051 -15.525 104.306  0.00  0.00     0.075 H 
ATOM     19  H17 8PR d   1     115.213 -17.110 104.205  0.00  0.00     0.075 H 
BRANCH  17  20
ATOM     20  OAO 8PR d   1     114.228 -15.642 105.307  0.00  0.00    -0.351 OA
BRANCH  20  21
ATOM     21  CAS 8PR d   1     113.355 -15.145 104.333  0.00  0.00     0.071 A 
ATOM     22  CAD 8PR d   1     113.846 -14.533 103.132  0.00  0.00    -0.048 A 
ATOM     23  CAG 8PR d   1     112.929 -14.039 102.178  0.00  0.00    -0.045 A 
ATOM     24  H3  8PR d   1     114.913 -14.450 102.958  0.00  0.00     0.087 H 
ATOM     25  CAU 8PR d   1     111.586 -14.142 102.411  0.00  0.00     0.105 A 
ATOM     26  H6  8PR d   1     113.289 -13.580 101.264  0.00  0.00     0.088 H 
ATOM     27  OAP 8PR d   1     110.454 -13.760 101.699  0.00  0.00    -0.323 OA
ATOM     28  CAV 8PR d   1     111.109 -14.739 103.602  0.00  0.00     0.107 A 
ATOM     29  CAL 8PR d   1     109.317 -14.108 102.430  0.00  0.00     0.115 A 
ATOM     30  OAQ 8PR d   1     109.665 -14.694 103.553  0.00  0.00    -0.323 OA
ATOM     31  H14 8PR d   1     108.699 -14.797 101.836  0.00  0.00     0.118 H 
ATOM     32  H15 8PR d   1     108.739 -13.200 102.657  0.00  0.00     0.118 H 
ATOM     33  CAH 8PR d   1     112.036 -15.238 104.558  0.00  0.00    -0.016 A 
ATOM     34  H7  8PR d   1     111.675 -15.695 105.472  0.00  0.00     0.092 H 
ENDBRANCH  20  21
ENDBRANCH  17  20
ENDBRANCH   5  17
BRANCH   6  35
ATOM     35  CAT 8PR d   1     117.147 -18.630 104.724  0.00  0.00    -0.053 A 
ATOM     36  CAE 8PR d   1     115.978 -19.476 104.804  0.00  0.00    -0.074 A 
ATOM     37  CAB 8PR d   1     115.799 -20.528 103.872  0.00  0.00    -0.045 A 
ATOM     38  H4  8PR d   1     115.238 -19.306 105.577  0.00  0.00     0.084 H 
ATOM     39  CAR 8PR d   1     116.774 -20.759 102.844  0.00  0.00     0.116 A 
ATOM     40  H1  8PR d   1     114.922 -21.162 103.936  0.00  0.00     0.088 H 
ATOM     41  FAA 8PR d   1     116.614 -21.766 101.950  0.00  0.00    -0.206 F 
ATOM     42  CAC 8PR d   1     117.953 -19.899 102.758  0.00  0.00    -0.045 A 
ATOM     43  CAF 8PR d   1     118.125 -18.881 103.669  0.00  0.00    -0.074 A 
ATOM     44  H2  8PR d   1     118.689 -20.062 101.980  0.00  0.00     0.088 H 
ATOM     45  H5  8PR d   1     119.005 -18.252 103.602  0.00  0.00     0.084 H 
ENDBRANCH   6  35
TORSDOF 4
