REMARK  3 active torsions:
REMARK  status: ('A' for Active; 'I' for Inactive)
REMARK    1  A    between atoms: C13_7  and  C4_9 
REMARK    2  A    between atoms: C1_16  and  N11_17 
REMARK    3  A    between atoms: N11_17  and  C12_18 
ROOT
ATOM      1  C4  SRE d   1     182.600 -17.655 101.527  0.00  0.00    -0.002 C 
ATOM      2  C5  SRE d   1     183.569 -18.540 100.999  0.00  0.00    -0.041 A 
ATOM      3  C6  SRE d   1     183.323 -19.280  99.673  0.00  0.00    -0.076 A 
ATOM      4  C7  SRE d   1     184.206 -20.139  99.139  0.00  0.00    -0.082 A 
ATOM      5  C8  SRE d   1     185.257 -20.403  99.637  0.00  0.00    -0.082 A 
ATOM      6  C9  SRE d   1     185.641 -19.925 100.695  0.00  0.00    -0.074 A 
ATOM      7  C10 SRE d   1     184.901 -19.011 101.434  0.00  0.00    -0.021 A 
ATOM      8  C1  SRE d   1     185.385 -18.378 102.758  0.00  0.00     0.127 C 
ATOM      9  C2  SRE d   1     184.720 -16.939 103.051  0.00  0.00    -0.034 C 
ATOM     10  C3  SRE d   1     183.219 -16.819 102.585  0.00  0.00    -0.052 C 
ATOM     11  H4  SRE d   1     181.764 -18.224 101.960  0.00  0.00     0.054 H 
ATOM     12  H5  SRE d   1     182.393 -19.099  99.145  0.00  0.00     0.084 H 
ATOM     13  H6  SRE d   1     183.949 -20.620  98.202  0.00  0.00     0.083 H 
ATOM     14  H7  SRE d   1     185.906 -21.104  99.125  0.00  0.00     0.083 H 
ATOM     15  H8  SRE d   1     186.609 -20.230 101.076  0.00  0.00     0.084 H 
ATOM     16  H9  SRE d   1     185.196 -19.064 103.597  0.00  0.00     0.091 H 
ATOM     17  H15 SRE d   1     185.308 -16.173 102.524  0.00  0.00     0.036 H 
ATOM     18  H16 SRE d   1     184.762 -16.753 104.134  0.00  0.00     0.036 H 
ATOM     19  H17 SRE d   1     182.614 -16.988 103.488  0.00  0.00     0.034 H 
ATOM     20  H18 SRE d   1     183.095 -15.778 102.251  0.00  0.00     0.034 H 
ENDROOT
BRANCH   1  21
ATOM     21  C13 SRE d   1     182.084 -16.789 100.334  0.00  0.00    -0.048 A 
ATOM     22  C18 SRE d   1     182.969 -16.115  99.364  0.00  0.00    -0.074 A 
ATOM     23  C17 SRE d   1     182.430 -15.369  98.293  0.00  0.00    -0.060 A 
ATOM     24  H2  SRE d   1     184.044 -16.194  99.475  0.00  0.00     0.084 H 
ATOM     25  C16 SRE d   1     181.112 -15.292  98.184  0.00  0.00     0.055 A 
ATOM     26  H1  SRE d   1     183.077 -14.873  97.579  0.00  0.00     0.086 H 
ATOM     27 CL19 SRE d   1     180.461 -14.379  96.877  0.00  0.00    -0.083 Cl
ATOM     28  C15 SRE d   1     180.282 -15.870  99.006  0.00  0.00     0.056 A 
ATOM     29 CL20 SRE d   1     178.560 -15.709  98.771  0.00  0.00    -0.083 Cl
ATOM     30  C14 SRE d   1     180.716 -16.599 100.035  0.00  0.00    -0.053 A 
ATOM     31  H3  SRE d   1     179.980 -17.071 100.676  0.00  0.00     0.087 H 
ENDBRANCH   1  21
BRANCH   8  32
ATOM     32  N11 SRE d   1     186.703 -18.130 102.601  0.00  0.00    -0.071 N 
ATOM     33  H10 SRE d   1     187.105 -18.835 102.003  0.00  0.00     0.277 HD
ATOM     34  H11 SRE d   1     187.156 -18.155 103.501  0.00  0.00     0.277 HD
BRANCH  32  35
ATOM     35  C12 SRE d   1     186.902 -16.828 102.004  0.00  0.00     0.065 C 
ATOM     36  H12 SRE d   1     187.979 -16.641 101.883  0.00  0.00     0.067 H 
ATOM     37  H13 SRE d   1     186.467 -16.056 102.655  0.00  0.00     0.067 H 
ATOM     38  H14 SRE d   1     186.411 -16.797 101.020  0.00  0.00     0.067 H 
ENDBRANCH  32  35
ENDBRANCH   8  32
TORSDOF 3
