REMARK  7 active torsions:
REMARK  status: ('A' for Active; 'I' for Inactive)
REMARK    1  A    between atoms: C_1  and  N_2 
REMARK    2  A    between atoms: N_2  and  C1_3 
REMARK    3  A    between atoms: C1_3  and  C2_4 
REMARK    4  A    between atoms: C2_4  and  C3_5 
REMARK    5  A    between atoms: C3_5  and  C14_6 
REMARK    6  A    between atoms: C3_5  and  O_11 
REMARK    7  A    between atoms: O_11  and  C4_12 
ROOT
ATOM      1  C3  29E d   1     176.065 -12.323 180.392  0.00  0.00     0.078 C 
ATOM      2  H10 29E d   1     176.739 -11.776 179.717  0.00  0.00     0.092 H 
ENDROOT
BRANCH   1   3
ATOM      3  C2  29E d   1     176.694 -12.574 181.742  0.00  0.00    -0.013 C 
ATOM      4  H8  29E d   1     176.106 -13.334 182.278  0.00  0.00     0.039 H 
ATOM      5  H9  29E d   1     177.721 -12.940 181.598  0.00  0.00     0.039 H 
BRANCH   3   6
ATOM      6  C1  29E d   1     176.732 -11.296 182.572  0.00  0.00     0.084 C 
ATOM      7  H6  29E d   1     176.747 -10.425 181.901  0.00  0.00     0.075 H 
ATOM      8  H7  29E d   1     175.839 -11.250 183.213  0.00  0.00     0.075 H 
BRANCH   6   9
ATOM      9  N   29E d   1     177.927 -11.286 183.405  0.00  0.00    -0.079 N 
ATOM     10  H4  29E d   1     178.291 -10.347 183.382  0.00  0.00     0.276 HD
ATOM     11  H5  29E d   1     177.631 -11.508 184.343  0.00  0.00     0.276 HD
BRANCH   9  12
ATOM     12  C   29E d   1     179.031 -12.173 183.091  0.00  0.00     0.065 C 
ATOM     13  H1  29E d   1     179.839 -12.026 183.823  0.00  0.00     0.067 H 
ATOM     14  H2  29E d   1     179.406 -11.949 182.082  0.00  0.00     0.067 H 
ATOM     15  H3  29E d   1     178.685 -13.217 183.130  0.00  0.00     0.067 H 
ENDBRANCH   9  12
ENDBRANCH   6   9
ENDBRANCH   3   6
ENDBRANCH   1   3
BRANCH   1  16
ATOM     16  C14 29E d   1     175.712 -13.644 179.834  0.00  0.00     0.012 A 
ATOM     17  S   29E d   1     176.028 -14.137 178.216  0.00  0.00    -0.104 SA
ATOM     18  C17 29E d   1     175.336 -15.716 178.441  0.00  0.00    -0.044 A 
ATOM     19  C16 29E d   1     174.892 -15.786 179.768  0.00  0.00    -0.076 A 
ATOM     20  H11 29E d   1     175.262 -16.503 177.691  0.00  0.00     0.095 H 
ATOM     21  C15 29E d   1     175.095 -14.642 180.562  0.00  0.00    -0.067 A 
ATOM     22  H12 29E d   1     174.414 -16.680 180.165  0.00  0.00     0.084 H 
ATOM     23  H13 29E d   1     174.805 -14.556 181.608  0.00  0.00     0.085 H 
ENDBRANCH   1  16
BRANCH   1  24
ATOM     24  O   29E d   1     174.888 -11.579 180.663  0.00  0.00    -0.340 OA
BRANCH  24  25
ATOM     25  C4  29E d   1     174.289 -10.878 179.663  0.00  0.00     0.080 A 
ATOM     26  C13 29E d   1     172.807 -10.799 179.582  0.00  0.00     0.007 A 
ATOM     27  C12 29E d   1     171.970 -11.425 180.495  0.00  0.00    -0.070 A 
ATOM     28  C8  29E d   1     172.217 -10.018 178.465  0.00  0.00    -0.023 A 
ATOM     29  C11 29E d   1     170.593 -11.290 180.319  0.00  0.00    -0.082 A 
ATOM     30  H14 29E d   1     172.374 -12.001 181.320  0.00  0.00     0.085 H 
ATOM     31  C10 29E d   1     170.034 -10.552 179.271  0.00  0.00    -0.082 A 
ATOM     32  H15 29E d   1     169.929 -11.777 181.024  0.00  0.00     0.083 H 
ATOM     33  C9  29E d   1     170.839  -9.914 178.335  0.00  0.00    -0.072 A 
ATOM     34  H16 29E d   1     168.956 -10.476 179.187  0.00  0.00     0.083 H 
ATOM     35  H17 29E d   1     170.400  -9.348 177.521  0.00  0.00     0.084 H 
ATOM     36  C7  29E d   1     173.067  -9.402 177.556  0.00  0.00    -0.072 A 
ATOM     37  C6  29E d   1     174.455  -9.506 177.678  0.00  0.00    -0.080 A 
ATOM     38  H18 29E d   1     172.646  -8.830 176.737  0.00  0.00     0.084 H 
ATOM     39  C5  29E d   1     175.063 -10.227 178.709  0.00  0.00    -0.050 A 
ATOM     40  H19 29E d   1     175.083  -9.010 176.947  0.00  0.00     0.083 H 
ATOM     41  H20 29E d   1     176.144 -10.279 178.765  0.00  0.00     0.087 H 
ENDBRANCH  24  25
ENDBRANCH   1  24
TORSDOF 7
