REMARK  8 active torsions:
REMARK  status: ('A' for Active; 'I' for Inactive)
REMARK    1  A    between atoms: O1_1  and  C5_2 
REMARK    2  A    between atoms: C5_2  and  C6_8 
REMARK    3  A    between atoms: C6_8  and  C13_9 
REMARK    4  A    between atoms: C6_8  and  C7_13 
REMARK    5  A    between atoms: C13_9  and  N_10 
REMARK    6  A    between atoms: N_10  and  C15_11 
REMARK    7  A    between atoms: N_10  and  C14_12 
REMARK    8  A    between atoms: C10_16  and  O_17 
ROOT
ATOM      1  C6  29J d   1     181.318 -17.508  99.645  0.00  0.00     0.024 C 
ATOM      2  H12 29J d   1     182.157 -16.959  99.193  0.00  0.00     0.054 H 
ENDROOT
BRANCH   1   3
ATOM      3  C5  29J d   1     180.048 -16.706  99.317  0.00  0.00     0.067 C 
ATOM      4  C   29J d   1     180.276 -15.885  98.056  0.00  0.00    -0.036 C 
ATOM      5  C1  29J d   1     179.068 -15.029  97.714  0.00  0.00    -0.062 C 
ATOM      6  H2  29J d   1     180.477 -16.568  97.218  0.00  0.00     0.037 H 
ATOM      7  H3  29J d   1     181.145 -15.229  98.211  0.00  0.00     0.037 H 
ATOM      8  C2  29J d   1     177.802 -15.850  97.598  0.00  0.00    -0.065 C 
ATOM      9  H10 29J d   1     179.252 -14.524  96.754  0.00  0.00     0.033 H 
ATOM     10  H11 29J d   1     178.931 -14.277  98.505  0.00  0.00     0.033 H 
ATOM     11  C3  29J d   1     177.589 -16.683  98.848  0.00  0.00    -0.062 C 
ATOM     12  H8  29J d   1     176.944 -15.175  97.463  0.00  0.00     0.033 H 
ATOM     13  H9  29J d   1     177.883 -16.518  96.728  0.00  0.00     0.033 H 
ATOM     14  C4  29J d   1     178.798 -17.550  99.162  0.00  0.00    -0.036 C 
ATOM     15  H6  29J d   1     177.404 -16.009  99.698  0.00  0.00     0.033 H 
ATOM     16  H7  29J d   1     176.714 -17.333  98.698  0.00  0.00     0.033 H 
ATOM     17  H4  29J d   1     178.615 -18.096 100.099  0.00  0.00     0.037 H 
ATOM     18  H5  29J d   1     178.948 -18.268  98.342  0.00  0.00     0.037 H 
BRANCH   3  19
ATOM     19  O1  29J d   1     179.794 -15.831 100.410  0.00  0.00    -0.389 OA
ATOM     20  H1  29J d   1     179.021 -15.311 100.225  0.00  0.00     0.210 HD
ENDBRANCH   3  19
ENDBRANCH   1   3
BRANCH   1  21
ATOM     21  C13 29J d   1     181.577 -17.592 101.141  0.00  0.00     0.092 C 
ATOM     22  H13 29J d   1     181.254 -18.570 101.528  0.00  0.00     0.077 H 
ATOM     23  H14 29J d   1     181.034 -16.792 101.666  0.00  0.00     0.077 H 
BRANCH  21  24
ATOM     24  N   29J d   1     183.012 -17.429 101.324  0.00  0.00    -0.078 N 
ATOM     25  H15 29J d   1     182.969 -18.011 102.146  0.00  0.00     0.279 HD
BRANCH  24  26
ATOM     26  C15 29J d   1     183.518 -16.328 102.118  0.00  0.00     0.066 C 
ATOM     27  H16 29J d   1     184.617 -16.368 102.143  0.00  0.00     0.068 H 
ATOM     28  H17 29J d   1     183.125 -16.404 103.143  0.00  0.00     0.068 H 
ATOM     29  H18 29J d   1     183.196 -15.376 101.672  0.00  0.00     0.068 H 
ENDBRANCH  24  26
BRANCH  24  30
ATOM     30  C14 29J d   1     183.966 -18.344 100.725  0.00  0.00     0.066 C 
ATOM     31  H19 29J d   1     183.426 -19.118 100.159  0.00  0.00     0.068 H 
ATOM     32  H20 29J d   1     184.565 -18.819 101.516  0.00  0.00     0.068 H 
ATOM     33  H21 29J d   1     184.630 -17.789 100.046  0.00  0.00     0.068 H 
ENDBRANCH  24  30
ENDBRANCH  21  24
ENDBRANCH   1  21
BRANCH   1  34
ATOM     34  C7  29J d   1     181.342 -18.885  99.081  0.00  0.00    -0.049 A 
ATOM     35  C12 29J d   1     180.976 -19.983  99.853  0.00  0.00    -0.074 A 
ATOM     36  C11 29J d   1     181.005 -21.255  99.299  0.00  0.00    -0.051 A 
ATOM     37  H22 29J d   1     180.669 -19.845 100.884  0.00  0.00     0.084 H 
ATOM     38  C10 29J d   1     181.417 -21.441  97.987  0.00  0.00     0.065 A 
ATOM     39  H23 29J d   1     180.704 -22.109  99.895  0.00  0.00     0.087 H 
ATOM     40  C9  29J d   1     181.797 -20.351  97.219  0.00  0.00    -0.051 A 
ATOM     41  C8  29J d   1     181.761 -19.081  97.772  0.00  0.00    -0.074 A 
ATOM     42  H25 29J d   1     182.120 -20.491  96.194  0.00  0.00     0.087 H 
ATOM     43  H26 29J d   1     182.064 -18.229  97.174  0.00  0.00     0.084 H 
BRANCH  38  44
ATOM     44  O   29J d   1     181.448 -22.694  97.455  0.00  0.00    -0.361 OA
ATOM     45  H24 29J d   1     181.750 -22.648  96.556  0.00  0.00     0.217 HD
ENDBRANCH  38  44
ENDBRANCH   1  34
TORSDOF 8
