REMARK  8 active torsions:
REMARK  status: ('A' for Active; 'I' for Inactive)
REMARK    1  A    between atoms: C12_2  and  C9_5 
REMARK    2  A    between atoms: C6_8  and  O5_11 
REMARK    3  A    between atoms: O5_11  and  C3_12 
REMARK    4  A    between atoms: C3_12  and  C2_13 
REMARK    5  A    between atoms: C3_12  and  C16_17 
REMARK    6  A    between atoms: C2_13  and  C1_14 
REMARK    7  A    between atoms: C1_14  and  N4_15 
REMARK    8  A    between atoms: N4_15  and  C22_16 
ROOT
ATOM      1  C3  RFX d   1     -28.384  10.345  19.023  0.00  0.00     0.072 C 
ATOM      2  H5  RFX d   1     -29.249  10.293  19.700  0.00  0.00     0.091 H 
ENDROOT
BRANCH   1   3
ATOM      3  O5  RFX d   1     -28.361  11.623  18.475  0.00  0.00    -0.341 OA
BRANCH   3   4
ATOM      4  C6  RFX d   1     -29.624  12.067  17.994  0.00  0.00     0.069 A 
ATOM      5  C11 RFX d   1     -30.769  11.524  18.504  0.00  0.00    -0.050 A 
ATOM      6  C10 RFX d   1     -31.991  11.950  18.018  0.00  0.00    -0.066 A 
ATOM      7  H2  RFX d   1     -30.720  10.769  19.280  0.00  0.00     0.087 H 
ATOM      8  C9  RFX d   1     -32.039  12.920  17.045  0.00  0.00     0.048 A 
ATOM      9  H1  RFX d   1     -32.909  11.520  18.403  0.00  0.00     0.084 H 
ATOM     10  C8  RFX d   1     -30.895  13.467  16.529  0.00  0.00    -0.066 A 
ATOM     11  C7  RFX d   1     -29.672  13.049  17.000  0.00  0.00    -0.050 A 
ATOM     12  H4  RFX d   1     -30.953  14.224  15.755  0.00  0.00     0.084 H 
ATOM     13  H3  RFX d   1     -28.757  13.476  16.605  0.00  0.00     0.087 H 
BRANCH   8  14
ATOM     14  C12 RFX d   1     -33.399  13.342  16.568  0.00  0.00     0.417 C 
ATOM     15  F14 RFX d   1     -33.363  14.624  16.207  0.00  0.00    -0.166 F 
ATOM     16  F15 RFX d   1     -34.303  13.147  17.544  0.00  0.00    -0.166 F 
ATOM     17  F13 RFX d   1     -33.777  12.590  15.518  0.00  0.00    -0.166 F 
ENDBRANCH   8  14
ENDBRANCH   3   4
ENDBRANCH   1   3
BRANCH   1  18
ATOM     18  C2  RFX d   1     -27.138  10.039  19.808  0.00  0.00    -0.014 C 
ATOM     19  H6  RFX d   1     -26.718   9.077  19.480  0.00  0.00     0.039 H 
ATOM     20  H7  RFX d   1     -27.377   9.988  20.881  0.00  0.00     0.039 H 
BRANCH  18  21
ATOM     21  C1  RFX d   1     -26.096  11.194  19.547  0.00  0.00     0.084 C 
ATOM     22  H8  RFX d   1     -26.608  12.024  19.037  0.00  0.00     0.075 H 
ATOM     23  H9  RFX d   1     -25.293  10.807  18.903  0.00  0.00     0.075 H 
BRANCH  21  24
ATOM     24  N4  RFX d   1     -25.515  11.687  20.764  0.00  0.00    -0.079 N 
ATOM     25  H10 RFX d   1     -24.616  12.094  20.557  0.00  0.00     0.276 HD
ATOM     26  H11 RFX d   1     -25.397  10.919  21.406  0.00  0.00     0.276 HD
BRANCH  24  27
ATOM     27  C22 RFX d   1     -26.353  12.687  21.378  0.00  0.00     0.065 C 
ATOM     28  H12 RFX d   1     -25.880  13.043  22.305  0.00  0.00     0.067 H 
ATOM     29  H13 RFX d   1     -27.335  12.249  21.612  0.00  0.00     0.067 H 
ATOM     30  H14 RFX d   1     -26.483  13.532  20.686  0.00  0.00     0.067 H 
ENDBRANCH  24  27
ENDBRANCH  21  24
ENDBRANCH  18  21
ENDBRANCH   1  18
BRANCH   1  31
ATOM     31  C16 RFX d   1     -28.521   9.243  17.975  0.00  0.00    -0.029 A 
ATOM     32  C21 RFX d   1     -29.633   8.415  18.005  0.00  0.00    -0.074 A 
ATOM     33  C20 RFX d   1     -29.755   7.387  17.040  0.00  0.00    -0.082 A 
ATOM     34  H15 RFX d   1     -30.400   8.553  18.759  0.00  0.00     0.084 H 
ATOM     35  C19 RFX d   1     -28.753   7.210  16.080  0.00  0.00    -0.083 A 
ATOM     36  H16 RFX d   1     -30.623   6.738  17.045  0.00  0.00     0.083 H 
ATOM     37  C18 RFX d   1     -27.637   8.030  16.063  0.00  0.00    -0.082 A 
ATOM     38  H17 RFX d   1     -28.851   6.423  15.341  0.00  0.00     0.083 H 
ATOM     39  C17 RFX d   1     -27.510   9.060  17.022  0.00  0.00    -0.074 A 
ATOM     40  H18 RFX d   1     -26.864   7.882  15.317  0.00  0.00     0.083 H 
ATOM     41  H19 RFX d   1     -26.638   9.703  17.020  0.00  0.00     0.084 H 
ENDBRANCH   1  31
TORSDOF 8
