REMARK  6 active torsions:
REMARK  status: ('A' for Active; 'I' for Inactive)
REMARK    1  A    between atoms: C16_18  and  C17_13 
REMARK    2  A    between atoms: C17_13  and  N2_21 
REMARK    3  A    between atoms: N2_21  and  C18_14 
REMARK    4  A    between atoms: C15_17  and  C16_18 
REMARK    5  A    between atoms: C15_17  and  N1_20 
REMARK    6  A    between atoms: N2_21  and  C19_19 
ROOT
ATOM      1  C1  CXX d   1     162.283  -3.417 341.526  0.00  0.00    -0.035 A 
ATOM      2  C2  CXX d   1     161.442  -2.497 340.858  0.00  0.00     0.036 A 
ATOM      3  C3  CXX d   1     161.917  -1.641 339.835  0.00  0.00    -0.061 A 
ATOM      4  C4  CXX d   1     163.262  -1.713 339.461  0.00  0.00    -0.073 A 
ATOM      5  C5  CXX d   1     165.562  -2.729 339.714  0.00  0.00    -0.035 C 
ATOM      6  C6  CXX d   1     165.763  -4.042 338.982  0.00  0.00    -0.035 C 
ATOM      7  C8  CXX d   1     166.611  -7.569 339.996  0.00  0.00    -0.082 A 
ATOM      8  C9  CXX d   1     166.024  -7.738 341.254  0.00  0.00    -0.081 A 
ATOM      9  C10 CXX d   1     165.317  -6.680 341.850  0.00  0.00    -0.057 A 
ATOM     10  C11 CXX d   1     165.161  -5.462 341.177  0.00  0.00     0.041 A 
ATOM     11  C13 CXX d   1     164.118  -2.630 340.094  0.00  0.00    -0.031 A 
ATOM     12  C14 CXX d   1     163.613  -3.531 341.151  0.00  0.00     0.042 A 
ATOM     13  C7  CXX d   1     166.500  -6.360 339.304  0.00  0.00    -0.075 A 
ATOM     14  C12 CXX d   1     165.813  -5.282 339.854  0.00  0.00    -0.031 A 
ATOM     15  N1  CXX d   1     164.458  -4.438 341.799  0.00  0.00    -0.346 N 
ATOM     16 CL2  CXX d   1     159.713  -2.460 341.443  0.00  0.00    -0.084 Cl
ATOM     17  H1  CXX d   1     161.889  -4.031 342.328  0.00  0.00     0.089 H 
ATOM     18  H2  CXX d   1     161.248  -0.940 339.349  0.00  0.00     0.086 H 
ATOM     19  H3  CXX d   1     163.644  -1.062 338.683  0.00  0.00     0.084 H 
ATOM     20  H4  CXX d   1     165.834  -1.890 339.057  0.00  0.00     0.040 H 
ATOM     21  H5  CXX d   1     166.189  -2.705 340.618  0.00  0.00     0.040 H 
ATOM     22  H6  CXX d   1     166.712  -3.979 338.430  0.00  0.00     0.040 H 
ATOM     23  H7  CXX d   1     164.933  -4.163 338.271  0.00  0.00     0.040 H 
ATOM     24  H8  CXX d   1     167.161  -8.390 339.550  0.00  0.00     0.083 H 
ATOM     25  H9  CXX d   1     166.115  -8.687 341.770  0.00  0.00     0.083 H 
ATOM     26  H10 CXX d   1     164.889  -6.808 342.838  0.00  0.00     0.086 H 
ATOM     27  H16 CXX d   1     166.955  -6.261 338.325  0.00  0.00     0.084 H 
ENDROOT
BRANCH  15  28
ATOM     28  C15 CXX d   1     164.695  -4.290 343.206  0.00  0.00     0.002 C 
ATOM     29  H17 CXX d   1     163.866  -3.800 343.738  0.00  0.00     0.065 H 
ATOM     30  H18 CXX d   1     164.943  -5.237 343.707  0.00  0.00     0.065 H 
BRANCH  28  31
ATOM     31  C16 CXX d   1     165.895  -3.386 343.003  0.00  0.00    -0.027 C 
ATOM     32  H19 CXX d   1     166.735  -3.984 342.621  0.00  0.00     0.037 H 
ATOM     33  H20 CXX d   1     165.638  -2.606 342.272  0.00  0.00     0.037 H 
BRANCH  31  34
ATOM     34  C17 CXX d   1     166.307  -2.728 344.305  0.00  0.00     0.084 C 
ATOM     35  H11 CXX d   1     165.460  -2.215 344.784  0.00  0.00     0.076 H 
ATOM     36  H12 CXX d   1     167.130  -2.014 344.154  0.00  0.00     0.076 H 
BRANCH  34  37
ATOM     37  N2  CXX d   1     166.738  -3.889 345.078  0.00  0.00    -0.079 N 
ATOM     38  H24 CXX d   1     167.338  -3.303 345.637  0.00  0.00     0.278 HD
BRANCH  37  39
ATOM     39  C18 CXX d   1     165.993  -4.272 346.280  0.00  0.00     0.066 C 
ATOM     40  H13 CXX d   1     166.457  -5.162 346.731  0.00  0.00     0.068 H 
ATOM     41  H14 CXX d   1     164.951  -4.498 346.009  0.00  0.00     0.068 H 
ATOM     42  H15 CXX d   1     166.012  -3.443 347.003  0.00  0.00     0.068 H 
ENDBRANCH  37  39
BRANCH  37  43
ATOM     43  C19 CXX d   1     167.915  -4.662 344.622  0.00  0.00     0.066 C 
ATOM     44  H21 CXX d   1     168.321  -4.206 343.707  0.00  0.00     0.068 H 
ATOM     45  H22 CXX d   1     167.614  -5.699 344.412  0.00  0.00     0.068 H 
ATOM     46  H23 CXX d   1     168.685  -4.656 345.408  0.00  0.00     0.068 H 
ENDBRANCH  37  43
ENDBRANCH  34  37
ENDBRANCH  31  34
ENDBRANCH  28  31
ENDBRANCH  15  28
TORSDOF 6
