REMARK  2 active torsions:
REMARK  status: ('A' for Active; 'I' for Inactive)
REMARK    1  A    between atoms: C10_7  and  C_8 
REMARK    2  A    between atoms: C_8  and  O_9 
ROOT
ATOM      1  C   29Q d   1     -64.107  17.841   8.134  0.00  0.00     0.194 A 
ATOM      2  C5  29Q d   1     -63.196  18.880   7.522  0.00  0.00     0.016 A 
ATOM      3  C6  29Q d   1     -62.374  19.798   8.170  0.00  0.00    -0.071 A 
ATOM      4  C7  29Q d   1     -61.614  20.686   7.409  0.00  0.00    -0.082 A 
ATOM      5  C8  29Q d   1     -61.666  20.669   6.013  0.00  0.00    -0.082 A 
ATOM      6  C9  29Q d   1     -62.483  19.757   5.347  0.00  0.00    -0.069 A 
ATOM      7  C4  29Q d   1     -63.224  18.881   6.131  0.00  0.00     0.019 A 
ATOM      8  C1  29Q d   1     -64.182  17.784   5.869  0.00  0.00     0.113 A 
ATOM      9  N   29Q d   1     -64.634  17.200   6.921  0.00  0.00    -0.325 N 
ATOM     10  C3  29Q d   1     -65.595  16.143   6.786  0.00  0.00     0.015 C 
ATOM     11  C2  29Q d   1     -65.774  16.232   5.250  0.00  0.00     0.009 C 
ATOM     12  N1  29Q d   1     -64.739  17.182   4.792  0.00  0.00    -0.374 N 
ATOM     13  H6  29Q d   1     -62.325  19.822   9.253  0.00  0.00     0.084 H 
ATOM     14  H7  29Q d   1     -60.972  21.402   7.909  0.00  0.00     0.083 H 
ATOM     15  H8  29Q d   1     -61.067  21.370   5.444  0.00  0.00     0.083 H 
ATOM     16  H9  29Q d   1     -62.538  19.732   4.265  0.00  0.00     0.085 H 
ATOM     17  H10 29Q d   1     -66.528  16.353   7.330  0.00  0.00     0.067 H 
ATOM     18  H11 29Q d   1     -65.195  15.169   7.106  0.00  0.00     0.067 H 
ATOM     19  H12 29Q d   1     -66.778  16.606   5.000  0.00  0.00     0.066 H 
ATOM     20  H13 29Q d   1     -65.624  15.246   4.787  0.00  0.00     0.066 H 
ATOM     21  H14 29Q d   1     -64.482  17.358   3.810  0.00  0.00     0.161 HD
ENDROOT
BRANCH   1  22
ATOM     22  C10 29Q d   1     -63.291  17.008   9.068  0.00  0.00     0.002 A 
ATOM     23  C11 29Q d   1     -62.303  16.146   8.610  0.00  0.00    -0.070 A 
ATOM     24  C12 29Q d   1     -61.562  15.426   9.540  0.00  0.00    -0.061 A 
ATOM     25  H2  29Q d   1     -62.113  16.037   7.548  0.00  0.00     0.084 H 
ATOM     26  C13 29Q d   1     -61.807  15.589  10.905  0.00  0.00     0.034 A 
ATOM     27  H1  29Q d   1     -60.794  14.738   9.206  0.00  0.00     0.086 H 
ATOM     28 CL   29Q d   1     -60.844  14.687  12.118  0.00  0.00    -0.084 Cl
ATOM     29  C14 29Q d   1     -62.784  16.461  11.355  0.00  0.00    -0.061 A 
ATOM     30  C15 29Q d   1     -63.519  17.177  10.430  0.00  0.00    -0.070 A 
ATOM     31  H3  29Q d   1     -62.969  16.580  12.416  0.00  0.00     0.086 H 
ATOM     32  H4  29Q d   1     -64.277  17.874  10.767  0.00  0.00     0.084 H 
ENDBRANCH   1  22
BRANCH   1  33
ATOM     33  O   29Q d   1     -65.189  18.454   8.840  0.00  0.00    -0.362 OA
ATOM     34  H5  29Q d   1     -65.600  19.106   8.284  0.00  0.00     0.213 HD
ENDBRANCH   1  33
TORSDOF 2
