REMARK WARNING: 32 MAX_TORS EXCEEDED!!!
REMARK  59 active torsions:
REMARK  status: ('A' for Active; 'I' for Inactive)
REMARK    1  A    between atoms: N_1  and  CA_2 
REMARK    2  A    between atoms: CA_2  and  C_3 
REMARK    3  A    between atoms: CA_2  and  CB_5 
REMARK       I    between atoms: C_3  and  N_10 
REMARK    4  A    between atoms: CB_5  and  CG_6 
REMARK    5  A    between atoms: CG_6  and  CD_7 
REMARK       I    between atoms: CD_7  and  NE2_9 
REMARK    6  A    between atoms: N_10  and  CA_11 
REMARK    7  A    between atoms: CA_11  and  C_12 
REMARK    8  A    between atoms: CA_11  and  CB_14 
REMARK       I    between atoms: C_12  and  N_16 
REMARK    9  A    between atoms: CB_14  and  SG_15 
REMARK   10  A    between atoms: N_16  and  CA_17 
REMARK   11  A    between atoms: CA_17  and  C_18 
REMARK   12  A    between atoms: CA_17  and  CB_20 
REMARK       I    between atoms: C_18  and  N_30 
REMARK   13  A    between atoms: CB_20  and  CG_21 
REMARK   14  A    between atoms: N_30  and  CA_31 
REMARK   15  A    between atoms: CA_31  and  C_32 
REMARK   16  A    between atoms: CA_31  and  CB_34 
REMARK       I    between atoms: C_32  and  N_38 
REMARK   17  A    between atoms: CB_34  and  CG_35 
REMARK   18  A    between atoms: N_38  and  CA_39 
REMARK   19  A    between atoms: CA_39  and  C_40 
REMARK   20  A    between atoms: CA_39  and  CB_42 
REMARK       I    between atoms: C_40  and  N_49 
REMARK   21  A    between atoms: CB_42  and  CG_43 
REMARK   22  A    between atoms: CG_43  and  CD_44 
REMARK   23  A    between atoms: CD_44  and  NE_45 
REMARK       I    between atoms: NE_45  and  CZ_46 
REMARK       I    between atoms: CZ_46  and  NH1_47 
REMARK       I    between atoms: CZ_46  and  NH2_48 
REMARK   24  A    between atoms: N_49  and  CA_50 
REMARK   25  A    between atoms: CA_50  and  C_51 
REMARK       I    between atoms: C_51  and  N_53 
REMARK   26  A    between atoms: N_53  and  CA_54 
REMARK   27  A    between atoms: CA_54  and  C_55 
REMARK   28  A    between atoms: CA_54  and  CB_57 
REMARK       I    between atoms: C_55  and  N_59 
REMARK   29  A    between atoms: CB_57  and  SG_58 
REMARK   30  A    between atoms: N_59  and  CA_60 
REMARK   31  A    between atoms: CA_60  and  C_61 
REMARK   32  A    between atoms: CA_60  and  CB_63 
REMARK       I    between atoms: C_61  and  N_68 
REMARK   33  A    between atoms: CB_63  and  CG_64 
REMARK   34  A    between atoms: CG_64  and  CD_65 
REMARK   35  A    between atoms: N_68  and  CA_69 
REMARK   36  A    between atoms: CA_69  and  C_70 
REMARK   37  A    between atoms: CA_69  and  CB_72 
REMARK       I    between atoms: C_70  and  N_76 
REMARK   38  A    between atoms: CB_72  and  CG_73 
REMARK       I    between atoms: CG_73  and  ND2_75 
REMARK   39  A    between atoms: N_76  and  CA_77 
REMARK   40  A    between atoms: CA_77  and  C_78 
REMARK   41  A    between atoms: CA_77  and  CB_80 
REMARK       I    between atoms: C_78  and  N_87 
REMARK   42  A    between atoms: CB_80  and  CG_81 
REMARK   43  A    between atoms: CG_81  and  CD_82 
REMARK   44  A    between atoms: CD_82  and  NE_83 
REMARK       I    between atoms: NE_83  and  CZ_84 
REMARK       I    between atoms: CZ_84  and  NH1_85 
REMARK   45  A    between atoms: N_87  and  CA_88 
REMARK   46  A    between atoms: CA_88  and  C_89 
REMARK   47  A    between atoms: CA_88  and  CB_91 
REMARK       I    between atoms: C_89  and  N_96 
REMARK   48  A    between atoms: CB_91  and  CG_92 
REMARK   49  A    between atoms: CG_92  and  CD_93 
REMARK   50  A    between atoms: CD_93  and  CE_94 
REMARK   51  A    between atoms: CE_94  and  NZ_95 
REMARK   52  A    between atoms: N_96  and  CA_97 
REMARK   53  A    between atoms: CA_97  and  C_98 
REMARK   54  A    between atoms: CA_97  and  CB_100 
REMARK       I    between atoms: C_98  and  N_102 
REMARK   55  A    between atoms: CB_100  and  SG_101 
REMARK   56  A    between atoms: N_102  and  CA_103 
REMARK   57  A    between atoms: CA_103  and  C_104 
REMARK   58  A    between atoms: CA_103  and  CB_106 
REMARK       I    between atoms: C_104  and  N_110 
REMARK   59  A    between atoms: CB_106  and  CG_107 
REMARK       I    between atoms: CG_107  and  ND2_109 
ROOT
ATOM      1  CA  CYS d   1      26.227  12.508 -11.033  0.00  0.00     0.097 C 
ATOM      2  H   CYS d   1      26.080  12.748  -9.970  0.00  0.00     0.088 H 
ENDROOT
BRANCH   1   3
ATOM      3  N   CYS d   1      26.810  11.170 -11.114  0.00  0.00    -0.346 N 
ATOM      4  C   GLY d   1      27.223  10.512 -10.036  0.00  0.00     0.236 C 
ATOM      5  O   GLY d   1      27.070  10.928  -8.887  0.00  0.00    -0.272 OA
ATOM      6  H   CYS d   1      26.901  10.736 -12.010  0.00  0.00     0.163 HD
BRANCH   4   7
ATOM      7  CA  GLY d   1      27.880   9.172 -10.297  0.00  0.00     0.069 C 
ATOM      8  H   GLY d   1      28.058   8.675  -9.332  0.00  0.00     0.078 H 
ATOM      9  H   GLY d   1      27.198   8.559 -10.905  0.00  0.00     0.078 H 
BRANCH   7  10
ATOM     10  N   GLY d   1      29.157   9.290 -11.004  0.00  0.00    -0.351 N 
ATOM     11  C   ARG d   1      29.223   9.360 -12.333  0.00  0.00     0.240 C 
ATOM     12  O   ARG d   1      28.228   9.370 -13.056  0.00  0.00    -0.271 OA
ATOM     13  H   GLY d   1      30.004   9.319 -10.474  0.00  0.00     0.163 HD
BRANCH  11  14
ATOM     14  CA  ARG d   1      30.619   9.390 -12.956  0.00  0.00     0.089 C 
ATOM     15  H   ARG d   1      30.561   9.973 -13.887  0.00  0.00     0.087 H 
BRANCH  14  16
ATOM     16  N   ARG d   1      31.620  10.028 -12.096  0.00  0.00    -0.346 N 
ATOM     17  C   ASP d   1      31.563  11.318 -11.794  0.00  0.00     0.241 C 
ATOM     18  O   ASP d   1      30.684  12.063 -12.200  0.00  0.00    -0.271 OA
ATOM     19  H   ARG d   1      32.367   9.475 -11.727  0.00  0.00     0.163 HD
BRANCH  17  20
ATOM     20  CA  ASP d   1      32.645  11.835 -10.855  0.00  0.00     0.098 C 
ATOM     21  H   ASP d   1      33.350  11.013 -10.659  0.00  0.00     0.088 H 
BRANCH  20  22
ATOM     22  N   ASP d   1      33.372  12.953 -11.420  0.00  0.00    -0.345 N 
ATOM     23  C   TRP d   1      34.502  12.797 -12.077  0.00  0.00     0.241 C 
ATOM     24  O   TRP d   1      34.928  11.715 -12.453  0.00  0.00    -0.271 OA
ATOM     25  H   ASP d   1      33.003  13.875 -11.307  0.00  0.00     0.163 HD
BRANCH  23  26
ATOM     26  CA  TRP d   1      35.294  14.044 -12.323  0.00  0.00     0.093 C 
ATOM     27  H   TRP d   1      35.750  13.981 -13.322  0.00  0.00     0.088 H 
BRANCH  26  28
ATOM     28  N   TRP d   1      34.559  15.295 -12.239  0.00  0.00    -0.346 N 
ATOM     29  C   CYS d   1      34.165  16.004 -13.280  0.00  0.00     0.241 C 
ATOM     30  O   CYS d   1      34.153  15.584 -14.417  0.00  0.00    -0.271 OA
ATOM     31  H   TRP d   1      34.336  15.643 -11.328  0.00  0.00     0.163 HD
BRANCH  29  32
ATOM     32  CA  CYS d   1      33.743  17.416 -12.957  0.00  0.00     0.097 C 
ATOM     33  H   CYS d   1      33.184  17.438 -12.010  0.00  0.00     0.088 H 
BRANCH  32  34
ATOM     34  N   CYS d   1      34.969  18.160 -12.843  0.00  0.00    -0.345 N 
ATOM     35  C   GLN d   1      35.138  19.074 -11.913  0.00  0.00     0.249 C 
ATOM     36  O   GLN d   1      34.273  19.380 -11.100  0.00  0.00    -0.271 OA
ATOM     37  H   CYS d   1      35.712  17.977 -13.487  0.00  0.00     0.163 HD
BRANCH  35  38
ATOM     38  CA  GLN d   1      36.491  19.735 -11.898  0.00  0.00     0.176 C 
ATOM     39  H   GLN d   1      36.861  19.803 -12.932  0.00  0.00     0.099 H 
BRANCH  38  40
ATOM     40  N   GLN d   1      36.385  21.114 -11.355  0.00  0.00    -0.066 N 
ATOM     41  H   GLN d   1      37.297  21.544 -11.351  0.00  0.00     0.275 HD
ATOM     42  H   GLN d   1      36.026  21.078 -10.414  0.00  0.00     0.275 HD
ATOM     43  H   GLN d   1      35.761  21.655 -11.932  0.00  0.00     0.275 HD
ENDBRANCH  38  40
BRANCH  38  44
ATOM     44  CB  GLN d   1      37.463  18.870 -11.098  0.00  0.00    -0.022 C 
ATOM     45  H   GLN d   1      38.488  19.181 -11.349  0.00  0.00     0.037 H 
ATOM     46  H   GLN d   1      37.315  17.821 -11.394  0.00  0.00     0.037 H 
BRANCH  44  47
ATOM     47  CG  GLN d   1      37.292  18.968  -9.594  0.00  0.00     0.011 C 
ATOM     48  H   GLN d   1      37.515  17.988  -9.147  0.00  0.00     0.047 H 
ATOM     49  H   GLN d   1      36.250  19.244  -9.373  0.00  0.00     0.047 H 
BRANCH  47  50
ATOM     50  CD  GLN d   1      38.214  20.007  -8.981  0.00  0.00     0.215 C 
ATOM     51  OE1 GLN d   1      38.020  21.210  -9.168  0.00  0.00    -0.274 OA
ATOM     52  NE2 GLN d   1      39.226  19.549  -8.249  0.00  0.00    -0.370 N 
ATOM     53  H   GLN d   1      39.864  20.189  -7.822  0.00  0.00     0.159 HD
ATOM     54  H   GLN d   1      39.349  18.564  -8.126  0.00  0.00     0.159 HD
ENDBRANCH  47  50
ENDBRANCH  44  47
ENDBRANCH  38  44
ENDBRANCH  35  38
ENDBRANCH  32  34
BRANCH  32  55
ATOM     55  CB  CYS d   1      32.888  18.024 -14.064  0.00  0.00     0.001 C 
ATOM     56  H   CYS d   1      33.440  17.933 -15.011  0.00  0.00     0.052 H 
ATOM     57  H   CYS d   1      32.732  19.088 -13.830  0.00  0.00     0.052 H 
BRANCH  55  58
ATOM     58  SG  CYS d   1      31.274  17.258 -14.283  0.00  0.00    -0.180 SA
ATOM     59  H   CYS d   1      30.782  17.721 -15.031  0.00  0.00     0.101 HD
ENDBRANCH  55  58
ENDBRANCH  32  55
ENDBRANCH  29  32
ENDBRANCH  26  28
BRANCH  26  60
ATOM     60  CB  TRP d   1      36.373  14.054 -11.249  0.00  0.00    -0.012 C 
ATOM     61  H   TRP d   1      36.706  13.018 -11.088  0.00  0.00     0.044 H 
ATOM     62  H   TRP d   1      35.930  14.445 -10.321  0.00  0.00     0.044 H 
BRANCH  60  63
ATOM     63  CG  TRP d   1      37.541  14.862 -11.571  0.00  0.00    -0.028 A 
ATOM     64  CD1 TRP d   1      38.514  15.308 -10.719  0.00  0.00    -0.015 A 
ATOM     65  NE1 TRP d   1      39.456  16.011 -11.410  0.00  0.00    -0.365 N 
ATOM     66  H   TRP d   1      38.533  15.128  -9.645  0.00  0.00     0.112 H 
ATOM     67  CE2 TRP d   1      39.112  16.026 -12.725  0.00  0.00     0.042 A 
ATOM     68  H   TRP d   1      40.290  16.457 -11.003  0.00  0.00     0.165 HD
ATOM     69  CD2 TRP d   1      37.911  15.302 -12.861  0.00  0.00    -0.002 A 
ATOM     70  CZ2 TRP d   1      39.747  16.576 -13.798  0.00  0.00    -0.056 A 
ATOM     71  CE3 TRP d   1      37.351  15.165 -14.116  0.00  0.00    -0.070 A 
ATOM     72  CZ3 TRP d   1      37.978  15.717 -15.172  0.00  0.00    -0.082 A 
ATOM     73  H   TRP d   1      36.422  14.622 -14.249  0.00  0.00     0.084 H 
ATOM     74  CH2 TRP d   1      39.160  16.409 -15.021  0.00  0.00    -0.081 A 
ATOM     75  H   TRP d   1      37.544  15.615 -16.160  0.00  0.00     0.083 H 
ATOM     76  H   TRP d   1      39.638  16.833 -15.897  0.00  0.00     0.083 H 
ATOM     77  H   TRP d   1      40.677  17.122 -13.687  0.00  0.00     0.086 H 
ENDBRANCH  60  63
ENDBRANCH  26  60
ENDBRANCH  23  26
ENDBRANCH  20  22
BRANCH  20  78
ATOM     78  CB  ASP d   1      32.048  12.307  -9.532  0.00  0.00     0.043 C 
ATOM     79  H   ASP d   1      31.450  13.210  -9.724  0.00  0.00     0.052 H 
ATOM     80  H   ASP d   1      32.873  12.553  -8.848  0.00  0.00     0.052 H 
BRANCH  78  81
ATOM     81  CG  ASP d   1      31.160  11.281  -8.859  0.00  0.00     0.175 C 
ATOM     82  OD1 ASP d   1      31.291  10.073  -9.082  0.00  0.00    -0.648 OA
ATOM     83  OD2 ASP d   1      30.336  11.742  -8.065  0.00  0.00    -0.648 OA
ENDBRANCH  78  81
ENDBRANCH  20  78
ENDBRANCH  17  20
ENDBRANCH  14  16
BRANCH  14  84
ATOM     84  CB  ARG d   1      31.043   7.962 -13.307  0.00  0.00    -0.036 C 
ATOM     85  H   ARG d   1      32.076   7.993 -13.685  0.00  0.00     0.036 H 
ATOM     86  H   ARG d   1      30.375   7.589 -14.097  0.00  0.00     0.036 H 
BRANCH  84  87
ATOM     87  CG  ARG d   1      30.992   6.983 -12.139  0.00  0.00    -0.048 C 
ATOM     88  H   ARG d   1      29.956   6.916 -11.776  0.00  0.00     0.035 H 
ATOM     89  H   ARG d   1      31.639   7.358 -11.332  0.00  0.00     0.035 H 
BRANCH  87  90
ATOM     90  CD  ARG d   1      31.462   5.597 -12.541  0.00  0.00     0.009 C 
ATOM     91  H   ARG d   1      30.923   5.287 -13.448  0.00  0.00     0.064 H 
ATOM     92  H   ARG d   1      31.239   4.894 -11.724  0.00  0.00     0.064 H 
BRANCH  90  93
ATOM     93  NE  ARG d   1      32.892   5.569 -12.810  0.00  0.00    -0.227 N 
ATOM     94  CZ  ARG d   1      33.610   4.459 -12.939  0.00  0.00     0.665 C 
ATOM     95  NH1 ARG d   1      33.033   3.265 -12.821  0.00  0.00    -0.235 N 
ATOM     96  NH2 ARG d   1      34.912   4.543 -13.169  0.00  0.00    -0.235 N 
ATOM     97  H   ARG d   1      33.596   2.409 -12.922  0.00  0.00     0.174 HD
ATOM     98  H   ARG d   1      32.023   3.198 -12.628  0.00  0.00     0.174 HD
ATOM     99  H   ARG d   1      35.360   5.466 -13.261  0.00  0.00     0.174 HD
ATOM    100  H   ARG d   1      35.476   3.686 -13.256  0.00  0.00     0.174 HD
ATOM    101  H   ARG d   1      33.380   6.471 -12.907  0.00  0.00     0.177 HD
ENDBRANCH  90  93
ENDBRANCH  87  90
ENDBRANCH  84  87
ENDBRANCH  14  84
ENDBRANCH  11  14
ENDBRANCH   7  10
ENDBRANCH   4   7
ENDBRANCH   1   3
BRANCH   1 102
ATOM    102  C   CYS d   1      24.861  12.606 -11.725  0.00  0.00     0.241 C 
ATOM    103  O   CYS d   1      24.465  13.671 -12.198  0.00  0.00    -0.271 OA
ATOM    104  N   GLU d   1      24.131  11.497 -11.732  0.00  0.00    -0.346 N 
ATOM    105  H   GLU d   1      24.506  10.675 -11.303  0.00  0.00     0.163 HD
BRANCH 104 106
ATOM    106  CA  GLU d   1      22.802  11.424 -12.339  0.00  0.00     0.090 C 
ATOM    107  H   GLU d   1      22.870  11.767 -13.382  0.00  0.00     0.087 H 
BRANCH 106 108
ATOM    108  C   GLU d   1      21.795  12.282 -11.587  0.00  0.00     0.241 C 
ATOM    109  O   GLU d   1      21.852  12.365 -10.369  0.00  0.00    -0.271 OA
ATOM    110  N   ASN d   1      20.871  12.902 -12.311  0.00  0.00    -0.346 N 
ATOM    111  H   ASN d   1      20.982  12.941 -13.304  0.00  0.00     0.163 HD
BRANCH 110 112
ATOM    112  CA  ASN d   1      19.695  13.531 -11.706  0.00  0.00     0.097 C 
ATOM    113  H   ASN d   1      19.116  14.004 -12.513  0.00  0.00     0.088 H 
BRANCH 112 114
ATOM    114  C   ASN d   1      20.043  14.626 -10.692  0.00  0.00     0.241 C 
ATOM    115  O   ASN d   1      19.447  14.707  -9.616  0.00  0.00    -0.271 OA
ATOM    116  N   ARG d   1      21.015  15.463 -11.050  0.00  0.00    -0.346 N 
ATOM    117  H   ARG d   1      21.466  15.324 -11.932  0.00  0.00     0.163 HD
BRANCH 116 118
ATOM    118  CA  ARG d   1      21.452  16.579 -10.206  0.00  0.00     0.089 C 
ATOM    119  H   ARG d   1      21.120  16.393  -9.174  0.00  0.00     0.087 H 
BRANCH 118 120
ATOM    120  C   ARG d   1      20.860  17.895 -10.696  0.00  0.00     0.241 C 
ATOM    121  O   ARG d   1      20.524  18.036 -11.868  0.00  0.00    -0.271 OA
ATOM    122  N   LYS d   1      20.761  18.859  -9.788  0.00  0.00    -0.346 N 
ATOM    123  H   LYS d   1      20.988  18.648  -8.837  0.00  0.00     0.163 HD
BRANCH 122 124
ATOM    124  CA  LYS d   1      20.331  20.222 -10.125  0.00  0.00     0.089 C 
ATOM    125  H   LYS d   1      19.451  20.146 -10.780  0.00  0.00     0.087 H 
BRANCH 124 126
ATOM    126  C   LYS d   1      21.415  21.024 -10.869  0.00  0.00     0.241 C 
ATOM    127  O   LYS d   1      21.127  21.713 -11.852  0.00  0.00    -0.271 OA
ATOM    128  N   CYS d   1      22.649  20.920 -10.380  0.00  0.00    -0.345 N 
ATOM    129  H   CYS d   1      22.809  20.244  -9.661  0.00  0.00     0.163 HD
BRANCH 128 130
ATOM    130  CA  CYS d   1      23.797  21.733 -10.825  0.00  0.00     0.097 C 
ATOM    131  H   CYS d   1      24.643  21.496 -10.163  0.00  0.00     0.088 H 
BRANCH 130 132
ATOM    132  C   CYS d   1      23.503  23.224 -10.691  0.00  0.00     0.241 C 
ATOM    133  O   CYS d   1      23.546  23.970 -11.669  0.00  0.00    -0.271 OA
ATOM    134  N   ASN d   1      23.201  23.610  -9.455  0.00  0.00    -0.346 N 
ATOM    135  H   ASN d   1      23.172  22.895  -8.757  0.00  0.00     0.163 HD
BRANCH 134 136
ATOM    136  CA  ASN d   1      22.904  24.987  -9.006  0.00  0.00     0.097 C 
ATOM    137  H   ASN d   1      23.624  25.226  -8.210  0.00  0.00     0.088 H 
BRANCH 136 138
ATOM    138  C   ASN d   1      21.505  25.055  -8.396  0.00  0.00     0.238 C 
ATOM    139  O   ASN d   1      21.334  24.796  -7.205  0.00  0.00    -0.271 OA
ATOM    140  N   NH2 d   1      20.510  25.383  -9.211  0.00  0.00    -0.368 N 
ATOM    141  H   NH2 d   1      19.575  25.441  -8.861  0.00  0.00     0.159 HD
ATOM    142  H   NH2 d   1      20.695  25.572 -10.175  0.00  0.00     0.159 HD
ENDBRANCH 136 138
BRANCH 136 143
ATOM    143  CB  ASN d   1      23.079  26.054 -10.096  0.00  0.00     0.036 C 
ATOM    144  H   ASN d   1      22.616  26.990  -9.751  0.00  0.00     0.051 H 
ATOM    145  H   ASN d   1      22.573  25.710 -11.010  0.00  0.00     0.051 H 
BRANCH 143 146
ATOM    146  CG  ASN d   1      24.539  26.323 -10.419  0.00  0.00     0.217 C 
ATOM    147  OD1 ASN d   1      25.352  26.556  -9.525  0.00  0.00    -0.274 OA
ATOM    148  ND2 ASN d   1      24.878  26.288 -11.699  0.00  0.00    -0.370 N 
ATOM    149  H   ASN d   1      25.826  26.458 -11.970  0.00  0.00     0.159 HD
ATOM    150  H   ASN d   1      24.186  26.092 -12.394  0.00  0.00     0.159 HD
ENDBRANCH 143 146
ENDBRANCH 136 143
ENDBRANCH 134 136
ENDBRANCH 130 132
BRANCH 130 151
ATOM    151  CB  CYS d   1      24.227  21.407 -12.259  0.00  0.00     0.001 C 
ATOM    152  H   CYS d   1      25.132  21.992 -12.478  0.00  0.00     0.052 H 
ATOM    153  H   CYS d   1      23.415  21.722 -12.931  0.00  0.00     0.052 H 
BRANCH 151 154
ATOM    154  SG  CYS d   1      24.594  19.673 -12.616  0.00  0.00    -0.180 SA
ATOM    155  H   CYS d   1      24.864  19.580 -13.583  0.00  0.00     0.101 HD
ENDBRANCH 151 154
ENDBRANCH 130 151
ENDBRANCH 128 130
ENDBRANCH 124 126
BRANCH 124 156
ATOM    156  CB  LYS d   1      19.932  20.981  -8.853  0.00  0.00    -0.038 C 
ATOM    157  H   LYS d   1      19.924  22.056  -9.086  0.00  0.00     0.036 H 
ATOM    158  H   LYS d   1      20.691  20.778  -8.083  0.00  0.00     0.036 H 
BRANCH 156 159
ATOM    159  CG  LYS d   1      18.574  20.613  -8.283  0.00  0.00    -0.061 C 
ATOM    160  H   LYS d   1      18.591  19.564  -7.953  0.00  0.00     0.033 H 
ATOM    161  H   LYS d   1      17.807  20.741  -9.061  0.00  0.00     0.033 H 
BRANCH 159 162
ATOM    162  CD  LYS d   1      18.241  21.508  -7.096  0.00  0.00    -0.043 C 
ATOM    163  H   LYS d   1      17.653  22.366  -7.454  0.00  0.00     0.035 H 
ATOM    164  H   LYS d   1      19.180  21.867  -6.650  0.00  0.00     0.035 H 
BRANCH 162 165
ATOM    165  CE  LYS d   1      17.441  20.779  -6.030  0.00  0.00     0.080 C 
ATOM    166  H   LYS d   1      18.070  19.995  -5.583  0.00  0.00     0.075 H 
ATOM    167  H   LYS d   1      16.558  20.318  -6.497  0.00  0.00     0.075 H 
BRANCH 165 168
ATOM    168  NZ  LYS d   1      16.992  21.711  -4.958  0.00  0.00    -0.079 N 
ATOM    169  H   LYS d   1      16.465  21.200  -4.267  0.00  0.00     0.274 HD
ATOM    170  H   LYS d   1      16.411  22.430  -5.359  0.00  0.00     0.274 HD
ATOM    171  H   LYS d   1      17.796  22.134  -4.522  0.00  0.00     0.274 HD
ENDBRANCH 165 168
ENDBRANCH 162 165
ENDBRANCH 159 162
ENDBRANCH 156 159
ENDBRANCH 124 156
ENDBRANCH 122 124
ENDBRANCH 118 120
BRANCH 118 172
ATOM    172  CB  ARG d   1      22.973  16.712 -10.231  0.00  0.00    -0.036 C 
ATOM    173  H   ARG d   1      23.239  17.654  -9.729  0.00  0.00     0.036 H 
ATOM    174  H   ARG d   1      23.292  16.754 -11.283  0.00  0.00     0.036 H 
BRANCH 172 175
ATOM    175  CG  ARG d   1      23.738  15.590  -9.555  0.00  0.00    -0.048 C 
ATOM    176  H   ARG d   1      24.629  15.360 -10.158  0.00  0.00     0.035 H 
ATOM    177  H   ARG d   1      23.090  14.703  -9.506  0.00  0.00     0.035 H 
BRANCH 175 178
ATOM    178  CD  ARG d   1      24.185  15.945  -8.142  0.00  0.00     0.009 C 
ATOM    179  H   ARG d   1      24.715  15.080  -7.717  0.00  0.00     0.064 H 
ATOM    180  H   ARG d   1      23.291  16.161  -7.538  0.00  0.00     0.064 H 
BRANCH 178 181
ATOM    181  NE  ARG d   1      25.076  17.110  -8.086  0.00  0.00    -0.227 N 
ATOM    182  CZ  ARG d   1      26.409  17.086  -8.191  0.00  0.00     0.665 C 
ATOM    183  NH1 ARG d   1      27.079  15.950  -8.376  0.00  0.00    -0.235 N 
ATOM    184  NH2 ARG d   1      27.083  18.228  -8.115  0.00  0.00    -0.235 N 
ATOM    185  H   ARG d   1      28.106  15.964  -8.453  0.00  0.00     0.174 HD
ATOM    186  H   ARG d   1      26.570  15.057  -8.442  0.00  0.00     0.174 HD
ATOM    187  H   ARG d   1      26.579  19.115  -7.972  0.00  0.00     0.174 HD
ATOM    188  H   ARG d   1      28.110  18.227  -8.199  0.00  0.00     0.174 HD
ATOM    189  H   ARG d   1      24.634  18.031  -7.954  0.00  0.00     0.177 HD
ENDBRANCH 178 181
ENDBRANCH 175 178
ENDBRANCH 172 175
ENDBRANCH 118 172
ENDBRANCH 116 118
ENDBRANCH 112 114
BRANCH 112 190
ATOM    190  CB  ASN d   1      18.822  12.442 -11.063  0.00  0.00     0.036 C 
ATOM    191  H   ASN d   1      19.287  12.134 -10.115  0.00  0.00     0.051 H 
ATOM    192  H   ASN d   1      18.776  11.581 -11.746  0.00  0.00     0.051 H 
BRANCH 190 193
ATOM    193  CG  ASN d   1      17.409  12.908 -10.778  0.00  0.00     0.217 C 
ATOM    194  OD1 ASN d   1      16.824  13.667 -11.545  0.00  0.00    -0.274 OA
ATOM    195  ND2 ASN d   1      16.847  12.440  -9.669  0.00  0.00    -0.370 N 
ATOM    196  H   ASN d   1      15.915  12.712  -9.427  0.00  0.00     0.159 HD
ATOM    197  H   ASN d   1      17.355  11.816  -9.076  0.00  0.00     0.159 HD
ENDBRANCH 190 193
ENDBRANCH 112 190
ENDBRANCH 110 112
ENDBRANCH 106 108
BRANCH 106 198
ATOM    198  CB  GLU d   1      22.275   9.983 -12.302  0.00  0.00    -0.029 C 
ATOM    199  H   GLU d   1      21.265   9.984 -12.737  0.00  0.00     0.037 H 
ATOM    200  H   GLU d   1      22.221   9.672 -11.248  0.00  0.00     0.037 H 
BRANCH 198 201
ATOM    201  CG  GLU d   1      23.105   8.942 -13.053  0.00  0.00     0.018 C 
ATOM    202  H   GLU d   1      23.544   9.423 -13.940  0.00  0.00     0.049 H 
ATOM    203  H   GLU d   1      22.436   8.128 -13.370  0.00  0.00     0.049 H 
BRANCH 201 204
ATOM    204  CD  GLU d   1      24.231   8.342 -12.228  0.00  0.00     0.172 C 
ATOM    205  OE1 GLU d   1      24.491   8.825 -11.108  0.00  0.00    -0.648 OA
ATOM    206  OE2 GLU d   1      24.873   7.382 -12.703  0.00  0.00    -0.648 OA
ENDBRANCH 201 204
ENDBRANCH 198 201
ENDBRANCH 106 198
ENDBRANCH 104 106
ENDBRANCH   1 102
BRANCH   1 207
ATOM    207  CB  CYS d   1      27.199  13.525 -11.623  0.00  0.00     0.001 C 
ATOM    208  H   CYS d   1      28.162  13.429 -11.100  0.00  0.00     0.052 H 
ATOM    209  H   CYS d   1      26.790  14.533 -11.456  0.00  0.00     0.052 H 
BRANCH 207 210
ATOM    210  SG  CYS d   1      27.489  13.314 -13.392  0.00  0.00    -0.180 SA
ATOM    211  H   CYS d   1      28.137  14.017 -13.711  0.00  0.00     0.101 HD
ENDBRANCH 207 210
ENDBRANCH   1 207
TORSDOF 59
