REMARK WARNING: 32 MAX_TORS EXCEEDED!!!
REMARK  60 active torsions:
REMARK  status: ('A' for Active; 'I' for Inactive)
REMARK    1  A    between atoms: N_1  and  CA_2 
REMARK    2  A    between atoms: CA_2  and  C_3 
REMARK    3  A    between atoms: CA_2  and  CB_5 
REMARK       I    between atoms: C_3  and  N_9 
REMARK    4  A    between atoms: CB_5  and  CG_6 
REMARK    5  A    between atoms: CG_6  and  CD1_7 
REMARK    6  A    between atoms: CG_6  and  CD2_8 
REMARK    7  A    between atoms: N_9  and  CA_10 
REMARK    8  A    between atoms: CA_10  and  C_11 
REMARK    9  A    between atoms: CA_10  and  CB_13 
REMARK       I    between atoms: C_11  and  N_15 
REMARK   10  A    between atoms: CB_13  and  SG_14 
REMARK   11  A    between atoms: N_15  and  CA_16 
REMARK   12  A    between atoms: CA_16  and  C_17 
REMARK   13  A    between atoms: CA_16  and  CB_19 
REMARK       I    between atoms: C_17  and  N_21 
REMARK   14  A    between atoms: CB_19  and  OG_20 
REMARK   15  A    between atoms: N_21  and  CA_22 
REMARK   16  A    between atoms: CA_22  and  C_23 
REMARK   17  A    between atoms: CA_22  and  CB_25 
REMARK       I    between atoms: C_23  and  N_29 
REMARK   18  A    between atoms: CB_25  and  CG_26 
REMARK   19  A    between atoms: N_29  and  CA_30 
REMARK   20  A    between atoms: CA_30  and  C_31 
REMARK   21  A    between atoms: CA_30  and  CB_33 
REMARK       I    between atoms: C_31  and  N_40 
REMARK   22  A    between atoms: CB_33  and  CG_34 
REMARK   23  A    between atoms: CG_34  and  CD_35 
REMARK   24  A    between atoms: CD_35  and  NE_36 
REMARK       I    between atoms: NE_36  and  CZ_37 
REMARK       I    between atoms: CZ_37  and  NH1_38 
REMARK       I    between atoms: CZ_37  and  NH2_39 
REMARK   25  A    between atoms: N_40  and  CA_41 
REMARK   26  A    between atoms: CA_41  and  C_42 
REMARK       I    between atoms: C_42  and  N_44 
REMARK   27  A    between atoms: N_44  and  CA_45 
REMARK   28  A    between atoms: CA_45  and  C_46 
REMARK   29  A    between atoms: CA_45  and  CB_48 
REMARK       I    between atoms: C_46  and  N_50 
REMARK   30  A    between atoms: CB_48  and  SG_49 
REMARK   31  A    between atoms: N_50  and  CA_51 
REMARK   32  A    between atoms: CA_51  and  C_52 
REMARK   33  A    between atoms: CA_51  and  CB_54 
REMARK       I    between atoms: C_52  and  N_59 
REMARK   34  A    between atoms: CB_54  and  CG_55 
REMARK   35  A    between atoms: CG_55  and  CD_56 
REMARK   36  A    between atoms: N_59  and  CA_60 
REMARK   37  A    between atoms: CA_60  and  C_61 
REMARK   38  A    between atoms: CA_60  and  CB_63 
REMARK       I    between atoms: C_61  and  N_67 
REMARK   39  A    between atoms: CB_63  and  CG_64 
REMARK       I    between atoms: CG_64  and  ND2_66 
REMARK   40  A    between atoms: N_67  and  CA_68 
REMARK   41  A    between atoms: CA_68  and  C_69 
REMARK   42  A    between atoms: CA_68  and  CB_71 
REMARK       I    between atoms: C_69  and  N_78 
REMARK   43  A    between atoms: CB_71  and  CG_72 
REMARK   44  A    between atoms: CG_72  and  CD_73 
REMARK   45  A    between atoms: CD_73  and  NE_74 
REMARK       I    between atoms: NE_74  and  CZ_75 
REMARK       I    between atoms: CZ_75  and  NH1_76 
REMARK   46  A    between atoms: N_78  and  CA_79 
REMARK   47  A    between atoms: CA_79  and  C_80 
REMARK   48  A    between atoms: CA_79  and  CB_82 
REMARK       I    between atoms: C_80  and  N_92 
REMARK   49  A    between atoms: CB_82  and  CG_83 
REMARK   50  A    between atoms: N_92  and  CA_93 
REMARK   51  A    between atoms: CA_93  and  C_94 
REMARK   52  A    between atoms: CA_93  and  CB_96 
REMARK       I    between atoms: C_94  and  N_98 
REMARK   53  A    between atoms: CB_96  and  SG_97 
REMARK   54  A    between atoms: N_98  and  CA_99 
REMARK   55  A    between atoms: CA_99  and  C_100 
REMARK   56  A    between atoms: CA_99  and  CB_102 
REMARK       I    between atoms: C_100  and  N_107 
REMARK   57  A    between atoms: CB_102  and  CG_103 
REMARK   58  A    between atoms: CG_103  and  CD_104 
REMARK   59  A    between atoms: CD_104  and  CE_105 
REMARK   60  A    between atoms: CE_105  and  NZ_106 
ROOT
ATOM      1  CA  GLU d   1      22.126  11.162 -12.774  0.00  0.00     0.090 C 
ATOM      2  H   GLU d   1      22.026  11.319 -13.858  0.00  0.00     0.087 H 
ENDROOT
BRANCH   1   3
ATOM      3  N   GLU d   1      23.478  11.557 -12.383  0.00  0.00    -0.346 N 
ATOM      4  C   CYS d   1      24.092  12.614 -12.916  0.00  0.00     0.241 C 
ATOM      5  O   CYS d   1      23.555  13.349 -13.744  0.00  0.00    -0.271 OA
ATOM      6  H   GLU d   1      23.959  11.016 -11.693  0.00  0.00     0.163 HD
BRANCH   4   7
ATOM      7  CA  CYS d   1      25.513  12.922 -12.412  0.00  0.00     0.097 C 
ATOM      8  H   CYS d   1      25.444  13.816 -11.775  0.00  0.00     0.088 H 
BRANCH   7   9
ATOM      9  N   CYS d   1      26.091  11.858 -11.605  0.00  0.00    -0.346 N 
ATOM     10  C   GLY d   1      26.019  11.871 -10.269  0.00  0.00     0.236 C 
ATOM     11  O   GLY d   1      25.292  12.652  -9.637  0.00  0.00    -0.272 OA
ATOM     12  H   CYS d   1      26.554  11.098 -12.061  0.00  0.00     0.163 HD
BRANCH  10  13
ATOM     13  CA  GLY d   1      26.832  10.813  -9.544  0.00  0.00     0.069 C 
ATOM     14  H   GLY d   1      27.804  11.241  -9.258  0.00  0.00     0.078 H 
ATOM     15  H   GLY d   1      26.289  10.500  -8.640  0.00  0.00     0.078 H 
BRANCH  13  16
ATOM     16  N   GLY d   1      27.058   9.636 -10.400  0.00  0.00    -0.351 N 
ATOM     17  C   ARG d   1      28.233   9.012 -10.470  0.00  0.00     0.240 C 
ATOM     18  O   ARG d   1      29.127   9.121  -9.619  0.00  0.00    -0.271 OA
ATOM     19  H   GLY d   1      26.298   9.291 -10.951  0.00  0.00     0.163 HD
BRANCH  17  20
ATOM     20  CA  ARG d   1      28.412   8.119 -11.700  0.00  0.00     0.089 C 
ATOM     21  H   ARG d   1      27.434   7.952 -12.175  0.00  0.00     0.087 H 
BRANCH  20  22
ATOM     22  N   ARG d   1      29.284   8.827 -12.614  0.00  0.00    -0.346 N 
ATOM     23  C   ASP d   1      28.875   9.880 -13.312  0.00  0.00     0.241 C 
ATOM     24  O   ASP d   1      27.671  10.213 -13.431  0.00  0.00    -0.271 OA
ATOM     25  H   ARG d   1      30.227   8.512 -12.723  0.00  0.00     0.163 HD
BRANCH  23  26
ATOM     26  CA  ASP d   1      30.009  10.679 -13.972  0.00  0.00     0.098 C 
ATOM     27  H   ASP d   1      29.620  11.662 -14.276  0.00  0.00     0.088 H 
BRANCH  26  28
ATOM     28  N   ASP d   1      31.105  10.886 -13.000  0.00  0.00    -0.345 N 
ATOM     29  C   SER d   1      30.880  11.470 -11.824  0.00  0.00     0.243 C 
ATOM     30  O   SER d   1      29.767  11.895 -11.496  0.00  0.00    -0.271 OA
ATOM     31  H   ASP d   1      32.030  10.583 -13.229  0.00  0.00     0.163 HD
BRANCH  29  32
ATOM     32  CA  SER d   1      32.065  11.612 -10.865  0.00  0.00     0.109 C 
ATOM     33  H   SER d   1      32.988  11.297 -11.374  0.00  0.00     0.090 H 
BRANCH  32  34
ATOM     34  N   SER d   1      32.175  13.026 -10.476  0.00  0.00    -0.344 N 
ATOM     35  C   CYS d   1      32.669  13.956 -11.291  0.00  0.00     0.242 C 
ATOM     36  O   CYS d   1      33.133  13.694 -12.392  0.00  0.00    -0.271 OA
ATOM     37  H   SER d   1      31.867  13.300  -9.565  0.00  0.00     0.163 HD
BRANCH  35  38
ATOM     38  CA  CYS d   1      32.631  15.397 -10.785  0.00  0.00     0.097 C 
ATOM     39  H   CYS d   1      32.693  15.393  -9.687  0.00  0.00     0.088 H 
BRANCH  38  40
ATOM     40  N   CYS d   1      33.753  16.164 -11.314  0.00  0.00    -0.345 N 
ATOM     41  C   LEU d   1      34.678  16.720 -10.537  0.00  0.00     0.249 C 
ATOM     42  O   LEU d   1      34.648  16.667  -9.301  0.00  0.00    -0.271 OA
ATOM     43  H   CYS d   1      33.830  16.277 -12.305  0.00  0.00     0.163 HD
BRANCH  41  44
ATOM     44  CA  LEU d   1      35.796  17.476 -11.257  0.00  0.00     0.176 C 
ATOM     45  H   LEU d   1      35.859  17.102 -12.290  0.00  0.00     0.099 H 
BRANCH  44  46
ATOM     46  N   LEU d   1      35.482  18.940 -11.298  0.00  0.00    -0.066 N 
ATOM     47  H   LEU d   1      36.224  19.430 -11.774  0.00  0.00     0.275 HD
ATOM     48  H   LEU d   1      35.397  19.292 -10.357  0.00  0.00     0.275 HD
ATOM     49  H   LEU d   1      34.614  19.084 -11.790  0.00  0.00     0.275 HD
ENDBRANCH  44  46
BRANCH  44  50
ATOM     50  CB  LEU d   1      37.153  17.238 -10.571  0.00  0.00    -0.028 C 
ATOM     51  H   LEU d   1      37.038  17.552  -9.523  0.00  0.00     0.037 H 
ATOM     52  H   LEU d   1      37.881  17.893 -11.072  0.00  0.00     0.037 H 
BRANCH  50  53
ATOM     53  CG  LEU d   1      37.771  15.827 -10.545  0.00  0.00    -0.059 C 
ATOM     54  H   LEU d   1      38.858  15.961 -10.444  0.00  0.00     0.038 H 
BRANCH  53  55
ATOM     55  CD1 LEU d   1      37.311  15.008  -9.346  0.00  0.00    -0.073 C 
ATOM     56  H   LEU d   1      37.782  14.014  -9.379  0.00  0.00     0.028 H 
ATOM     57  H   LEU d   1      36.217  14.897  -9.376  0.00  0.00     0.028 H 
ATOM     58  H   LEU d   1      37.602  15.521  -8.418  0.00  0.00     0.028 H 
ENDBRANCH  53  55
BRANCH  53  59
ATOM     59  CD2 LEU d   1      37.533  15.064 -11.846  0.00  0.00    -0.073 C 
ATOM     60  H   LEU d   1      37.872  15.674 -12.696  0.00  0.00     0.028 H 
ATOM     61  H   LEU d   1      36.460  14.849 -11.954  0.00  0.00     0.028 H 
ATOM     62  H   LEU d   1      38.096  14.119 -11.825  0.00  0.00     0.028 H 
ENDBRANCH  53  59
ENDBRANCH  50  53
ENDBRANCH  44  50
ENDBRANCH  41  44
ENDBRANCH  38  40
BRANCH  38  63
ATOM     63  CB  CYS d   1      31.304  16.029 -11.210  0.00  0.00     0.001 C 
ATOM     64  H   CYS d   1      30.490  15.440 -10.761  0.00  0.00     0.052 H 
ATOM     65  H   CYS d   1      31.238  15.970 -12.306  0.00  0.00     0.052 H 
BRANCH  63  66
ATOM     66  SG  CYS d   1      31.067  17.764 -10.730  0.00  0.00    -0.180 SA
ATOM     67  H   CYS d   1      30.168  18.082 -11.056  0.00  0.00     0.101 HD
ENDBRANCH  63  66
ENDBRANCH  38  63
ENDBRANCH  35  38
ENDBRANCH  32  34
BRANCH  32  68
ATOM     68  CB  SER d   1      31.855  10.737  -9.610  0.00  0.00     0.044 C 
ATOM     69  H   SER d   1      31.028  11.158  -9.020  0.00  0.00     0.077 H 
ATOM     70  H   SER d   1      32.777  10.752  -9.011  0.00  0.00     0.077 H 
BRANCH  68  71
ATOM     71  OG  SER d   1      31.543   9.386  -9.935  0.00  0.00    -0.398 OA
ATOM     72  H   SER d   1      32.255   9.010 -10.439  0.00  0.00     0.209 HD
ENDBRANCH  68  71
ENDBRANCH  32  68
ENDBRANCH  29  32
ENDBRANCH  26  28
BRANCH  26  73
ATOM     73  CB  ASP d   1      30.513   9.943 -15.226  0.00  0.00     0.043 C 
ATOM     74  H   ASP d   1      29.693   9.892 -15.958  0.00  0.00     0.052 H 
ATOM     75  H   ASP d   1      30.813   8.924 -14.940  0.00  0.00     0.052 H 
BRANCH  73  76
ATOM     76  CG  ASP d   1      31.707  10.639 -15.877  0.00  0.00     0.175 C 
ATOM     77  OD1 ASP d   1      32.761  10.734 -15.211  0.00  0.00    -0.648 OA
ATOM     78  OD2 ASP d   1      31.590  11.085 -17.050  0.00  0.00    -0.648 OA
ENDBRANCH  73  76
ENDBRANCH  26  73
ENDBRANCH  23  26
ENDBRANCH  20  22
BRANCH  20  79
ATOM     79  CB  ARG d   1      29.014   6.770 -11.334  0.00  0.00    -0.036 C 
ATOM     80  H   ARG d   1      28.423   6.335 -10.515  0.00  0.00     0.036 H 
ATOM     81  H   ARG d   1      30.048   6.930 -10.995  0.00  0.00     0.036 H 
BRANCH  79  82
ATOM     82  CG  ARG d   1      29.032   5.787 -12.490  0.00  0.00    -0.048 C 
ATOM     83  H   ARG d   1      29.361   6.312 -13.399  0.00  0.00     0.035 H 
ATOM     84  H   ARG d   1      28.015   5.397 -12.641  0.00  0.00     0.035 H 
BRANCH  82  85
ATOM     85  CD  ARG d   1      29.969   4.625 -12.229  0.00  0.00     0.009 C 
ATOM     86  H   ARG d   1      29.636   3.759 -12.820  0.00  0.00     0.064 H 
ATOM     87  H   ARG d   1      29.934   4.373 -11.159  0.00  0.00     0.064 H 
BRANCH  85  88
ATOM     88  NE  ARG d   1      31.350   4.946 -12.596  0.00  0.00    -0.227 N 
ATOM     89  CZ  ARG d   1      32.331   4.050 -12.748  0.00  0.00     0.665 C 
ATOM     90  NH1 ARG d   1      32.116   2.758 -12.523  0.00  0.00    -0.235 N 
ATOM     91  NH2 ARG d   1      33.545   4.447 -13.109  0.00  0.00    -0.235 N 
ATOM     92  H   ARG d   1      32.882   2.080 -12.644  0.00  0.00     0.174 HD
ATOM     93  H   ARG d   1      31.184   2.435 -12.227  0.00  0.00     0.174 HD
ATOM     94  H   ARG d   1      33.729   5.445 -13.287  0.00  0.00     0.174 HD
ATOM     95  H   ARG d   1      34.303   3.757 -13.211  0.00  0.00     0.174 HD
ATOM     96  H   ARG d   1      31.584   5.938 -12.749  0.00  0.00     0.177 HD
ENDBRANCH  85  88
ENDBRANCH  82  85
ENDBRANCH  79  82
ENDBRANCH  20  79
ENDBRANCH  17  20
ENDBRANCH  13  16
ENDBRANCH  10  13
ENDBRANCH   7   9
BRANCH   7  97
ATOM     97  CB  CYS d   1      26.444  13.247 -13.578  0.00  0.00     0.001 C 
ATOM     98  H   CYS d   1      26.180  12.604 -14.431  0.00  0.00     0.052 H 
ATOM     99  H   CYS d   1      27.480  13.041 -13.271  0.00  0.00     0.052 H 
BRANCH  97 100
ATOM    100  SG  CYS d   1      26.326  14.966 -14.093  0.00  0.00    -0.180 SA
ATOM    101  H   CYS d   1      26.957  15.129 -14.862  0.00  0.00     0.101 HD
ENDBRANCH  97 100
ENDBRANCH   7  97
ENDBRANCH   4   7
ENDBRANCH   1   3
BRANCH   1 102
ATOM    102  C   GLU d   1      21.077  12.015 -12.068  0.00  0.00     0.241 C 
ATOM    103  O   GLU d   1      21.101  12.150 -10.848  0.00  0.00    -0.271 OA
ATOM    104  N   ASN d   1      20.166  12.595 -12.852  0.00  0.00    -0.346 N 
ATOM    105  H   ASN d   1      20.321  12.612 -13.840  0.00  0.00     0.163 HD
BRANCH 104 106
ATOM    106  CA  ASN d   1      18.946  13.209 -12.317  0.00  0.00     0.097 C 
ATOM    107  H   ASN d   1      18.411  13.693 -13.147  0.00  0.00     0.088 H 
BRANCH 106 108
ATOM    108  C   ASN d   1      19.261  14.296 -11.262  0.00  0.00     0.241 C 
ATOM    109  O   ASN d   1      18.685  14.310 -10.164  0.00  0.00    -0.271 OA
ATOM    110  N   ARG d   1      20.197  15.185 -11.599  0.00  0.00    -0.346 N 
ATOM    111  H   ARG d   1      20.583  15.153 -12.521  0.00  0.00     0.163 HD
BRANCH 110 112
ATOM    112  CA  ARG d   1      20.674  16.195 -10.676  0.00  0.00     0.089 C 
ATOM    113  H   ARG d   1      20.261  15.970  -9.682  0.00  0.00     0.087 H 
BRANCH 112 114
ATOM    114  C   ARG d   1      20.221  17.574 -11.085  0.00  0.00     0.241 C 
ATOM    115  O   ARG d   1      20.004  17.865 -12.273  0.00  0.00    -0.271 OA
ATOM    116  N   TRP d   1      20.109  18.434 -10.081  0.00  0.00    -0.346 N 
ATOM    117  H   TRP d   1      20.295  18.124  -9.149  0.00  0.00     0.163 HD
BRANCH 116 118
ATOM    118  CA  TRP d   1      19.722  19.815 -10.306  0.00  0.00     0.093 C 
ATOM    119  H   TRP d   1      19.017  19.843 -11.149  0.00  0.00     0.088 H 
BRANCH 118 120
ATOM    120  C   TRP d   1      20.934  20.671 -10.665  0.00  0.00     0.241 C 
ATOM    121  O   TRP d   1      22.045  20.448 -10.163  0.00  0.00    -0.271 OA
ATOM    122  N   CYS d   1      20.701  21.658 -11.534  0.00  0.00    -0.345 N 
ATOM    123  H   CYS d   1      19.791  21.738 -11.940  0.00  0.00     0.163 HD
BRANCH 122 124
ATOM    124  CA  CYS d   1      21.724  22.619 -11.910  0.00  0.00     0.097 C 
ATOM    125  H   CYS d   1      22.384  22.768 -11.043  0.00  0.00     0.088 H 
BRANCH 124 126
ATOM    126  C   CYS d   1      21.135  23.990 -12.303  0.00  0.00     0.241 C 
ATOM    127  O   CYS d   1      20.132  24.065 -13.000  0.00  0.00    -0.271 OA
ATOM    128  N   LYS d   1      21.792  25.042 -11.810  0.00  0.00    -0.346 N 
ATOM    129  H   LYS d   1      22.560  24.846 -11.200  0.00  0.00     0.163 HD
BRANCH 128 130
ATOM    130  CA  LYS d   1      21.500  26.463 -12.073  0.00  0.00     0.089 C 
ATOM    131  H   LYS d   1      20.597  26.753 -11.515  0.00  0.00     0.087 H 
BRANCH 130 132
ATOM    132  C   LYS d   1      21.287  26.776 -13.552  0.00  0.00     0.238 C 
ATOM    133  O   LYS d   1      20.425  27.579 -13.921  0.00  0.00    -0.271 OA
ATOM    134  N   NH2 d   1      22.102  26.160 -14.390  0.00  0.00    -0.368 N 
ATOM    135  H   NH2 d   1      22.020  26.318 -15.374  0.00  0.00     0.159 HD
ATOM    136  H   NH2 d   1      22.801  25.536 -14.040  0.00  0.00     0.159 HD
ENDBRANCH 130 132
BRANCH 130 137
ATOM    137  CB  LYS d   1      22.707  27.270 -11.579  0.00  0.00    -0.038 C 
ATOM    138  H   LYS d   1      23.516  27.149 -12.315  0.00  0.00     0.036 H 
ATOM    139  H   LYS d   1      23.023  26.846 -10.614  0.00  0.00     0.036 H 
BRANCH 137 140
ATOM    140  CG  LYS d   1      22.481  28.749 -11.381  0.00  0.00    -0.061 C 
ATOM    141  H   LYS d   1      21.433  28.916 -11.090  0.00  0.00     0.033 H 
ATOM    142  H   LYS d   1      22.687  29.273 -12.326  0.00  0.00     0.033 H 
BRANCH 140 143
ATOM    143  CD  LYS d   1      23.396  29.309 -10.291  0.00  0.00    -0.043 C 
ATOM    144  H   LYS d   1      23.561  28.527  -9.535  0.00  0.00     0.035 H 
ATOM    145  H   LYS d   1      22.898  30.171  -9.824  0.00  0.00     0.035 H 
BRANCH 143 146
ATOM    146  CE  LYS d   1      24.747  29.760 -10.825  0.00  0.00     0.080 C 
ATOM    147  H   LYS d   1      25.174  28.959 -11.446  0.00  0.00     0.075 H 
ATOM    148  H   LYS d   1      25.419  29.965  -9.978  0.00  0.00     0.075 H 
BRANCH 146 149
ATOM    149  NZ  LYS d   1      24.609  30.998 -11.650  0.00  0.00    -0.079 N 
ATOM    150  H   LYS d   1      25.515  31.277 -11.992  0.00  0.00     0.274 HD
ATOM    151  H   LYS d   1      24.221  31.737 -11.085  0.00  0.00     0.274 HD
ATOM    152  H   LYS d   1      23.997  30.816 -12.430  0.00  0.00     0.274 HD
ENDBRANCH 146 149
ENDBRANCH 143 146
ENDBRANCH 140 143
ENDBRANCH 137 140
ENDBRANCH 130 137
ENDBRANCH 128 130
ENDBRANCH 124 126
BRANCH 124 153
ATOM    153  CB  CYS d   1      22.554  22.076 -13.061  0.00  0.00     0.001 C 
ATOM    154  H   CYS d   1      21.977  22.190 -13.991  0.00  0.00     0.052 H 
ATOM    155  H   CYS d   1      22.748  21.009 -12.878  0.00  0.00     0.052 H 
BRANCH 153 156
ATOM    156  SG  CYS d   1      24.142  22.921 -13.264  0.00  0.00    -0.180 SA
ATOM    157  H   CYS d   1      24.641  22.515 -14.040  0.00  0.00     0.101 HD
ENDBRANCH 153 156
ENDBRANCH 124 153
ENDBRANCH 122 124
ENDBRANCH 118 120
BRANCH 118 158
ATOM    158  CB  TRP d   1      19.018  20.381  -9.065  0.00  0.00    -0.012 C 
ATOM    159  H   TRP d   1      19.728  20.391  -8.225  0.00  0.00     0.044 H 
ATOM    160  H   TRP d   1      18.162  19.737  -8.815  0.00  0.00     0.044 H 
BRANCH 158 161
ATOM    161  CG  TRP d   1      18.524  21.776  -9.301  0.00  0.00    -0.028 A 
ATOM    162  CD1 TRP d   1      17.323  22.147  -9.855  0.00  0.00    -0.015 A 
ATOM    163  NE1 TRP d   1      17.248  23.519  -9.930  0.00  0.00    -0.365 N 
ATOM    164  H   TRP d   1      16.547  21.459 -10.185  0.00  0.00     0.112 H 
ATOM    165  CE2 TRP d   1      18.414  24.054  -9.437  0.00  0.00     0.042 A 
ATOM    166  H   TRP d   1      16.449  24.057 -10.296  0.00  0.00     0.165 HD
ATOM    167  CD2 TRP d   1      19.239  22.979  -9.036  0.00  0.00    -0.002 A 
ATOM    168  CZ2 TRP d   1      18.812  25.388  -9.307  0.00  0.00    -0.056 A 
ATOM    169  CE3 TRP d   1      20.501  23.257  -8.495  0.00  0.00    -0.070 A 
ATOM    170  CZ3 TRP d   1      20.891  24.580  -8.365  0.00  0.00    -0.082 A 
ATOM    171  H   TRP d   1      21.159  22.453  -8.184  0.00  0.00     0.084 H 
ATOM    172  CH2 TRP d   1      20.049  25.627  -8.769  0.00  0.00    -0.081 A 
ATOM    173  H   TRP d   1      21.863  24.810  -7.944  0.00  0.00     0.083 H 
ATOM    174  H   TRP d   1      20.386  26.651  -8.652  0.00  0.00     0.083 H 
ATOM    175  H   TRP d   1      18.167  26.201  -9.620  0.00  0.00     0.086 H 
ENDBRANCH 158 161
ENDBRANCH 118 158
ENDBRANCH 116 118
ENDBRANCH 112 114
BRANCH 112 176
ATOM    176  CB  ARG d   1      22.204  16.196 -10.582  0.00  0.00    -0.036 C 
ATOM    177  H   ARG d   1      22.493  16.879  -9.770  0.00  0.00     0.036 H 
ATOM    178  H   ARG d   1      22.602  16.572 -11.536  0.00  0.00     0.036 H 
BRANCH 176 179
ATOM    179  CG  ARG d   1      22.844  14.848 -10.308  0.00  0.00    -0.048 C 
ATOM    180  H   ARG d   1      23.932  14.989 -10.227  0.00  0.00     0.035 H 
ATOM    181  H   ARG d   1      22.622  14.179 -11.152  0.00  0.00     0.035 H 
BRANCH 179 182
ATOM    182  CD  ARG d   1      22.348  14.194  -9.033  0.00  0.00     0.009 C 
ATOM    183  H   ARG d   1      22.881  13.243  -8.887  0.00  0.00     0.064 H 
ATOM    184  H   ARG d   1      21.269  13.999  -9.126  0.00  0.00     0.064 H 
BRANCH 182 185
ATOM    185  NE  ARG d   1      22.578  15.050  -7.877  0.00  0.00    -0.227 N 
ATOM    186  CZ  ARG d   1      23.673  15.054  -7.120  0.00  0.00     0.665 C 
ATOM    187  NH1 ARG d   1      24.673  14.195  -7.334  0.00  0.00    -0.235 N 
ATOM    188  NH2 ARG d   1      23.760  15.916  -6.109  0.00  0.00    -0.235 N 
ATOM    189  H   ARG d   1      25.510  14.219  -6.734  0.00  0.00     0.174 HD
ATOM    190  H   ARG d   1      24.608  13.509  -8.099  0.00  0.00     0.174 HD
ATOM    191  H   ARG d   1      22.995  16.583  -5.934  0.00  0.00     0.174 HD
ATOM    192  H   ARG d   1      24.592  15.915  -5.502  0.00  0.00     0.174 HD
ATOM    193  H   ARG d   1      21.828  15.709  -7.623  0.00  0.00     0.177 HD
ENDBRANCH 182 185
ENDBRANCH 179 182
ENDBRANCH 176 179
ENDBRANCH 112 176
ENDBRANCH 110 112
ENDBRANCH 106 108
BRANCH 106 194
ATOM    194  CB  ASN d   1      18.043  12.099 -11.740  0.00  0.00     0.036 C 
ATOM    195  H   ASN d   1      18.576  11.608 -10.912  0.00  0.00     0.051 H 
ATOM    196  H   ASN d   1      17.840  11.364 -12.533  0.00  0.00     0.051 H 
BRANCH 194 197
ATOM    197  CG  ASN d   1      16.718  12.628 -11.218  0.00  0.00     0.217 C 
ATOM    198  OD1 ASN d   1      16.035  13.385 -11.907  0.00  0.00    -0.274 OA
ATOM    199  ND2 ASN d   1      16.356  12.241  -9.983  0.00  0.00    -0.370 N 
ATOM    200  H   ASN d   1      15.493  12.561  -9.592  0.00  0.00     0.159 HD
ATOM    201  H   ASN d   1      16.950  11.633  -9.455  0.00  0.00     0.159 HD
ENDBRANCH 194 197
ENDBRANCH 106 194
ENDBRANCH 104 106
ENDBRANCH   1 102
BRANCH   1 202
ATOM    202  CB  GLU d   1      21.875   9.677 -12.477  0.00  0.00    -0.029 C 
ATOM    203  H   GLU d   1      20.852   9.434 -12.799  0.00  0.00     0.037 H 
ATOM    204  H   GLU d   1      21.962   9.528 -11.391  0.00  0.00     0.037 H 
BRANCH 202 205
ATOM    205  CG  GLU d   1      22.837   8.698 -13.170  0.00  0.00     0.018 C 
ATOM    206  H   GLU d   1      23.136   9.136 -14.134  0.00  0.00     0.049 H 
ATOM    207  H   GLU d   1      22.298   7.756 -13.347  0.00  0.00     0.049 H 
BRANCH 205 208
ATOM    208  CD  GLU d   1      24.100   8.380 -12.382  0.00  0.00     0.172 C 
ATOM    209  OE1 GLU d   1      24.840   7.438 -12.802  0.00  0.00    -0.648 OA
ATOM    210  OE2 GLU d   1      24.359   9.043 -11.342  0.00  0.00    -0.648 OA
ENDBRANCH 205 208
ENDBRANCH 202 205
ENDBRANCH   1 202
TORSDOF 60
