REMARK WARNING: 32 MAX_TORS EXCEEDED!!!
REMARK  47 active torsions:
REMARK  status: ('A' for Active; 'I' for Inactive)
REMARK    1  A    between atoms: N_1  and  CA_2 
REMARK    2  A    between atoms: CA_2  and  C_3 
REMARK       I    between atoms: C_3  and  N_5 
REMARK    3  A    between atoms: N_5  and  CA_6 
REMARK    4  A    between atoms: CA_6  and  C_7 
REMARK    5  A    between atoms: CA_6  and  CB_9 
REMARK       I    between atoms: C_7  and  N_11 
REMARK    6  A    between atoms: CB_9  and  SG_10 
REMARK    7  A    between atoms: N_11  and  CA_12 
REMARK    8  A    between atoms: CA_12  and  C_13 
REMARK    9  A    between atoms: CA_12  and  CB_15 
REMARK       I    between atoms: C_13  and  N_20 
REMARK   10  A    between atoms: CB_15  and  CG_16 
REMARK   11  A    between atoms: CG_16  and  CD_17 
REMARK       I    between atoms: CD_17  and  NE2_19 
REMARK   12  A    between atoms: N_20  and  CA_21 
REMARK   13  A    between atoms: CA_21  and  C_22 
REMARK   14  A    between atoms: CA_21  and  CB_24 
REMARK       I    between atoms: C_22  and  N_27 
REMARK   15  A    between atoms: CB_24  and  CG1_25 
REMARK   16  A    between atoms: CB_24  and  CG2_26 
REMARK   17  A    between atoms: N_27  and  CA_28 
REMARK   18  A    between atoms: CA_28  and  C_29 
REMARK   19  A    between atoms: CA_28  and  CB_31 
REMARK       I    between atoms: C_29  and  N_35 
REMARK   20  A    between atoms: CB_31  and  CG_32 
REMARK       I    between atoms: CG_32  and  ND2_34 
REMARK   21  A    between atoms: N_35  and  CA_36 
REMARK   22  A    between atoms: CA_36  and  C_37 
REMARK   23  A    between atoms: CA_36  and  CB_39 
REMARK       I    between atoms: C_37  and  N_47 
REMARK   24  A    between atoms: CB_39  and  CG_40 
REMARK   25  A    between atoms: CZ_45  and  OH_46 
REMARK   26  A    between atoms: N_47  and  CA_48 
REMARK   27  A    between atoms: CA_48  and  C_49 
REMARK   28  A    between atoms: CA_48  and  CB_51 
REMARK       I    between atoms: C_49  and  N_53 
REMARK   29  A    between atoms: CB_51  and  SG_52 
REMARK   30  A    between atoms: CA_54  and  C_55 
REMARK       I    between atoms: C_55  and  N_60 
REMARK   31  A    between atoms: CA_61  and  C_62 
REMARK       I    between atoms: C_62  and  N_67 
REMARK   32  A    between atoms: N_67  and  CA_68 
REMARK   33  A    between atoms: CA_68  and  C_69 
REMARK   34  A    between atoms: CA_68  and  CB_71 
REMARK       I    between atoms: C_69  and  N_74 
REMARK   35  A    between atoms: CB_71  and  CG1_72 
REMARK   36  A    between atoms: CB_71  and  CG2_73 
REMARK   37  A    between atoms: CA_75  and  C_76 
REMARK       I    between atoms: C_76  and  N_81 
REMARK   38  A    between atoms: N_81  and  CA_82 
REMARK   39  A    between atoms: CA_82  and  C_83 
REMARK   40  A    between atoms: CA_82  and  CB_85 
REMARK       I    between atoms: C_83  and  N_87 
REMARK   41  A    between atoms: CB_85  and  SG_86 
REMARK   42  A    between atoms: N_87  and  CA_88 
REMARK   43  A    between atoms: CA_88  and  C_89 
REMARK   44  A    between atoms: CA_88  and  CB_91 
REMARK       I    between atoms: C_89  and  N_95 
REMARK   45  A    between atoms: CB_91  and  CG_92 
REMARK   46  A    between atoms: CG_92  and  CD1_93 
REMARK   47  A    between atoms: CG_92  and  CD2_94 
ROOT
ATOM      1  CA  CYS d   1     -25.693   5.091 -34.639  0.00  0.00     0.097 C 
ATOM      2  H   CYS d   1     -25.445   5.981 -34.041  0.00  0.00     0.088 H 
ENDROOT
BRANCH   1   3
ATOM      3  N   CYS d   1     -24.841   3.979 -34.213  0.00  0.00    -0.345 N 
ATOM      4  C   TYR d   1     -23.634   4.175 -33.685  0.00  0.00     0.241 C 
ATOM      5  O   TYR d   1     -23.166   5.292 -33.459  0.00  0.00    -0.271 OA
ATOM      6  H   CYS d   1     -25.176   3.043 -34.322  0.00  0.00     0.163 HD
BRANCH   4   7
ATOM      7  CA  TYR d   1     -22.832   2.915 -33.375  0.00  0.00     0.093 C 
ATOM      8  H   TYR d   1     -21.963   3.182 -32.755  0.00  0.00     0.088 H 
BRANCH   7   9
ATOM      9  N   TYR d   1     -23.674   1.993 -32.630  0.00  0.00    -0.346 N 
ATOM     10  C   ASN d   1     -24.186   2.318 -31.445  0.00  0.00     0.241 C 
ATOM     11  O   ASN d   1     -23.785   3.262 -30.771  0.00  0.00    -0.271 OA
ATOM     12  H   TYR d   1     -23.873   1.093 -33.017  0.00  0.00     0.163 HD
BRANCH  10  13
ATOM     13  CA  ASN d   1     -25.353   1.471 -30.973  0.00  0.00     0.097 C 
ATOM     14  H   ASN d   1     -25.116   0.403 -31.089  0.00  0.00     0.088 H 
BRANCH  13  15
ATOM     15  N   ASN d   1     -25.661   1.746 -29.571  0.00  0.00    -0.346 N 
ATOM     16  C   VAL d   1     -26.109   0.825 -28.724  0.00  0.00     0.241 C 
ATOM     17  O   VAL d   1     -26.344  -0.341 -29.049  0.00  0.00    -0.271 OA
ATOM     18  H   ASN d   1     -25.527   2.677 -29.231  0.00  0.00     0.163 HD
BRANCH  16  19
ATOM     19  CA  VAL d   1     -26.380   1.324 -27.300  0.00  0.00     0.092 C 
ATOM     20  H   VAL d   1     -26.166   2.403 -27.273  0.00  0.00     0.088 H 
BRANCH  19  21
ATOM     21  N   VAL d   1     -27.797   1.136 -26.981  0.00  0.00    -0.346 N 
ATOM     22  C   GLN d   1     -28.598   2.178 -26.790  0.00  0.00     0.241 C 
ATOM     23  O   GLN d   1     -28.180   3.333 -26.747  0.00  0.00    -0.271 OA
ATOM     24  H   VAL d   1     -28.167   0.210 -26.906  0.00  0.00     0.163 HD
BRANCH  22  25
ATOM     25  CA  GLN d   1     -30.084   1.878 -26.599  0.00  0.00     0.090 C 
ATOM     26  H   GLN d   1     -30.670   2.694 -27.047  0.00  0.00     0.087 H 
BRANCH  25  27
ATOM     27  N   GLN d   1     -30.440   0.626 -27.271  0.00  0.00    -0.346 N 
ATOM     28  C   CYS d   1     -30.822   0.595 -28.546  0.00  0.00     0.241 C 
ATOM     29  O   CYS d   1     -31.007   1.609 -29.222  0.00  0.00    -0.271 OA
ATOM     30  H   GLN d   1     -30.395  -0.231 -26.757  0.00  0.00     0.163 HD
BRANCH  28  31
ATOM     31  CA  CYS d   1     -30.993  -0.794 -29.152  0.00  0.00     0.097 C 
ATOM     32  H   CYS d   1     -29.991  -1.235 -29.253  0.00  0.00     0.088 H 
BRANCH  31  33
ATOM     33  N   CYS d   1     -31.782  -1.671 -28.295  0.00  0.00    -0.346 N 
ATOM     34  C   GLY d   1     -31.354  -2.882 -27.955  0.00  0.00     0.243 C 
ATOM     35  O   GLY d   1     -30.269  -3.339 -28.320  0.00  0.00    -0.272 OA
ATOM     36  H   CYS d   1     -32.667  -1.353 -27.955  0.00  0.00     0.163 HD
BRANCH  34  37
ATOM     37  CA  GLY d   1     -32.272  -3.698 -27.071  0.00  0.00     0.152 C 
ATOM     38  H   GLY d   1     -32.868  -3.015 -26.447  0.00  0.00     0.090 H 
ATOM     39  H   GLY d   1     -32.943  -4.295 -27.706  0.00  0.00     0.090 H 
BRANCH  37  40
ATOM     40  N   GLY d   1     -31.500  -4.615 -26.185  0.00  0.00    -0.071 N 
ATOM     41  H   GLY d   1     -32.138  -5.143 -25.610  0.00  0.00     0.274 HD
ATOM     42  H   GLY d   1     -30.886  -4.075 -25.596  0.00  0.00     0.274 HD
ATOM     43  H   GLY d   1     -30.954  -5.247 -26.750  0.00  0.00     0.274 HD
ENDBRANCH  37  40
ENDBRANCH  34  37
ENDBRANCH  31  33
BRANCH  31  44
ATOM     44  CB  CYS d   1     -31.619  -0.730 -30.542  0.00  0.00     0.001 C 
ATOM     45  H   CYS d   1     -31.250   0.170 -31.056  0.00  0.00     0.052 H 
ATOM     46  H   CYS d   1     -32.712  -0.669 -30.436  0.00  0.00     0.052 H 
BRANCH  44  47
ATOM     47  SG  CYS d   1     -31.211  -2.180 -31.540  0.00  0.00    -0.180 SA
ATOM     48  H   CYS d   1     -31.644  -2.095 -32.446  0.00  0.00     0.101 HD
ENDBRANCH  44  47
ENDBRANCH  31  44
ENDBRANCH  28  31
ENDBRANCH  25  27
BRANCH  25  49
ATOM     49  CB  GLN d   1     -30.406   1.807 -25.103  0.00  0.00    -0.030 C 
ATOM     50  H   GLN d   1     -29.471   1.620 -24.555  0.00  0.00     0.037 H 
ATOM     51  H   GLN d   1     -31.101   0.971 -24.937  0.00  0.00     0.037 H 
BRANCH  49  52
ATOM     52  CG  GLN d   1     -31.042   3.079 -24.549  0.00  0.00     0.011 C 
ATOM     53  H   GLN d   1     -30.381   3.925 -24.787  0.00  0.00     0.047 H 
ATOM     54  H   GLN d   1     -31.124   2.974 -23.457  0.00  0.00     0.047 H 
BRANCH  52  55
ATOM     55  CD  GLN d   1     -32.431   3.390 -25.103  0.00  0.00     0.215 C 
ATOM     56  OE1 GLN d   1     -32.937   4.495 -24.903  0.00  0.00    -0.274 OA
ATOM     57  NE2 GLN d   1     -33.057   2.429 -25.790  0.00  0.00    -0.370 N 
ATOM     58  H   GLN d   1     -33.968   2.597 -26.168  0.00  0.00     0.159 HD
ATOM     59  H   GLN d   1     -32.615   1.543 -25.926  0.00  0.00     0.159 HD
ENDBRANCH  52  55
ENDBRANCH  49  52
ENDBRANCH  25  49
ENDBRANCH  22  25
ENDBRANCH  19  21
BRANCH  19  60
ATOM     60  CB  VAL d   1     -25.464   0.644 -26.263  0.00  0.00    -0.033 C 
ATOM     61  H   VAL d   1     -25.635  -0.442 -26.298  0.00  0.00     0.042 H 
BRANCH  60  62
ATOM     62  CG1 VAL d   1     -23.992   0.919 -26.577  0.00  0.00    -0.071 C 
ATOM     63  H   VAL d   1     -23.358   0.425 -25.826  0.00  0.00     0.028 H 
ATOM     64  H   VAL d   1     -23.809   2.003 -26.555  0.00  0.00     0.028 H 
ATOM     65  H   VAL d   1     -23.750   0.526 -27.576  0.00  0.00     0.028 H 
ENDBRANCH  60  62
BRANCH  60  66
ATOM     66  CG2 VAL d   1     -25.802   1.153 -24.864  0.00  0.00    -0.071 C 
ATOM     67  H   VAL d   1     -26.861   0.951 -24.646  0.00  0.00     0.028 H 
ATOM     68  H   VAL d   1     -25.617   2.236 -24.813  0.00  0.00     0.028 H 
ATOM     69  H   VAL d   1     -25.171   0.638 -24.124  0.00  0.00     0.028 H 
ENDBRANCH  60  66
ENDBRANCH  19  60
ENDBRANCH  16  19
ENDBRANCH  13  15
BRANCH  13  70
ATOM     70  CB  ASN d   1     -26.533   1.848 -31.861  0.00  0.00     0.036 C 
ATOM     71  H   ASN d   1     -26.288   1.585 -32.901  0.00  0.00     0.051 H 
ATOM     72  H   ASN d   1     -26.695   2.933 -31.786  0.00  0.00     0.051 H 
BRANCH  70  73
ATOM     73  CG  ASN d   1     -27.803   1.147 -31.477  0.00  0.00     0.217 C 
ATOM     74  OD1 ASN d   1     -28.021  -0.015 -31.832  0.00  0.00    -0.274 OA
ATOM     75  ND2 ASN d   1     -28.667   1.859 -30.757  0.00  0.00    -0.370 N 
ATOM     76  H   ASN d   1     -29.533   1.451 -30.468  0.00  0.00     0.159 HD
ATOM     77  H   ASN d   1     -28.450   2.802 -30.505  0.00  0.00     0.159 HD
ENDBRANCH  70  73
ENDBRANCH  13  70
ENDBRANCH  10  13
ENDBRANCH   7   9
BRANCH   7  78
ATOM     78  CB  TYR d   1     -22.327   2.287 -34.689  0.00  0.00    -0.014 C 
ATOM     79  H   TYR d   1     -23.194   1.929 -35.263  0.00  0.00     0.043 H 
ATOM     80  H   TYR d   1     -21.673   1.437 -34.444  0.00  0.00     0.043 H 
BRANCH  78  81
ATOM     81  CG  TYR d   1     -21.551   3.262 -35.545  0.00  0.00    -0.056 A 
ATOM     82  CD1 TYR d   1     -20.289   3.712 -35.162  0.00  0.00    -0.074 A 
ATOM     83  CE1 TYR d   1     -19.597   4.628 -35.940  0.00  0.00    -0.051 A 
ATOM     84  H   TYR d   1     -19.843   3.342 -34.246  0.00  0.00     0.084 H 
ATOM     85  CZ  TYR d   1     -20.157   5.096 -37.123  0.00  0.00     0.065 A 
ATOM     86  H   TYR d   1     -18.620   4.979 -35.626  0.00  0.00     0.087 H 
ATOM     87  CE2 TYR d   1     -21.401   4.655 -37.526  0.00  0.00    -0.051 A 
ATOM     88  CD2 TYR d   1     -22.086   3.750 -36.740  0.00  0.00    -0.074 A 
ATOM     89  H   TYR d   1     -21.836   5.016 -38.451  0.00  0.00     0.087 H 
ATOM     90  H   TYR d   1     -23.064   3.409 -37.058  0.00  0.00     0.084 H 
BRANCH  85  91
ATOM     91  OH  TYR d   1     -19.489   6.008 -37.915  0.00  0.00    -0.361 OA
ATOM     92  H   TYR d   1     -20.011   6.798 -37.996  0.00  0.00     0.217 HD
ENDBRANCH  85  91
ENDBRANCH  78  81
ENDBRANCH   7  78
ENDBRANCH   4   7
ENDBRANCH   1   3
BRANCH   1  93
ATOM     93  C   CYS d   1     -27.145   4.721 -34.403  0.00  0.00     0.244 C 
ATOM     94  O   CYS d   1     -27.483   3.540 -34.471  0.00  0.00    -0.271 OA
ATOM     95  N   PRO d   1     -28.001   5.717 -34.103  0.00  0.00    -0.337 N 
ATOM     96  CA  PRO d   1     -29.431   5.444 -33.863  0.00  0.00     0.092 C 
ATOM     97  CD  PRO d   1     -27.690   7.139 -33.867  0.00  0.00    -0.001 C 
ATOM     98  CB  PRO d   1     -30.055   6.836 -33.943  0.00  0.00    -0.036 C 
ATOM     99  H   PRO d   1     -29.563   5.017 -32.858  0.00  0.00     0.087 H 
ATOM    100  CG  PRO d   1     -29.007   7.709 -33.371  0.00  0.00    -0.048 C 
ATOM    101  H   PRO d   1     -30.980   6.889 -33.349  0.00  0.00     0.036 H 
ATOM    102  H   PRO d   1     -30.272   7.112 -34.986  0.00  0.00     0.036 H 
ATOM    103  H   PRO d   1     -29.046   7.687 -32.272  0.00  0.00     0.035 H 
ATOM    104  H   PRO d   1     -29.135   8.744 -33.722  0.00  0.00     0.035 H 
ATOM    105  H   PRO d   1     -27.373   7.632 -34.798  0.00  0.00     0.064 H 
ATOM    106  H   PRO d   1     -26.902   7.249 -33.107  0.00  0.00     0.064 H 
BRANCH  96 107
ATOM    107  C   PRO d   1     -30.090   4.500 -34.873  0.00  0.00     0.243 C 
ATOM    108  O   PRO d   1     -29.922   4.666 -36.081  0.00  0.00    -0.271 OA
ATOM    109  N   PRO d   1     -30.854   3.512 -34.382  0.00  0.00    -0.337 N 
ATOM    110  CA  PRO d   1     -31.453   2.526 -35.280  0.00  0.00     0.091 C 
ATOM    111  CD  PRO d   1     -31.088   3.175 -32.968  0.00  0.00    -0.001 C 
ATOM    112  CB  PRO d   1     -32.301   1.670 -34.348  0.00  0.00    -0.036 C 
ATOM    113  H   PRO d   1     -30.658   1.917 -35.736  0.00  0.00     0.087 H 
ATOM    114  CG  PRO d   1     -31.620   1.777 -33.038  0.00  0.00    -0.048 C 
ATOM    115  H   PRO d   1     -32.325   0.625 -34.691  0.00  0.00     0.036 H 
ATOM    116  H   PRO d   1     -33.328   2.059 -34.287  0.00  0.00     0.036 H 
ATOM    117  H   PRO d   1     -30.797   1.050 -32.974  0.00  0.00     0.035 H 
ATOM    118  H   PRO d   1     -32.333   1.597 -32.220  0.00  0.00     0.035 H 
ATOM    119  H   PRO d   1     -31.824   3.856 -32.516  0.00  0.00     0.064 H 
ATOM    120  H   PRO d   1     -30.151   3.213 -32.392  0.00  0.00     0.064 H 
BRANCH 110 121
ATOM    121  C   PRO d   1     -32.300   3.114 -36.408  0.00  0.00     0.241 C 
ATOM    122  O   PRO d   1     -32.973   4.139 -36.231  0.00  0.00    -0.271 OA
ATOM    123  N   VAL d   1     -32.226   2.451 -37.554  0.00  0.00    -0.346 N 
ATOM    124  H   VAL d   1     -31.595   1.677 -37.603  0.00  0.00     0.163 HD
BRANCH 123 125
ATOM    125  CA  VAL d   1     -32.998   2.770 -38.745  0.00  0.00     0.092 C 
ATOM    126  H   VAL d   1     -33.605   3.668 -38.560  0.00  0.00     0.088 H 
BRANCH 125 127
ATOM    127  C   VAL d   1     -33.935   1.584 -39.056  0.00  0.00     0.243 C 
ATOM    128  O   VAL d   1     -33.516   0.427 -38.994  0.00  0.00    -0.271 OA
ATOM    129  N   PRO d   1     -35.230   1.853 -39.340  0.00  0.00    -0.337 N 
ATOM    130  CA  PRO d   1     -36.089   0.720 -39.680  0.00  0.00     0.091 C 
ATOM    131  CD  PRO d   1     -36.006   3.100 -39.192  0.00  0.00    -0.001 C 
ATOM    132  CB  PRO d   1     -37.432   1.389 -40.009  0.00  0.00    -0.036 C 
ATOM    133  H   PRO d   1     -36.193   0.056 -38.809  0.00  0.00     0.087 H 
ATOM    134  CG  PRO d   1     -37.428   2.630 -39.192  0.00  0.00    -0.048 C 
ATOM    135  H   PRO d   1     -38.272   0.738 -39.726  0.00  0.00     0.036 H 
ATOM    136  H   PRO d   1     -37.497   1.627 -41.081  0.00  0.00     0.036 H 
ATOM    137  H   PRO d   1     -37.763   2.417 -38.166  0.00  0.00     0.035 H 
ATOM    138  H   PRO d   1     -38.084   3.389 -39.642  0.00  0.00     0.035 H 
ATOM    139  H   PRO d   1     -35.818   3.782 -40.034  0.00  0.00     0.064 H 
ATOM    140  H   PRO d   1     -35.760   3.607 -38.247  0.00  0.00     0.064 H 
BRANCH 130 141
ATOM    141  C   PRO d   1     -35.587  -0.114 -40.862  0.00  0.00     0.241 C 
ATOM    142  O   PRO d   1     -35.103   0.430 -41.863  0.00  0.00    -0.271 OA
ATOM    143  N   CYS d   1     -35.696  -1.430 -40.729  0.00  0.00    -0.345 N 
ATOM    144  H   CYS d   1     -36.165  -1.800 -39.927  0.00  0.00     0.163 HD
BRANCH 143 145
ATOM    145  CA  CYS d   1     -35.150  -2.351 -41.720  0.00  0.00     0.097 C 
ATOM    146  H   CYS d   1     -34.175  -1.950 -42.036  0.00  0.00     0.088 H 
BRANCH 145 147
ATOM    147  C   CYS d   1     -36.017  -2.487 -42.979  0.00  0.00     0.241 C 
ATOM    148  O   CYS d   1     -37.269  -2.396 -42.926  0.00  0.00    -0.271 OA
ATOM    149  N   LEU d   1     -35.341  -2.720 -44.101  0.00  0.00    -0.346 N 
ATOM    150  H   LEU d   1     -34.343  -2.658 -44.071  0.00  0.00     0.163 HD
BRANCH 149 151
ATOM    151  CA  LEU d   1     -35.971  -3.061 -45.376  0.00  0.00     0.089 C 
ATOM    152  H   LEU d   1     -37.053  -3.170 -45.211  0.00  0.00     0.087 H 
BRANCH 151 153
ATOM    153  C   LEU d   1     -35.420  -4.372 -45.916  0.00  0.00     0.238 C 
ATOM    154  O   LEU d   1     -36.179  -5.213 -46.411  0.00  0.00    -0.271 OA
ATOM    155  N   NH2 d   1     -34.100  -4.545 -45.824  0.00  0.00    -0.368 N 
ATOM    156  H   NH2 d   1     -33.681  -5.388 -46.163  0.00  0.00     0.159 HD
ATOM    157  H   NH2 d   1     -33.529  -3.832 -45.416  0.00  0.00     0.159 HD
ENDBRANCH 151 153
BRANCH 151 158
ATOM    158  CB  LEU d   1     -35.739  -1.965 -46.420  0.00  0.00    -0.035 C 
ATOM    159  H   LEU d   1     -36.160  -2.324 -47.371  0.00  0.00     0.037 H 
ATOM    160  H   LEU d   1     -34.652  -1.837 -46.525  0.00  0.00     0.037 H 
BRANCH 158 161
ATOM    161  CG  LEU d   1     -36.335  -0.588 -46.150  0.00  0.00    -0.059 C 
ATOM    162  H   LEU d   1     -35.980  -0.246 -45.167  0.00  0.00     0.038 H 
BRANCH 161 163
ATOM    163  CD1 LEU d   1     -35.861   0.404 -47.204  0.00  0.00    -0.073 C 
ATOM    164  H   LEU d   1     -36.297   1.393 -46.999  0.00  0.00     0.028 H 
ATOM    165  H   LEU d   1     -36.180   0.062 -48.200  0.00  0.00     0.028 H 
ATOM    166  H   LEU d   1     -34.764   0.474 -47.175  0.00  0.00     0.028 H 
ENDBRANCH 161 163
BRANCH 161 167
ATOM    167  CD2 LEU d   1     -37.853  -0.643 -46.112  0.00  0.00    -0.073 C 
ATOM    168  H   LEU d   1     -38.175  -1.364 -45.346  0.00  0.00     0.028 H 
ATOM    169  H   LEU d   1     -38.233  -0.958 -47.095  0.00  0.00     0.028 H 
ATOM    170  H   LEU d   1     -38.250   0.353 -45.868  0.00  0.00     0.028 H 
ENDBRANCH 161 167
ENDBRANCH 158 161
ENDBRANCH 151 158
ENDBRANCH 149 151
ENDBRANCH 145 147
BRANCH 145 171
ATOM    171  CB  CYS d   1     -34.913  -3.728 -41.089  0.00  0.00     0.001 C 
ATOM    172  H   CYS d   1     -34.372  -4.348 -41.819  0.00  0.00     0.052 H 
ATOM    173  H   CYS d   1     -35.894  -4.180 -40.880  0.00  0.00     0.052 H 
BRANCH 171 174
ATOM    174  SG  CYS d   1     -33.960  -3.719 -39.545  0.00  0.00    -0.180 SA
ATOM    175  H   CYS d   1     -33.857  -4.664 -39.209  0.00  0.00     0.101 HD
ENDBRANCH 171 174
ENDBRANCH 145 171
ENDBRANCH 143 145
ENDBRANCH 130 141
ENDBRANCH 125 127
BRANCH 125 176
ATOM    176  CB  VAL d   1     -32.032   3.051 -39.913  0.00  0.00    -0.033 C 
ATOM    177  H   VAL d   1     -31.316   2.218 -39.975  0.00  0.00     0.042 H 
BRANCH 176 178
ATOM    178  CG1 VAL d   1     -32.765   3.139 -41.244  0.00  0.00    -0.071 C 
ATOM    179  H   VAL d   1     -32.042   3.340 -42.048  0.00  0.00     0.028 H 
ATOM    180  H   VAL d   1     -33.503   3.953 -41.203  0.00  0.00     0.028 H 
ATOM    181  H   VAL d   1     -33.280   2.187 -41.443  0.00  0.00     0.028 H 
ENDBRANCH 176 178
BRANCH 176 182
ATOM    182  CG2 VAL d   1     -31.258   4.330 -39.636  0.00  0.00    -0.071 C 
ATOM    183  H   VAL d   1     -30.738   4.242 -38.671  0.00  0.00     0.028 H 
ATOM    184  H   VAL d   1     -31.955   5.180 -39.601  0.00  0.00     0.028 H 
ATOM    185  H   VAL d   1     -30.521   4.493 -40.436  0.00  0.00     0.028 H 
ENDBRANCH 176 182
ENDBRANCH 125 176
ENDBRANCH 123 125
ENDBRANCH 110 121
ENDBRANCH  96 107
ENDBRANCH   1  93
BRANCH   1 186
ATOM    186  CB  CYS d   1     -25.472   5.417 -36.131  0.00  0.00     0.001 C 
ATOM    187  H   CYS d   1     -24.482   5.886 -36.227  0.00  0.00     0.052 H 
ATOM    188  H   CYS d   1     -26.249   6.134 -36.435  0.00  0.00     0.052 H 
BRANCH 186 189
ATOM    189  SG  CYS d   1     -25.533   4.015 -37.286  0.00  0.00    -0.180 SA
ATOM    190  H   CYS d   1     -25.376   4.347 -38.225  0.00  0.00     0.101 HD
ENDBRANCH 186 189
ENDBRANCH   1 186
TORSDOF 47
