REMARK  10 active torsions:
REMARK  status: ('A' for Active; 'I' for Inactive)
REMARK    1  A    between atoms: C2_2  and  C1_1 
REMARK    2  A    between atoms: C2_2  and  C3_3 
REMARK    3  A    between atoms: C4_15  and  C2_2 
REMARK    4  A    between atoms: N6_4  and  C5_16 
REMARK    5  A    between atoms: C9_6  and  C23_24 
REMARK    6  A    between atoms: N16_20  and  C14_10 
REMARK    7  A    between atoms: C20_11  and  C21_12 
REMARK    8  A    between atoms: N19_23  and  C20_11 
REMARK    9  A    between atoms: C21_12  and  C22_13 
REMARK   10  A    between atoms: C5_16  and  C4_15 
REMARK       I    between atoms: C17_21  and  N16_20 
REMARK       I    between atoms: C17_21  and  N19_23 
ROOT
ATOM      1  N6  2B7 d   1      15.000  28.298   7.221  0.00  0.00    -0.306 N 
ATOM      2  C7  2B7 d   1      13.938  28.293   8.094  0.00  0.00     0.259 A 
ATOM      3  C9  2B7 d   1      12.976  29.444   8.051  0.00  0.00     0.046 A 
ATOM      4  C10 2B7 d   1      13.174  30.442   7.166  0.00  0.00    -0.036 A 
ATOM      5  C11 2B7 d   1      14.283  30.415   6.279  0.00  0.00     0.095 A 
ATOM      6  C12 2B7 d   1      15.143  29.364   6.353  0.00  0.00     0.111 A 
ATOM      7  C14 2B7 d   1      15.712  31.018   4.727  0.00  0.00     0.177 A 
ATOM      8  O8  2B7 d   1      13.793  27.356   8.884  0.00  0.00    -0.267 OA
ATOM      9  S13 2B7 d   1      16.432  29.511   5.207  0.00  0.00    -0.032 SA
ATOM     10  N15 2B7 d   1      14.614  31.361   5.354  0.00  0.00    -0.222 NA
ATOM     11  H8  2B7 d   1      12.476  31.277   7.131  0.00  0.00     0.088 H 
ENDROOT
BRANCH   1  12
ATOM     12  C5  2B7 d   1      15.963  27.197   7.277  0.00  0.00     0.004 C 
ATOM     13  H17 2B7 d   1      15.885  26.718   8.264  0.00  0.00     0.065 H 
ATOM     14  H18 2B7 d   1      16.973  27.613   7.150  0.00  0.00     0.065 H 
BRANCH  12  15
ATOM     15  C4  2B7 d   1      15.745  26.143   6.217  0.00  0.00    -0.047 C 
ATOM     16  H15 2B7 d   1      14.856  25.551   6.480  0.00  0.00     0.035 H 
ATOM     17  H16 2B7 d   1      15.581  26.639   5.249  0.00  0.00     0.035 H 
BRANCH  15  18
ATOM     18  C2  2B7 d   1      16.949  25.205   6.097  0.00  0.00    -0.060 C 
ATOM     19  H4  2B7 d   1      16.675  24.321   5.503  0.00  0.00     0.038 H 
BRANCH  18  20
ATOM     20  C1  2B7 d   1      17.341  24.771   7.504  0.00  0.00    -0.073 C 
ATOM     21  H1  2B7 d   1      18.206  24.094   7.451  0.00  0.00     0.028 H 
ATOM     22  H2  2B7 d   1      16.495  24.249   7.976  0.00  0.00     0.028 H 
ATOM     23  H3  2B7 d   1      17.604  25.657   8.101  0.00  0.00     0.028 H 
ENDBRANCH  18  20
BRANCH  18  24
ATOM     24  C3  2B7 d   1      18.098  25.933   5.410  0.00  0.00    -0.073 C 
ATOM     25  H5  2B7 d   1      17.788  26.234   4.398  0.00  0.00     0.028 H 
ATOM     26  H6  2B7 d   1      18.968  25.264   5.343  0.00  0.00     0.028 H 
ATOM     27  H7  2B7 d   1      18.367  26.826   5.993  0.00  0.00     0.028 H 
ENDBRANCH  18  24
ENDBRANCH  15  18
ENDBRANCH  12  15
ENDBRANCH   1  12
BRANCH   3  28
ATOM     28  C23 2B7 d   1      11.823  29.448   8.969  0.00  0.00    -0.003 A 
ATOM     29  C24 2B7 d   1      11.008  28.335   9.015  0.00  0.00    -0.069 A 
ATOM     30  C25 2B7 d   1       9.950  28.367   9.904  0.00  0.00    -0.065 A 
ATOM     31  H14 2B7 d   1      11.190  27.474   8.382  0.00  0.00     0.085 H 
ATOM     32  C26 2B7 d   1       9.767  29.480  10.688  0.00  0.00     0.002 A 
ATOM     33  H21 2B7 d   1       9.273  27.524   9.982  0.00  0.00     0.085 H 
ATOM     34  N27 2B7 d   1      10.523  30.589  10.677  0.00  0.00    -0.272 NA
ATOM     35  H22 2B7 d   1       8.934  29.461  11.381  0.00  0.00     0.114 H 
ATOM     36  C28 2B7 d   1      11.536  30.509   9.791  0.00  0.00     0.013 A 
ATOM     37  H23 2B7 d   1      12.190  31.370   9.721  0.00  0.00     0.116 H 
ENDBRANCH   3  28
BRANCH   7  38
ATOM     38  N16 2B7 d   1      16.237  31.800   3.727  0.00  0.00    -0.287 N 
ATOM     39  C17 2B7 d   1      17.464  31.493   3.143  0.00  0.00     0.326 C 
ATOM     40  O18 2B7 d   1      18.133  30.529   3.511  0.00  0.00    -0.247 OA
ATOM     41  N19 2B7 d   1      17.823  32.362   2.150  0.00  0.00    -0.319 N 
ATOM     42  H20 2B7 d   1      17.159  33.027   1.807  0.00  0.00     0.170 HD
ATOM     43  H19 2B7 d   1      15.730  32.603   3.413  0.00  0.00     0.172 HD
BRANCH  41  44
ATOM     44  C20 2B7 d   1      19.194  32.324   1.577  0.00  0.00    -0.022 C 
ATOM     45  H9  2B7 d   1      19.678  31.398   1.271  0.00  0.00     0.111 H 
BRANCH  44  46
ATOM     46  C21 2B7 d   1      19.844  33.639   1.457  0.00  0.00    -0.092 C 
ATOM     47  H10 2B7 d   1      20.854  33.684   1.052  0.00  0.00     0.078 H 
BRANCH  46  48
ATOM     48  C22 2B7 d   1      19.253  34.778   1.821  0.00  0.00    -0.058 C 
ATOM     49  H11 2B7 d   1      19.936  35.621   1.636  0.00  0.00     0.032 H 
ATOM     50  H12 2B7 d   1      19.004  34.736   2.892  0.00  0.00     0.032 H 
ATOM     51  H13 2B7 d   1      18.332  34.917   1.235  0.00  0.00     0.032 H 
ENDBRANCH  46  48
ENDBRANCH  44  46
ENDBRANCH  41  44
ENDBRANCH   7  38
TORSDOF 10
