REMARK  3 active torsions:
REMARK  status: ('A' for Active; 'I' for Inactive)
REMARK    1  A    between atoms: C13_16  and  O3_6 
REMARK    2  A    between atoms: C11_18  and  O2_8 
REMARK       I    between atoms: C9_13  and  N1_10 
REMARK    3  A    between atoms: C10_20  and  C9_13 
ROOT
ATOM      1  C6  PV1 d   1      18.917   1.833 -38.544  0.00  0.00    -0.082 A 
ATOM      2  C5  PV1 d   1      17.800   2.478 -38.008  0.00  0.00    -0.075 A 
ATOM      3  O1  PV1 d   1      12.471   0.032 -38.164  0.00  0.00    -0.267 OA
ATOM      4  C4  PV1 d   1      16.629   1.744 -37.923  0.00  0.00    -0.032 A 
ATOM      5  C3  PV1 d   1      16.587   0.357 -38.375  0.00  0.00    -0.032 A 
ATOM      6  C2  PV1 d   1      17.711  -0.264 -38.903  0.00  0.00    -0.075 A 
ATOM      7  C1  PV1 d   1      18.878   0.499 -38.981  0.00  0.00    -0.082 A 
ATOM      8  N1  PV1 d   1      14.436   1.000 -37.797  0.00  0.00    -0.339 N 
ATOM      9  C7  PV1 d   1      15.205  -0.199 -38.181  0.00  0.00     0.022 C 
ATOM     10  C8  PV1 d   1      15.272   2.159 -37.413  0.00  0.00     0.022 C 
ATOM     11  C9  PV1 d   1      13.101   1.017 -37.823  0.00  0.00     0.257 C 
ATOM     12  H   PV1 d   1      19.848   2.382 -38.626  0.00  0.00     0.083 H 
ATOM     13  H   PV1 d   1      17.848   3.508 -37.673  0.00  0.00     0.084 H 
ATOM     14  H   PV1 d   1      17.684  -1.294 -39.239  0.00  0.00     0.084 H 
ATOM     15  H   PV1 d   1      19.776   0.050 -39.389  0.00  0.00     0.083 H 
ATOM     16  H   PV1 d   1      15.188  -0.956 -37.383  0.00  0.00     0.071 H 
ATOM     17  H   PV1 d   1      14.818  -0.639 -39.112  0.00  0.00     0.071 H 
ATOM     18  H   PV1 d   1      14.926   3.082 -37.901  0.00  0.00     0.071 H 
ATOM     19  H   PV1 d   1      15.281   2.302 -36.322  0.00  0.00     0.071 H 
ENDROOT
BRANCH  11  20
ATOM     20  C10 PV1 d   1      12.351   2.270 -37.456  0.00  0.00     0.066 A 
ATOM     21  C11 PV1 d   1      11.664   3.075 -38.513  0.00  0.00     0.084 A 
ATOM     22  C12 PV1 d   1      10.961   4.231 -38.194  0.00  0.00    -0.017 A 
ATOM     23  C13 PV1 d   1      10.886   4.620 -36.850  0.00  0.00     0.085 A 
ATOM     24  H   PV1 d   1      10.481   4.819 -38.968  0.00  0.00     0.092 H 
ATOM     25  C14 PV1 d   1      11.556   3.806 -35.818  0.00  0.00     0.045 A 
ATOM     26 BR1  PV1 d   1      11.403   4.436 -34.048  0.00  0.00    -0.048 Br
ATOM     27  C15 PV1 d   1      12.263   2.655 -36.126  0.00  0.00    -0.045 A 
ATOM     28  H   PV1 d   1      12.736   2.069 -35.346  0.00  0.00     0.087 H 
BRANCH  21  29
ATOM     29  O2  PV1 d   1      11.750   2.667 -39.801  0.00  0.00    -0.360 OA
ATOM     30  H   PV1 d   1      10.877   2.506 -40.140  0.00  0.00     0.217 HD
ENDBRANCH  21  29
BRANCH  23  31
ATOM     31  O3  PV1 d   1      10.229   5.742 -36.399  0.00  0.00    -0.359 OA
ATOM     32  H   PV1 d   1       9.834   6.194 -37.135  0.00  0.00     0.217 HD
ENDBRANCH  23  31
ENDBRANCH  11  20
TORSDOF 3
