REMARK  3 active torsions:
REMARK  status: ('A' for Active; 'I' for Inactive)
REMARK       I    between atoms: N1_1  and  C2_2 
REMARK    1  A    between atoms: C2_2  and  C5_5 
REMARK    2  A    between atoms: C9_9  and  O14_14 
REMARK    3  A    between atoms: C18_18  and  O19_19 
ROOT
ATOM      1  N1  PFT d   1      14.213   1.133 -37.334  0.00  0.00    -0.298 N 
ATOM      2  C2  PFT d   1      12.791   1.124 -37.350  0.00  0.00     0.264 C 
ATOM      3  C3  PFT d   1      15.020   2.245 -36.952  0.00  0.00    -0.002 C 
ATOM      4  C4  PFT d   1      15.028   0.016 -37.701  0.00  0.00    -0.002 C 
ATOM      5  O6  PFT d   1      12.209   0.115 -37.709  0.00  0.00    -0.267 OA
ATOM      6  C7  PFT d   1      16.376   1.892 -37.488  0.00  0.00    -0.009 A 
ATOM      7  C8  PFT d   1      16.388   0.609 -37.924  0.00  0.00    -0.009 A 
ATOM      8  C11 PFT d   1      17.573   2.712 -37.588  0.00  0.00    -0.071 A 
ATOM      9  C12 PFT d   1      17.550   0.037 -38.484  0.00  0.00    -0.071 A 
ATOM     10  C16 PFT d   1      18.665   2.165 -38.117  0.00  0.00    -0.082 A 
ATOM     11  C17 PFT d   1      18.684   0.809 -38.581  0.00  0.00    -0.082 A 
ATOM     12  H   PFT d   1      14.723   3.137 -36.403  0.00  0.00     0.113 H 
ATOM     13  H   PFT d   1      14.729  -1.027 -37.797  0.00  0.00     0.113 H 
ATOM     14  H   PFT d   1      17.576   3.739 -37.242  0.00  0.00     0.084 H 
ATOM     15  H   PFT d   1      17.549  -0.990 -38.831  0.00  0.00     0.084 H 
ATOM     16  H   PFT d   1      19.566   2.762 -38.199  0.00  0.00     0.083 H 
ATOM     17  H   PFT d   1      19.590   0.393 -39.007  0.00  0.00     0.083 H 
ENDROOT
BRANCH   2  18
ATOM     18  C5  PFT d   1      12.028   2.402 -36.959  0.00  0.00     0.066 A 
ATOM     19  C9  PFT d   1      11.457   3.076 -37.959  0.00  0.00     0.084 A 
ATOM     20  C13 PFT d   1      10.737   4.238 -37.693  0.00  0.00    -0.018 A 
ATOM     21  C18 PFT d   1      10.620   4.677 -36.367  0.00  0.00     0.068 A 
ATOM     22  H   PFT d   1      10.274   4.795 -38.500  0.00  0.00     0.092 H 
ATOM     23  C15 PFT d   1      11.217   3.976 -35.337  0.00  0.00    -0.050 A 
ATOM     24  C10 PFT d   1      11.917   2.853 -35.600  0.00  0.00    -0.062 A 
ATOM     25  H   PFT d   1      11.123   4.329 -34.316  0.00  0.00     0.087 H 
ATOM     26  H   PFT d   1      12.389   2.299 -34.797  0.00  0.00     0.085 H 
BRANCH  19  27
ATOM     27  O14 PFT d   1      11.617   2.605 -39.235  0.00  0.00    -0.360 OA
ATOM     28  H   PFT d   1      10.765   2.422 -39.613  0.00  0.00     0.217 HD
ENDBRANCH  19  27
BRANCH  21  29
ATOM     29  O19 PFT d   1       9.916   5.834 -36.096  0.00  0.00    -0.361 OA
ATOM     30  H   PFT d   1       9.571   6.191 -36.906  0.00  0.00     0.217 HD
ENDBRANCH  21  29
ENDBRANCH   2  18
TORSDOF 3
