REMARK  4 active torsions:
REMARK  status: ('A' for Active; 'I' for Inactive)
REMARK    1  A    between atoms: C5_5  and  O2_1 
REMARK    2  A    between atoms: S_14  and  C2_2 
REMARK    3  A    between atoms: C3_7  and  O1_15 
REMARK    4  A    between atoms: N_16  and  S_14 
ROOT
ATOM      1  O3  PV2 d   1      12.223  -0.131 -37.307  0.00  0.00    -0.200 OA
ATOM      2  O4  PV2 d   1      13.250   0.489 -35.309  0.00  0.00    -0.200 OA
ATOM      3  S   PV2 d   1      12.894   0.930 -36.635  0.00  0.00     0.271 S 
ENDROOT
BRANCH   3   4
ATOM      4  C2  PV2 d   1      12.040   2.443 -36.546  0.00  0.00     0.113 A 
ATOM      5  C1  PV2 d   1      11.874   3.071 -35.294  0.00  0.00    -0.055 A 
ATOM      6  C6  PV2 d   1      11.199   4.279 -35.222  0.00  0.00    -0.049 A 
ATOM      7  H   PV2 d   1      12.271   2.612 -34.396  0.00  0.00     0.086 H 
ATOM      8  C5  PV2 d   1      10.682   4.860 -36.387  0.00  0.00     0.068 A 
ATOM      9  H   PV2 d   1      11.071   4.774 -34.266  0.00  0.00     0.087 H 
ATOM     10  C4  PV2 d   1      10.827   4.254 -37.615  0.00  0.00    -0.018 A 
ATOM     11  C3  PV2 d   1      11.523   3.030 -37.683  0.00  0.00     0.091 A 
ATOM     12  H   PV2 d   1      10.415   4.708 -38.509  0.00  0.00     0.092 H 
BRANCH   8  13
ATOM     13  O2  PV2 d   1      10.018   6.055 -36.315  0.00  0.00    -0.361 OA
ATOM     14  H   PV2 d   1       9.130   5.942 -36.634  0.00  0.00     0.217 HD
ENDBRANCH   8  13
BRANCH  11  15
ATOM     15  O1  PV2 d   1      11.664   2.401 -38.938  0.00  0.00    -0.359 OA
ATOM     16  H   PV2 d   1      12.151   1.592 -38.833  0.00  0.00     0.217 HD
ENDBRANCH  11  15
ENDBRANCH   3   4
BRANCH   3  17
ATOM     17  N   PV2 d   1      14.253   1.124 -37.554  0.00  0.00    -0.256 N 
ATOM     18  C10 PV2 d   1      15.124   2.156 -37.093  0.00  0.00     0.006 C 
ATOM     19  C9  PV2 d   1      16.441   1.806 -37.697  0.00  0.00    -0.008 A 
ATOM     20  H   PV2 d   1      14.883   3.001 -36.450  0.00  0.00     0.114 H 
ATOM     21  C14 PV2 d   1      17.629   2.518 -37.749  0.00  0.00    -0.071 A 
ATOM     22  C8  PV2 d   1      16.366   0.539 -38.255  0.00  0.00    -0.008 A 
ATOM     23  C13 PV2 d   1      18.704   1.889 -38.405  0.00  0.00    -0.082 A 
ATOM     24  H   PV2 d   1      17.725   3.504 -37.309  0.00  0.00     0.084 H 
ATOM     25  C12 PV2 d   1      18.627   0.619 -38.969  0.00  0.00    -0.082 A 
ATOM     26  H   PV2 d   1      19.644   2.424 -38.475  0.00  0.00     0.083 H 
ATOM     27  C11 PV2 d   1      17.460  -0.090 -38.916  0.00  0.00    -0.071 A 
ATOM     28  H   PV2 d   1      19.497   0.190 -39.453  0.00  0.00     0.083 H 
ATOM     29  H   PV2 d   1      17.372  -1.078 -39.353  0.00  0.00     0.084 H 
ATOM     30  C7  PV2 d   1      14.986   0.020 -38.064  0.00  0.00     0.006 C 
ATOM     31  H   PV2 d   1      14.619  -0.984 -38.270  0.00  0.00     0.114 H 
ENDBRANCH   3  17
TORSDOF 4
