REMARK  4 active torsions:
REMARK  status: ('A' for Active; 'I' for Inactive)
REMARK    1  A    between atoms: C02_3  and  O01_2 
REMARK    2  A    between atoms: S09_10  and  C08_9 
REMARK    3  A    between atoms: S09_10  and  N10_11 
REMARK    4  A    between atoms: C15_15  and  O16_16 
ROOT
ATOM      1  C11 PV8 d   1      15.035   2.238 -37.067  0.00  0.00    -0.012 C 
ATOM      2  N10 PV8 d   1      14.150   1.257 -37.634  0.00  0.00    -0.161 NA
ATOM      3  C12 PV8 d   1      16.386   1.895 -37.635  0.00  0.00    -0.013 A 
ATOM      4  C13 PV8 d   1      16.301   0.625 -38.181  0.00  0.00    -0.011 A 
ATOM      5  C14 PV8 d   1      17.399   0.030 -38.802  0.00  0.00    -0.039 A 
ATOM      6  C15 PV8 d   1      18.585   0.745 -38.844  0.00  0.00     0.066 A 
ATOM      7  C17 PV8 d   1      18.692   2.067 -38.279  0.00  0.00    -0.050 A 
ATOM      8  C18 PV8 d   1      17.631   2.640 -37.681  0.00  0.00    -0.069 A 
ATOM      9  C19 PV8 d   1      14.912   0.126 -38.003  0.00  0.00    -0.011 C 
ATOM     10  H   PV8 d   1      14.784   3.046 -36.382  0.00  0.00     0.105 H 
ATOM     11  H   PV8 d   1      17.327  -0.960 -39.238  0.00  0.00     0.089 H 
ATOM     12  H   PV8 d   1      19.633   2.603 -38.336  0.00  0.00     0.087 H 
ATOM     13  H   PV8 d   1      17.704   3.630 -37.246  0.00  0.00     0.085 H 
ATOM     14  H   PV8 d   1      14.557  -0.896 -38.130  0.00  0.00     0.105 H 
ENDROOT
BRANCH   2  15
ATOM     15  S09 PV8 d   1      12.829   1.020 -36.623  0.00  0.00     0.232 S 
ATOM     16  O20 PV8 d   1      12.100  -0.159 -37.262  0.00  0.00    -0.209 OA
ATOM     17  O21 PV8 d   1      13.196   0.591 -35.310  0.00  0.00    -0.209 OA
BRANCH  15  18
ATOM     18  C08 PV8 d   1      11.945   2.524 -36.567  0.00  0.00     0.121 A 
ATOM     19  C02 PV8 d   1      11.432   3.081 -37.741  0.00  0.00     0.069 A 
ATOM     20  C03 PV8 d   1      10.735   4.300 -37.656  0.00  0.00    -0.018 A 
ATOM     21  C04 PV8 d   1      10.588   4.891 -36.402  0.00  0.00     0.109 A 
ATOM     22  H   PV8 d   1      10.321   4.770 -38.547  0.00  0.00     0.091 H 
ATOM     23  O05 PV8 d   1       9.964   6.047 -36.311  0.00  0.00    -0.192 OA
ATOM     24  C06 PV8 d   1      11.102   4.340 -35.239  0.00  0.00    -0.050 A 
ATOM     25  C07 PV8 d   1      11.803   3.119 -35.305  0.00  0.00    -0.075 A 
ATOM     26  H   PV8 d   1      10.966   4.845 -34.284  0.00  0.00     0.087 H 
ATOM     27  H   PV8 d   1      12.218   2.656 -34.411  0.00  0.00     0.079 H 
ATOM     28  H   PV8 d   1      10.999   1.982 -36.423  0.00  0.00     0.083 H 
BRANCH  19  29
ATOM     29  O01 PV8 d   1      11.605   2.472 -38.934  0.00  0.00    -0.363 OA
ATOM     30  H   PV8 d   1      10.757   2.274 -39.313  0.00  0.00     0.217 HD
ENDBRANCH  19  29
ENDBRANCH  15  18
ENDBRANCH   2  15
BRANCH   6  31
ATOM     31  O16 PV8 d   1      19.667   0.164 -39.432  0.00  0.00    -0.361 OA
ATOM     32  H   PV8 d   1      20.406   0.760 -39.391  0.00  0.00     0.217 HD
ENDBRANCH   6  31
TORSDOF 4
