REMARK  10 active torsions:
REMARK  status: ('A' for Active; 'I' for Inactive)
REMARK    1  A    between atoms: C4_2  and  O5_16 
REMARK    2  A    between atoms: O5_16  and  C6_3 
REMARK    3  A    between atoms: C17_7  and  N16_22 
REMARK    4  A    between atoms: C24_11  and  C19_25 
REMARK       I    between atoms: N26_27  and  C24_11 
REMARK    5  A    between atoms: C27_28  and  C28_12 
REMARK    6  A    between atoms: C28_12  and  C29_29 
REMARK    7  A    between atoms: C14_20  and  C12_19 
REMARK       I    between atoms: N16_22  and  C14_20 
REMARK    8  A    between atoms: N26_27  and  C27_28 
REMARK    9  A    between atoms: C27_28  and  C31_31 
REMARK   10  A    between atoms: C29_29  and  N30_30 
ROOT
ATOM      1  C17 2C3 d   1      39.599  20.991 -35.504  0.00  0.00     0.057 A 
ATOM      2  C20 2C3 d   1      37.400  22.608 -34.962  0.00  0.00    -0.066 A 
ATOM      3  C21 2C3 d   1      37.796  21.674 -34.042  0.00  0.00    -0.059 A 
ATOM      4  C22 2C3 d   1      38.873  20.873 -34.324  0.00  0.00     0.060 A 
ATOM      5  C18 2C3 d   1      39.174  21.914 -36.451  0.00  0.00    -0.040 A 
ATOM      6 CL2  2C3 d   1      39.367  19.680 -33.176  0.00  0.00    -0.082 Cl
ATOM      7  C19 2C3 d   1      38.057  22.715 -36.203  0.00  0.00     0.034 A 
ATOM      8  H5  2C3 d   1      36.573  23.271 -34.733  0.00  0.00     0.085 H 
ATOM      9  H6  2C3 d   1      37.265  21.569 -33.103  0.00  0.00     0.086 H 
ATOM     10  H12 2C3 d   1      39.712  22.013 -37.387  0.00  0.00     0.088 H 
ENDROOT
BRANCH   7  11
ATOM     11  C24 2C3 d   1      37.581  23.675 -37.081  0.00  0.00     0.252 C 
ATOM     12  O25 2C3 d   1      36.699  24.459 -36.695  0.00  0.00    -0.268 OA
ATOM     13  N26 2C3 d   1      37.958  23.579 -38.368  0.00  0.00    -0.348 N 
ATOM     14  H13 2C3 d   1      38.561  22.828 -38.637  0.00  0.00     0.163 HD
BRANCH  13  15
ATOM     15  C27 2C3 d   1      37.513  24.549 -39.412  0.00  0.00     0.039 C 
ATOM     16  H14 2C3 d   1      36.592  25.045 -39.072  0.00  0.00     0.080 H 
BRANCH  15  17
ATOM     17  C28 2C3 d   1      37.248  23.867 -40.762  0.00  0.00    -0.020 C 
ATOM     18  H7  2C3 d   1      36.897  22.832 -40.633  0.00  0.00     0.038 H 
ATOM     19  H8  2C3 d   1      38.142  23.874 -41.403  0.00  0.00     0.038 H 
BRANCH  17  20
ATOM     20  C29 2C3 d   1      36.148  24.771 -41.317  0.00  0.00     0.082 C 
ATOM     21  H15 2C3 d   1      36.381  25.829 -41.127  0.00  0.00     0.075 H 
ATOM     22  H16 2C3 d   1      35.176  24.523 -40.865  0.00  0.00     0.075 H 
BRANCH  20  23
ATOM     23  N30 2C3 d   1      36.137  24.500 -42.720  0.00  0.00    -0.079 N 
ATOM     24  H17 2C3 d   1      35.430  25.063 -43.166  0.00  0.00     0.274 HD
ATOM     25  H18 2C3 d   1      35.934  23.524 -42.872  0.00  0.00     0.274 HD
ATOM     26  H19 2C3 d   1      37.039  24.721 -43.112  0.00  0.00     0.274 HD
ENDBRANCH  20  23
ENDBRANCH  17  20
ENDBRANCH  15  17
BRANCH  15  27
ATOM     27  C31 2C3 d   1      38.533  25.505 -39.596  0.00  0.00    -0.034 A 
ATOM     28  C32 2C3 d   1      38.329  26.803 -39.217  0.00  0.00    -0.054 A 
ATOM     29  C33 2C3 d   1      39.367  27.733 -39.362  0.00  0.00     0.034 A 
ATOM     30  H20 2C3 d   1      37.373  27.110 -38.808  0.00  0.00     0.087 H 
ATOM     31 CL3  2C3 d   1      39.090  29.323 -38.874  0.00  0.00    -0.084 Cl
ATOM     32  C35 2C3 d   1      40.589  27.390 -39.918  0.00  0.00    -0.062 A 
ATOM     33  C36 2C3 d   1      40.798  26.081 -40.318  0.00  0.00    -0.081 A 
ATOM     34  H21 2C3 d   1      41.368  28.134 -40.038  0.00  0.00     0.086 H 
ATOM     35  C37 2C3 d   1      39.770  25.151 -40.136  0.00  0.00    -0.075 A 
ATOM     36  H22 2C3 d   1      41.740  25.783 -40.764  0.00  0.00     0.083 H 
ATOM     37  H23 2C3 d   1      39.940  24.120 -40.424  0.00  0.00     0.084 H 
ENDBRANCH  15  27
ENDBRANCH  13  15
ENDBRANCH   7  11
BRANCH   1  38
ATOM     38  N16 2C3 d   1      40.565  20.038 -35.624  0.00  0.00    -0.321 N 
ATOM     39  C14 2C3 d   1      41.324  19.925 -36.739  0.00  0.00     0.261 C 
ATOM     40  O15 2C3 d   1      41.244  20.733 -37.652  0.00  0.00    -0.267 OA
ATOM     41  H11 2C3 d   1      40.718  19.404 -34.866  0.00  0.00     0.169 HD
BRANCH  39  42
ATOM     42  C12 2C3 d   1      42.175  18.798 -36.880  0.00  0.00     0.101 A 
ATOM     43  C10 2C3 d   1      42.382  17.804 -35.921  0.00  0.00     0.262 A 
ATOM     44  O11 2C3 d   1      41.811  17.878 -34.830  0.00  0.00    -0.267 OA
ATOM     45  N9  2C3 d   1      43.230  16.673 -36.185  0.00  0.00    -0.306 N 
ATOM     46  C8  2C3 d   1      43.876  16.537 -37.376  0.00  0.00     0.146 A 
ATOM     47  H9  2C3 d   1      43.347  15.973 -35.480  0.00  0.00     0.170 HD
ATOM     48  N7  2C3 d   1      44.708  15.495 -37.642  0.00  0.00    -0.188 NA
ATOM     49  C1  2C3 d   1      43.671  17.550 -38.308  0.00  0.00     0.029 A 
ATOM     50  C4  2C3 d   1      45.329  15.427 -38.862  0.00  0.00     0.269 A 
ATOM     51  N3  2C3 d   1      45.138  16.373 -39.797  0.00  0.00    -0.218 NA
ATOM     52  C2  2C3 d   1      44.315  17.476 -39.542  0.00  0.00     0.020 A 
ATOM     53  H10 2C3 d   1      44.182  18.253 -40.286  0.00  0.00     0.116 H 
ATOM     54  C13 2C3 d   1      42.832  18.634 -38.076  0.00  0.00    -0.047 A 
ATOM     55  H4  2C3 d   1      42.692  19.373 -38.863  0.00  0.00     0.086 H 
BRANCH  50  56
ATOM     56  O5  2C3 d   1      46.189  14.442 -39.274  0.00  0.00    -0.324 OA
BRANCH  56  57
ATOM     57  C6  2C3 d   1      45.979  13.149 -38.720  0.00  0.00     0.013 C 
ATOM     58  H1  2C3 d   1      46.727  12.451 -39.125  0.00  0.00     0.067 H 
ATOM     59  H2  2C3 d   1      44.970  12.798 -38.981  0.00  0.00     0.067 H 
ATOM     60  H3  2C3 d   1      46.078  13.198 -37.626  0.00  0.00     0.067 H 
ENDBRANCH  56  57
ENDBRANCH  50  56
ENDBRANCH  39  42
ENDBRANCH   1  38
TORSDOF 10
