REMARK  7 active torsions:
REMARK  status: ('A' for Active; 'I' for Inactive)
REMARK    1  A    between atoms: C4_2  and  O5_15 
REMARK    2  A    between atoms: O5_15  and  C6_3 
REMARK    3  A    between atoms: N16_21  and  C17_7 
REMARK    4  A    between atoms: C19_24  and  C24_11 
REMARK    5  A    between atoms: C24_11  and  O26_26 
REMARK    6  A    between atoms: C14_19  and  C12_18 
REMARK       I    between atoms: C14_19  and  N16_21 
REMARK    7  A    between atoms: O26_26  and  C27_27 
ROOT
ATOM      1  C14 2C4 d   1      40.190  20.562 -36.056  0.00  0.00     0.261 C 
ATOM      2  O15 2C4 d   1      40.114  21.456 -36.898  0.00  0.00    -0.267 OA
ATOM      3  N16 2C4 d   1      39.331  20.481 -35.024  0.00  0.00    -0.321 N 
ATOM      4  H9  2C4 d   1      39.406  19.723 -34.376  0.00  0.00     0.169 HD
ENDROOT
BRANCH   1   5
ATOM      5  C12 2C4 d   1      41.081  19.482 -36.209  0.00  0.00     0.101 A 
ATOM      6  C10 2C4 d   1      41.149  18.429 -35.293  0.00  0.00     0.262 A 
ATOM      7  O11 2C4 d   1      40.450  18.428 -34.265  0.00  0.00    -0.267 OA
ATOM      8  N9  2C4 d   1      42.031  17.356 -35.530  0.00  0.00    -0.306 N 
ATOM      9  C8  2C4 d   1      42.826  17.293 -36.682  0.00  0.00     0.146 A 
ATOM     10  H7  2C4 d   1      42.091  16.619 -34.857  0.00  0.00     0.170 HD
ATOM     11  N7  2C4 d   1      43.675  16.256 -36.925  0.00  0.00    -0.188 NA
ATOM     12  C1  2C4 d   1      42.737  18.361 -37.577  0.00  0.00     0.029 A 
ATOM     13  C4  2C4 d   1      44.444  16.266 -38.057  0.00  0.00     0.269 A 
ATOM     14  N3  2C4 d   1      44.386  17.269 -38.950  0.00  0.00    -0.218 NA
ATOM     15  C2  2C4 d   1      43.528  18.365 -38.718  0.00  0.00     0.020 A 
ATOM     16  H8  2C4 d   1      43.487  19.193 -39.416  0.00  0.00     0.116 H 
ATOM     17  C13 2C4 d   1      41.885  19.433 -37.340  0.00  0.00    -0.047 A 
ATOM     18  H4  2C4 d   1      41.847  20.252 -38.057  0.00  0.00     0.086 H 
BRANCH  13  19
ATOM     19  O5  2C4 d   1      45.328  15.289 -38.376  0.00  0.00    -0.324 OA
BRANCH  19  20
ATOM     20  C6  2C4 d   1      44.877  14.032 -37.855  0.00  0.00     0.013 C 
ATOM     21  H1  2C4 d   1      45.600  13.245 -38.118  0.00  0.00     0.067 H 
ATOM     22  H2  2C4 d   1      43.895  13.787 -38.286  0.00  0.00     0.067 H 
ATOM     23  H3  2C4 d   1      44.790  14.099 -36.761  0.00  0.00     0.067 H 
ENDBRANCH  19  20
ENDBRANCH  13  19
ENDBRANCH   1   5
BRANCH   3  24
ATOM     24  C17 2C4 d   1      38.381  21.400 -34.857  0.00  0.00     0.057 A 
ATOM     25  C22 2C4 d   1      37.807  21.322 -33.615  0.00  0.00     0.060 A 
ATOM     26  C21 2C4 d   1      36.780  22.162 -33.277  0.00  0.00    -0.059 A 
ATOM     27 CL2  2C4 d   1      38.373  20.155 -32.443  0.00  0.00    -0.082 Cl
ATOM     28  C20 2C4 d   1      36.310  23.091 -34.177  0.00  0.00    -0.065 A 
ATOM     29  H6  2C4 d   1      36.333  22.095 -32.292  0.00  0.00     0.086 H 
ATOM     30  C19 2C4 d   1      36.857  23.164 -35.443  0.00  0.00     0.041 A 
ATOM     31  H5  2C4 d   1      35.511  23.765 -33.892  0.00  0.00     0.085 H 
ATOM     32  C18 2C4 d   1      37.906  22.307 -35.799  0.00  0.00    -0.040 A 
ATOM     33  H10 2C4 d   1      38.340  22.350 -36.791  0.00  0.00     0.088 H 
BRANCH  30  34
ATOM     34  C24 2C4 d   1      36.338  24.122 -36.319  0.00  0.00     0.293 C 
ATOM     35  O25 2C4 d   1      35.444  24.900 -35.968  0.00  0.00    -0.259 OA
BRANCH  34  36
ATOM     36  O26 2C4 d   1      36.894  24.084 -37.573  0.00  0.00    -0.323 OA
BRANCH  36  37
ATOM     37  C27 2C4 d   1      36.420  25.111 -38.441  0.00  0.00     0.013 C 
ATOM     38  H11 2C4 d   1      36.908  25.016 -39.422  0.00  0.00     0.067 H 
ATOM     39  H12 2C4 d   1      36.655  26.095 -38.008  0.00  0.00     0.067 H 
ATOM     40  H13 2C4 d   1      35.331  25.015 -38.562  0.00  0.00     0.067 H 
ENDBRANCH  36  37
ENDBRANCH  34  36
ENDBRANCH  30  34
ENDBRANCH   3  24
TORSDOF 7
