REMARK  8 active torsions:
REMARK  status: ('A' for Active; 'I' for Inactive)
REMARK    1  A    between atoms: PAZ_2  and  OAQ_5 
REMARK    2  A    between atoms: OAQ_5  and  CAL_6 
REMARK    3  A    between atoms: CAL_6  and  CAT_7 
REMARK    4  A    between atoms: CAS_10  and  CAA_11 
REMARK    5  A    between atoms: CAU_12  and  OAB_13 
REMARK    6  A    between atoms: CAW_14  and  CAK_15 
REMARK    7  A    between atoms: CAK_15  and  NAM_16 
REMARK    8  A    between atoms: NAN_17  and  CAV_18 
ROOT
ATOM      1  CAT 2B1 d   1      24.257   7.358  28.399  0.00  0.00    -0.006 A 
ATOM      2  CAJ 2B1 d   1      25.203   8.361  28.346  0.00  0.00     0.011 A 
ATOM      3  NAO 2B1 d   1      24.855   9.717  28.341  0.00  0.00    -0.262 NA
ATOM      4  CAS 2B1 d   1      23.577  10.106  28.412  0.00  0.00     0.064 A 
ATOM      5  CAU 2B1 d   1      22.591   9.119  28.469  0.00  0.00     0.098 A 
ATOM      6  CAW 2B1 d   1      22.896   7.725  28.473  0.00  0.00     0.008 A 
ATOM      7  H   2B1 d   1      26.252   8.090  28.307  0.00  0.00     0.115 H 
ENDROOT
BRANCH   6   8
ATOM      8  CAK 2B1 d   1      21.952   6.686  28.531  0.00  0.00     0.061 C 
ATOM      9  H   2B1 d   1      22.298   5.946  29.267  0.00  0.00     0.077 H 
ATOM     10  H   2B1 d   1      21.894   6.216  27.538  0.00  0.00     0.077 H 
BRANCH   8  11
ATOM     11  NAM 2B1 d   1      20.614   7.118  28.911  0.00  0.00    -0.186 NA
ATOM     12  NAN 2B1 d   1      19.671   6.348  28.971  0.00  0.00    -0.127 NA
BRANCH  12  13
ATOM     13  CAV 2B1 d   1      18.506   6.892  29.365  0.00  0.00     0.214 A 
ATOM     14  NAP 2B1 d   1      17.324   6.275  29.423  0.00  0.00    -0.220 NA
ATOM     15  CAX 2B1 d   1      16.303   7.059  29.866  0.00  0.00     0.077 A 
ATOM     16  CAH 2B1 d   1      15.018   6.704  30.031  0.00  0.00    -0.054 A 
ATOM     17  CAY 2B1 d   1      16.669   8.338  30.170  0.00  0.00     0.037 A 
ATOM     18  CAF 2B1 d   1      14.065   7.616  30.484  0.00  0.00    -0.081 A 
ATOM     19  H   2B1 d   1      14.715   5.687  29.807  0.00  0.00     0.087 H 
ATOM     20  CAG 2B1 d   1      14.447   8.913  30.796  0.00  0.00    -0.082 A 
ATOM     21  H   2B1 d   1      13.030   7.313  30.592  0.00  0.00     0.083 H 
ATOM     22  CAI 2B1 d   1      15.786   9.244  30.625  0.00  0.00    -0.064 A 
ATOM     23  H   2B1 d   1      13.729   9.640  31.159  0.00  0.00     0.083 H 
ATOM     24  H   2B1 d   1      16.123  10.247  30.862  0.00  0.00     0.085 H 
ATOM     25  SAR 2B1 d   1      18.311   8.487  29.873  0.00  0.00    -0.046 SA
ENDBRANCH  12  13
ENDBRANCH   8  11
ENDBRANCH   6   8
BRANCH   1  26
ATOM     26  CAL 2B1 d   1      24.721   6.012  28.425  0.00  0.00     0.058 C 
ATOM     27  H   2B1 d   1      25.819   6.019  28.498  0.00  0.00     0.082 H 
ATOM     28  H   2B1 d   1      24.298   5.510  29.308  0.00  0.00     0.082 H 
BRANCH  26  29
ATOM     29  OAQ 2B1 d   1      24.342   5.275  27.250  0.00  0.00    -0.278 OA
BRANCH  29  30
ATOM     30  PAZ 2B1 d   1      24.257   3.632  27.315  0.00  0.00     0.422 P 
ATOM     31  OAC 2B1 d   1      23.985   3.125  25.822  0.00  0.00    -0.617 OA
ATOM     32  OAD 2B1 d   1      25.634   3.050  27.810  0.00  0.00    -0.617 OA
ATOM     33  OAE 2B1 d   1      23.052   3.249  28.272  0.00  0.00    -0.617 OA
ENDBRANCH  29  30
ENDBRANCH  26  29
ENDBRANCH   1  26
BRANCH   5  34
ATOM     34  OAB 2B1 d   1      21.305   9.555  28.546  0.00  0.00    -0.358 OA
ATOM     35  H   2B1 d   1      20.720   8.807  28.580  0.00  0.00     0.217 HD
ENDBRANCH   5  34
BRANCH   4  36
ATOM     36  CAA 2B1 d   1      23.272  11.490  28.411  0.00  0.00    -0.033 C 
ATOM     37  H   2B1 d   1      22.182  11.625  28.474  0.00  0.00     0.035 H 
ATOM     38  H   2B1 d   1      23.645  11.947  27.483  0.00  0.00     0.035 H 
ATOM     39  H   2B1 d   1      23.752  11.972  29.275  0.00  0.00     0.035 H 
ENDBRANCH   4  36
TORSDOF 8
