REMARK  10 active torsions:
REMARK  status: ('A' for Active; 'I' for Inactive)
REMARK    1  A    between atoms: C11_3  and  N4_4 
REMARK    2  A    between atoms: C9_7  and  S1_8 
REMARK    3  A    between atoms: S1_8  and  N2_11 
REMARK    4  A    between atoms: C2_13  and  C6_14 
REMARK    5  A    between atoms: C7_15  and  C8_16 
REMARK    6  A    between atoms: N1_19  and  C5_20 
REMARK    7  A    between atoms: C16_25  and  C19_26 
REMARK    8  A    between atoms: C19_26  and  C20_27 
REMARK    9  A    between atoms: C19_26  and  C21_31 
REMARK   10  A    between atoms: C19_26  and  O3_35 
ROOT
ATOM      1  N2  MG9 d   1      41.391 -22.203 -14.948  0.00  0.00    -0.202 NA
ATOM      2  C3  MG9 d   1      40.813 -20.856 -14.746  0.00  0.00     0.022 C 
ATOM      3  C2  MG9 d   1      39.385 -20.747 -15.383  0.00  0.00     0.083 C 
ATOM      4  C4  MG9 d   1      41.632 -22.428 -16.373  0.00  0.00     0.008 C 
ATOM      5  C1  MG9 d   1      40.323 -22.353 -17.152  0.00  0.00     0.008 C 
ATOM      6  N1  MG9 d   1      39.422 -21.245 -16.791  0.00  0.00    -0.363 N 
ATOM      7  H   MG9 d   1      41.472 -20.110 -15.214  0.00  0.00     0.061 H 
ATOM      8  H   MG9 d   1      40.740 -20.656 -13.667  0.00  0.00     0.061 H 
ATOM      9  H   MG9 d   1      38.989 -19.724 -15.305  0.00  0.00     0.095 H 
ATOM     10  H   MG9 d   1      42.080 -23.423 -16.512  0.00  0.00     0.059 H 
ATOM     11  H   MG9 d   1      42.322 -21.659 -16.750  0.00  0.00     0.059 H 
ATOM     12  H   MG9 d   1      39.780 -23.296 -16.990  0.00  0.00     0.066 H 
ATOM     13  H   MG9 d   1      40.571 -22.252 -18.219  0.00  0.00     0.066 H 
ENDROOT
BRANCH   6  14
ATOM     14  C5  MG9 d   1      38.406 -20.992 -17.679  0.00  0.00     0.031 A 
ATOM     15  C14 MG9 d   1      37.265 -20.354 -17.275  0.00  0.00    -0.057 A 
ATOM     16  C15 MG9 d   1      36.237 -20.112 -18.183  0.00  0.00    -0.071 A 
ATOM     17  H   MG9 d   1      37.161 -20.036 -16.244  0.00  0.00     0.086 H 
ATOM     18  C16 MG9 d   1      36.307 -20.497 -19.501  0.00  0.00    -0.006 A 
ATOM     19  H   MG9 d   1      35.346 -19.600 -17.837  0.00  0.00     0.084 H 
ATOM     20  C17 MG9 d   1      37.463 -21.130 -19.909  0.00  0.00    -0.071 A 
ATOM     21  C18 MG9 d   1      38.478 -21.402 -19.003  0.00  0.00    -0.057 A 
ATOM     22  H   MG9 d   1      37.579 -21.418 -20.948  0.00  0.00     0.084 H 
ATOM     23  H   MG9 d   1      39.351 -21.950 -19.338  0.00  0.00     0.086 H 
BRANCH  18  24
ATOM     24  C19 MG9 d   1      35.128 -20.228 -20.446  0.00  0.00     0.281 C 
BRANCH  24  25
ATOM     25  C20 MG9 d   1      34.743 -21.525 -21.168  0.00  0.00     0.431 C 
ATOM     26  F6  MG9 d   1      33.685 -21.316 -21.953  0.00  0.00    -0.167 F 
ATOM     27  F4  MG9 d   1      34.429 -22.488 -20.279  0.00  0.00    -0.167 F 
ATOM     28  F5  MG9 d   1      35.785 -21.915 -21.896  0.00  0.00    -0.167 F 
ENDBRANCH  24  25
BRANCH  24  29
ATOM     29  C21 MG9 d   1      35.413 -19.093 -21.432  0.00  0.00     0.431 C 
ATOM     30  F3  MG9 d   1      36.439 -19.368 -22.231  0.00  0.00    -0.167 F 
ATOM     31  F1  MG9 d   1      35.632 -17.970 -20.772  0.00  0.00    -0.167 F 
ATOM     32  F2  MG9 d   1      34.352 -18.893 -22.199  0.00  0.00    -0.167 F 
ENDBRANCH  24  29
BRANCH  24  33
ATOM     33  O3  MG9 d   1      34.015 -19.917 -19.656  0.00  0.00    -0.370 OA
ATOM     34  H   MG9 d   1      33.853 -20.627 -19.045  0.00  0.00     0.211 HD
ENDBRANCH  24  33
ENDBRANCH  18  24
ENDBRANCH   6  14
BRANCH   3  35
ATOM     35  C6  MG9 d   1      38.512 -21.756 -14.739  0.00  0.00    -0.080 C 
ATOM     36  C7  MG9 d   1      37.815 -22.587 -14.236  0.00  0.00    -0.109 C 
BRANCH  36  37
ATOM     37  C8  MG9 d   1      36.970 -23.617 -13.635  0.00  0.00    -0.021 C 
ATOM     38  H   MG9 d   1      36.406 -23.184 -12.796  0.00  0.00     0.044 H 
ATOM     39  H   MG9 d   1      37.600 -24.440 -13.267  0.00  0.00     0.044 H 
ATOM     40  H   MG9 d   1      36.268 -24.002 -14.389  0.00  0.00     0.044 H 
ENDBRANCH  36  37
ENDBRANCH   3  35
BRANCH   1  41
ATOM     41  S1  MG9 d   1      42.789 -22.330 -14.168  0.00  0.00     0.245 S 
ATOM     42  O1  MG9 d   1      43.532 -23.539 -14.635  0.00  0.00    -0.206 OA
ATOM     43  O2  MG9 d   1      42.445 -22.378 -12.728  0.00  0.00    -0.206 OA
BRANCH  41  44
ATOM     44  C9  MG9 d   1      43.717 -20.915 -14.461  0.00  0.00     0.092 A 
ATOM     45  C13 MG9 d   1      44.649 -20.877 -15.503  0.00  0.00    -0.056 A 
ATOM     46  C12 MG9 d   1      45.342 -19.693 -15.745  0.00  0.00    -0.038 A 
ATOM     47  H   MG9 d   1      44.829 -21.755 -16.113  0.00  0.00     0.086 H 
ATOM     48  C11 MG9 d   1      45.086 -18.585 -14.948  0.00  0.00     0.120 A 
ATOM     49  H   MG9 d   1      46.072 -19.637 -16.545  0.00  0.00     0.089 H 
ATOM     50  N3  MG9 d   1      44.182 -18.634 -13.939  0.00  0.00    -0.242 NA
ATOM     51  C10 MG9 d   1      43.504 -19.758 -13.684  0.00  0.00     0.026 A 
ATOM     52  H   MG9 d   1      42.785 -19.780 -12.873  0.00  0.00     0.117 H 
BRANCH  48  53
ATOM     53  N4  MG9 d   1      45.739 -17.471 -15.168  0.00  0.00    -0.384 N 
ATOM     54  H   MG9 d   1      45.557 -16.643 -14.583  0.00  0.00     0.157 HD
ATOM     55  H   MG9 d   1      46.434 -17.423 -15.926  0.00  0.00     0.157 HD
ENDBRANCH  48  53
ENDBRANCH  41  44
ENDBRANCH   1  41
TORSDOF 10
