REMARK  11 active torsions:
REMARK  status: ('A' for Active; 'I' for Inactive)
REMARK    1  A    between atoms: O1_1  and  C1_2 
REMARK    2  A    between atoms: C2_3  and  O1_1 
REMARK    3  A    between atoms: C4_5  and  O2_8 
REMARK    4  A    between atoms: O2_8  and  C5_7 
REMARK    5  A    between atoms: O3_10  and  C13_20 
REMARK    6  A    between atoms: C14_21  and  O3_10 
REMARK    7  A    between atoms: C9_16  and  C8_13 
REMARK    8  A    between atoms: C15_22  and  O4_14 
REMARK    9  A    between atoms: C16_18  and  C17_19 
REMARK   10  A    between atoms: C14_21  and  C15_22 
REMARK   11  A    between atoms: C11_23  and  C12_24 
ROOT
ATOM      1  C9  1K0 d   1      33.274  13.998  -3.981  0.00  0.00     0.011 A 
ATOM      2  C18 1K0 d   1      34.657  13.955  -4.122  0.00  0.00    -0.061 A 
ATOM      3  C16 1K0 d   1      35.253  13.086  -5.044  0.00  0.00    -0.027 A 
ATOM      4  C13 1K0 d   1      34.455  12.261  -5.785  0.00  0.00     0.080 A 
ATOM      5  C11 1K0 d   1      33.044  12.260  -5.683  0.00  0.00    -0.027 A 
ATOM      6  C10 1K0 d   1      32.437  13.160  -4.774  0.00  0.00    -0.061 A 
ATOM      7  H10 1K0 d   1      35.279  14.600  -3.512  0.00  0.00     0.085 H 
ATOM      8  H21 1K0 d   1      31.358  13.211  -4.683  0.00  0.00     0.085 H 
ENDROOT
BRANCH   1   9
ATOM      9  C8  1K0 d   1      32.693  14.844  -2.861  0.00  0.00     0.141 A 
ATOM     10  N1  1K0 d   1      33.543  15.743  -2.228  0.00  0.00    -0.306 N 
ATOM     11  C7  1K0 d   1      33.127  16.565  -1.118  0.00  0.00     0.262 A 
ATOM     12  H5  1K0 d   1      34.484  15.824  -2.556  0.00  0.00     0.170 HD
ATOM     13  C6  1K0 d   1      31.727  16.349  -0.728  0.00  0.00     0.094 A 
ATOM     14  O5  1K0 d   1      33.961  17.334  -0.619  0.00  0.00    -0.267 OA
ATOM     15  C4  1K0 d   1      31.158  17.089   0.310  0.00  0.00     0.088 A 
ATOM     16  C19 1K0 d   1      30.950  15.396  -1.411  0.00  0.00     0.080 A 
ATOM     17  C3  1K0 d   1      29.832  16.906   0.691  0.00  0.00    -0.018 A 
ATOM     18  C2  1K0 d   1      29.061  15.990   0.005  0.00  0.00     0.073 A 
ATOM     19  H4  1K0 d   1      29.412  17.474   1.513  0.00  0.00     0.092 H 
ATOM     20  C20 1K0 d   1      29.600  15.190  -1.046  0.00  0.00    -0.022 A 
ATOM     21  H22 1K0 d   1      28.993  14.447  -1.550  0.00  0.00     0.091 H 
ATOM     22  N2  1K0 d   1      31.423  14.623  -2.499  0.00  0.00    -0.229 NA
BRANCH  15  23
ATOM     23  O2  1K0 d   1      31.944  18.011   0.971  0.00  0.00    -0.355 OA
BRANCH  23  24
ATOM     24  C5  1K0 d   1      31.324  19.011   1.889  0.00  0.00     0.010 C 
ATOM     25  H6  1K0 d   1      32.109  19.652   2.316  0.00  0.00     0.066 H 
ATOM     26  H7  1K0 d   1      30.797  18.487   2.700  0.00  0.00     0.066 H 
ATOM     27  H8  1K0 d   1      30.609  19.631   1.327  0.00  0.00     0.066 H 
ENDBRANCH  23  24
ENDBRANCH  15  23
BRANCH  18  28
ATOM     28  O1  1K0 d   1      27.713  15.849   0.355  0.00  0.00    -0.356 OA
BRANCH  28  29
ATOM     29  C1  1K0 d   1      26.946  14.933  -0.455  0.00  0.00     0.010 C 
ATOM     30  H1  1K0 d   1      25.908  14.902  -0.091  0.00  0.00     0.066 H 
ATOM     31  H2  1K0 d   1      27.387  13.928  -0.389  0.00  0.00     0.066 H 
ATOM     32  H3  1K0 d   1      26.958  15.271  -1.502  0.00  0.00     0.066 H 
ENDBRANCH  28  29
ENDBRANCH  18  28
ENDBRANCH   1   9
BRANCH   3  33
ATOM     33  C17 1K0 d   1      36.762  13.061  -5.153  0.00  0.00    -0.049 C 
ATOM     34  H11 1K0 d   1      37.191  13.806  -4.467  0.00  0.00     0.033 H 
ATOM     35  H12 1K0 d   1      37.059  13.298  -6.185  0.00  0.00     0.033 H 
ATOM     36  H13 1K0 d   1      37.132  12.060  -4.886  0.00  0.00     0.033 H 
ENDBRANCH   3  33
BRANCH   5  37
ATOM     37  C12 1K0 d   1      32.209  11.279  -6.474  0.00  0.00    -0.049 C 
ATOM     38  H18 1K0 d   1      31.144  11.443  -6.254  0.00  0.00     0.033 H 
ATOM     39  H19 1K0 d   1      32.487  10.252  -6.195  0.00  0.00     0.033 H 
ATOM     40  H20 1K0 d   1      32.388  11.428  -7.549  0.00  0.00     0.033 H 
ENDBRANCH   5  37
BRANCH   4  41
ATOM     41  O3  1K0 d   1      35.083  11.314  -6.585  0.00  0.00    -0.348 OA
BRANCH  41  42
ATOM     42  C14 1K0 d   1      35.173  10.058  -5.876  0.00  0.00     0.045 C 
ATOM     43  H14 1K0 d   1      34.479   9.319  -6.303  0.00  0.00     0.078 H 
ATOM     44  H15 1K0 d   1      34.950  10.197  -4.808  0.00  0.00     0.078 H 
BRANCH  42  45
ATOM     45  C15 1K0 d   1      36.645   9.607  -6.075  0.00  0.00     0.037 C 
ATOM     46  H16 1K0 d   1      37.320  10.474  -6.126  0.00  0.00     0.077 H 
ATOM     47  H17 1K0 d   1      36.966   8.940  -5.261  0.00  0.00     0.077 H 
BRANCH  45  48
ATOM     48  O4  1K0 d   1      36.609   8.922  -7.305  0.00  0.00    -0.399 OA
ATOM     49  H9  1K0 d   1      36.314   9.514  -7.987  0.00  0.00     0.209 HD
ENDBRANCH  45  48
ENDBRANCH  42  45
ENDBRANCH  41  42
ENDBRANCH   4  41
TORSDOF 11
