REMARK  8 active torsions:
REMARK  status: ('A' for Active; 'I' for Inactive)
REMARK    1  A    between atoms: O1_1  and  C1_2 
REMARK    2  A    between atoms: C2_3  and  O1_1 
REMARK    3  A    between atoms: C4_5  and  O2_8 
REMARK    4  A    between atoms: O2_8  and  C5_7 
REMARK    5  A    between atoms: C13_19  and  O3_10 
REMARK    6  A    between atoms: C9_15  and  C8_13 
REMARK    7  A    between atoms: C16_17  and  C17_18 
REMARK    8  A    between atoms: C11_20  and  C12_21 
ROOT
ATOM      1  C2  1K0 d   1      44.580  -3.636  23.585  0.00  0.00     0.073 A 
ATOM      2  C3  1K0 d   1      43.429  -3.567  22.770  0.00  0.00    -0.018 A 
ATOM      3  C4  1K0 d   1      42.589  -4.662  22.694  0.00  0.00     0.088 A 
ATOM      4  N1  1K0 d   1      42.262  -8.098  24.154  0.00  0.00    -0.191 NA
ATOM      5  C6  1K0 d   1      42.841  -5.808  23.363  0.00  0.00     0.094 A 
ATOM      6  N2  1K0 d   1      44.172  -6.962  25.005  0.00  0.00    -0.339 N 
ATOM      7  C7  1K0 d   1      41.980  -6.966  23.297  0.00  0.00     0.284 A 
ATOM      8  C8  1K0 d   1      43.331  -8.053  24.963  0.00  0.00     0.142 A 
ATOM      9  O5  1K0 d   1      40.950  -7.045  22.510  0.00  0.00    -0.265 OA
ATOM     10  C19 1K0 d   1      43.962  -5.833  24.200  0.00  0.00     0.055 A 
ATOM     11  C20 1K0 d   1      44.846  -4.727  24.315  0.00  0.00    -0.024 A 
ATOM     12  H4  1K0 d   1      43.207  -2.666  22.210  0.00  0.00     0.092 H 
ATOM     13  H9  1K0 d   1      44.978  -6.976  25.646  0.00  0.00     0.167 HD
ATOM     14  H18 1K0 d   1      45.708  -4.765  24.972  0.00  0.00     0.091 H 
ENDROOT
BRANCH   8  15
ATOM     15  C9  1K0 d   1      43.674  -9.249  25.809  0.00  0.00     0.011 A 
ATOM     16  C18 1K0 d   1      44.968  -9.396  26.357  0.00  0.00    -0.061 A 
ATOM     17  C16 1K0 d   1      45.267 -10.550  27.015  0.00  0.00    -0.027 A 
ATOM     18  H10 1K0 d   1      45.706  -8.608  26.256  0.00  0.00     0.085 H 
ATOM     19  C13 1K0 d   1      44.301 -11.568  27.163  0.00  0.00     0.077 A 
ATOM     20  C11 1K0 d   1      43.027 -11.447  26.612  0.00  0.00    -0.027 A 
ATOM     21  C10 1K0 d   1      42.721 -10.240  25.932  0.00  0.00    -0.061 A 
ATOM     22  H17 1K0 d   1      41.734 -10.095  25.507  0.00  0.00     0.085 H 
BRANCH  17  23
ATOM     23  C17 1K0 d   1      46.698 -10.647  27.520  0.00  0.00    -0.049 C 
ATOM     24  H11 1K0 d   1      47.237  -9.720  27.275  0.00  0.00     0.033 H 
ATOM     25  H12 1K0 d   1      47.199 -11.500  27.040  0.00  0.00     0.033 H 
ATOM     26  H13 1K0 d   1      46.693 -10.791  28.610  0.00  0.00     0.033 H 
ENDBRANCH  17  23
BRANCH  19  27
ATOM     27  O3  1K0 d   1      44.561 -12.723  27.907  0.00  0.00    -0.360 OA
ATOM     28  H8  1K0 d   1      43.797 -13.287  27.892  0.00  0.00     0.217 HD
ENDBRANCH  19  27
BRANCH  20  29
ATOM     29  C12 1K0 d   1      42.055 -12.519  26.695  0.00  0.00    -0.049 C 
ATOM     30  H14 1K0 d   1      41.124 -12.210  26.197  0.00  0.00     0.033 H 
ATOM     31  H15 1K0 d   1      41.848 -12.745  27.751  0.00  0.00     0.033 H 
ATOM     32  H16 1K0 d   1      42.455 -13.416  26.200  0.00  0.00     0.033 H 
ENDBRANCH  20  29
ENDBRANCH   8  15
BRANCH   3  33
ATOM     33  O2  1K0 d   1      41.418  -4.555  21.946  0.00  0.00    -0.355 OA
BRANCH  33  34
ATOM     34  C5  1K0 d   1      41.020  -3.267  21.399  0.00  0.00     0.010 C 
ATOM     35  H5  1K0 d   1      40.077  -3.380  20.843  0.00  0.00     0.066 H 
ATOM     36  H6  1K0 d   1      41.804  -2.899  20.720  0.00  0.00     0.066 H 
ATOM     37  H7  1K0 d   1      40.878  -2.548  22.220  0.00  0.00     0.066 H 
ENDBRANCH  33  34
ENDBRANCH   3  33
BRANCH   1  38
ATOM     38  O1  1K0 d   1      45.438  -2.567  23.640  0.00  0.00    -0.356 OA
BRANCH  38  39
ATOM     39  C1  1K0 d   1      46.655  -2.647  24.380  0.00  0.00     0.010 C 
ATOM     40  H1  1K0 d   1      47.197  -1.693  24.299  0.00  0.00     0.066 H 
ATOM     41  H2  1K0 d   1      47.278  -3.458  23.975  0.00  0.00     0.066 H 
ATOM     42  H3  1K0 d   1      46.429  -2.852  25.437  0.00  0.00     0.066 H 
ENDBRANCH  38  39
ENDBRANCH   1  38
TORSDOF 8
