REMARK  6 active torsions:
REMARK  status: ('A' for Active; 'I' for Inactive)
REMARK    1  A    between atoms: C2_2  and  O30_22 
REMARK    2  A    between atoms: C6_6  and  O29_21 
REMARK    3  A    between atoms: C10_8  and  O27_20 
REMARK    4  A    between atoms: C11_9  and  C14_10 
REMARK    5  A    between atoms: C17_13  and  O24_19 
REMARK    6  A    between atoms: C18_14  and  O23_18 
ROOT
ATOM      1  C1  QUE d   1       8.208  23.775  29.536  0.00  0.00    -0.018 A 
ATOM      2  C2  QUE d   1       7.688  25.060  29.638  0.00  0.00     0.085 A 
ATOM      3  C3  QUE d   1       7.090  25.480  30.931  0.00  0.00     0.084 A 
ATOM      4  C4  QUE d   1       7.072  24.558  32.096  0.00  0.00     0.096 A 
ATOM      5  C5  QUE d   1       7.634  23.291  31.899  0.00  0.00    -0.017 A 
ATOM      6  C6  QUE d   1       8.183  22.915  30.656  0.00  0.00     0.071 A 
ATOM      7  C9  QUE d   1       6.514  26.822  31.097  0.00  0.00     0.223 A 
ATOM      8  C10 QUE d   1       5.937  27.199  32.422  0.00  0.00     0.152 A 
ATOM      9  C11 QUE d   1       5.977  26.215  33.528  0.00  0.00     0.123 A 
ATOM     10  O12 QUE d   1       6.535  24.963  33.320  0.00  0.00    -0.306 OA
ATOM     11  O13 QUE d   1       6.535  27.586  30.106  0.00  0.00    -0.284 OA
ATOM     12  H   QUE d   1       8.632  23.434  28.599  0.00  0.00     0.092 H 
ATOM     13  H   QUE d   1       7.647  22.584  32.720  0.00  0.00     0.092 H 
ENDROOT
BRANCH   9  14
ATOM     14  C14 QUE d   1       5.389  26.607  34.841  0.00  0.00     0.004 A 
ATOM     15  C15 QUE d   1       6.005  27.607  35.628  0.00  0.00    -0.068 A 
ATOM     16  C16 QUE d   1       5.448  27.989  36.864  0.00  0.00    -0.047 A 
ATOM     17  H   QUE d   1       6.913  28.084  35.277  0.00  0.00     0.085 H 
ATOM     18  C17 QUE d   1       4.268  27.369  37.324  0.00  0.00     0.098 A 
ATOM     19  H   QUE d   1       5.926  28.758  37.460  0.00  0.00     0.087 H 
ATOM     20  C18 QUE d   1       3.621  26.324  36.490  0.00  0.00     0.099 A 
ATOM     21  C19 QUE d   1       4.204  25.972  35.263  0.00  0.00    -0.035 A 
ATOM     22  H   QUE d   1       3.744  25.213  34.641  0.00  0.00     0.089 H 
BRANCH  18  23
ATOM     23  O24 QUE d   1       3.696  27.673  38.518  0.00  0.00    -0.358 OA
ATOM     24  H   QUE d   1       4.204  28.351  38.948  0.00  0.00     0.217 HD
ENDBRANCH  18  23
BRANCH  20  25
ATOM     25  O23 QUE d   1       2.478  25.736  36.934  0.00  0.00    -0.358 OA
ATOM     26  H   QUE d   1       2.241  26.104  37.777  0.00  0.00     0.217 HD
ENDBRANCH  20  25
ENDBRANCH   9  14
BRANCH   8  27
ATOM     27  O27 QUE d   1       5.371  28.416  32.641  0.00  0.00    -0.355 OA
ATOM     28  H   QUE d   1       5.419  28.934  31.846  0.00  0.00     0.218 HD
ENDBRANCH   8  27
BRANCH   2  29
ATOM     29  O30 QUE d   1       7.685  25.915  28.581  0.00  0.00    -0.360 OA
ATOM     30  H   QUE d   1       8.101  25.497  27.836  0.00  0.00     0.217 HD
ENDBRANCH   2  29
BRANCH   6  31
ATOM     31  O29 QUE d   1       8.722  21.655  30.568  0.00  0.00    -0.361 OA
ATOM     32  H   QUE d   1       9.058  21.516  29.690  0.00  0.00     0.217 HD
ENDBRANCH   6  31
TORSDOF 6
