REMARK  23 active torsions:
REMARK  status: ('A' for Active; 'I' for Inactive)
REMARK    1  A    between atoms: O1_12  and  C1_1 
REMARK    2  A    between atoms: C2_2  and  O2_7 
REMARK    3  A    between atoms: C3_3  and  O3_8 
REMARK    4  A    between atoms: C4_4  and  O4_9 
REMARK    5  A    between atoms: C5_5  and  C6_6 
REMARK    6  A    between atoms: C3_16  and  O1_12 
REMARK    7  A    between atoms: O4_35  and  C1_14 
REMARK    8  A    between atoms: C2_15  and  N2_22 
REMARK    9  A    between atoms: C4_17  and  O4_23 
REMARK   10  A    between atoms: C5_18  and  C6_19 
REMARK   11  A    between atoms: C6_19  and  O6_25 
REMARK   12  A    between atoms: C7_20  and  C8_21 
REMARK       I    between atoms: N2_22  and  C7_20 
REMARK   13  A    between atoms: O1_38  and  C1_27 
REMARK   14  A    between atoms: C2_28  and  O2_33 
REMARK   15  A    between atoms: C3_29  and  O3_34 
REMARK   16  A    between atoms: C4_30  and  O4_35 
REMARK   17  A    between atoms: C5_31  and  C6_32 
REMARK   18  A    between atoms: C3_42  and  O1_38 
REMARK   19  A    between atoms: N2_48  and  C2_41 
REMARK   20  A    between atoms: C4_43  and  O4_49 
REMARK   21  A    between atoms: C5_44  and  C6_45 
REMARK   22  A    between atoms: C6_45  and  O6_51 
REMARK   23  A    between atoms: C7_46  and  C8_47 
REMARK       I    between atoms: C7_46  and  N2_48 
ROOT
ATOM      1  H   BDP d   1       8.405 -14.352  11.939  0.00  0.00     0.132 H 
ATOM      2  H   BDP d   1       9.194 -11.370  11.824  0.00  0.00     0.084 H 
ATOM      3  H   BDP d   1       9.574 -13.622   9.762  0.00  0.00     0.091 H 
ATOM      4  H   BDP d   1      11.796 -12.377  11.451  0.00  0.00     0.091 H 
ATOM      5  H   BDP d   1      10.501 -15.124  11.735  0.00  0.00     0.090 H 
ATOM      6  C1  NAG d   1       8.733 -13.420  12.422  0.00  0.00     0.154 C 
ATOM      7  C2  NAG d   1       8.944 -12.341  11.371  0.00  0.00     0.087 C 
ATOM      8  C3  NAG d   1       9.985 -12.788  10.350  0.00  0.00     0.093 C 
ATOM      9  C4  NAG d   1      11.270 -13.249  11.035  0.00  0.00     0.089 C 
ATOM     10  C5  NAG d   1      10.953 -14.225  12.178  0.00  0.00     0.089 C 
ATOM     11  O5  NAG d   1       9.988 -13.650  13.076  0.00  0.00    -0.349 OA
ENDROOT
BRANCH   6  12
ATOM     12  O4  BDP d   1       7.713 -12.983  13.321  0.00  0.00    -0.348 OA
BRANCH  12  13
ATOM     13  C4  BDP d   1       7.093 -14.025  14.105  0.00  0.00     0.103 C 
ATOM     14  C3  BDP d   1       7.502 -13.818  15.566  0.00  0.00     0.092 C 
ATOM     15  C2  BDP d   1       6.666 -14.594  16.575  0.00  0.00     0.110 C 
ATOM     16  H   BDP d   1       7.358 -12.749  15.784  0.00  0.00     0.091 H 
ATOM     17  C1  BDP d   1       5.153 -14.537  16.293  0.00  0.00     0.160 C 
ATOM     18  H   BDP d   1       6.969 -15.651  16.537  0.00  0.00     0.094 H 
ATOM     19  O5  BDP d   1       4.865 -14.786  14.909  0.00  0.00    -0.340 OA
ATOM     20  H   BDP d   1       4.746 -13.564  16.606  0.00  0.00     0.133 H 
ATOM     21  C5  BDP d   1       5.558 -13.970  13.957  0.00  0.00     0.152 C 
ATOM     22  H   BDP d   1       5.249 -12.925  14.106  0.00  0.00     0.104 H 
ATOM     23  H   BDP d   1       7.450 -15.006  13.760  0.00  0.00     0.092 H 
BRANCH  14  24
ATOM     24  O3  BDP d   1       8.890 -14.119  15.765  0.00  0.00    -0.390 OA
ATOM     25  H   BDP d   1       9.418 -13.549  15.219  0.00  0.00     0.210 HD
ENDBRANCH  14  24
BRANCH  15  26
ATOM     26  O2  BDP d   1       6.986 -14.071  17.868  0.00  0.00    -0.388 OA
ATOM     27  H   BDP d   1       7.913 -14.190  18.036  0.00  0.00     0.210 HD
ENDBRANCH  15  26
BRANCH  17  28
ATOM     28  O1  NAG d   1       4.529 -15.620  17.001  0.00  0.00    -0.348 OA
BRANCH  28  29
ATOM     29  C3  NAG d   1       3.200 -15.425  17.489  0.00  0.00     0.090 C 
ATOM     30  C2  NAG d   1       3.049 -16.301  18.735  0.00  0.00     0.060 C 
ATOM     31  C1  NAG d   1       1.657 -16.071  19.314  0.00  0.00     0.041 C 
ATOM     32  H   BDP d   1       3.212 -17.362  18.495  0.00  0.00     0.080 H 
ATOM     33  O5  NAG d   1       0.688 -16.549  18.379  0.00  0.00    -0.379 OA
ATOM     34  H   BDP d   1       1.502 -14.996  19.491  0.00  0.00     0.077 H 
ATOM     35  H   BDP d   1       1.556 -16.617  20.264  0.00  0.00     0.077 H 
ATOM     36  C5  NAG d   1       0.755 -16.065  17.019  0.00  0.00     0.086 C 
ATOM     37  C4  NAG d   1       2.166 -15.877  16.449  0.00  0.00     0.089 C 
ATOM     38  H   BDP d   1       0.252 -15.087  16.991  0.00  0.00     0.090 H 
ATOM     39  H   BDP d   1       2.502 -16.847  16.053  0.00  0.00     0.091 H 
ATOM     40  H   BDP d   1       3.040 -14.366  17.739  0.00  0.00     0.090 H 
BRANCH  30  41
ATOM     41  N2  NAG d   1       4.008 -15.825  19.739  0.00  0.00    -0.352 N 
ATOM     42  C7  NAG d   1       5.081 -16.490  20.195  0.00  0.00     0.214 C 
ATOM     43  O7  NAG d   1       5.422 -17.608  19.830  0.00  0.00    -0.274 OA
ATOM     44  H   BDP d   1       3.846 -14.915  20.121  0.00  0.00     0.163 HD
BRANCH  42  45
ATOM     45  C8  NAG d   1       5.860 -15.741  21.230  0.00  0.00    -0.003 C 
ATOM     46  H   BDP d   1       6.719 -16.348  21.553  0.00  0.00     0.040 H 
ATOM     47  H   BDP d   1       5.214 -15.531  22.095  0.00  0.00     0.040 H 
ATOM     48  H   BDP d   1       6.220 -14.793  20.803  0.00  0.00     0.040 H 
ENDBRANCH  42  45
ENDBRANCH  30  41
BRANCH  36  49
ATOM     49  C6  NAG d   1       0.003 -17.035  16.117  0.00  0.00     0.043 C 
ATOM     50  H   BDP d   1       0.415 -18.049  16.232  0.00  0.00     0.078 H 
ATOM     51  H   BDP d   1       0.095 -16.718  15.068  0.00  0.00     0.078 H 
BRANCH  49  52
ATOM     52  O6  NAG d   1      -1.368 -17.021  16.509  0.00  0.00    -0.398 OA
ATOM     53  H   BDP d   1      -1.715 -16.142  16.411  0.00  0.00     0.209 HD
ENDBRANCH  49  52
ENDBRANCH  36  49
BRANCH  37  54
ATOM     54  O4  NAG d   1       2.092 -14.943  15.360  0.00  0.00    -0.390 OA
ATOM     55  H   BDP d   1       2.959 -14.815  14.995  0.00  0.00     0.210 HD
ENDBRANCH  37  54
ENDBRANCH  28  29
ENDBRANCH  17  28
BRANCH  21  56
ATOM     56  C6  BDP d   1       5.116 -14.415  12.591  0.00  0.00     0.206 C 
ATOM     57  O6A BDP d   1       5.471 -15.537  12.160  0.00  0.00    -0.646 OA
ATOM     58  O6B BDP d   1       4.394 -13.628  11.936  0.00  0.00    -0.646 OA
ENDBRANCH  21  56
ENDBRANCH  12  13
ENDBRANCH   6  12
BRANCH   7  59
ATOM     59  N2  NAG d   1       7.719 -12.317  10.602  0.00  0.00    -0.349 N 
ATOM     60  C7  NAG d   1       6.881 -11.287  10.584  0.00  0.00     0.214 C 
ATOM     61  O7  NAG d   1       7.051 -10.264  11.221  0.00  0.00    -0.274 OA
ATOM     62  H   BDP d   1       7.490 -13.121  10.053  0.00  0.00     0.163 HD
BRANCH  60  63
ATOM     63  C8  NAG d   1       5.689 -11.480   9.698  0.00  0.00    -0.003 C 
ATOM     64  H   BDP d   1       5.051 -10.585   9.742  0.00  0.00     0.040 H 
ATOM     65  H   BDP d   1       5.117 -12.355  10.039  0.00  0.00     0.040 H 
ATOM     66  H   BDP d   1       6.024 -11.641   8.663  0.00  0.00     0.040 H 
ENDBRANCH  60  63
ENDBRANCH   7  59
BRANCH   8  67
ATOM     67  O1  NAG d   1      10.284 -11.700   9.484  0.00  0.00    -0.348 OA
BRANCH  67  68
ATOM     68  C1  BDP d   1      10.302 -11.961   8.071  0.00  0.00     0.160 C 
ATOM     69  C2  BDP d   1      10.509 -10.610   7.407  0.00  0.00     0.110 C 
ATOM     70  C3  BDP d   1      10.584 -10.753   5.886  0.00  0.00     0.092 C 
ATOM     71  H   BDP d   1      11.447 -10.164   7.768  0.00  0.00     0.094 H 
ATOM     72  C4  BDP d   1      11.581 -11.826   5.449  0.00  0.00     0.097 C 
ATOM     73  H   BDP d   1       9.586 -11.050   5.532  0.00  0.00     0.091 H 
ATOM     74  C5  BDP d   1      11.437 -13.098   6.288  0.00  0.00     0.152 C 
ATOM     75  H   BDP d   1      12.604 -11.438   5.564  0.00  0.00     0.091 H 
ATOM     76  O5  BDP d   1      11.382 -12.818   7.697  0.00  0.00    -0.340 OA
ATOM     77  H   BDP d   1      10.504 -13.604   6.000  0.00  0.00     0.104 H 
ATOM     78  H   BDP d   1       9.348 -12.411   7.757  0.00  0.00     0.133 H 
BRANCH  69  79
ATOM     79  O2  BDP d   1       9.414  -9.783   7.782  0.00  0.00    -0.388 OA
ATOM     80  H   BDP d   1       8.605 -10.170   7.470  0.00  0.00     0.210 HD
ENDBRANCH  69  79
BRANCH  70  81
ATOM     81  O3  BDP d   1      10.936  -9.512   5.252  0.00  0.00    -0.390 OA
ATOM     82  H   BDP d   1      10.903  -9.619   4.309  0.00  0.00     0.210 HD
ENDBRANCH  70  81
BRANCH  72  83
ATOM     83  O4  BDP d   1      11.333 -12.129   4.064  0.00  0.00    -0.390 OA
ATOM     84  H   BDP d   1      11.960 -12.777   3.765  0.00  0.00     0.210 HD
ENDBRANCH  72  83
BRANCH  74  85
ATOM     85  C6  BDP d   1      12.603 -14.008   5.988  0.00  0.00     0.206 C 
ATOM     86  O6A BDP d   1      13.637 -13.881   6.698  0.00  0.00    -0.646 OA
ATOM     87  O6B BDP d   1      12.485 -14.855   5.054  0.00  0.00    -0.646 OA
ENDBRANCH  74  85
ENDBRANCH  67  68
ENDBRANCH   8  67
BRANCH  10  88
ATOM     88  C6  NAG d   1      12.228 -14.665  12.910  0.00  0.00     0.043 C 
ATOM     89  H   BDP d   1      13.053 -13.992  12.633  0.00  0.00     0.078 H 
ATOM     90  H   BDP d   1      12.478 -15.694  12.612  0.00  0.00     0.078 H 
BRANCH  88  91
ATOM     91  O6  NAG d   1      12.043 -14.620  14.331  0.00  0.00    -0.398 OA
ATOM     92  H   BDP d   1      11.830 -13.732  14.594  0.00  0.00     0.209 HD
ENDBRANCH  88  91
ENDBRANCH  10  88
BRANCH   9  93
ATOM     93  O4  NAG d   1      12.095 -13.871  10.035  0.00  0.00    -0.390 OA
ATOM     94  H   BDP d   1      12.275 -13.247   9.342  0.00  0.00     0.210 HD
ENDBRANCH   9  93
TORSDOF 23
