REMARK  0 active torsions:
REMARK  status: ('A' for Active; 'I' for Inactive)
ROOT
ATOM      1  CAE 2CK d   1       9.930  -6.460   0.873  0.00  0.00     0.086 C 
ATOM      2  CAF 2CK d   1       9.174  -5.659  -0.214  0.00  0.00    -0.018 C 
ATOM      3  CAI 2CK d   1      10.004  -4.768  -0.938  0.00  0.00    -0.049 A 
ATOM      4  CAC 2CK d   1       9.423  -4.070  -1.985  0.00  0.00    -0.076 A 
ATOM      5  CAA 2CK d   1      10.155  -3.170  -2.761  0.00  0.00    -0.082 A 
ATOM      6  CAB 2CK d   1      11.508  -2.953  -2.479  0.00  0.00    -0.082 A 
ATOM      7  CAD 2CK d   1      12.118  -3.663  -1.432  0.00  0.00    -0.075 A 
ATOM      8  CAJ 2CK d   1      11.368  -4.566  -0.649  0.00  0.00    -0.026 A 
ATOM      9  CAG 2CK d   1      11.998  -5.276   0.404  0.00  0.00     0.106 C 
ATOM     10  NAH 2CK d   1      11.054  -5.715   1.452  0.00  0.00    -0.071 N 
ATOM     11  H   2CK d   1      10.317  -7.385   0.422  0.00  0.00     0.076 H 
ATOM     12  H   2CK d   1       9.224  -6.712   1.678  0.00  0.00     0.076 H 
ATOM     13  H   2CK d   1       8.378  -5.076   0.273  0.00  0.00     0.042 H 
ATOM     14  H   2CK d   1       8.726  -6.371  -0.923  0.00  0.00     0.042 H 
ATOM     15  H   2CK d   1       8.374  -4.227  -2.207  0.00  0.00     0.084 H 
ATOM     16  H   2CK d   1       9.678  -2.642  -3.578  0.00  0.00     0.083 H 
ATOM     17  H   2CK d   1      12.081  -2.243  -3.064  0.00  0.00     0.083 H 
ATOM     18  H   2CK d   1      13.172  -3.516  -1.224  0.00  0.00     0.084 H 
ATOM     19  H   2CK d   1      12.753  -4.622   0.865  0.00  0.00     0.083 H 
ATOM     20  H   2CK d   1      12.491  -6.164  -0.018  0.00  0.00     0.083 H 
ATOM     21  H   2CK d   1      11.540  -6.309   2.105  0.00  0.00     0.277 HD
ATOM     22  H   2CK d   1      10.698  -4.905   1.935  0.00  0.00     0.277 HD
ENDROOT
TORSDOF 0
