REMARK  3 active torsions:
REMARK  status: ('A' for Active; 'I' for Inactive)
REMARK    1  A    between atoms: NAB_1  and  CAH_2 
REMARK    2  A    between atoms: CAG_4  and  CAA_5 
REMARK    3  A    between atoms: CAI_9  and  NAC_10 
ROOT
ATOM      1  CAH 2CQ d   1       1.807   4.130 -10.103  0.00  0.00     0.052 A 
ATOM      2  CAE 2CQ d   1       1.359   4.995  -9.080  0.00  0.00    -0.048 A 
ATOM      3  CAG 2CQ d   1       0.553   4.521  -8.017  0.00  0.00    -0.038 A 
ATOM      4  CAJ 2CQ d   1       0.238   3.151  -8.003  0.00  0.00     0.042 A 
ATOM      5 CL   2CQ d   1      -0.703   2.479  -6.707  0.00  0.00    -0.084 Cl
ATOM      6  CAF 2CQ d   1       0.695   2.284  -9.005  0.00  0.00    -0.034 A 
ATOM      7  CAI 2CQ d   1       1.480   2.759 -10.057  0.00  0.00     0.053 A 
ATOM      8  H   2CQ d   1       1.638   6.042  -9.110  0.00  0.00     0.087 H 
ATOM      9  H   2CQ d   1       0.436   1.232  -8.963  0.00  0.00     0.089 H 
ENDROOT
BRANCH   3  10
ATOM     10  CAA 2CQ d   1       0.067   5.396  -6.975  0.00  0.00    -0.050 C 
ATOM     11  H   2CQ d   1       0.419   6.421  -7.163  0.00  0.00     0.033 H 
ATOM     12  H   2CQ d   1       0.445   5.052  -6.001  0.00  0.00     0.033 H 
ATOM     13  H   2CQ d   1      -1.033   5.382  -6.967  0.00  0.00     0.033 H 
ENDBRANCH   3  10
BRANCH   1  14
ATOM     14  NAB 2CQ d   1       2.594   4.533 -11.105  0.00  0.00    -0.397 N 
ATOM     15  H   2CQ d   1       2.862   5.525 -11.183  0.00  0.00     0.156 HD
ATOM     16  H   2CQ d   1       2.933   3.852 -11.800  0.00  0.00     0.156 HD
ENDBRANCH   1  14
BRANCH   7  17
ATOM     17  NAC 2CQ d   1       1.926   1.939 -11.041  0.00  0.00    -0.397 N 
ATOM     18  H   2CQ d   1       2.504   2.318 -11.805  0.00  0.00     0.156 HD
ATOM     19  H   2CQ d   1       1.687   0.937 -11.024  0.00  0.00     0.156 HD
ENDBRANCH   7  17
TORSDOF 3
