REMARK  8 active torsions:
REMARK  status: ('A' for Active; 'I' for Inactive)
REMARK    1  A    between atoms: C16_3  and  N4_4 
REMARK    2  A    between atoms: C14_7  and  S1_8 
REMARK    3  A    between atoms: S1_8  and  N2_11 
REMARK    4  A    between atoms: N1_16  and  C5_17 
REMARK    5  A    between atoms: C2_22  and  C7_23 
REMARK    6  A    between atoms: C7_23  and  C8_24 
REMARK    7  A    between atoms: C7_23  and  C9_28 
REMARK    8  A    between atoms: C7_23  and  O1_32 
ROOT
ATOM      1  N2  MG0 d   1      -1.451  46.939 -15.184  0.00  0.00    -0.203 NA
ATOM      2  C11 MG0 d   1      -1.574  47.253 -16.572  0.00  0.00     0.008 C 
ATOM      3  C10 MG0 d   1      -0.894  46.153 -17.365  0.00  0.00     0.007 C 
ATOM      4  C12 MG0 d   1      -2.282  45.764 -14.901  0.00  0.00     0.008 C 
ATOM      5  C13 MG0 d   1      -1.842  44.499 -15.705  0.00  0.00     0.007 C 
ATOM      6  N1  MG0 d   1      -1.347  44.801 -17.042  0.00  0.00    -0.379 N 
ATOM      7  H   MG0 d   1      -1.089  48.218 -16.781  0.00  0.00     0.059 H 
ATOM      8  H   MG0 d   1      -2.637  47.310 -16.849  0.00  0.00     0.059 H 
ATOM      9  H   MG0 d   1       0.187  46.208 -17.171  0.00  0.00     0.066 H 
ATOM     10  H   MG0 d   1      -1.084  46.333 -18.433  0.00  0.00     0.066 H 
ATOM     11  H   MG0 d   1      -3.324  46.000 -15.162  0.00  0.00     0.059 H 
ATOM     12  H   MG0 d   1      -2.215  45.538 -13.827  0.00  0.00     0.059 H 
ATOM     13  H   MG0 d   1      -2.708  43.827 -15.798  0.00  0.00     0.066 H 
ATOM     14  H   MG0 d   1      -1.043  43.991 -15.145  0.00  0.00     0.066 H 
ENDROOT
BRANCH   6  15
ATOM     15  C5  MG0 d   1      -1.041  43.784 -17.944  0.00  0.00     0.030 A 
ATOM     16  C4  MG0 d   1      -0.637  44.069 -19.264  0.00  0.00    -0.057 A 
ATOM     17  C3  MG0 d   1      -0.343  43.078 -20.198  0.00  0.00    -0.071 A 
ATOM     18  H   MG0 d   1      -0.551  45.106 -19.566  0.00  0.00     0.086 H 
ATOM     19  C2  MG0 d   1      -0.394  41.745 -19.817  0.00  0.00    -0.006 A 
ATOM     20  H   MG0 d   1      -0.077  43.346 -21.214  0.00  0.00     0.084 H 
ATOM     21  C1  MG0 d   1      -0.775  41.457 -18.505  0.00  0.00    -0.071 A 
ATOM     22  C6  MG0 d   1      -1.097  42.478 -17.592  0.00  0.00    -0.057 A 
ATOM     23  H   MG0 d   1      -0.824  40.423 -18.182  0.00  0.00     0.084 H 
ATOM     24  H   MG0 d   1      -1.397  42.213 -16.584  0.00  0.00     0.086 H 
BRANCH  19  25
ATOM     25  C7  MG0 d   1      -0.015  40.609 -20.757  0.00  0.00     0.281 C 
BRANCH  25  26
ATOM     26  C8  MG0 d   1       1.308  40.858 -21.443  0.00  0.00     0.431 C 
ATOM     27  F6  MG0 d   1       1.666  39.749 -22.141  0.00  0.00    -0.167 F 
ATOM     28  F4  MG0 d   1       2.189  41.171 -20.493  0.00  0.00    -0.167 F 
ATOM     29  F5  MG0 d   1       1.192  41.882 -22.272  0.00  0.00    -0.167 F 
ENDBRANCH  25  26
BRANCH  25  30
ATOM     30  C9  MG0 d   1      -1.105  40.337 -21.764  0.00  0.00     0.431 C 
ATOM     31  F3  MG0 d   1      -2.204  40.029 -21.085  0.00  0.00    -0.167 F 
ATOM     32  F1  MG0 d   1      -1.218  41.427 -22.574  0.00  0.00    -0.167 F 
ATOM     33  F2  MG0 d   1      -0.796  39.262 -22.476  0.00  0.00    -0.167 F 
ENDBRANCH  25  30
BRANCH  25  34
ATOM     34  O1  MG0 d   1       0.235  39.482 -19.987  0.00  0.00    -0.370 OA
ATOM     35  H   MG0 d   1       0.935  39.669 -19.372  0.00  0.00     0.211 HD
ENDBRANCH  25  34
ENDBRANCH  19  25
ENDBRANCH   6  15
BRANCH   1  36
ATOM     36  S1  MG0 d   1      -2.007  48.135 -14.267  0.00  0.00     0.245 S 
ATOM     37  O2  MG0 d   1      -1.375  49.425 -14.701  0.00  0.00    -0.206 OA
ATOM     38  O3  MG0 d   1      -1.701  47.724 -12.897  0.00  0.00    -0.206 OA
BRANCH  36  39
ATOM     39  C14 MG0 d   1      -3.734  48.262 -14.480  0.00  0.00     0.092 A 
ATOM     40  C18 MG0 d   1      -4.243  49.018 -15.533  0.00  0.00    -0.056 A 
ATOM     41  C17 MG0 d   1      -5.593  49.064 -15.753  0.00  0.00    -0.038 A 
ATOM     42  H   MG0 d   1      -3.570  49.570 -16.179  0.00  0.00     0.086 H 
ATOM     43  C16 MG0 d   1      -6.431  48.347 -14.905  0.00  0.00     0.120 A 
ATOM     44  H   MG0 d   1      -6.001  49.647 -16.571  0.00  0.00     0.089 H 
ATOM     45  N3  MG0 d   1      -5.928  47.611 -13.881  0.00  0.00    -0.242 NA
ATOM     46  C15 MG0 d   1      -4.614  47.539 -13.668  0.00  0.00     0.026 A 
ATOM     47  H   MG0 d   1      -4.228  46.920 -12.866  0.00  0.00     0.117 H 
BRANCH  43  48
ATOM     48  N4  MG0 d   1      -7.734  48.389 -15.106  0.00  0.00    -0.384 N 
ATOM     49  H   MG0 d   1      -8.368  47.864 -14.487  0.00  0.00     0.157 HD
ATOM     50  H   MG0 d   1      -8.118  48.947 -15.882  0.00  0.00     0.157 HD
ENDBRANCH  43  48
ENDBRANCH  36  39
ENDBRANCH   1  36
TORSDOF 8
