REMARK  2 active torsions:
REMARK  status: ('A' for Active; 'I' for Inactive)
REMARK    1  A    between atoms: N1_1  and  C2_2 
REMARK    2  A    between atoms: C7_7  and  N8_8 
ROOT
ATOM      1  C2  2ZX d   1      -5.096 -29.149  33.291  0.00  0.00     0.143 A 
ATOM      2  C3  2ZX d   1      -5.093 -28.855  34.652  0.00  0.00     0.001 A 
ATOM      3  C4  2ZX d   1      -4.376 -27.716  35.062  0.00  0.00     0.148 A 
ATOM      4 CL5  2ZX d   1      -4.351 -27.272  36.730  0.00  0.00    -0.062 Cl
ATOM      5  N6  2ZX d   1      -3.722 -26.929  34.175  0.00  0.00    -0.051 NA
ATOM      6  C7  2ZX d   1      -3.735 -27.251  32.865  0.00  0.00     0.723 A 
ATOM      7  N9  2ZX d   1      -4.411 -28.346  32.431  0.00  0.00    -0.046 NA
ATOM      8  H   2ZX d   1      -5.621 -29.477  35.365  0.00  0.00     0.094 H 
ENDROOT
BRANCH   1   9
ATOM      9  N1  2ZX d   1      -5.746 -30.228  32.831  0.00  0.00    -0.383 N 
ATOM     10  H   2ZX d   1      -6.264 -30.834  33.483  0.00  0.00     0.157 HD
ATOM     11  H   2ZX d   1      -5.728 -30.451  31.826  0.00  0.00     0.157 HD
ENDBRANCH   1   9
BRANCH   6  12
ATOM     12  N8  2ZX d   1      -3.086 -26.483  31.996  0.00  0.00    -0.231 N 
ATOM     13  H   2ZX d   1      -2.573 -25.652  32.325  0.00  0.00     0.174 HD
ATOM     14  H   2ZX d   1      -3.096 -26.718  30.993  0.00  0.00     0.174 HD
ENDBRANCH   6  12
TORSDOF 2
