REMARK  4 active torsions:
REMARK  status: ('A' for Active; 'I' for Inactive)
REMARK    1  A    between atoms: C1_1  and  C2_2 
REMARK    2  A    between atoms: C6_6  and  O11_11 
REMARK    3  A    between atoms: O11_11  and  C12_12 
REMARK    4  A    between atoms: C12_12  and  C13_13 
ROOT
ATOM      1  C12 2ZU d   1       3.445  16.084  40.112  0.00  0.00     0.066 C 
ATOM      2  H   2ZU d   1       4.527  16.074  40.310  0.00  0.00     0.084 H 
ATOM      3  H   2ZU d   1       2.944  16.733  40.845  0.00  0.00     0.084 H 
ENDROOT
BRANCH   1   4
ATOM      4  O11 2ZU d   1       2.932  14.733  40.259  0.00  0.00    -0.345 OA
BRANCH   4   5
ATOM      5  C6  2ZU d   1       3.488  13.920  41.147  0.00  0.00     0.071 A 
ATOM      6  C5  2ZU d   1       3.512  14.335  42.475  0.00  0.00    -0.022 A 
ATOM      7  C4  2ZU d   1       4.103  13.475  43.392  0.00  0.00     0.077 A 
ATOM      8  H   2ZU d   1       3.089  15.285  42.780  0.00  0.00     0.091 H 
ATOM      9  N3  2ZU d   1       4.222  13.704  44.708  0.00  0.00    -0.245 NA
ATOM     10  C9  2ZU d   1       4.618  12.272  42.921  0.00  0.00     0.035 A 
ATOM     11  C2  2ZU d   1       4.814  12.792  45.497  0.00  0.00     0.072 A 
ATOM     12  S10 2ZU d   1       5.235  11.558  44.363  0.00  0.00    -0.073 SA
ATOM     13  C8  2ZU d   1       4.602  11.833  41.600  0.00  0.00    -0.061 A 
ATOM     14  C7  2ZU d   1       4.007  12.710  40.695  0.00  0.00    -0.049 A 
ATOM     15  H   2ZU d   1       5.021  10.880  41.298  0.00  0.00     0.085 H 
ATOM     16  H   2ZU d   1       3.949  12.451  39.644  0.00  0.00     0.087 H 
BRANCH  11  17
ATOM     17  C1  2ZU d   1       5.094  12.749  46.981  0.00  0.00    -0.029 C 
ATOM     18  H   2ZU d   1       4.715  13.668  47.452  0.00  0.00     0.036 H 
ATOM     19  H   2ZU d   1       6.179  12.671  47.147  0.00  0.00     0.036 H 
ATOM     20  H   2ZU d   1       4.592  11.876  47.424  0.00  0.00     0.036 H 
ENDBRANCH  11  17
ENDBRANCH   4   5
ENDBRANCH   1   4
BRANCH   1  21
ATOM     21  C13 2ZU d   1       3.211  16.645  38.728  0.00  0.00     0.059 A 
ATOM     22  C14 2ZU d   1       2.415  15.970  37.807  0.00  0.00    -0.056 A 
ATOM     23  C15 2ZU d   1       2.214  16.502  36.536  0.00  0.00    -0.069 A 
ATOM     24  H   2ZU d   1       1.951  15.029  38.080  0.00  0.00     0.086 H 
ATOM     25  C16 2ZU d   1       2.819  17.709  36.206  0.00  0.00    -0.007 A 
ATOM     26  H   2ZU d   1       1.595  15.982  35.814  0.00  0.00     0.085 H 
ATOM     27  C17 2ZU d   1       2.635  18.267  34.946  0.00  0.00    -0.071 A 
ATOM     28  C21 2ZU d   1       3.613  18.355  37.161  0.00  0.00     0.067 A 
ATOM     29  C18 2ZU d   1       3.254  19.477  34.638  0.00  0.00    -0.082 A 
ATOM     30  H   2ZU d   1       2.016  17.766  34.211  0.00  0.00     0.084 H 
ATOM     31  C19 2ZU d   1       4.051  20.127  35.581  0.00  0.00    -0.081 A 
ATOM     32  H   2ZU d   1       3.115  19.917  33.657  0.00  0.00     0.083 H 
ATOM     33  C20 2ZU d   1       4.228  19.566  36.844  0.00  0.00    -0.054 A 
ATOM     34  H   2ZU d   1       4.531  21.066  35.331  0.00  0.00     0.083 H 
ATOM     35  H   2ZU d   1       4.843  20.071  37.580  0.00  0.00     0.087 H 
ATOM     36  N22 2ZU d   1       3.789  17.819  38.389  0.00  0.00    -0.251 NA
ENDBRANCH   1  21
TORSDOF 4
