REMARK  7 active torsions:
REMARK  status: ('A' for Active; 'I' for Inactive)
REMARK    1  A    between atoms: S1_12  and  C8_11 
REMARK    2  A    between atoms: C12_30  and  S1_12 
REMARK    3  A    between atoms: C5_28  and  C18_13 
REMARK    4  A    between atoms: C19_16  and  C20_17 
REMARK    5  A    between atoms: N3_34  and  C2_25 
REMARK    6  A    between atoms: C13_31  and  C12_30 
REMARK    7  A    between atoms: C14_32  and  C13_31 
REMARK       I    between atoms: C14_32  and  N3_34 
ROOT
ATOM      1  C1  2C6 d   1      -6.290  42.244  28.043  0.00  0.00    -0.045 C 
ATOM      2  C2  2C6 d   1      -5.960  42.701  26.621  0.00  0.00     0.012 C 
ATOM      3  C3  2C6 d   1      -7.183  42.789  25.705  0.00  0.00    -0.045 C 
ATOM      4  C4  2C6 d   1      -8.014  41.510  25.716  0.00  0.00    -0.053 C 
ATOM      5  C5  2C6 d   1      -8.372  41.064  27.134  0.00  0.00     0.012 C 
ATOM      6  C6  2C6 d   1      -7.184  40.990  28.096  0.00  0.00    -0.053 C 
ATOM      7  H11 2C6 d   1      -6.810  43.064  28.560  0.00  0.00     0.036 H 
ATOM      8  H12 2C6 d   1      -5.347  42.021  28.564  0.00  0.00     0.036 H 
ATOM      9  H13 2C6 d   1      -5.255  41.977  26.186  0.00  0.00     0.072 H 
ATOM     10  H14 2C6 d   1      -6.841  42.978  24.677  0.00  0.00     0.036 H 
ATOM     11  H15 2C6 d   1      -7.816  43.624  26.041  0.00  0.00     0.036 H 
ATOM     12  H16 2C6 d   1      -7.438  40.710  25.228  0.00  0.00     0.034 H 
ATOM     13  H17 2C6 d   1      -8.944  41.687  25.155  0.00  0.00     0.034 H 
ATOM     14  H18 2C6 d   1      -9.085  41.797  27.538  0.00  0.00     0.052 H 
ATOM     15  H19 2C6 d   1      -7.569  40.876  29.120  0.00  0.00     0.034 H 
ATOM     16  H20 2C6 d   1      -6.574  40.113  27.834  0.00  0.00     0.034 H 
ENDROOT
BRANCH   2  17
ATOM     17  N3  2C6 d   1      -5.336  43.998  26.664  0.00  0.00    -0.356 N 
ATOM     18  C14 2C6 d   1      -3.992  43.955  26.537  0.00  0.00     0.218 C 
ATOM     19  O3  2C6 d   1      -3.321  42.947  26.353  0.00  0.00    -0.274 OA
ATOM     20  H25 2C6 d   1      -5.849  44.849  26.777  0.00  0.00     0.162 HD
BRANCH  18  21
ATOM     21  C13 2C6 d   1      -3.304  45.306  26.681  0.00  0.00     0.017 C 
ATOM     22  H23 2C6 d   1      -2.230  45.202  26.465  0.00  0.00     0.048 H 
ATOM     23  H24 2C6 d   1      -3.750  46.028  25.981  0.00  0.00     0.048 H 
BRANCH  21  24
ATOM     24  C12 2C6 d   1      -3.503  45.799  28.146  0.00  0.00    -0.008 C 
ATOM     25  H21 2C6 d   1      -2.794  46.618  28.337  0.00  0.00     0.050 H 
ATOM     26  H22 2C6 d   1      -4.532  46.173  28.250  0.00  0.00     0.050 H 
BRANCH  24  27
ATOM     27  S1  2C6 d   1      -3.233  44.500  29.394  0.00  0.00    -0.091 SA
BRANCH  27  28
ATOM     28  C8  2C6 d   1      -1.504  44.118  29.262  0.00  0.00     0.169 A 
ATOM     29  N1  2C6 d   1      -1.039  43.035  29.975  0.00  0.00    -0.302 N 
ATOM     30  C9  2C6 d   1       0.256  42.560  29.924  0.00  0.00     0.260 A 
ATOM     31  H1  2C6 d   1      -1.685  42.559  30.572  0.00  0.00     0.171 HD
ATOM     32  O1  2C6 d   1       0.609  41.587  30.572  0.00  0.00    -0.267 OA
ATOM     33  C10 2C6 d   1       1.214  43.259  29.093  0.00  0.00     0.061 A 
ATOM     34  C11 2C6 d   1       2.598  42.849  28.906  0.00  0.00    -0.065 A 
ATOM     35  C7  2C6 d   1       0.669  44.446  28.332  0.00  0.00     0.075 A 
ATOM     36  C15 2C6 d   1       3.477  43.606  28.004  0.00  0.00    -0.082 A 
ATOM     37  H2  2C6 d   1       2.981  41.983  29.433  0.00  0.00     0.085 H 
ATOM     38  C16 2C6 d   1       2.958  44.780  27.268  0.00  0.00    -0.081 A 
ATOM     39  H3  2C6 d   1       4.510  43.303  27.877  0.00  0.00     0.083 H 
ATOM     40  C17 2C6 d   1       1.568  45.197  27.447  0.00  0.00    -0.054 A 
ATOM     41  H4  2C6 d   1       3.607  45.330  26.597  0.00  0.00     0.083 H 
ATOM     42  H5  2C6 d   1       1.198  46.069  26.921  0.00  0.00     0.087 H 
ATOM     43  N2  2C6 d   1      -0.674  44.803  28.493  0.00  0.00    -0.224 NA
ENDBRANCH  27  28
ENDBRANCH  24  27
ENDBRANCH  21  24
ENDBRANCH  18  21
ENDBRANCH   2  17
BRANCH   5  44
ATOM     44  C18 2C6 d   1      -9.015  39.762  27.102  0.00  0.00     0.173 A 
ATOM     45  N4  2C6 d   1      -8.564  38.609  26.627  0.00  0.00    -0.126 NA
ATOM     46  N5  2C6 d   1      -9.447  37.581  26.776  0.00  0.00    -0.121 NA
ATOM     47  C19 2C6 d   1     -10.506  38.218  27.398  0.00  0.00     0.202 A 
ATOM     48  O2  2C6 d   1     -10.228  39.549  27.589  0.00  0.00    -0.273 OA
BRANCH  47  49
ATOM     49  C20 2C6 d   1     -11.798  37.618  27.854  0.00  0.00     0.019 A 
ATOM     50  C21 2C6 d   1     -12.053  36.170  27.707  0.00  0.00    -0.069 A 
ATOM     51  C22 2C6 d   1     -13.303  35.580  28.164  0.00  0.00    -0.082 A 
ATOM     52  H6  2C6 d   1     -11.299  35.538  27.252  0.00  0.00     0.085 H 
ATOM     53  C23 2C6 d   1     -14.327  36.416  28.771  0.00  0.00    -0.083 A 
ATOM     54  H7  2C6 d   1     -13.471  34.515  28.052  0.00  0.00     0.083 H 
ATOM     55  C24 2C6 d   1     -14.107  37.855  28.932  0.00  0.00    -0.082 A 
ATOM     56  H8  2C6 d   1     -15.257  35.972  29.106  0.00  0.00     0.083 H 
ATOM     57  C25 2C6 d   1     -12.843  38.454  28.472  0.00  0.00    -0.069 A 
ATOM     58  H9  2C6 d   1     -14.870  38.476  29.387  0.00  0.00     0.083 H 
ATOM     59  H10 2C6 d   1     -12.680  39.519  28.589  0.00  0.00     0.085 H 
ENDBRANCH  47  49
ENDBRANCH   5  44
TORSDOF 7
