REMARK  5 active torsions:
REMARK  status: ('A' for Active; 'I' for Inactive)
REMARK    1  A    between atoms: C8_11  and  C9_12 
REMARK    2  A    between atoms: C9_12  and  C10_13 
REMARK    3  A    between atoms: C10_13  and  C11_14 
REMARK       I    between atoms: C11_14  and  N3_16 
REMARK    4  A    between atoms: C17_23  and  C18_22 
REMARK    5  A    between atoms: C19_26  and  C20_27 
ROOT
ATOM      1  C11 2C8 d   1      32.743  26.150  20.578  0.00  0.00     0.222 C 
ATOM      2  O2  2C8 d   1      32.223  25.487  19.692  0.00  0.00    -0.273 OA
ATOM      3  N3  2C8 d   1      33.022  25.776  21.858  0.00  0.00    -0.327 N 
ATOM      4  C12 2C8 d   1      32.672  24.657  22.554  0.00  0.00     0.034 A 
ATOM      5  C13 2C8 d   1      33.153  24.516  23.920  0.00  0.00    -0.056 A 
ATOM      6  C14 2C8 d   1      32.837  23.309  24.653  0.00  0.00    -0.067 A 
ATOM      7  C15 2C8 d   1      31.878  23.612  21.937  0.00  0.00    -0.056 A 
ATOM      8  C16 2C8 d   1      31.563  22.420  22.656  0.00  0.00    -0.067 A 
ATOM      9  C17 2C8 d   1      32.046  22.260  24.013  0.00  0.00     0.019 A 
ATOM     10  H10 2C8 d   1      33.575  26.431  22.372  0.00  0.00     0.169 HD
ATOM     11  H11 2C8 d   1      33.739  25.303  24.381  0.00  0.00     0.086 H 
ATOM     12  H12 2C8 d   1      33.185  23.183  25.672  0.00  0.00     0.085 H 
ATOM     13  H13 2C8 d   1      31.521  23.737  20.921  0.00  0.00     0.086 H 
ATOM     14  H14 2C8 d   1      30.968  21.642  22.192  0.00  0.00     0.085 H 
ENDROOT
BRANCH   1  15
ATOM     15  C10 2C8 d   1      33.169  27.508  20.313  0.00  0.00     0.016 C 
ATOM     16  H8  2C8 d   1      32.551  27.928  19.506  0.00  0.00     0.047 H 
ATOM     17  H9  2C8 d   1      33.040  28.110  21.225  0.00  0.00     0.047 H 
BRANCH  15  18
ATOM     18  C9  2C8 d   1      34.605  27.549  19.900  0.00  0.00    -0.002 C 
ATOM     19  H6  2C8 d   1      34.999  28.567  20.035  0.00  0.00     0.045 H 
ATOM     20  H7  2C8 d   1      35.186  26.846  20.516  0.00  0.00     0.045 H 
BRANCH  18  21
ATOM     21  C8  2C8 d   1      34.709  27.159  18.462  0.00  0.00     0.107 A 
ATOM     22  N1  2C8 d   1      35.434  26.095  18.009  0.00  0.00    -0.311 N 
ATOM     23  C1  2C8 d   1      35.571  25.826  16.664  0.00  0.00     0.259 A 
ATOM     24  H1  2C8 d   1      35.879  25.493  18.672  0.00  0.00     0.170 HD
ATOM     25  O1  2C8 d   1      36.373  24.941  16.283  0.00  0.00    -0.267 OA
ATOM     26  C2  2C8 d   1      34.943  26.630  15.651  0.00  0.00     0.061 A 
ATOM     27  C3  2C8 d   1      34.955  26.421  14.185  0.00  0.00    -0.065 A 
ATOM     28  C7  2C8 d   1      34.179  27.784  16.192  0.00  0.00     0.074 A 
ATOM     29  C4  2C8 d   1      34.247  27.369  13.309  0.00  0.00    -0.082 A 
ATOM     30  H2  2C8 d   1      35.482  25.575  13.759  0.00  0.00     0.085 H 
ATOM     31  C5  2C8 d   1      33.531  28.520  13.865  0.00  0.00    -0.081 A 
ATOM     32  H3  2C8 d   1      34.256  27.213  12.236  0.00  0.00     0.083 H 
ATOM     33  C6  2C8 d   1      33.505  28.715  15.307  0.00  0.00    -0.054 A 
ATOM     34  H4  2C8 d   1      33.026  29.219  13.209  0.00  0.00     0.083 H 
ATOM     35  H5  2C8 d   1      32.977  29.565  15.724  0.00  0.00     0.087 H 
ATOM     36  N2  2C8 d   1      34.124  27.958  17.550  0.00  0.00    -0.235 NA
ENDBRANCH  18  21
ENDBRANCH  15  18
ENDBRANCH   1  15
BRANCH   9  37
ATOM     37  C18 2C8 d   1      31.756  20.983  24.744  0.00  0.00     0.203 A 
ATOM     38  N4  2C8 d   1      31.093  19.862  24.326  0.00  0.00    -0.121 NA
ATOM     39  N5  2C8 d   1      31.058  18.949  25.366  0.00  0.00    -0.121 NA
ATOM     40  C19 2C8 d   1      31.710  19.539  26.418  0.00  0.00     0.203 A 
ATOM     41  O3  2C8 d   1      32.131  20.779  26.015  0.00  0.00    -0.268 OA
BRANCH  40  42
ATOM     42  C20 2C8 d   1      31.937  19.002  27.810  0.00  0.00     0.019 A 
ATOM     43  C21 2C8 d   1      31.552  17.629  28.163  0.00  0.00    -0.069 A 
ATOM     44  C22 2C8 d   1      31.764  17.120  29.517  0.00  0.00    -0.082 A 
ATOM     45  H15 2C8 d   1      31.106  16.987  27.412  0.00  0.00     0.085 H 
ATOM     46  C23 2C8 d   1      32.370  17.957  30.556  0.00  0.00    -0.083 A 
ATOM     47  H16 2C8 d   1      31.468  16.105  29.757  0.00  0.00     0.083 H 
ATOM     48  C24 2C8 d   1      32.751  19.311  30.215  0.00  0.00    -0.082 A 
ATOM     49  H17 2C8 d   1      32.529  17.571  31.556  0.00  0.00     0.083 H 
ATOM     50  C25 2C8 d   1      32.545  19.842  28.869  0.00  0.00    -0.069 A 
ATOM     51  H18 2C8 d   1      33.198  19.944  30.973  0.00  0.00     0.083 H 
ATOM     52  H19 2C8 d   1      32.840  20.860  28.643  0.00  0.00     0.085 H 
ENDBRANCH  40  42
ENDBRANCH   9  37
TORSDOF 5
