REMARK  7 active torsions:
REMARK  status: ('A' for Active; 'I' for Inactive)
REMARK    1  A    between atoms: S1_15  and  N1_1 
REMARK    2  A    between atoms: C1_22  and  C4_2 
REMARK    3  A    between atoms: C7_5  and  C1_22 
REMARK    4  A    between atoms: N2_19  and  C8_6 
REMARK    5  A    between atoms: C2_14  and  S1_15 
REMARK    6  A    between atoms: C1_22  and  C3_23 
REMARK    7  A    between atoms: C1_22  and  O3_30 
ROOT
ATOM      1  N1  2EU d   1      39.391 -24.613  15.236  0.00  0.00    -0.203 NA
ATOM      2  C5  2EU d   1      37.930 -24.794  15.178  0.00  0.00     0.008 C 
ATOM      3  C6  2EU d   1      39.782 -24.628  16.652  0.00  0.00     0.008 C 
ATOM      4  C10 2EU d   1      37.129 -23.620  15.800  0.00  0.00     0.007 C 
ATOM      5  C11 2EU d   1      39.065 -23.602  17.493  0.00  0.00     0.007 C 
ATOM      6  N2  2EU d   1      37.667 -23.289  17.101  0.00  0.00    -0.379 N 
ATOM      7  H   2EU d   1      37.673 -25.715  15.721  0.00  0.00     0.059 H 
ATOM      8  H   2EU d   1      37.635 -24.895  14.123  0.00  0.00     0.059 H 
ATOM      9  H   2EU d   1      40.863 -24.434  16.715  0.00  0.00     0.059 H 
ATOM     10  H   2EU d   1      39.564 -25.625  17.061  0.00  0.00     0.059 H 
ATOM     11  H   2EU d   1      36.074 -23.914  15.906  0.00  0.00     0.066 H 
ATOM     12  H   2EU d   1      37.200 -22.741  15.142  0.00  0.00     0.066 H 
ATOM     13  H   2EU d   1      39.643 -22.667  17.446  0.00  0.00     0.066 H 
ATOM     14  H   2EU d   1      39.048 -23.971  18.529  0.00  0.00     0.066 H 
ENDROOT
BRANCH   6  15
ATOM     15  C8  2EU d   1      36.965 -22.490  18.007  0.00  0.00     0.030 A 
ATOM     16  C17 2EU d   1      37.502 -22.197  19.262  0.00  0.00    -0.057 A 
ATOM     17  C15 2EU d   1      36.832 -21.399  20.187  0.00  0.00    -0.071 A 
ATOM     18  H   2EU d   1      38.472 -22.604  19.525  0.00  0.00     0.086 H 
ATOM     19  C7  2EU d   1      35.605 -20.866  19.870  0.00  0.00    -0.006 A 
ATOM     20  H   2EU d   1      37.277 -21.199  21.155  0.00  0.00     0.084 H 
ATOM     21  C14 2EU d   1      35.058 -21.170  18.646  0.00  0.00    -0.071 A 
ATOM     22  C16 2EU d   1      35.732 -21.974  17.724  0.00  0.00    -0.057 A 
ATOM     23  H   2EU d   1      34.081 -20.776  18.390  0.00  0.00     0.084 H 
ATOM     24  H   2EU d   1      35.269 -22.192  16.768  0.00  0.00     0.086 H 
BRANCH  19  25
ATOM     25  C1  2EU d   1      34.840 -19.981  20.827  0.00  0.00     0.281 C 
BRANCH  25  26
ATOM     26  C4  2EU d   1      34.084 -20.790  21.896  0.00  0.00     0.431 C 
ATOM     27  F5  2EU d   1      34.879 -21.645  22.566  0.00  0.00    -0.167 F 
ATOM     28  F6  2EU d   1      33.059 -21.438  21.395  0.00  0.00    -0.167 F 
ATOM     29  F4  2EU d   1      33.565 -19.905  22.689  0.00  0.00    -0.167 F 
ENDBRANCH  25  26
BRANCH  25  30
ATOM     30  C3  2EU d   1      35.752 -18.979  21.476  0.00  0.00     0.431 C 
ATOM     31  F2  2EU d   1      34.963 -18.109  22.084  0.00  0.00    -0.167 F 
ATOM     32  F3  2EU d   1      36.470 -19.601  22.342  0.00  0.00    -0.167 F 
ATOM     33  F1  2EU d   1      36.538 -18.346  20.591  0.00  0.00    -0.167 F 
ENDBRANCH  25  30
BRANCH  25  34
ATOM     34  O3  2EU d   1      33.943 -19.171  20.109  0.00  0.00    -0.370 OA
ATOM     35  H   2EU d   1      34.427 -18.629  19.497  0.00  0.00     0.211 HD
ENDBRANCH  25  34
ENDBRANCH  19  25
ENDBRANCH   6  15
BRANCH   1  36
ATOM     36  S1  2EU d   1      40.204 -25.884  14.501  0.00  0.00     0.250 S 
ATOM     37  O1  2EU d   1      39.817 -26.031  13.064  0.00  0.00    -0.205 OA
ATOM     38  O2  2EU d   1      41.678 -25.758  14.728  0.00  0.00    -0.205 OA
BRANCH  36  39
ATOM     39  C2  2EU d   1      39.800 -27.391  15.266  0.00  0.00     0.115 A 
ATOM     40  C9  2EU d   1      40.372 -27.901  16.355  0.00  0.00    -0.054 A 
ATOM     41  C13 2EU d   1      39.823 -29.066  16.675  0.00  0.00    -0.075 A 
ATOM     42  H   2EU d   1      41.181 -27.426  16.908  0.00  0.00     0.086 H 
ATOM     43  C12 2EU d   1      38.846 -29.590  15.888  0.00  0.00    -0.044 A 
ATOM     44  H   2EU d   1      40.154 -29.600  17.564  0.00  0.00     0.084 H 
ATOM     45  S2  2EU d   1      38.627 -28.439  14.672  0.00  0.00    -0.089 SA
ATOM     46  H   2EU d   1      38.323 -30.537  16.013  0.00  0.00     0.095 H 
ENDBRANCH  36  39
ENDBRANCH   1  36
TORSDOF 7
