REMARK  7 active torsions:
REMARK  status: ('A' for Active; 'I' for Inactive)
REMARK       I    between atoms: N4_1  and  C8_2 
REMARK    1  A    between atoms: C21_20  and  N4_1 
REMARK    2  A    between atoms: C8_2  and  C9_4 
REMARK    3  A    between atoms: C9_4  and  C10_5 
REMARK    4  A    between atoms: C10_5  and  S1_6 
REMARK    5  A    between atoms: S1_6  and  C11_7 
REMARK    6  A    between atoms: C24_23  and  O1_24 
REMARK    7  A    between atoms: O1_24  and  C1_25 
ROOT
ATOM      1  C1  2D6 d   1     -11.376  39.200  28.257  0.00  0.00     0.069 A 
ATOM      2  C2  2D6 d   1     -11.751  40.545  28.688  0.00  0.00    -0.049 A 
ATOM      3  C3  2D6 d   1     -13.015  40.757  29.312  0.00  0.00    -0.060 A 
ATOM      4  C4  2D6 d   1     -13.851  39.647  29.494  0.00  0.00     0.044 A 
ATOM      5  C5  2D6 d   1     -13.504  38.270  29.082  0.00  0.00    -0.060 A 
ATOM      6  C6  2D6 d   1     -12.247  38.046  28.451  0.00  0.00    -0.049 A 
ATOM      7  C7  2D6 d   1     -15.075  40.144  30.117  0.00  0.00     0.099 C 
ATOM      8  N1  2D6 d   1     -16.006  40.620  30.607  0.00  0.00    -0.191 NA
ATOM      9  H21 2D6 d   1     -11.072  41.376  28.534  0.00  0.00     0.087 H 
ATOM     10  H22 2D6 d   1     -13.320  41.746  29.636  0.00  0.00     0.086 H 
ATOM     11  H23 2D6 d   1     -14.191  37.450  29.256  0.00  0.00     0.086 H 
ATOM     12  H24 2D6 d   1     -11.949  37.055  28.127  0.00  0.00     0.087 H 
ENDROOT
BRANCH   1  13
ATOM     13  O1  2D6 d   1     -10.080  38.995  27.603  0.00  0.00    -0.346 OA
BRANCH  13  14
ATOM     14  C24 2D6 d   1      -9.243  40.208  27.439  0.00  0.00     0.045 C 
ATOM     15  C19 2D6 d   1      -8.482  40.188  26.088  0.00  0.00    -0.038 C 
ATOM     16  C20 2D6 d   1      -7.519  41.331  25.893  0.00  0.00    -0.044 C 
ATOM     17  H11 2D6 d   1      -7.915  39.247  26.028  0.00  0.00     0.036 H 
ATOM     18  H12 2D6 d   1      -9.223  40.222  25.276  0.00  0.00     0.036 H 
ATOM     19  C21 2D6 d   1      -6.570  41.622  27.106  0.00  0.00     0.012 C 
ATOM     20  H13 2D6 d   1      -8.106  42.240  25.695  0.00  0.00     0.036 H 
ATOM     21  H14 2D6 d   1      -6.892  41.102  25.019  0.00  0.00     0.036 H 
ATOM     22  C22 2D6 d   1      -7.274  41.465  28.486  0.00  0.00    -0.044 C 
ATOM     23  H15 2D6 d   1      -5.746  40.894  27.070  0.00  0.00     0.072 H 
ATOM     24  C23 2D6 d   1      -8.214  40.293  28.583  0.00  0.00    -0.038 C 
ATOM     25  H16 2D6 d   1      -7.848  42.382  28.684  0.00  0.00     0.036 H 
ATOM     26  H17 2D6 d   1      -6.497  41.346  29.255  0.00  0.00     0.036 H 
ATOM     27  H18 2D6 d   1      -8.762  40.369  29.534  0.00  0.00     0.036 H 
ATOM     28  H19 2D6 d   1      -7.615  39.370  28.577  0.00  0.00     0.036 H 
ATOM     29  H20 2D6 d   1      -9.894  41.094  27.470  0.00  0.00     0.084 H 
BRANCH  19  30
ATOM     30  N4  2D6 d   1      -5.995  42.985  26.967  0.00  0.00    -0.356 N 
ATOM     31  C8  2D6 d   1      -4.632  43.054  26.770  0.00  0.00     0.218 C 
ATOM     32  O2  2D6 d   1      -3.934  42.064  26.500  0.00  0.00    -0.274 OA
ATOM     33  H1  2D6 d   1      -6.564  43.806  27.014  0.00  0.00     0.162 HD
BRANCH  31  34
ATOM     34  C9  2D6 d   1      -3.974  44.445  26.810  0.00  0.00     0.017 C 
ATOM     35  H2  2D6 d   1      -4.526  45.094  26.114  0.00  0.00     0.048 H 
ATOM     36  H3  2D6 d   1      -2.937  44.332  26.462  0.00  0.00     0.048 H 
BRANCH  34  37
ATOM     37  C10 2D6 d   1      -3.934  45.129  28.124  0.00  0.00    -0.008 C 
ATOM     38  H4  2D6 d   1      -4.920  45.582  28.302  0.00  0.00     0.050 H 
ATOM     39  H5  2D6 d   1      -3.171  45.920  28.073  0.00  0.00     0.050 H 
BRANCH  37  40
ATOM     40  S1  2D6 d   1      -3.525  44.014  29.605  0.00  0.00    -0.091 SA
BRANCH  40  41
ATOM     41  C11 2D6 d   1      -1.798  43.737  29.439  0.00  0.00     0.169 A 
ATOM     42  N2  2D6 d   1      -1.254  42.678  30.131  0.00  0.00    -0.302 N 
ATOM     43  C12 2D6 d   1       0.065  42.294  30.049  0.00  0.00     0.260 A 
ATOM     44  H6  2D6 d   1      -1.857  42.154  30.732  0.00  0.00     0.171 HD
ATOM     45  O3  2D6 d   1       0.524  41.349  30.696  0.00  0.00    -0.267 OA
ATOM     46  C14 2D6 d   1       0.954  43.060  29.187  0.00  0.00     0.061 A 
ATOM     47  C13 2D6 d   1       0.294  44.225  28.467  0.00  0.00     0.075 A 
ATOM     48  C15 2D6 d   1       2.366  42.782  28.994  0.00  0.00    -0.065 A 
ATOM     49  N3  2D6 d   1      -1.034  44.497  28.634  0.00  0.00    -0.224 NA
ATOM     50  C18 2D6 d   1       1.102  45.076  27.605  0.00  0.00    -0.054 A 
ATOM     51  C17 2D6 d   1       2.532  44.792  27.420  0.00  0.00    -0.081 A 
ATOM     52  H10 2D6 d   1       0.648  45.920  27.099  0.00  0.00     0.087 H 
ATOM     53  C16 2D6 d   1       3.160  43.651  28.110  0.00  0.00    -0.082 A 
ATOM     54  H9  2D6 d   1       3.128  45.425  26.773  0.00  0.00     0.083 H 
ATOM     55  H8  2D6 d   1       4.215  43.450  27.965  0.00  0.00     0.083 H 
ATOM     56  H7  2D6 d   1       2.831  41.942  29.497  0.00  0.00     0.085 H 
ENDBRANCH  40  41
ENDBRANCH  37  40
ENDBRANCH  34  37
ENDBRANCH  31  34
ENDBRANCH  19  30
ENDBRANCH  13  14
ENDBRANCH   1  13
TORSDOF 7
