REMARK  10 active torsions:
REMARK  status: ('A' for Active; 'I' for Inactive)
REMARK    1  A    between atoms: C1_1  and  C2_2 
REMARK    2  A    between atoms: C2_2  and  C3_3 
REMARK    3  A    between atoms: C3_3  and  N5_4 
REMARK    4  A    between atoms: C3_3  and  C7_6 
REMARK    5  A    between atoms: N5_4  and  C6_5 
REMARK       I    between atoms: C7_6  and  N9_8 
REMARK    6  A    between atoms: N9_8  and  C10_9 
REMARK    7  A    between atoms: C10_9  and  C12_10 
REMARK    8  A    between atoms: C10_9  and  C18_16 
REMARK       I    between atoms: C18_16  and  N20_18 
REMARK    9  A    between atoms: C29_26  and  C31_27 
REMARK       I    between atoms: C31_27  and  N33_29 
REMARK   10  A    between atoms: N33_29  and  C34_30 
ROOT
ATOM      1  C18 2DX d   1       7.873  23.827  21.241  0.00  0.00     0.243 C 
ATOM      2  O19 2DX d   1       7.315  23.799  22.327  0.00  0.00    -0.271 OA
ATOM      3  N20 2DX d   1       8.801  22.875  20.971  0.00  0.00    -0.333 N 
ATOM      4  C21 2DX d   1       9.535  22.865  19.671  0.00  0.00     0.025 C 
ATOM      5  C22 2DX d   1       9.959  21.452  19.280  0.00  0.00     0.119 C 
ATOM      6  C24 2DX d   1      11.038  21.406  18.185  0.00  0.00    -0.035 C 
ATOM      7  C25 2DX d   1      11.879  20.150  18.534  0.00  0.00    -0.040 C 
ATOM      8  C26 2DX d   1      11.245  19.603  19.845  0.00  0.00     0.084 C 
ATOM      9  N27 2DX d   1      10.608  20.801  20.448  0.00  0.00    -0.063 N 
ATOM     10  C28 2DX d   1       9.637  20.524  21.500  0.00  0.00     0.111 C 
ATOM     11  C29 2DX d   1       9.085  21.885  22.035  0.00  0.00     0.115 C 
ATOM     12  H25 2DX d   1      10.432  23.495  19.762  0.00  0.00     0.067 H 
ATOM     13  H26 2DX d   1       8.879  23.271  18.887  0.00  0.00     0.067 H 
ATOM     14  H27 2DX d   1       9.071  20.888  18.957  0.00  0.00     0.087 H 
ATOM     15  H28 2DX d   1      11.661  22.312  18.212  0.00  0.00     0.036 H 
ATOM     16  H29 2DX d   1      10.580  21.305  17.190  0.00  0.00     0.036 H 
ATOM     17  H30 2DX d   1      12.933  20.421  18.696  0.00  0.00     0.035 H 
ATOM     18  H31 2DX d   1      11.812  19.403  17.730  0.00  0.00     0.035 H 
ATOM     19  H32 2DX d   1      12.016  19.190  20.512  0.00  0.00     0.076 H 
ATOM     20  H33 2DX d   1      10.496  18.828  19.626  0.00  0.00     0.076 H 
ATOM     21  H34 2DX d   1      11.319  21.402  20.834  0.00  0.00     0.280 HD
ATOM     22  H35 2DX d   1      10.123  19.973  22.319  0.00  0.00     0.080 H 
ATOM     23  H36 2DX d   1       8.811  19.922  21.093  0.00  0.00     0.080 H 
ATOM     24  H37 2DX d   1       8.145  21.684  22.570  0.00  0.00     0.090 H 
ENDROOT
BRANCH   1  25
ATOM     25  C10 2DX d   1       7.495  24.917  20.243  0.00  0.00     0.093 C 
ATOM     26  H13 2DX d   1       7.404  24.460  19.246  0.00  0.00     0.088 H 
BRANCH  25  27
ATOM     27  N9  2DX d   1       6.183  25.472  20.630  0.00  0.00    -0.346 N 
ATOM     28  C7  2DX d   1       5.117  25.531  19.787  0.00  0.00     0.249 C 
ATOM     29  O8  2DX d   1       5.204  25.119  18.641  0.00  0.00    -0.271 OA
ATOM     30  H12 2DX d   1       6.072  25.823  21.560  0.00  0.00     0.163 HD
BRANCH  28  31
ATOM     31  C3  2DX d   1       3.812  26.117  20.300  0.00  0.00     0.177 C 
ATOM     32  H6  2DX d   1       4.025  26.719  21.195  0.00  0.00     0.099 H 
BRANCH  31  33
ATOM     33  C2  2DX d   1       2.857  24.961  20.664  0.00  0.00    -0.033 C 
ATOM     34  H4  2DX d   1       1.864  25.380  20.884  0.00  0.00     0.036 H 
ATOM     35  H5  2DX d   1       2.785  24.280  19.803  0.00  0.00     0.036 H 
BRANCH  33  36
ATOM     36  C1  2DX d   1       3.334  24.163  21.883  0.00  0.00    -0.074 C 
ATOM     37  H1  2DX d   1       2.618  23.355  22.096  0.00  0.00     0.027 H 
ATOM     38  H2  2DX d   1       3.403  24.831  22.754  0.00  0.00     0.027 H 
ATOM     39  H3  2DX d   1       4.323  23.730  21.674  0.00  0.00     0.027 H 
ENDBRANCH  33  36
ENDBRANCH  31  33
BRANCH  31  40
ATOM     40  N5  2DX d   1       3.121  26.971  19.299  0.00  0.00    -0.066 N 
ATOM     41  H7  2DX d   1       2.206  27.194  19.658  0.00  0.00     0.277 HD
ATOM     42  H8  2DX d   1       3.027  26.440  18.447  0.00  0.00     0.277 HD
BRANCH  40  43
ATOM     43  C6  2DX d   1       3.810  28.246  18.972  0.00  0.00     0.066 C 
ATOM     44  H9  2DX d   1       3.221  28.800  18.227  0.00  0.00     0.067 H 
ATOM     45  H10 2DX d   1       4.808  28.029  18.563  0.00  0.00     0.067 H 
ATOM     46  H11 2DX d   1       3.911  28.852  19.884  0.00  0.00     0.067 H 
ENDBRANCH  40  43
ENDBRANCH  31  40
ENDBRANCH  28  31
ENDBRANCH  25  27
BRANCH  25  47
ATOM     47  C12 2DX d   1       8.573  26.035  20.162  0.00  0.00    -0.026 C 
ATOM     48  C13 2DX d   1       8.119  27.163  19.210  0.00  0.00    -0.059 C 
ATOM     49  C14 2DX d   1       9.236  28.209  19.042  0.00  0.00    -0.065 C 
ATOM     50  H15 2DX d   1       7.226  27.651  19.627  0.00  0.00     0.033 H 
ATOM     51  H16 2DX d   1       7.876  26.732  18.228  0.00  0.00     0.033 H 
ATOM     52  C15 2DX d   1       9.635  28.807  20.413  0.00  0.00    -0.065 C 
ATOM     53  H17 2DX d   1       8.879  29.017  18.386  0.00  0.00     0.033 H 
ATOM     54  H18 2DX d   1      10.115  27.729  18.588  0.00  0.00     0.033 H 
ATOM     55  C16 2DX d   1      10.047  27.697  21.405  0.00  0.00    -0.065 C 
ATOM     56  H19 2DX d   1       8.778  29.359  20.827  0.00  0.00     0.033 H 
ATOM     57  H20 2DX d   1      10.482  29.495  20.272  0.00  0.00     0.033 H 
ATOM     58  C17 2DX d   1       8.929  26.638  21.542  0.00  0.00    -0.059 C 
ATOM     59  H21 2DX d   1      10.239  28.147  22.390  0.00  0.00     0.033 H 
ATOM     60  H22 2DX d   1      10.963  27.209  21.040  0.00  0.00     0.033 H 
ATOM     61  H23 2DX d   1       9.273  25.834  22.209  0.00  0.00     0.033 H 
ATOM     62  H24 2DX d   1       8.034  27.112  21.971  0.00  0.00     0.033 H 
ATOM     63  H14 2DX d   1       9.487  25.583  19.748  0.00  0.00     0.043 H 
ENDBRANCH  25  47
ENDBRANCH   1  25
BRANCH  11  64
ATOM     64  C31 2DX d   1      10.090  22.470  23.010  0.00  0.00     0.242 C 
ATOM     65  O32 2DX d   1      10.795  23.393  22.672  0.00  0.00    -0.271 OA
ATOM     66  N33 2DX d   1      10.188  21.967  24.260  0.00  0.00    -0.350 N 
ATOM     67  H38 2DX d   1       9.580  21.217  24.521  0.00  0.00     0.163 HD
BRANCH  66  68
ATOM     68  C34 2DX d   1      11.139  22.466  25.247  0.00  0.00     0.042 C 
ATOM     69  C35 2DX d   1      12.422  21.672  24.995  0.00  0.00    -0.022 C 
ATOM     70  C36 2DX d   1      13.310  21.661  26.249  0.00  0.00     0.028 C 
ATOM     71  H40 2DX d   1      12.976  22.135  24.165  0.00  0.00     0.039 H 
ATOM     72  H41 2DX d   1      12.160  20.637  24.729  0.00  0.00     0.039 H 
ATOM     73  O37 2DX d   1      12.586  21.051  27.317  0.00  0.00    -0.350 OA
ATOM     74  H42 2DX d   1      13.576  22.692  26.524  0.00  0.00     0.075 H 
ATOM     75  H43 2DX d   1      14.227  21.087  26.048  0.00  0.00     0.075 H 
ATOM     76  C38 2DX d   1      11.361  21.536  27.606  0.00  0.00     0.077 A 
ATOM     77  C39 2DX d   1      10.866  21.307  28.895  0.00  0.00    -0.050 A 
ATOM     78  C43 2DX d   1      10.609  22.216  26.644  0.00  0.00    -0.002 A 
ATOM     79  C40 2DX d   1       9.606  21.787  29.212  0.00  0.00    -0.080 A 
ATOM     80  H44 2DX d   1      11.455  20.767  29.628  0.00  0.00     0.087 H 
ATOM     81  C41 2DX d   1       8.859  22.486  28.259  0.00  0.00    -0.082 A 
ATOM     82  H45 2DX d   1       9.198  21.620  30.202  0.00  0.00     0.083 H 
ATOM     83  C42 2DX d   1       9.357  22.705  26.986  0.00  0.00    -0.072 A 
ATOM     84  H46 2DX d   1       7.876  22.862  28.520  0.00  0.00     0.083 H 
ATOM     85  H47 2DX d   1       8.771  23.256  26.260  0.00  0.00     0.084 H 
ATOM     86  H39 2DX d   1      11.318  23.542  25.108  0.00  0.00     0.080 H 
ENDBRANCH  66  68
ENDBRANCH  11  64
TORSDOF 10
