REMARK  10 active torsions:
REMARK  status: ('A' for Active; 'I' for Inactive)
REMARK    1  A    between atoms: C1_1  and  C2_2 
REMARK    2  A    between atoms: C2_2  and  C3_3 
REMARK    3  A    between atoms: C3_3  and  N5_4 
REMARK    4  A    between atoms: C3_3  and  C7_6 
REMARK    5  A    between atoms: N5_4  and  C6_5 
REMARK       I    between atoms: C7_6  and  N9_8 
REMARK    6  A    between atoms: N9_8  and  C10_9 
REMARK    7  A    between atoms: C10_9  and  C12_10 
REMARK    8  A    between atoms: C10_9  and  C18_16 
REMARK       I    between atoms: C18_16  and  N20_18 
REMARK    9  A    between atoms: C33_30  and  C35_31 
REMARK       I    between atoms: C35_31  and  N37_33 
REMARK   10  A    between atoms: N37_33  and  C38_34 
ROOT
ATOM      1  C18 2DY d   1      22.793  -9.928 -15.108  0.00  0.00     0.243 C 
ATOM      2  O19 2DY d   1      21.981 -10.397 -14.331  0.00  0.00    -0.271 OA
ATOM      3  N20 2DY d   1      22.632 -10.100 -16.456  0.00  0.00    -0.333 N 
ATOM      4  C21 2DY d   1      23.631  -9.555 -17.426  0.00  0.00     0.018 C 
ATOM      5  C22 2DY d   1      23.595 -10.427 -18.685  0.00  0.00     0.031 C 
ATOM      6  C24 2DY d   1      24.528  -9.897 -19.806  0.00  0.00    -0.018 C 
ATOM      7  C25 2DY d   1      23.597  -9.604 -20.972  0.00  0.00    -0.030 A 
ATOM      8  C26 2DY d   1      23.893  -9.224 -22.272  0.00  0.00    -0.075 A 
ATOM      9  C27 2DY d   1      22.817  -9.010 -23.143  0.00  0.00    -0.082 A 
ATOM     10  C28 2DY d   1      21.500  -9.159 -22.734  0.00  0.00    -0.081 A 
ATOM     11  C29 2DY d   1      21.185  -9.540 -21.432  0.00  0.00    -0.057 A 
ATOM     12  C30 2DY d   1      22.255  -9.788 -20.550  0.00  0.00     0.037 A 
ATOM     13  N31 2DY d   1      22.245 -10.110 -19.204  0.00  0.00    -0.371 N 
ATOM     14  C32 2DY d   1      21.095 -10.584 -18.461  0.00  0.00     0.023 C 
ATOM     15  C33 2DY d   1      21.470 -10.840 -16.960  0.00  0.00     0.107 C 
ATOM     16  H25 2DY d   1      24.637  -9.583 -16.981  0.00  0.00     0.067 H 
ATOM     17  H26 2DY d   1      23.373  -8.517 -17.684  0.00  0.00     0.067 H 
ATOM     18  H27 2DY d   1      23.767 -11.492 -18.468  0.00  0.00     0.075 H 
ATOM     19  H28 2DY d   1      25.272 -10.658 -20.085  0.00  0.00     0.043 H 
ATOM     20  H29 2DY d   1      25.044  -8.981 -19.481  0.00  0.00     0.043 H 
ATOM     21  H30 2DY d   1      24.918  -9.097 -22.602  0.00  0.00     0.084 H 
ATOM     22  H31 2DY d   1      23.020  -8.719 -24.167  0.00  0.00     0.083 H 
ATOM     23  H32 2DY d   1      20.700  -8.975 -23.442  0.00  0.00     0.083 H 
ATOM     24  H33 2DY d   1      20.155  -9.642 -21.109  0.00  0.00     0.086 H 
ATOM     25  H34 2DY d   1      20.738 -11.523 -18.909  0.00  0.00     0.068 H 
ATOM     26  H35 2DY d   1      20.297  -9.828 -18.510  0.00  0.00     0.068 H 
ATOM     27  H36 2DY d   1      20.602 -10.546 -16.351  0.00  0.00     0.090 H 
ENDROOT
BRANCH   1  28
ATOM     28  C10 2DY d   1      23.968  -9.188 -14.515  0.00  0.00     0.093 C 
ATOM     29  H13 2DY d   1      24.275  -8.389 -15.206  0.00  0.00     0.088 H 
BRANCH  28  30
ATOM     30  N9  2DY d   1      23.692  -8.704 -13.172  0.00  0.00    -0.346 N 
ATOM     31  C7  2DY d   1      23.933  -7.468 -12.727  0.00  0.00     0.249 C 
ATOM     32  O8  2DY d   1      24.383  -6.606 -13.444  0.00  0.00    -0.271 OA
ATOM     33  H12 2DY d   1      23.287  -9.352 -12.527  0.00  0.00     0.163 HD
BRANCH  31  34
ATOM     34  C3  2DY d   1      23.629  -7.135 -11.300  0.00  0.00     0.177 C 
ATOM     35  H6  2DY d   1      23.636  -8.061 -10.706  0.00  0.00     0.099 H 
BRANCH  34  36
ATOM     36  C2  2DY d   1      22.253  -6.470 -11.207  0.00  0.00    -0.033 C 
ATOM     37  H4  2DY d   1      22.059  -6.172 -10.166  0.00  0.00     0.036 H 
ATOM     38  H5  2DY d   1      22.232  -5.580 -11.853  0.00  0.00     0.036 H 
BRANCH  36  39
ATOM     39  C1  2DY d   1      21.178  -7.457 -11.663  0.00  0.00    -0.074 C 
ATOM     40  H1  2DY d   1      20.189  -6.979 -11.596  0.00  0.00     0.027 H 
ATOM     41  H2  2DY d   1      21.200  -8.347 -11.017  0.00  0.00     0.027 H 
ATOM     42  H3  2DY d   1      21.372  -7.755 -12.704  0.00  0.00     0.027 H 
ENDBRANCH  36  39
ENDBRANCH  34  36
BRANCH  34  43
ATOM     43  N5  2DY d   1      24.621  -6.187 -10.749  0.00  0.00    -0.066 N 
ATOM     44  H7  2DY d   1      24.300  -5.880  -9.844  0.00  0.00     0.277 HD
ATOM     45  H8  2DY d   1      24.684  -5.395 -11.370  0.00  0.00     0.277 HD
BRANCH  43  46
ATOM     46  C6  2DY d   1      25.982  -6.773 -10.592  0.00  0.00     0.066 C 
ATOM     47  H9  2DY d   1      26.663  -6.014 -10.179  0.00  0.00     0.067 H 
ATOM     48  H10 2DY d   1      26.354  -7.105 -11.573  0.00  0.00     0.067 H 
ATOM     49  H11 2DY d   1      25.934  -7.633  -9.908  0.00  0.00     0.067 H 
ENDBRANCH  43  46
ENDBRANCH  34  43
ENDBRANCH  31  34
ENDBRANCH  28  30
BRANCH  28  50
ATOM     50  C12 2DY d   1      25.154 -10.087 -14.086  0.00  0.00    -0.026 C 
ATOM     51  C13 2DY d   1      25.041 -11.564 -14.476  0.00  0.00    -0.059 C 
ATOM     52  C14 2DY d   1      26.226 -12.383 -13.921  0.00  0.00    -0.065 C 
ATOM     53  H15 2DY d   1      25.032 -11.645 -15.573  0.00  0.00     0.033 H 
ATOM     54  H16 2DY d   1      24.103 -11.971 -14.070  0.00  0.00     0.033 H 
ATOM     55  C15 2DY d   1      27.318 -11.519 -13.254  0.00  0.00    -0.065 C 
ATOM     56  H17 2DY d   1      26.683 -12.940 -14.752  0.00  0.00     0.033 H 
ATOM     57  H18 2DY d   1      25.839 -13.091 -13.174  0.00  0.00     0.033 H 
ATOM     58  C16 2DY d   1      27.693 -10.316 -14.136  0.00  0.00    -0.065 C 
ATOM     59  H19 2DY d   1      28.213 -12.136 -13.090  0.00  0.00     0.033 H 
ATOM     60  H20 2DY d   1      26.944 -11.152 -12.287  0.00  0.00     0.033 H 
ATOM     61  C17 2DY d   1      26.481  -9.436 -14.488  0.00  0.00    -0.059 C 
ATOM     62  H21 2DY d   1      28.139 -10.690 -15.069  0.00  0.00     0.033 H 
ATOM     63  H22 2DY d   1      28.430  -9.701 -13.598  0.00  0.00     0.033 H 
ATOM     64  H23 2DY d   1      26.577  -8.475 -13.962  0.00  0.00     0.033 H 
ATOM     65  H24 2DY d   1      26.474  -9.261 -15.574  0.00  0.00     0.033 H 
ATOM     66  H14 2DY d   1      25.141 -10.086 -12.986  0.00  0.00     0.043 H 
ENDBRANCH  28  50
ENDBRANCH   1  28
BRANCH  15  67
ATOM     67  C35 2DY d   1      21.727 -12.315 -16.761  0.00  0.00     0.242 C 
ATOM     68  O36 2DY d   1      22.875 -12.738 -16.634  0.00  0.00    -0.271 OA
ATOM     69  N37 2DY d   1      20.656 -13.135 -16.742  0.00  0.00    -0.350 N 
ATOM     70  H37 2DY d   1      19.748 -12.738 -16.874  0.00  0.00     0.163 HD
BRANCH  69  71
ATOM     71  C38 2DY d   1      20.766 -14.586 -16.536  0.00  0.00     0.042 C 
ATOM     72  C40 2DY d   1      20.985 -15.285 -17.886  0.00  0.00    -0.022 C 
ATOM     73  C41 2DY d   1      19.650 -15.673 -18.530  0.00  0.00     0.028 C 
ATOM     74  H39 2DY d   1      21.584 -16.194 -17.727  0.00  0.00     0.039 H 
ATOM     75  H40 2DY d   1      21.524 -14.603 -18.560  0.00  0.00     0.039 H 
ATOM     76  O42 2DY d   1      18.989 -16.553 -17.624  0.00  0.00    -0.350 OA
ATOM     77  H41 2DY d   1      19.827 -16.182 -19.489  0.00  0.00     0.075 H 
ATOM     78  H42 2DY d   1      19.037 -14.775 -18.699  0.00  0.00     0.075 H 
ATOM     79  C43 2DY d   1      18.715 -16.066 -16.382  0.00  0.00     0.077 A 
ATOM     80  C44 2DY d   1      17.591 -16.542 -15.702  0.00  0.00    -0.050 A 
ATOM     81  C48 2DY d   1      19.537 -15.100 -15.813  0.00  0.00    -0.002 A 
ATOM     82  C45 2DY d   1      17.303 -16.045 -14.436  0.00  0.00    -0.080 A 
ATOM     83  H43 2DY d   1      16.951 -17.290 -16.156  0.00  0.00     0.087 H 
ATOM     84  C46 2DY d   1      18.120 -15.079 -13.871  0.00  0.00    -0.082 A 
ATOM     85  H44 2DY d   1      16.441 -16.413 -13.892  0.00  0.00     0.083 H 
ATOM     86  C47 2DY d   1      19.240 -14.613 -14.549  0.00  0.00    -0.072 A 
ATOM     87  H45 2DY d   1      17.883 -14.683 -12.890  0.00  0.00     0.083 H 
ATOM     88  H46 2DY d   1      19.881 -13.869 -14.090  0.00  0.00     0.084 H 
ATOM     89  H38 2DY d   1      21.643 -14.785 -15.902  0.00  0.00     0.080 H 
ENDBRANCH  69  71
ENDBRANCH  15  67
TORSDOF 10
