REMARK  8 active torsions:
REMARK  status: ('A' for Active; 'I' for Inactive)
REMARK    1  A    between atoms: C_2  and  CA_4 
REMARK    2  A    between atoms: CA_4  and  N_5 
REMARK    3  A    between atoms: CAW_9  and  OAT_10 
REMARK    4  A    between atoms: OAT_10  and  CAA_11 
REMARK    5  A    between atoms: CAZ_15  and  CAV_16 
REMARK       I    between atoms: CAV_16  and  NAS_18 
REMARK    6  A    between atoms: NAS_18  and  SBE_19 
REMARK    7  A    between atoms: SBE_19  and  CAY_22 
REMARK    8  A    between atoms: CAX_25  and  CBD_26 
ROOT
ATOM      1  N   2DH d   1      15.774  10.349  -1.384  0.00  0.00    -0.332 N 
ATOM      2  CBB 2DH d   1      15.020  10.257  -2.486  0.00  0.00     0.046 A 
ATOM      3  CAO 2DH d   1      15.410  10.053  -3.763  0.00  0.00    -0.053 A 
ATOM      4  CAN 2DH d   1      14.448   9.966  -4.766  0.00  0.00    -0.049 A 
ATOM      5  CAW 2DH d   1      13.104  10.152  -4.442  0.00  0.00     0.069 A 
ATOM      6  CAP 2DH d   1      12.720  10.373  -3.071  0.00  0.00    -0.039 A 
ATOM      7  CBA 2DH d   1      13.714  10.431  -2.129  0.00  0.00    -0.004 A 
ATOM      8  CAQ 2DH d   1      13.705  10.637  -0.787  0.00  0.00    -0.039 A 
ATOM      9  CAZ 2DH d   1      14.967  10.566  -0.321  0.00  0.00     0.105 A 
ATOM     10  H3  2DH d   1      16.462   9.958  -4.005  0.00  0.00     0.087 H 
ATOM     11  H4  2DH d   1      14.741   9.756  -5.788  0.00  0.00     0.087 H 
ATOM     12  H8  2DH d   1      11.679  10.490  -2.793  0.00  0.00     0.089 H 
ATOM     13  H9  2DH d   1      12.819  10.829  -0.184  0.00  0.00     0.088 H 
ENDROOT
BRANCH   9  14
ATOM     14  CAV 2DH d   1      15.464  10.720   0.953  0.00  0.00     0.281 C 
ATOM     15  OAC 2DH d   1      16.453  10.075   1.322  0.00  0.00    -0.265 OA
ATOM     16  NAS 2DH d   1      14.881  11.628   1.761  0.00  0.00    -0.245 N 
ATOM     17  H10 2DH d   1      14.019  12.063   1.501  0.00  0.00     0.182 HD
BRANCH  16  18
ATOM     18  SBE 2DH d   1      15.589  11.991   3.130  0.00  0.00     0.265 S 
ATOM     19  OAD 2DH d   1      16.934  11.583   3.455  0.00  0.00    -0.200 OA
ATOM     20  OAE 2DH d   1      15.163  13.290   3.759  0.00  0.00    -0.200 OA
BRANCH  18  21
ATOM     21  CAY 2DH d   1      14.991  10.690   4.197  0.00  0.00     0.080 A 
ATOM     22  CAL 2DH d   1      13.642  10.440   4.425  0.00  0.00    -0.059 A 
ATOM     23  CAJ 2DH d   1      13.300   9.439   5.362  0.00  0.00    -0.067 A 
ATOM     24  H11 2DH d   1      12.875  10.997   3.899  0.00  0.00     0.085 H 
ATOM     25  CAX 2DH d   1      14.249   8.663   6.073  0.00  0.00     0.048 A 
ATOM     26  H12 2DH d   1      12.248   9.254   5.548  0.00  0.00     0.084 H 
ATOM     27  CAK 2DH d   1      15.593   8.923   5.821  0.00  0.00    -0.067 A 
ATOM     28  CAM 2DH d   1      15.942   9.932   4.891  0.00  0.00    -0.059 A 
ATOM     29  H13 2DH d   1      16.365   8.359   6.332  0.00  0.00     0.084 H 
ATOM     30  H14 2DH d   1      16.993  10.126   4.708  0.00  0.00     0.085 H 
BRANCH  25  31
ATOM     31  CBD 2DH d   1      13.795   7.718   7.056  0.00  0.00     0.417 C 
ATOM     32  FAH 2DH d   1      14.652   7.551   8.079  0.00  0.00    -0.166 F 
ATOM     33  FAI 2DH d   1      12.677   8.349   7.676  0.00  0.00    -0.166 F 
ATOM     34  FAG 2DH d   1      13.428   6.550   6.627  0.00  0.00    -0.166 F 
ENDBRANCH  25  31
ENDBRANCH  18  21
ENDBRANCH  16  18
ENDBRANCH   9  14
BRANCH   1  35
ATOM     35  CA  2DH d   1      17.226  10.129  -1.547  0.00  0.00     0.080 C 
ATOM     36  H1  2DH d   1      17.457   9.174  -1.053  0.00  0.00     0.081 H 
ATOM     37  H2  2DH d   1      17.411  10.037  -2.627  0.00  0.00     0.081 H 
BRANCH  35  38
ATOM     38  C   2DH d   1      18.208  11.124  -1.030  0.00  0.00     0.191 C 
ATOM     39  O   2DH d   1      19.321  10.636  -0.933  0.00  0.00    -0.647 OA
ATOM     40  OXT 2DH d   1      17.877  12.341  -0.902  0.00  0.00    -0.647 OA
ENDBRANCH  35  38
ENDBRANCH   1  35
BRANCH   5  41
ATOM     41  OAT 2DH d   1      12.233  10.051  -5.474  0.00  0.00    -0.356 OA
BRANCH  41  42
ATOM     42  CAA 2DH d   1      10.878   9.807  -5.004  0.00  0.00     0.010 C 
ATOM     43  H5  2DH d   1      10.199   9.731  -5.866  0.00  0.00     0.066 H 
ATOM     44  H6  2DH d   1      10.559  10.638  -4.358  0.00  0.00     0.066 H 
ATOM     45  H7  2DH d   1      10.852   8.868  -4.432  0.00  0.00     0.066 H 
ENDBRANCH  41  42
ENDBRANCH   5  41
TORSDOF 8
