REMARK  9 active torsions:
REMARK  status: ('A' for Active; 'I' for Inactive)
REMARK    1  A    between atoms: C_2  and  CA_4 
REMARK    2  A    between atoms: CA_4  and  N_5 
REMARK    3  A    between atoms: CAY_9  and  OAU_10 
REMARK    4  A    between atoms: OAU_10  and  CAA_11 
REMARK    5  A    between atoms: CBA_15  and  CAW_16 
REMARK       I    between atoms: CAW_16  and  NAT_18 
REMARK    6  A    between atoms: NAT_18  and  SBF_19 
REMARK    7  A    between atoms: SBF_19  and  CAS_22 
REMARK    8  A    between atoms: CAS_22  and  CAX_23 
REMARK    9  A    between atoms: CAZ_26  and  CBE_27 
ROOT
ATOM      1  N   2DV d   1      15.815  10.823  -1.401  0.00  0.00    -0.332 N 
ATOM      2  CBC 2DV d   1      15.079  10.668  -2.519  0.00  0.00     0.046 A 
ATOM      3  CAO 2DV d   1      15.453  10.513  -3.794  0.00  0.00    -0.053 A 
ATOM      4  CAN 2DV d   1      14.504  10.363  -4.800  0.00  0.00    -0.049 A 
ATOM      5  CAY 2DV d   1      13.156  10.371  -4.459  0.00  0.00     0.069 A 
ATOM      6  CAP 2DV d   1      12.797  10.553  -3.105  0.00  0.00    -0.039 A 
ATOM      7  CBB 2DV d   1      13.771  10.679  -2.168  0.00  0.00    -0.004 A 
ATOM      8  CAQ 2DV d   1      13.715  10.861  -0.825  0.00  0.00    -0.039 A 
ATOM      9  CBA 2DV d   1      14.970  10.935  -0.357  0.00  0.00     0.105 A 
ATOM     10  H3  2DV d   1      16.507  10.504  -4.046  0.00  0.00     0.087 H 
ATOM     11  H4  2DV d   1      14.810  10.242  -5.833  0.00  0.00     0.087 H 
ATOM     12  H8  2DV d   1      11.753  10.592  -2.817  0.00  0.00     0.089 H 
ATOM     13  H9  2DV d   1      12.807  10.934  -0.229  0.00  0.00     0.088 H 
ENDROOT
BRANCH   9  14
ATOM     14  CAW 2DV d   1      15.326  11.076   0.943  0.00  0.00     0.281 C 
ATOM     15  OAC 2DV d   1      16.141  11.947   1.314  0.00  0.00    -0.265 OA
ATOM     16  NAT 2DV d   1      14.744  10.133   1.761  0.00  0.00    -0.249 N 
ATOM     17  H10 2DV d   1      14.119   9.455   1.374  0.00  0.00     0.182 HD
BRANCH  16  18
ATOM     18  SBF 2DV d   1      15.092  10.117   3.460  0.00  0.00     0.237 S 
ATOM     19  OAD 2DV d   1      16.105   9.027   3.723  0.00  0.00    -0.205 OA
ATOM     20  OAE 2DV d   1      15.558  11.518   3.890  0.00  0.00    -0.205 OA
BRANCH  18  21
ATOM     21  CAS 2DV d   1      13.603   9.621   4.413  0.00  0.00     0.070 C 
ATOM     22  H11 2DV d   1      13.324   8.591   4.145  0.00  0.00     0.066 H 
ATOM     23  H12 2DV d   1      12.772  10.300   4.172  0.00  0.00     0.066 H 
BRANCH  21  24
ATOM     24  CAX 2DV d   1      13.878   9.688   5.811  0.00  0.00    -0.043 A 
ATOM     25  CAJ 2DV d   1      13.352  10.730   6.557  0.00  0.00    -0.075 A 
ATOM     26  CAL 2DV d   1      13.576  10.845   7.922  0.00  0.00    -0.068 A 
ATOM     27  H13 2DV d   1      12.747  11.479   6.059  0.00  0.00     0.084 H 
ATOM     28  CAZ 2DV d   1      14.364   9.926   8.577  0.00  0.00     0.047 A 
ATOM     29  H14 2DV d   1      13.128  11.663   8.475  0.00  0.00     0.084 H 
ATOM     30  CAM 2DV d   1      14.902   8.871   7.831  0.00  0.00    -0.068 A 
ATOM     31  CAK 2DV d   1      14.671   8.749   6.455  0.00  0.00    -0.075 A 
ATOM     32  H15 2DV d   1      15.514   8.129   8.331  0.00  0.00     0.084 H 
ATOM     33  H16 2DV d   1      15.108   7.928   5.898  0.00  0.00     0.084 H 
BRANCH  28  34
ATOM     34  CBE 2DV d   1      14.579  10.059   9.986  0.00  0.00     0.417 C 
ATOM     35  FAH 2DV d   1      13.949  11.360  10.559  0.00  0.00    -0.166 F 
ATOM     36  FAI 2DV d   1      14.086   9.023  10.596  0.00  0.00    -0.166 F 
ATOM     37  FAG 2DV d   1      15.851  10.046  10.229  0.00  0.00    -0.166 F 
ENDBRANCH  28  34
ENDBRANCH  21  24
ENDBRANCH  18  21
ENDBRANCH  16  18
ENDBRANCH   9  14
BRANCH   1  38
ATOM     38  CA  2DV d   1      17.280  10.831  -1.313  0.00  0.00     0.080 C 
ATOM     39  H1  2DV d   1      17.705  10.853  -2.327  0.00  0.00     0.081 H 
ATOM     40  H2  2DV d   1      17.606  11.724  -0.759  0.00  0.00     0.081 H 
BRANCH  38  41
ATOM     41  C   2DV d   1      17.770   9.578  -0.586  0.00  0.00     0.191 C 
ATOM     42  O   2DV d   1      19.012   9.500  -0.388  0.00  0.00    -0.647 OA
ATOM     43  OXT 2DV d   1      16.921   8.731  -0.193  0.00  0.00    -0.647 OA
ENDBRANCH  38  41
ENDBRANCH   1  38
BRANCH   5  44
ATOM     44  OAU 2DV d   1      12.249  10.214  -5.471  0.00  0.00    -0.356 OA
BRANCH  44  45
ATOM     45  CAA 2DV d   1      10.954   9.738  -5.110  0.00  0.00     0.010 C 
ATOM     46  H5  2DV d   1      10.328   9.658  -6.011  0.00  0.00     0.066 H 
ATOM     47  H6  2DV d   1      10.489  10.440  -4.402  0.00  0.00     0.066 H 
ATOM     48  H7  2DV d   1      11.045   8.749  -4.638  0.00  0.00     0.066 H 
ENDBRANCH  44  45
ENDBRANCH   5  44
TORSDOF 9
