REMARK  7 active torsions:
REMARK  status: ('A' for Active; 'I' for Inactive)
REMARK    1  A    between atoms: C01_1  and  N02_2 
REMARK    2  A    between atoms: N02_2  and  C03_3 
REMARK    3  A    between atoms: C05_5  and  C09_9 
REMARK    4  A    between atoms: C14_14  and  O15_15 
REMARK    5  A    between atoms: O15_15  and  C16_16 
REMARK    6  A    between atoms: C19_19  and  N20_20 
REMARK    7  A    between atoms: N20_20  and  C21_21 
ROOT
ATOM      1  C16 2F4 d   1      13.774  89.072  40.199  0.00  0.00     0.078 A 
ATOM      2  C17 2F4 d   1      15.142  89.162  40.422  0.00  0.00    -0.048 A 
ATOM      3  C18 2F4 d   1      15.690  88.696  41.620  0.00  0.00    -0.054 A 
ATOM      4  C19 2F4 d   1      14.860  88.154  42.580  0.00  0.00     0.049 A 
ATOM      5  C32 2F4 d   1      13.501  88.078  42.353  0.00  0.00    -0.054 A 
ATOM      6  C33 2F4 d   1      12.955  88.544  41.167  0.00  0.00    -0.048 A 
ATOM      7  H11 2F4 d   1      15.786  89.595  39.665  0.00  0.00     0.087 H 
ATOM      8  H12 2F4 d   1      16.758  88.760  41.794  0.00  0.00     0.087 H 
ATOM      9  H17 2F4 d   1      12.854  87.650  43.110  0.00  0.00     0.087 H 
ATOM     10  H18 2F4 d   1      11.885  88.492  41.004  0.00  0.00     0.087 H 
ENDROOT
BRANCH   1  11
ATOM     11  O15 2F4 d   1      13.189  89.542  39.026  0.00  0.00    -0.291 OA
BRANCH  11  12
ATOM     12  C14 2F4 d   1      12.803  88.547  38.151  0.00  0.00     0.180 A 
ATOM     13  C09 2F4 d   1      11.647  88.737  37.413  0.00  0.00     0.028 A 
ATOM     14  C10 2F4 d   1      11.231  87.773  36.528  0.00  0.00    -0.067 A 
ATOM     15  C11 2F4 d   1      12.005  86.640  36.401  0.00  0.00    -0.065 A 
ATOM     16  H8  2F4 d   1      10.324  87.899  35.948  0.00  0.00     0.085 H 
ATOM     17  C12 2F4 d   1      13.155  86.496  37.155  0.00  0.00     0.005 A 
ATOM     18  H9  2F4 d   1      11.711  85.860  35.708  0.00  0.00     0.085 H 
ATOM     19  N13 2F4 d   1      13.527  87.447  38.012  0.00  0.00    -0.236 NA
ATOM     20  H10 2F4 d   1      13.759  85.602  37.048  0.00  0.00     0.114 H 
BRANCH  13  21
ATOM     21  C05 2F4 d   1      10.909  89.890  37.589  0.00  0.00    -0.017 A 
ATOM     22  C04 2F4 d   1      10.484  90.246  38.841  0.00  0.00    -0.028 A 
ATOM     23  C03 2F4 d   1       9.748  91.400  39.033  0.00  0.00     0.123 A 
ATOM     24  H5  2F4 d   1      10.727  89.617  39.690  0.00  0.00     0.090 H 
ATOM     25  N08 2F4 d   1       9.445  92.185  37.996  0.00  0.00    -0.244 NA
ATOM     26  C07 2F4 d   1       9.844  91.860  36.771  0.00  0.00     0.005 A 
ATOM     27  C06 2F4 d   1      10.581  90.713  36.544  0.00  0.00    -0.055 A 
ATOM     28  H7  2F4 d   1       9.588  92.504  35.937  0.00  0.00     0.114 H 
ATOM     29  H6  2F4 d   1      10.900  90.464  35.538  0.00  0.00     0.087 H 
BRANCH  23  30
ATOM     30  N02 2F4 d   1       9.326  91.744  40.348  0.00  0.00    -0.379 N 
ATOM     31  H4  2F4 d   1       8.515  92.364  40.484  0.00  0.00     0.160 HD
BRANCH  30  32
ATOM     32  C01 2F4 d   1      10.032  91.226  41.484  0.00  0.00    -0.020 C 
ATOM     33  H1  2F4 d   1       9.564  91.598  42.407  0.00  0.00     0.056 H 
ATOM     34  H2  2F4 d   1      11.081  91.556  41.446  0.00  0.00     0.056 H 
ATOM     35  H3  2F4 d   1       9.993  90.127  41.470  0.00  0.00     0.056 H 
ENDBRANCH  30  32
ENDBRANCH  23  30
ENDBRANCH  13  21
ENDBRANCH  11  12
ENDBRANCH   1  11
BRANCH   4  36
ATOM     36  N20 2F4 d   1      15.352  87.653  43.846  0.00  0.00    -0.190 N 
ATOM     37  H13 2F4 d   1      14.706  87.106  44.433  0.00  0.00     0.184 HD
BRANCH  36  38
ATOM     38  C21 2F4 d   1      16.682  87.871  44.334  0.00  0.00     0.706 A 
ATOM     39  N22 2F4 d   1      17.785  87.995  43.604  0.00  0.00    -0.187 N 
ATOM     40  C23 2F4 d   1      18.842  88.189  44.466  0.00  0.00     0.082 A 
ATOM     41  H14 2F4 d   1      17.840  87.954  42.576  0.00  0.00     0.184 HD
ATOM     42  C24 2F4 d   1      20.220  88.387  44.246  0.00  0.00    -0.051 A 
ATOM     43  C30 2F4 d   1      18.357  88.168  45.730  0.00  0.00     0.144 A 
ATOM     44  C25 2F4 d   1      21.080  88.555  45.317  0.00  0.00    -0.040 A 
ATOM     45  H15 2F4 d   1      20.608  88.408  43.234  0.00  0.00     0.087 H 
ATOM     46  C26 2F4 d   1      20.578  88.530  46.604  0.00  0.00     0.157 A 
ATOM     47  H16 2F4 d   1      22.140  88.705  45.147  0.00  0.00     0.088 H 
ATOM     48  F27 2F4 d   1      21.385  88.685  47.625  0.00  0.00    -0.203 F 
ATOM     49  C28 2F4 d   1      19.235  88.341  46.825  0.00  0.00     0.186 A 
ATOM     50  F29 2F4 d   1      18.772  88.319  48.051  0.00  0.00    -0.200 F 
ATOM     51  N31 2F4 d   1      17.004  87.967  45.631  0.00  0.00    -0.059 NA
ENDBRANCH  36  38
ENDBRANCH   4  36
TORSDOF 7
