REMARK  5 active torsions:
REMARK  status: ('A' for Active; 'I' for Inactive)
REMARK    1  A    between atoms: C02_2  and  C03_3 
REMARK    2  A    between atoms: C02_2  and  C12_12 
REMARK    3  A    between atoms: C15_15  and  O16_16 
REMARK    4  A    between atoms: O16_16  and  C17_17 
REMARK    5  A    between atoms: C22_22  and  N23_23 
ROOT
ATOM      1  C12 2F5 d   1     -14.697  42.870  87.674  0.00  0.00     0.018 A 
ATOM      2  C13 2F5 d   1     -15.574  41.932  88.267  0.00  0.00    -0.066 A 
ATOM      3  C14 2F5 d   1     -15.107  40.680  88.663  0.00  0.00    -0.049 A 
ATOM      4  C15 2F5 d   1     -13.771  40.344  88.469  0.00  0.00     0.078 A 
ATOM      5  C29 2F5 d   1     -12.889  41.272  87.894  0.00  0.00    -0.049 A 
ATOM      6  C30 2F5 d   1     -13.363  42.532  87.494  0.00  0.00    -0.066 A 
ATOM      7  H6  2F5 d   1     -16.617  42.189  88.415  0.00  0.00     0.085 H 
ATOM      8  H7  2F5 d   1     -15.784  39.969  89.122  0.00  0.00     0.087 H 
ATOM      9  H18 2F5 d   1     -11.844  41.017  87.759  0.00  0.00     0.087 H 
ATOM     10  H19 2F5 d   1     -12.683  43.245  87.042  0.00  0.00     0.085 H 
ENDROOT
BRANCH   4  11
ATOM     11  O16 2F5 d   1     -13.337  39.102  88.892  0.00  0.00    -0.289 OA
BRANCH  11  12
ATOM     12  C17 2F5 d   1     -12.963  38.209  87.907  0.00  0.00     0.216 A 
ATOM     13  N18 2F5 d   1     -13.695  38.073  86.776  0.00  0.00    -0.232 NA
ATOM     14  C19 2F5 d   1     -13.325  37.183  85.827  0.00  0.00     0.022 A 
ATOM     15  C20 2F5 d   1     -12.190  36.402  86.027  0.00  0.00     0.021 A 
ATOM     16  H8  2F5 d   1     -13.907  37.079  84.919  0.00  0.00     0.117 H 
ATOM     17  N21 2F5 d   1     -11.457  36.532  87.170  0.00  0.00    -0.238 NA
ATOM     18  H9  2F5 d   1     -11.887  35.687  85.271  0.00  0.00     0.117 H 
ATOM     19  C22 2F5 d   1     -11.820  37.416  88.122  0.00  0.00     0.179 A 
BRANCH  19  20
ATOM     20  N23 2F5 d   1     -11.031  37.565  89.359  0.00  0.00    -0.358 N 
ATOM     21  C24 2F5 d   1     -10.901  36.345  89.907  0.00  0.00     0.016 C 
ATOM     22  C25 2F5 d   1     -10.606  36.475  91.378  0.00  0.00     0.034 C 
ATOM     23  H10 2F5 d   1     -10.075  35.810  89.415  0.00  0.00     0.067 H 
ATOM     24  H11 2F5 d   1     -11.836  35.782  89.770  0.00  0.00     0.067 H 
ATOM     25  O26 2F5 d   1      -9.630  37.534  91.674  0.00  0.00    -0.388 OA
ATOM     26  H12 2F5 d   1     -10.206  35.517  91.742  0.00  0.00     0.076 H 
ATOM     27  H13 2F5 d   1     -11.544  36.705  91.905  0.00  0.00     0.076 H 
ATOM     28  C27 2F5 d   1     -10.031  38.809  91.062  0.00  0.00     0.034 C 
ATOM     29  C28 2F5 d   1     -10.273  38.658  89.584  0.00  0.00     0.016 C 
ATOM     30  H14 2F5 d   1      -9.232  39.548  91.220  0.00  0.00     0.076 H 
ATOM     31  H15 2F5 d   1     -10.956  39.161  91.542  0.00  0.00     0.076 H 
ATOM     32  H16 2F5 d   1     -10.794  39.550  89.206  0.00  0.00     0.067 H 
ATOM     33  H17 2F5 d   1      -9.309  38.549  89.065  0.00  0.00     0.067 H 
ENDBRANCH  19  20
ENDBRANCH  11  12
ENDBRANCH   4  11
BRANCH   1  34
ATOM     34  C02 2F5 d   1     -15.193  44.240  87.238  0.00  0.00     0.227 C 
ATOM     35  O01 2F5 d   1     -14.420  45.005  86.682  0.00  0.00    -0.283 OA
BRANCH  34  36
ATOM     36  C03 2F5 d   1     -16.608  44.703  87.483  0.00  0.00     0.180 A 
ATOM     37  N04 2F5 d   1     -17.691  43.921  87.634  0.00  0.00    -0.336 N 
ATOM     38  C05 2F5 d   1     -18.805  44.735  87.845  0.00  0.00     0.062 A 
ATOM     39  H1  2F5 d   1     -17.698  42.892  87.600  0.00  0.00     0.168 HD
ATOM     40  C06 2F5 d   1     -20.179  44.441  88.069  0.00  0.00    -0.055 A 
ATOM     41  C10 2F5 d   1     -18.368  46.046  87.813  0.00  0.00     0.086 A 
ATOM     42  C07 2F5 d   1     -21.097  45.492  88.251  0.00  0.00    -0.081 A 
ATOM     43  H2  2F5 d   1     -20.517  43.412  88.099  0.00  0.00     0.087 H 
ATOM     44  C08 2F5 d   1     -20.656  46.831  88.215  0.00  0.00    -0.081 A 
ATOM     45  H3  2F5 d   1     -22.145  45.272  88.419  0.00  0.00     0.083 H 
ATOM     46  C09 2F5 d   1     -19.310  47.121  87.998  0.00  0.00    -0.053 A 
ATOM     47  H4  2F5 d   1     -21.366  47.638  88.357  0.00  0.00     0.083 H 
ATOM     48  H5  2F5 d   1     -18.973  48.151  87.969  0.00  0.00     0.087 H 
ATOM     49  N11 2F5 d   1     -17.001  46.008  87.586  0.00  0.00    -0.225 NA
ENDBRANCH  34  36
ENDBRANCH   1  34
TORSDOF 5
