REMARK  7 active torsions:
REMARK  status: ('A' for Active; 'I' for Inactive)
REMARK    1  A    between atoms: C24_18  and  C7_4 
REMARK    2  A    between atoms: C9_6  and  O8_5 
REMARK    3  A    between atoms: O8_5  and  C17_11 
REMARK       I    between atoms: N10_7  and  C9_6 
REMARK    4  A    between atoms: C11_8  and  N10_7 
REMARK    5  A    between atoms: C11_8  and  P13_10 
REMARK    6  A    between atoms: C11_8  and  C24_18 
REMARK    7  A    between atoms: C17_11  and  C18_12 
ROOT
ATOM      1  C11 I1S d   1     -21.925   6.127 -12.668  0.00  0.00     0.091 C 
ATOM      2  H5  I1S d   1     -22.605   6.374 -11.839  0.00  0.00     0.089 H 
ENDROOT
BRANCH   1   3
ATOM      3  N10 I1S d   1     -21.718   4.674 -12.822  0.00  0.00    -0.323 N 
ATOM      4  C9  I1S d   1     -22.430   3.897 -12.008  0.00  0.00     0.361 C 
ATOM      5  O12 I1S d   1     -23.222   4.276 -11.131  0.00  0.00    -0.238 OA
ATOM      6  H4  I1S d   1     -21.083   4.296 -13.496  0.00  0.00     0.165 HD
BRANCH   4   7
ATOM      7  O8  I1S d   1     -22.302   2.467 -12.126  0.00  0.00    -0.299 OA
BRANCH   7   8
ATOM      8  C17 I1S d   1     -23.161   1.643 -11.296  0.00  0.00     0.054 C 
ATOM      9  H7  I1S d   1     -23.292   2.151 -10.329  0.00  0.00     0.082 H 
ATOM     10  H8  I1S d   1     -22.659   0.677 -11.137  0.00  0.00     0.082 H 
BRANCH   8  11
ATOM     11  C18 I1S d   1     -24.550   1.366 -11.879  0.00  0.00    -0.034 A 
ATOM     12  C19 I1S d   1     -25.354   0.382 -11.292  0.00  0.00    -0.075 A 
ATOM     13  C20 I1S d   1     -26.617   0.117 -11.813  0.00  0.00    -0.082 A 
ATOM     14  H9  I1S d   1     -24.994  -0.173 -10.433  0.00  0.00     0.084 H 
ATOM     15  C21 I1S d   1     -27.108   0.827 -12.921  0.00  0.00    -0.083 A 
ATOM     16  H10 I1S d   1     -27.232  -0.650 -11.356  0.00  0.00     0.083 H 
ATOM     17  C30 I1S d   1     -26.320   1.805 -13.509  0.00  0.00    -0.082 A 
ATOM     18  H11 I1S d   1     -28.095   0.612 -13.313  0.00  0.00     0.083 H 
ATOM     19  C31 I1S d   1     -25.046   2.048 -12.976  0.00  0.00    -0.075 A 
ATOM     20  H16 I1S d   1     -26.681   2.369 -14.361  0.00  0.00     0.083 H 
ATOM     21  H17 I1S d   1     -24.423   2.802 -13.443  0.00  0.00     0.084 H 
ENDBRANCH   8  11
ENDBRANCH   7   8
ENDBRANCH   4   7
ENDBRANCH   1   3
BRANCH   1  22
ATOM     22  P13 I1S d   1     -20.276   6.835 -12.432  0.00  0.00     0.120 P 
ATOM     23  O2P I1S d   1     -19.466   6.865 -13.701  0.00  0.00    -0.668 OA
ATOM     24  O3P I1S d   1     -19.691   6.351 -11.059  0.00  0.00    -0.668 OA
ATOM     25  H6  I1S d   1     -20.442   7.815 -12.267  0.00  0.00     0.132 HD
ENDBRANCH   1  22
BRANCH   1  26
ATOM     26  C24 I1S d   1     -22.452   6.600 -13.998  0.00  0.00    -0.013 C 
ATOM     27  H14 I1S d   1     -22.303   7.688 -14.064  0.00  0.00     0.044 H 
ATOM     28  H15 I1S d   1     -21.881   6.102 -14.795  0.00  0.00     0.044 H 
BRANCH  26  29
ATOM     29  C7  I1S d   1     -23.954   6.298 -14.211  0.00  0.00    -0.056 A 
ATOM     30  C6  I1S d   1     -24.990   7.106 -13.756  0.00  0.00    -0.077 A 
ATOM     31  C4  I1S d   1     -26.313   6.706 -13.984  0.00  0.00    -0.082 A 
ATOM     32  H3  I1S d   1     -24.777   8.031 -13.233  0.00  0.00     0.084 H 
ATOM     33  C5  I1S d   1     -26.638   5.566 -14.678  0.00  0.00    -0.083 A 
ATOM     34  H1  I1S d   1     -27.115   7.323 -13.596  0.00  0.00     0.083 H 
ATOM     35  C22 I1S d   1     -25.606   4.742 -15.145  0.00  0.00    -0.082 A 
ATOM     36  H2  I1S d   1     -27.675   5.309 -14.861  0.00  0.00     0.083 H 
ATOM     37  C23 I1S d   1     -24.287   5.168 -14.914  0.00  0.00    -0.077 A 
ATOM     38  H12 I1S d   1     -25.816   3.813 -15.664  0.00  0.00     0.083 H 
ATOM     39  H13 I1S d   1     -23.481   4.565 -15.317  0.00  0.00     0.084 H 
ENDBRANCH  26  29
ENDBRANCH   1  26
TORSDOF 7
