REMARK  7 active torsions:
REMARK  status: ('A' for Active; 'I' for Inactive)
REMARK    1  A    between atoms: CAU_8  and  CAM_9 
REMARK    2  A    between atoms: CAM_9  and  NAN_10 
REMARK    3  A    between atoms: NAN_10  and  CAK_11 
REMARK    4  A    between atoms: CAK_11  and  CAJ_12 
REMARK    5  A    between atoms: CAJ_12  and  CAL_13 
REMARK    6  A    between atoms: CAL_13  and  NAO_14 
REMARK       I    between atoms: NAO_14  and  CAR_15 
REMARK       I    between atoms: CAR_15  and  NAP_17 
REMARK    7  A    between atoms: NAP_17  and  CAV_18 
ROOT
ATOM      1  CAK NON d   1     -42.767  11.719   8.990  0.00  0.00     0.083 C 
ATOM      2  H   NON d   1     -43.427  11.090   8.374  0.00  0.00     0.075 H 
ATOM      3  H   NON d   1     -43.028  12.777   8.843  0.00  0.00     0.075 H 
ENDROOT
BRANCH   1   4
ATOM      4  NAN NON d   1     -41.386  11.513   8.556  0.00  0.00    -0.071 N 
ATOM      5  H   NON d   1     -40.773  11.991   9.197  0.00  0.00     0.277 HD
ATOM      6  H   NON d   1     -41.187  10.525   8.575  0.00  0.00     0.277 HD
BRANCH   4   7
ATOM      7  CAM NON d   1     -41.131  12.015   7.205  0.00  0.00     0.105 C 
ATOM      8  H   NON d   1     -40.460  11.310   6.692  0.00  0.00     0.083 H 
ATOM      9  H   NON d   1     -42.089  12.068   6.666  0.00  0.00     0.083 H 
BRANCH   7  10
ATOM     10  CAU NON d   1     -40.495  13.382   7.183  0.00  0.00    -0.029 A 
ATOM     11  CAH NON d   1     -41.290  14.518   7.196  0.00  0.00    -0.054 A 
ATOM     12  CAS NON d   1     -40.702  15.764   7.147  0.00  0.00     0.036 A 
ATOM     13  H   NON d   1     -42.369  14.427   7.245  0.00  0.00     0.086 H 
ATOM     14 CLB  NON d   1     -41.719  17.171   7.060  0.00  0.00    -0.084 Cl
ATOM     15  CAG NON d   1     -39.334  15.925   7.109  0.00  0.00    -0.041 A 
ATOM     16  CAT NON d   1     -38.555  14.788   7.091  0.00  0.00     0.036 A 
ATOM     17  H   NON d   1     -38.886  16.912   7.094  0.00  0.00     0.088 H 
ATOM     18 CLC  NON d   1     -36.816  14.951   7.003  0.00  0.00    -0.084 Cl
ATOM     19  CAI NON d   1     -39.113  13.525   7.128  0.00  0.00    -0.054 A 
ATOM     20  H   NON d   1     -38.476  12.648   7.114  0.00  0.00     0.086 H 
ENDBRANCH   7  10
ENDBRANCH   4   7
ENDBRANCH   1   4
BRANCH   1  21
ATOM     21  CAJ NON d   1     -42.982  11.364  10.450  0.00  0.00    -0.028 C 
ATOM     22  H   NON d   1     -42.008  11.409  10.960  0.00  0.00     0.037 H 
ATOM     23  H   NON d   1     -43.374  10.337  10.498  0.00  0.00     0.037 H 
BRANCH  21  24
ATOM     24  CAL NON d   1     -43.945  12.272  11.191  0.00  0.00    -0.002 C 
ATOM     25  H   NON d   1     -44.714  11.651  11.673  0.00  0.00     0.064 H 
ATOM     26  H   NON d   1     -44.421  12.947  10.465  0.00  0.00     0.064 H 
BRANCH  24  27
ATOM     27  NAO NON d   1     -43.287  13.075  12.212  0.00  0.00    -0.343 N 
ATOM     28  CAR NON d   1     -43.976  13.891  13.030  0.00  0.00     0.320 C 
ATOM     29  OAA NON d   1     -45.187  13.788  13.207  0.00  0.00    -0.247 OA
ATOM     30  NAP NON d   1     -43.221  14.853  13.678  0.00  0.00    -0.308 N 
ATOM     31  H   NON d   1     -42.237  14.843  13.498  0.00  0.00     0.170 HD
ATOM     32  H   NON d   1     -42.293  13.018  12.308  0.00  0.00     0.164 HD
BRANCH  30  33
ATOM     33  CAV NON d   1     -43.684  15.841  14.560  0.00  0.00     0.043 A 
ATOM     34  CAE NON d   1     -42.729  16.652  15.246  0.00  0.00    -0.050 A 
ATOM     35  CAD NON d   1     -43.269  17.576  16.043  0.00  0.00    -0.043 A 
ATOM     36  H   NON d   1     -41.654  16.527  15.129  0.00  0.00     0.087 H 
ATOM     37  SAQ NON d   1     -44.931  17.499  15.975  0.00  0.00    -0.111 SA
ATOM     38  H   NON d   1     -42.703  18.280  16.651  0.00  0.00     0.095 H 
ATOM     39  CAF NON d   1     -44.943  16.206  14.879  0.00  0.00    -0.019 A 
ATOM     40  H   NON d   1     -45.843  15.735  14.486  0.00  0.00     0.098 H 
ENDBRANCH  30  33
ENDBRANCH  24  27
ENDBRANCH  21  24
ENDBRANCH   1  21
TORSDOF 7
