REMARK  7 active torsions:
REMARK  status: ('A' for Active; 'I' for Inactive)
REMARK    1  A    between atoms: CAL_12  and  CAM_13 
REMARK    2  A    between atoms: CAN_14  and  CAL_12 
REMARK    3  A    between atoms: CAM_13  and  NAP_16 
REMARK    4  A    between atoms: NAQ_17  and  CAN_14 
REMARK    5  A    between atoms: NAP_16  and  CAO_15 
REMARK    6  A    between atoms: CAO_15  and  CAV_22 
REMARK       I    between atoms: CAS_19  and  NAQ_17 
REMARK       I    between atoms: NAR_18  and  CAS_19 
REMARK    7  A    between atoms: NAR_18  and  CAW_23 
ROOT
ATOM      1  CAL NON d   1     -43.350 -11.291 -10.051  0.00  0.00    -0.028 C 
ATOM      2  H   NON d   1     -42.472 -11.046 -10.667  0.00  0.00     0.037 H 
ATOM      3  H   NON d   1     -43.812 -10.362  -9.686  0.00  0.00     0.037 H 
ENDROOT
BRANCH   1   4
ATOM      4  CAM NON d   1     -42.874 -12.084  -8.848  0.00  0.00     0.083 C 
ATOM      5  H   NON d   1     -42.397 -13.010  -9.201  0.00  0.00     0.075 H 
ATOM      6  H   NON d   1     -43.743 -12.334  -8.222  0.00  0.00     0.075 H 
BRANCH   4   7
ATOM      7  NAP NON d   1     -41.909 -11.336  -8.037  0.00  0.00    -0.071 N 
ATOM      8  H   NON d   1     -42.328 -10.458  -7.774  0.00  0.00     0.277 HD
ATOM      9  H   NON d   1     -41.090 -11.162  -8.598  0.00  0.00     0.277 HD
BRANCH   7  10
ATOM     10  CAO NON d   1     -41.493 -12.037  -6.813  0.00  0.00     0.105 C 
ATOM     11  H   NON d   1     -42.390 -12.191  -6.194  0.00  0.00     0.083 H 
ATOM     12  H   NON d   1     -40.786 -11.386  -6.278  0.00  0.00     0.083 H 
BRANCH  10  13
ATOM     13  CAV NON d   1     -40.827 -13.383  -7.000  0.00  0.00    -0.029 A 
ATOM     14  CAJ NON d   1     -41.612 -14.525  -7.042  0.00  0.00    -0.054 A 
ATOM     15  CAT NON d   1     -41.015 -15.763  -7.113  0.00  0.00     0.036 A 
ATOM     16  H   NON d   1     -42.693 -14.443  -7.019  0.00  0.00     0.086 H 
ATOM     17 CLB  NON d   1     -42.016 -17.180  -7.064  0.00  0.00    -0.084 Cl
ATOM     18  CAI NON d   1     -39.643 -15.914  -7.158  0.00  0.00    -0.041 A 
ATOM     19  CAU NON d   1     -38.868 -14.774  -7.100  0.00  0.00     0.036 A 
ATOM     20  H   NON d   1     -39.190 -16.896  -7.236  0.00  0.00     0.088 H 
ATOM     21 CLC  NON d   1     -37.116 -14.939  -6.977  0.00  0.00    -0.084 Cl
ATOM     22  CAK NON d   1     -39.437 -13.513  -7.042  0.00  0.00    -0.054 A 
ATOM     23  H   NON d   1     -38.807 -12.631  -7.029  0.00  0.00     0.086 H 
ENDBRANCH  10  13
ENDBRANCH   7  10
ENDBRANCH   4   7
ENDBRANCH   1   4
BRANCH   1  24
ATOM     24  CAN NON d   1     -44.360 -12.004 -10.933  0.00  0.00    -0.002 C 
ATOM     25  H   NON d   1     -45.029 -11.252 -11.377  0.00  0.00     0.064 H 
ATOM     26  H   NON d   1     -44.947 -12.692 -10.307  0.00  0.00     0.064 H 
BRANCH  24  27
ATOM     27  NAQ NON d   1     -43.744 -12.770 -12.011  0.00  0.00    -0.343 N 
ATOM     28  CAS NON d   1     -44.444 -13.653 -12.747  0.00  0.00     0.320 C 
ATOM     29  OAA NON d   1     -45.672 -13.709 -12.708  0.00  0.00    -0.247 OA
ATOM     30  NAR NON d   1     -43.675 -14.462 -13.543  0.00  0.00    -0.309 N 
ATOM     31  H   NON d   1     -42.691 -14.287 -13.527  0.00  0.00     0.170 HD
ATOM     32  H   NON d   1     -42.773 -12.635 -12.209  0.00  0.00     0.164 HD
BRANCH  30  33
ATOM     33  CAW NON d   1     -44.108 -15.518 -14.388  0.00  0.00     0.036 A 
ATOM     34  CAG NON d   1     -45.429 -15.671 -14.806  0.00  0.00    -0.057 A 
ATOM     35  CAE NON d   1     -45.785 -16.749 -15.602  0.00  0.00    -0.081 A 
ATOM     36  H   NON d   1     -46.178 -14.947 -14.508  0.00  0.00     0.086 H 
ATOM     37  CAD NON d   1     -44.845 -17.679 -15.975  0.00  0.00    -0.083 A 
ATOM     38  H   NON d   1     -46.812 -16.859 -15.932  0.00  0.00     0.083 H 
ATOM     39  CAF NON d   1     -43.534 -17.530 -15.570  0.00  0.00    -0.081 A 
ATOM     40  H   NON d   1     -45.132 -18.527 -16.586  0.00  0.00     0.083 H 
ATOM     41  CAH NON d   1     -43.158 -16.453 -14.785  0.00  0.00    -0.057 A 
ATOM     42  H   NON d   1     -42.793 -18.262 -15.869  0.00  0.00     0.083 H 
ATOM     43  H   NON d   1     -42.124 -16.339 -14.480  0.00  0.00     0.086 H 
ENDBRANCH  30  33
ENDBRANCH  24  27
ENDBRANCH   1  24
TORSDOF 7
