REMARK  8 active torsions:
REMARK  status: ('A' for Active; 'I' for Inactive)
REMARK    1  A    between atoms: CAW_8  and  CAO_9 
REMARK    2  A    between atoms: CAO_9  and  NAP_10 
REMARK    3  A    between atoms: NAP_10  and  CAM_11 
REMARK    4  A    between atoms: CAM_11  and  CAL_12 
REMARK    5  A    between atoms: CAL_12  and  CAN_13 
REMARK    6  A    between atoms: CAN_13  and  NAQ_14 
REMARK       I    between atoms: NAQ_14  and  CAS_15 
REMARK       I    between atoms: CAS_15  and  NAR_17 
REMARK    7  A    between atoms: NAR_17  and  CAX_18 
REMARK    8  A    between atoms: CAT_23  and  OAB_24 
ROOT
ATOM      1  CAL NON d   1     -43.914 -11.162 -10.082  0.00  0.00    -0.028 C 
ATOM      2  H   NON d   1     -43.028 -10.847 -10.652  0.00  0.00     0.037 H 
ATOM      3  H   NON d   1     -44.458 -10.273  -9.729  0.00  0.00     0.037 H 
ENDROOT
BRANCH   1   4
ATOM      4  CAM NON d   1     -43.438 -11.939  -8.861  0.00  0.00     0.083 C 
ATOM      5  H   NON d   1     -44.262 -11.996  -8.135  0.00  0.00     0.075 H 
ATOM      6  H   NON d   1     -43.156 -12.954  -9.176  0.00  0.00     0.075 H 
BRANCH   4   7
ATOM      7  NAP NON d   1     -42.280 -11.307  -8.212  0.00  0.00    -0.071 N 
ATOM      8  H   NON d   1     -41.496 -11.357  -8.844  0.00  0.00     0.277 HD
ATOM      9  H   NON d   1     -42.505 -10.341  -8.032  0.00  0.00     0.277 HD
BRANCH   7  10
ATOM     10  CAO NON d   1     -41.891 -11.935  -6.942  0.00  0.00     0.105 C 
ATOM     11  H   NON d   1     -41.202 -11.250  -6.425  0.00  0.00     0.083 H 
ATOM     12  H   NON d   1     -42.801 -12.064  -6.338  0.00  0.00     0.083 H 
BRANCH  10  13
ATOM     13  CAW NON d   1     -41.211 -13.282  -7.047  0.00  0.00    -0.029 A 
ATOM     14  CAI NON d   1     -41.989 -14.432  -7.053  0.00  0.00    -0.054 A 
ATOM     15  CAU NON d   1     -41.379 -15.667  -7.088  0.00  0.00     0.036 A 
ATOM     16  H   NON d   1     -43.070 -14.359  -7.030  0.00  0.00     0.086 H 
ATOM     17 CLC  NON d   1     -42.368 -17.095  -7.070  0.00  0.00    -0.084 Cl
ATOM     18  CAH NON d   1     -40.008 -15.807  -7.117  0.00  0.00    -0.041 A 
ATOM     19  CAV NON d   1     -39.241 -14.661  -7.088  0.00  0.00     0.036 A 
ATOM     20  H   NON d   1     -39.547 -16.787  -7.161  0.00  0.00     0.088 H 
ATOM     21 CLD  NON d   1     -37.484 -14.816  -6.982  0.00  0.00    -0.084 Cl
ATOM     22  CAJ NON d   1     -39.818 -13.403  -7.070  0.00  0.00    -0.054 A 
ATOM     23  H   NON d   1     -39.194 -12.517  -7.074  0.00  0.00     0.086 H 
ENDBRANCH  10  13
ENDBRANCH   7  10
ENDBRANCH   4   7
ENDBRANCH   1   4
BRANCH   1  24
ATOM     24  CAN NON d   1     -44.827 -11.931 -11.019  0.00  0.00    -0.002 C 
ATOM     25  H   NON d   1     -45.439 -11.209 -11.580  0.00  0.00     0.064 H 
ATOM     26  H   NON d   1     -45.482 -12.577 -10.416  0.00  0.00     0.064 H 
BRANCH  24  27
ATOM     27  NAQ NON d   1     -44.106 -12.765 -11.973  0.00  0.00    -0.343 N 
ATOM     28  CAS NON d   1     -44.755 -13.621 -12.779  0.00  0.00     0.320 C 
ATOM     29  OAA NON d   1     -45.976 -13.620 -12.870  0.00  0.00    -0.247 OA
ATOM     30  NAR NON d   1     -43.945 -14.440 -13.529  0.00  0.00    -0.309 N 
ATOM     31  H   NON d   1     -42.962 -14.276 -13.451  0.00  0.00     0.170 HD
ATOM     32  H   NON d   1     -43.110 -12.698 -12.028  0.00  0.00     0.164 HD
BRANCH  30  33
ATOM     33  CAX NON d   1     -44.336 -15.495 -14.405  0.00  0.00     0.038 A 
ATOM     34  CAK NON d   1     -45.628 -15.634 -14.898  0.00  0.00    -0.025 A 
ATOM     35  CAT NON d   1     -45.968 -16.729 -15.679  0.00  0.00     0.067 A 
ATOM     36  H   NON d   1     -46.375 -14.882 -14.671  0.00  0.00     0.091 H 
ATOM     37  CAF NON d   1     -45.014 -17.677 -16.003  0.00  0.00    -0.051 A 
ATOM     38  CAE NON d   1     -43.720 -17.527 -15.534  0.00  0.00    -0.078 A 
ATOM     39  H   NON d   1     -45.277 -18.530 -16.619  0.00  0.00     0.087 H 
ATOM     40  CAG NON d   1     -43.379 -16.450 -14.730  0.00  0.00    -0.057 A 
ATOM     41  H   NON d   1     -42.966 -18.259 -15.798  0.00  0.00     0.083 H 
ATOM     42  H   NON d   1     -42.367 -16.352 -14.355  0.00  0.00     0.086 H 
BRANCH  35  43
ATOM     43  OAB NON d   1     -47.253 -16.872 -16.109  0.00  0.00    -0.361 OA
ATOM     44  H   NON d   1     -47.773 -16.139 -15.800  0.00  0.00     0.217 HD
ENDBRANCH  35  43
ENDBRANCH  30  33
ENDBRANCH  24  27
ENDBRANCH   1  24
TORSDOF 8
