REMARK  9 active torsions:
REMARK  status: ('A' for Active; 'I' for Inactive)
REMARK    1  A    between atoms: CAA_1  and  OAQ_2 
REMARK    2  A    between atoms: OAQ_2  and  CAW_3 
REMARK    3  A    between atoms: CAU_9  and  CAM_10 
REMARK    4  A    between atoms: CAM_10  and  NAN_11 
REMARK    5  A    between atoms: NAN_11  and  CAK_12 
REMARK    6  A    between atoms: CAK_12  and  CAJ_13 
REMARK    7  A    between atoms: CAJ_13  and  CAL_14 
REMARK    8  A    between atoms: CAL_14  and  NAO_15 
REMARK       I    between atoms: NAO_15  and  CAS_16 
REMARK       I    between atoms: CAS_16  and  NAP_18 
REMARK    9  A    between atoms: NAP_18  and  CAV_19 
ROOT
ATOM      1  CAK NON d   1     -43.080 -12.004  -9.066  0.00  0.00     0.083 C 
ATOM      2  H   NON d   1     -43.893 -12.150  -8.339  0.00  0.00     0.075 H 
ATOM      3  H   NON d   1     -42.665 -12.981  -9.354  0.00  0.00     0.075 H 
ENDROOT
BRANCH   1   4
ATOM      4  NAN NON d   1     -42.023 -11.207  -8.440  0.00  0.00    -0.071 N 
ATOM      5  H   NON d   1     -41.213 -11.227  -9.039  0.00  0.00     0.277 HD
ATOM      6  H   NON d   1     -42.351 -10.258  -8.350  0.00  0.00     0.277 HD
BRANCH   4   7
ATOM      7  CAM NON d   1     -41.629 -11.689  -7.112  0.00  0.00     0.105 C 
ATOM      8  H   NON d   1     -40.906 -10.975  -6.690  0.00  0.00     0.083 H 
ATOM      9  H   NON d   1     -42.528 -11.719  -6.479  0.00  0.00     0.083 H 
BRANCH   7  10
ATOM     10  CAU NON d   1     -40.998 -13.060  -7.097  0.00  0.00    -0.029 A 
ATOM     11  CAI NON d   1     -41.812 -14.179  -7.003  0.00  0.00    -0.043 A 
ATOM     12  CAW NON d   1     -41.252 -15.440  -6.986  0.00  0.00     0.070 A 
ATOM     13  H   NON d   1     -42.888 -14.063  -6.943  0.00  0.00     0.088 H 
ATOM     14  CAH NON d   1     -39.886 -15.623  -7.039  0.00  0.00    -0.030 A 
ATOM     15  CAT NON d   1     -39.089 -14.508  -7.121  0.00  0.00     0.037 A 
ATOM     16  H   NON d   1     -39.455 -16.617  -7.017  0.00  0.00     0.090 H 
ATOM     17 CLC  NON d   1     -37.370 -14.720  -7.163  0.00  0.00    -0.084 Cl
ATOM     18  CAG NON d   1     -39.616 -13.233  -7.157  0.00  0.00    -0.054 A 
ATOM     19  H   NON d   1     -38.961 -12.373  -7.231  0.00  0.00     0.086 H 
BRANCH  12  20
ATOM     20  OAQ NON d   1     -42.166 -16.452  -6.975  0.00  0.00    -0.356 OA
BRANCH  20  21
ATOM     21  CAA NON d   1     -41.695 -17.788  -7.071  0.00  0.00     0.010 C 
ATOM     22  H   NON d   1     -42.549 -18.480  -7.048  0.00  0.00     0.066 H 
ATOM     23  H   NON d   1     -41.026 -18.003  -6.224  0.00  0.00     0.066 H 
ATOM     24  H   NON d   1     -41.144 -17.916  -8.015  0.00  0.00     0.066 H 
ENDBRANCH  20  21
ENDBRANCH  12  20
ENDBRANCH   7  10
ENDBRANCH   4   7
ENDBRANCH   1   4
BRANCH   1  25
ATOM     25  CAJ NON d   1     -43.641 -11.327 -10.299  0.00  0.00    -0.028 C 
ATOM     26  H   NON d   1     -42.797 -11.017 -10.933  0.00  0.00     0.037 H 
ATOM     27  H   NON d   1     -44.202 -10.438  -9.975  0.00  0.00     0.037 H 
BRANCH  25  28
ATOM     28  CAL NON d   1     -44.567 -12.189 -11.136  0.00  0.00    -0.002 C 
ATOM     29  H   NON d   1     -45.265 -11.534 -11.678  0.00  0.00     0.064 H 
ATOM     30  H   NON d   1     -45.133 -12.853 -10.466  0.00  0.00     0.064 H 
BRANCH  28  31
ATOM     31  NAO NON d   1     -43.845 -13.004 -12.102  0.00  0.00    -0.343 N 
ATOM     32  CAS NON d   1     -44.472 -13.850 -12.938  0.00  0.00     0.320 C 
ATOM     33  OAB NON d   1     -45.683 -13.826 -13.117  0.00  0.00    -0.247 OA
ATOM     34  NAP NON d   1     -43.659 -14.736 -13.633  0.00  0.00    -0.308 N 
ATOM     35  H   NON d   1     -42.672 -14.660 -13.494  0.00  0.00     0.170 HD
ATOM     36  H   NON d   1     -42.849 -12.932 -12.145  0.00  0.00     0.164 HD
BRANCH  34  37
ATOM     37  CAV NON d   1     -44.116 -15.738 -14.522  0.00  0.00     0.043 A 
ATOM     38  CAE NON d   1     -43.164 -16.619 -15.118  0.00  0.00    -0.050 A 
ATOM     39  CAD NON d   1     -43.733 -17.556 -15.909  0.00  0.00    -0.043 A 
ATOM     40  H   NON d   1     -42.090 -16.544 -14.953  0.00  0.00     0.087 H 
ATOM     41  SAR NON d   1     -45.423 -17.407 -15.946  0.00  0.00    -0.111 SA
ATOM     42  H   NON d   1     -43.175 -18.314 -16.456  0.00  0.00     0.095 H 
ATOM     43  CAF NON d   1     -45.400 -16.063 -14.908  0.00  0.00    -0.019 A 
ATOM     44  H   NON d   1     -46.290 -15.524 -14.586  0.00  0.00     0.098 H 
ENDBRANCH  34  37
ENDBRANCH  28  31
ENDBRANCH  25  28
ENDBRANCH   1  25
TORSDOF 9
