REMARK  10 active torsions:
REMARK  status: ('A' for Active; 'I' for Inactive)
REMARK       I    between atoms: C13_2  and  N2_3 
REMARK       I    between atoms: C13_2  and  N1_9 
REMARK    1  A    between atoms: N2_3  and  C14_4 
REMARK    2  A    between atoms: N1_9  and  C12_10 
REMARK    3  A    between atoms: C12_10  and  C11_11 
REMARK    4  A    between atoms: C11_11  and  C10_12 
REMARK    5  A    between atoms: C10_12  and  N_13 
REMARK    6  A    between atoms: N_13  and  C9_14 
REMARK    7  A    between atoms: C9_14  and  C5_15 
REMARK    8  A    between atoms: C4_16  and  O_17 
REMARK    9  A    between atoms: C3_22  and  C2_23 
REMARK   10  A    between atoms: C2_23  and  C1_24 
ROOT
ATOM      1  N   NON d   1     -43.584  11.821   7.832  0.00  0.00    -0.071 N 
ATOM      2  H   NON d   1     -44.350  11.211   7.594  0.00  0.00     0.277 HD
ATOM      3  H   NON d   1     -42.739  11.279   7.925  0.00  0.00     0.277 HD
ENDROOT
BRANCH   1   4
ATOM      4  C10 NON d   1     -43.876  12.453   9.124  0.00  0.00     0.083 C 
ATOM      5  H   NON d   1     -43.188  13.299   9.271  0.00  0.00     0.075 H 
ATOM      6  H   NON d   1     -44.913  12.821   9.115  0.00  0.00     0.075 H 
BRANCH   4   7
ATOM      7  C11 NON d   1     -43.710  11.481  10.270  0.00  0.00    -0.028 C 
ATOM      8  H   NON d   1     -44.214  10.540  10.007  0.00  0.00     0.037 H 
ATOM      9  H   NON d   1     -42.636  11.293  10.417  0.00  0.00     0.037 H 
BRANCH   7  10
ATOM     10  C12 NON d   1     -44.287  11.988  11.558  0.00  0.00    -0.002 C 
ATOM     11  H   NON d   1     -45.257  12.461  11.343  0.00  0.00     0.064 H 
ATOM     12  H   NON d   1     -44.438  11.132  12.233  0.00  0.00     0.064 H 
BRANCH  10  13
ATOM     13  N1  NON d   1     -43.438  12.962  12.231  0.00  0.00    -0.343 N 
ATOM     14  C13 NON d   1     -43.960  13.832  13.109  0.00  0.00     0.320 C 
ATOM     15  O1  NON d   1     -45.120  13.752  13.500  0.00  0.00    -0.247 OA
ATOM     16  N2  NON d   1     -43.129  14.821  13.593  0.00  0.00    -0.308 N 
ATOM     17  H   NON d   1     -42.172  14.821  13.305  0.00  0.00     0.170 HD
ATOM     18  H   NON d   1     -42.457  12.982  12.037  0.00  0.00     0.164 HD
BRANCH  16  19
ATOM     19  C14 NON d   1     -43.563  15.828  14.472  0.00  0.00     0.043 A 
ATOM     20  C17 NON d   1     -42.611  16.771  14.969  0.00  0.00    -0.050 A 
ATOM     21  C16 NON d   1     -43.165  17.713  15.766  0.00  0.00    -0.043 A 
ATOM     22  H   NON d   1     -41.549  16.735  14.731  0.00  0.00     0.087 H 
ATOM     23  S   NON d   1     -44.858  17.471  15.912  0.00  0.00    -0.111 SA
ATOM     24  H   NON d   1     -42.612  18.517  16.250  0.00  0.00     0.095 H 
ATOM     25  C15 NON d   1     -44.846  16.097  14.925  0.00  0.00    -0.019 A 
ATOM     26  H   NON d   1     -45.726  15.504  14.679  0.00  0.00     0.098 H 
ENDBRANCH  16  19
ENDBRANCH  10  13
ENDBRANCH   7  10
ENDBRANCH   4   7
ENDBRANCH   1   4
BRANCH   1  27
ATOM     27  C9  NON d   1     -43.401  12.781   6.743  0.00  0.00     0.108 C 
ATOM     28  H   NON d   1     -44.339  13.342   6.618  0.00  0.00     0.083 H 
ATOM     29  H   NON d   1     -43.184  12.219   5.822  0.00  0.00     0.083 H 
BRANCH  27  30
ATOM     30  C5  NON d   1     -42.282  13.775   6.964  0.00  0.00     0.003 A 
ATOM     31  C4  NON d   1     -40.992  13.327   7.275  0.00  0.00     0.080 A 
ATOM     32  C3  NON d   1     -39.917  14.219   7.408  0.00  0.00    -0.019 A 
ATOM     33  C8  NON d   1     -40.163  15.577   7.231  0.00  0.00    -0.053 A 
ATOM     34  C7  NON d   1     -41.438  16.011   6.929  0.00  0.00     0.035 A 
ATOM     35  H   NON d   1     -39.355  16.293   7.330  0.00  0.00     0.087 H 
ATOM     36  C6  NON d   1     -42.493  15.136   6.803  0.00  0.00    -0.051 A 
ATOM     37 CL   NON d   1     -41.717  17.711   6.675  0.00  0.00    -0.084 Cl
ATOM     38  H   NON d   1     -43.486  15.510   6.579  0.00  0.00     0.087 H 
BRANCH  31  39
ATOM     39  O   NON d   1     -40.780  11.997   7.440  0.00  0.00    -0.360 OA
ATOM     40  H   NON d   1     -39.865  11.846   7.646  0.00  0.00     0.217 HD
ENDBRANCH  31  39
BRANCH  32  41
ATOM     41  C2  NON d   1     -38.507  13.731   7.701  0.00  0.00    -0.024 C 
ATOM     42  H   NON d   1     -38.427  12.678   7.393  0.00  0.00     0.046 H 
ATOM     43  H   NON d   1     -38.324  13.812   8.783  0.00  0.00     0.046 H 
BRANCH  41  44
ATOM     44  C1  NON d   1     -37.452  14.531   6.970  0.00  0.00    -0.108 C 
ATOM     45  C   NON d   1     -36.805  15.539   7.444  0.00  0.00    -0.124 C 
ATOM     46  H   NON d   1     -36.062  16.047   6.830  0.00  0.00     0.066 H 
ATOM     47  H   NON d   1     -37.001  15.883   8.458  0.00  0.00     0.066 H 
ATOM     48  H   NON d   1     -37.218  14.227   5.951  0.00  0.00     0.076 H 
ENDBRANCH  41  44
ENDBRANCH  32  41
ENDBRANCH  27  30
ENDBRANCH   1  27
TORSDOF 10
