REMARK  8 active torsions:
REMARK  status: ('A' for Active; 'I' for Inactive)
REMARK    1  A    between atoms: C_3  and  O_4 
REMARK    2  A    between atoms: C1_9  and  C2_10 
REMARK    3  A    between atoms: C2_10  and  N_11 
REMARK    4  A    between atoms: N_11  and  C3_12 
REMARK    5  A    between atoms: C3_12  and  C4_13 
REMARK    6  A    between atoms: C4_13  and  C5_14 
REMARK    7  A    between atoms: C5_14  and  N1_15 
REMARK       I    between atoms: N1_15  and  C6_16 
REMARK       I    between atoms: C6_16  and  N2_18 
REMARK    8  A    between atoms: N2_18  and  C7_19 
ROOT
ATOM      1  C3  NON d   1     -42.950  11.819   8.953  0.00  0.00     0.083 C 
ATOM      2  H   NON d   1     -43.765  11.453   8.311  0.00  0.00     0.075 H 
ATOM      3  H   NON d   1     -42.994  12.916   9.012  0.00  0.00     0.075 H 
ENDROOT
BRANCH   1   4
ATOM      4  N   NON d   1     -41.668  11.432   8.352  0.00  0.00    -0.071 N 
ATOM      5  H   NON d   1     -40.927  11.703   8.979  0.00  0.00     0.277 HD
ATOM      6  H   NON d   1     -41.660  10.431   8.235  0.00  0.00     0.277 HD
BRANCH   4   7
ATOM      7  C2  NON d   1     -41.423  12.055   7.045  0.00  0.00     0.108 C 
ATOM      8  H   NON d   1     -40.738  11.403   6.483  0.00  0.00     0.083 H 
ATOM      9  H   NON d   1     -42.385  12.118   6.516  0.00  0.00     0.083 H 
BRANCH   7  10
ATOM     10  C1  NON d   1     -40.820  13.441   7.079  0.00  0.00     0.003 A 
ATOM     11  C   NON d   1     -39.415  13.613   7.093  0.00  0.00     0.090 A 
ATOM     12  C14 NON d   1     -38.864  14.913   7.092  0.00  0.00     0.041 A 
ATOM     13  I   NON d   1     -36.756  15.218   7.000  0.00  0.00    -0.042 I 
ATOM     14  C13 NON d   1     -39.707  16.019   7.110  0.00  0.00    -0.043 A 
ATOM     15  C12 NON d   1     -41.076  15.821   7.089  0.00  0.00     0.036 A 
ATOM     16  H   NON d   1     -39.297  17.022   7.140  0.00  0.00     0.088 H 
ATOM     17 CL   NON d   1     -42.130  17.199   7.035  0.00  0.00    -0.084 Cl
ATOM     18  C11 NON d   1     -41.633  14.563   7.074  0.00  0.00    -0.051 A 
ATOM     19  H   NON d   1     -42.711  14.449   7.058  0.00  0.00     0.087 H 
BRANCH  11  20
ATOM     20  O   NON d   1     -38.600  12.526   7.124  0.00  0.00    -0.359 OA
ATOM     21  H   NON d   1     -39.127  11.736   7.120  0.00  0.00     0.217 HD
ENDBRANCH  11  20
ENDBRANCH   7  10
ENDBRANCH   4   7
ENDBRANCH   1   4
BRANCH   1  22
ATOM     22  C4  NON d   1     -43.137  11.245  10.356  0.00  0.00    -0.028 C 
ATOM     23  H   NON d   1     -42.157  11.246  10.855  0.00  0.00     0.037 H 
ATOM     24  H   NON d   1     -43.494  10.210  10.252  0.00  0.00     0.037 H 
BRANCH  22  25
ATOM     25  C5  NON d   1     -44.115  11.988  11.249  0.00  0.00    -0.002 C 
ATOM     26  H   NON d   1     -44.708  11.252  11.812  0.00  0.00     0.064 H 
ATOM     27  H   NON d   1     -44.783  12.590  10.616  0.00  0.00     0.064 H 
BRANCH  25  28
ATOM     28  N1  NON d   1     -43.447  12.872  12.196  0.00  0.00    -0.343 N 
ATOM     29  C6  NON d   1     -44.124  13.750  12.959  0.00  0.00     0.320 C 
ATOM     30  O1  NON d   1     -45.350  13.750  13.036  0.00  0.00    -0.247 OA
ATOM     31  N2  NON d   1     -43.343  14.649  13.663  0.00  0.00    -0.308 N 
ATOM     32  H   NON d   1     -42.353  14.560  13.556  0.00  0.00     0.170 HD
ATOM     33  H   NON d   1     -42.452  12.825  12.282  0.00  0.00     0.164 HD
BRANCH  31  34
ATOM     34  C7  NON d   1     -43.800  15.687  14.524  0.00  0.00     0.043 A 
ATOM     35  C10 NON d   1     -42.840  16.581  15.092  0.00  0.00    -0.050 A 
ATOM     36  C9  NON d   1     -43.378  17.534  15.867  0.00  0.00    -0.043 A 
ATOM     37  H   NON d   1     -41.769  16.496  14.912  0.00  0.00     0.087 H 
ATOM     38  S   NON d   1     -45.070  17.382  15.927  0.00  0.00    -0.111 SA
ATOM     39  H   NON d   1     -42.808  18.302  16.388  0.00  0.00     0.095 H 
ATOM     40  C8  NON d   1     -45.074  16.021  14.912  0.00  0.00    -0.019 A 
ATOM     41  H   NON d   1     -45.971  15.483  14.608  0.00  0.00     0.098 H 
ENDBRANCH  31  34
ENDBRANCH  25  28
ENDBRANCH  22  25
ENDBRANCH   1  22
TORSDOF 8
