REMARK  13 active torsions:
REMARK  status: ('A' for Active; 'I' for Inactive)
REMARK    1  A    between atoms: C7_5  and  C16_19 
REMARK    2  A    between atoms: C8_6  and  O_7 
REMARK    3  A    between atoms: O_7  and  C9_8 
REMARK    4  A    between atoms: C9_8  and  C10_9 
REMARK    5  A    between atoms: C3_15  and  C2_16 
REMARK    6  A    between atoms: C2_16  and  C1_17 
REMARK    7  A    between atoms: C1_17  and  C_18 
REMARK    8  A    between atoms: C16_19  and  N_20 
REMARK    9  A    between atoms: N_20  and  C17_21 
REMARK   10  A    between atoms: C17_21  and  C18_22 
REMARK   11  A    between atoms: C18_22  and  C19_23 
REMARK   12  A    between atoms: C19_23  and  N1_24 
REMARK       I    between atoms: N1_24  and  C20_25 
REMARK       I    between atoms: C20_25  and  N2_27 
REMARK   13  A    between atoms: N2_27  and  C21_28 
ROOT
ATOM      1 CL   NON d   1     -36.993 -15.011  -7.102  0.00  0.00    -0.084 Cl
ATOM      2  C5  NON d   1     -38.698 -14.678  -7.238  0.00  0.00     0.035 A 
ATOM      3  C4  NON d   1     -39.596 -15.713  -7.097  0.00  0.00    -0.053 A 
ATOM      4  C6  NON d   1     -39.118 -13.380  -7.437  0.00  0.00    -0.051 A 
ATOM      5  C7  NON d   1     -40.481 -13.085  -7.455  0.00  0.00     0.003 A 
ATOM      6  C8  NON d   1     -41.391 -14.129  -7.229  0.00  0.00     0.083 A 
ATOM      7  C3  NON d   1     -40.966 -15.458  -7.105  0.00  0.00    -0.019 A 
ATOM      8  H   NON d   1     -39.236 -16.729  -6.979  0.00  0.00     0.087 H 
ATOM      9  H   NON d   1     -38.390 -12.590  -7.579  0.00  0.00     0.087 H 
ENDROOT
BRANCH   5  10
ATOM     10  C16 NON d   1     -40.967 -11.698  -7.820  0.00  0.00     0.108 C 
ATOM     11  H   NON d   1     -40.199 -10.970  -7.520  0.00  0.00     0.083 H 
ATOM     12  H   NON d   1     -41.897 -11.499  -7.266  0.00  0.00     0.083 H 
BRANCH  10  13
ATOM     13  N   NON d   1     -41.236 -11.524  -9.260  0.00  0.00    -0.071 N 
ATOM     14  H   NON d   1     -41.169 -12.426  -9.705  0.00  0.00     0.277 HD
ATOM     15  H   NON d   1     -40.534 -10.909  -9.640  0.00  0.00     0.277 HD
BRANCH  13  16
ATOM     16  C17 NON d   1     -42.563 -10.955  -9.567  0.00  0.00     0.083 C 
ATOM     17  H   NON d   1     -42.481 -10.353 -10.484  0.00  0.00     0.075 H 
ATOM     18  H   NON d   1     -42.868 -10.310  -8.730  0.00  0.00     0.075 H 
BRANCH  16  19
ATOM     19  C18 NON d   1     -43.641 -12.016  -9.779  0.00  0.00    -0.028 C 
ATOM     20  H   NON d   1     -44.421 -11.859  -9.020  0.00  0.00     0.037 H 
ATOM     21  H   NON d   1     -43.177 -13.002  -9.630  0.00  0.00     0.037 H 
BRANCH  19  22
ATOM     22  C19 NON d   1     -44.314 -12.020 -11.145  0.00  0.00    -0.002 C 
ATOM     23  H   NON d   1     -44.356 -10.986 -11.517  0.00  0.00     0.064 H 
ATOM     24  H   NON d   1     -45.336 -12.409 -11.029  0.00  0.00     0.064 H 
BRANCH  22  25
ATOM     25  N1  NON d   1     -43.615 -12.839 -12.132  0.00  0.00    -0.343 N 
ATOM     26  C20 NON d   1     -44.257 -13.681 -12.971  0.00  0.00     0.320 C 
ATOM     27  O1  NON d   1     -45.468 -13.606 -13.204  0.00  0.00    -0.247 OA
ATOM     28  N2  NON d   1     -43.440 -14.630 -13.602  0.00  0.00    -0.308 N 
ATOM     29  H   NON d   1     -42.461 -14.564 -13.408  0.00  0.00     0.170 HD
ATOM     30  H   NON d   1     -42.619 -12.774 -12.189  0.00  0.00     0.164 HD
BRANCH  28  31
ATOM     31  C21 NON d   1     -43.835 -15.688 -14.495  0.00  0.00     0.043 A 
ATOM     32  C24 NON d   1     -42.829 -16.586 -14.976  0.00  0.00    -0.050 A 
ATOM     33  C23 NON d   1     -43.304 -17.565 -15.776  0.00  0.00    -0.043 A 
ATOM     34  H   NON d   1     -41.775 -16.488 -14.720  0.00  0.00     0.087 H 
ATOM     35  S   NON d   1     -45.011 -17.425 -15.957  0.00  0.00    -0.111 SA
ATOM     36  H   NON d   1     -42.692 -18.336 -16.242  0.00  0.00     0.095 H 
ATOM     37  C22 NON d   1     -45.089 -16.038 -14.968  0.00  0.00    -0.019 A 
ATOM     38  H   NON d   1     -46.006 -15.497 -14.738  0.00  0.00     0.098 H 
ENDBRANCH  28  31
ENDBRANCH  22  25
ENDBRANCH  19  22
ENDBRANCH  16  19
ENDBRANCH  13  16
ENDBRANCH  10  13
ENDBRANCH   5  10
BRANCH   6  39
ATOM     39  O   NON d   1     -42.734 -13.805  -7.001  0.00  0.00    -0.345 OA
BRANCH  39  40
ATOM     40  C9  NON d   1     -43.749 -14.809  -7.166  0.00  0.00     0.050 C 
ATOM     41  H   NON d   1     -43.668 -15.522  -6.332  0.00  0.00     0.082 H 
ATOM     42  H   NON d   1     -43.566 -15.333  -8.116  0.00  0.00     0.082 H 
BRANCH  40  43
ATOM     43  C10 NON d   1     -45.150 -14.268  -7.189  0.00  0.00    -0.034 A 
ATOM     44  C15 NON d   1     -45.569 -13.296  -6.292  0.00  0.00    -0.075 A 
ATOM     45  C14 NON d   1     -46.907 -12.947  -6.201  0.00  0.00    -0.082 A 
ATOM     46  H   NON d   1     -44.842 -12.804  -5.656  0.00  0.00     0.084 H 
ATOM     47  C13 NON d   1     -47.840 -13.555  -7.014  0.00  0.00    -0.083 A 
ATOM     48  H   NON d   1     -47.221 -12.193  -5.488  0.00  0.00     0.083 H 
ATOM     49  C12 NON d   1     -47.434 -14.500  -7.928  0.00  0.00    -0.082 A 
ATOM     50  H   NON d   1     -48.888 -13.290  -6.934  0.00  0.00     0.083 H 
ATOM     51  C11 NON d   1     -46.097 -14.849  -8.021  0.00  0.00    -0.075 A 
ATOM     52  H   NON d   1     -48.163 -14.973  -8.577  0.00  0.00     0.083 H 
ATOM     53  H   NON d   1     -45.786 -15.585  -8.753  0.00  0.00     0.084 H 
ENDBRANCH  40  43
ENDBRANCH  39  40
ENDBRANCH   6  39
BRANCH   7  54
ATOM     54  C2  NON d   1     -41.783 -16.736  -7.132  0.00  0.00    -0.024 C 
ATOM     55  H   NON d   1     -41.706 -17.192  -8.130  0.00  0.00     0.046 H 
ATOM     56  H   NON d   1     -42.835 -16.496  -6.919  0.00  0.00     0.046 H 
BRANCH  54  57
ATOM     57  C1  NON d   1     -41.309 -17.660  -6.159  0.00  0.00    -0.108 C 
ATOM     58  H   NON d   1     -40.626 -18.436  -6.500  0.00  0.00     0.076 H 
BRANCH  57  59
ATOM     59  C   NON d   1     -41.595 -17.656  -5.010  0.00  0.00    -0.124 C 
ATOM     60  H   NON d   1     -41.178 -18.409  -4.343  0.00  0.00     0.066 H 
ATOM     61  H   NON d   1     -42.275 -16.900  -4.621  0.00  0.00     0.066 H 
ENDBRANCH  57  59
ENDBRANCH  54  57
ENDBRANCH   7  54
TORSDOF 13
