REMARK  10 active torsions:
REMARK  status: ('A' for Active; 'I' for Inactive)
REMARK    1  A    between atoms: C2_3  and  O_4 
REMARK    2  A    between atoms: O_4  and  C1_5 
REMARK    3  A    between atoms: C1_5  and  C_6 
REMARK    4  A    between atoms: C3_11  and  C4_12 
REMARK    5  A    between atoms: C4_12  and  N_13 
REMARK    6  A    between atoms: N_13  and  C5_14 
REMARK    7  A    between atoms: C5_14  and  C6_15 
REMARK    8  A    between atoms: C6_15  and  C7_16 
REMARK    9  A    between atoms: C7_16  and  N1_17 
REMARK       I    between atoms: N1_17  and  C8_18 
REMARK       I    between atoms: C8_18  and  N2_20 
REMARK   10  A    between atoms: N2_20  and  C9_21 
ROOT
ATOM      1  N   NON d   1      41.648  11.170  -8.297  0.00  0.00    -0.071 N 
ATOM      2  H   NON d   1      40.989  11.606  -8.923  0.00  0.00     0.277 HD
ATOM      3  H   NON d   1      41.411  10.197  -8.186  0.00  0.00     0.277 HD
ENDROOT
BRANCH   1   4
ATOM      4  C4  NON d   1      41.552  11.825  -6.989  0.00  0.00     0.108 C 
ATOM      5  H   NON d   1      41.045  11.137  -6.297  0.00  0.00     0.083 H 
ATOM      6  H   NON d   1      42.572  12.023  -6.628  0.00  0.00     0.083 H 
BRANCH   4   7
ATOM      7  C3  NON d   1      40.793  13.131  -6.997  0.00  0.00     0.004 A 
ATOM      8  C2  NON d   1      41.468  14.347  -7.134  0.00  0.00     0.093 A 
ATOM      9  C16 NON d   1      40.768  15.562  -7.050  0.00  0.00     0.042 A 
ATOM     10  I   NON d   1      41.782  17.411  -7.080  0.00  0.00    -0.042 I 
ATOM     11  C15 NON d   1      39.394  15.568  -6.890  0.00  0.00    -0.043 A 
ATOM     12  C14 NON d   1      38.734  14.362  -6.793  0.00  0.00     0.036 A 
ATOM     13  H   NON d   1      38.847  16.503  -6.842  0.00  0.00     0.088 H 
ATOM     14 CL   NON d   1      36.996  14.360  -6.662  0.00  0.00    -0.084 Cl
ATOM     15  C13 NON d   1      39.408  13.157  -6.831  0.00  0.00    -0.051 A 
ATOM     16  H   NON d   1      38.859  12.228  -6.731  0.00  0.00     0.087 H 
BRANCH   8  17
ATOM     17  O   NON d   1      42.816  14.333  -7.433  0.00  0.00    -0.350 OA
BRANCH  17  18
ATOM     18  C1  NON d   1      43.693  14.590  -6.335  0.00  0.00     0.023 C 
ATOM     19  H   NON d   1      43.557  13.822  -5.559  0.00  0.00     0.074 H 
ATOM     20  H   NON d   1      43.480  15.582  -5.910  0.00  0.00     0.074 H 
BRANCH  18  21
ATOM     21  C   NON d   1      45.080  14.549  -6.847  0.00  0.00    -0.056 C 
ATOM     22  H   NON d   1      45.781  14.744  -6.022  0.00  0.00     0.030 H 
ATOM     23  H   NON d   1      45.207  15.316  -7.625  0.00  0.00     0.030 H 
ATOM     24  H   NON d   1      45.284  13.556  -7.275  0.00  0.00     0.030 H 
ENDBRANCH  18  21
ENDBRANCH  17  18
ENDBRANCH   8  17
ENDBRANCH   4   7
ENDBRANCH   1   4
BRANCH   1  25
ATOM     25  C5  NON d   1      42.985  11.259  -8.893  0.00  0.00     0.083 C 
ATOM     26  H   NON d   1      43.608  10.455  -8.476  0.00  0.00     0.075 H 
ATOM     27  H   NON d   1      43.421  12.234  -8.631  0.00  0.00     0.075 H 
BRANCH  25  28
ATOM     28  C6  NON d   1      42.974  11.126 -10.406  0.00  0.00    -0.028 C 
ATOM     29  H   NON d   1      41.956  11.345 -10.761  0.00  0.00     0.037 H 
ATOM     30  H   NON d   1      43.236  10.088 -10.660  0.00  0.00     0.037 H 
BRANCH  28  31
ATOM     31  C7  NON d   1      43.932  12.043 -11.133  0.00  0.00    -0.002 C 
ATOM     32  H   NON d   1      44.743  11.436 -11.562  0.00  0.00     0.064 H 
ATOM     33  H   NON d   1      44.352  12.758 -10.410  0.00  0.00     0.064 H 
BRANCH  31  34
ATOM     34  N1  NON d   1      43.291  12.789 -12.207  0.00  0.00    -0.343 N 
ATOM     35  C8  NON d   1      43.976  13.631 -13.001  0.00  0.00     0.320 C 
ATOM     36  O1  NON d   1      45.188  13.546 -13.161  0.00  0.00    -0.247 OA
ATOM     37  N2  NON d   1      43.212  14.600 -13.642  0.00  0.00    -0.308 N 
ATOM     38  H   NON d   1      42.227  14.564 -13.476  0.00  0.00     0.170 HD
ATOM     39  H   NON d   1      42.310  12.671 -12.359  0.00  0.00     0.164 HD
BRANCH  37  40
ATOM     40  C9  NON d   1      43.666  15.638 -14.507  0.00  0.00     0.043 A 
ATOM     41  C12 NON d   1      42.714  16.597 -14.978  0.00  0.00    -0.050 A 
ATOM     42  C11 NON d   1      43.229  17.542 -15.765  0.00  0.00    -0.043 A 
ATOM     43  H   NON d   1      41.658  16.558 -14.716  0.00  0.00     0.087 H 
ATOM     44  S   NON d   1      44.902  17.305 -15.961  0.00  0.00    -0.111 SA
ATOM     45  H   NON d   1      42.659  18.352 -16.218  0.00  0.00     0.095 H 
ATOM     46  C10 NON d   1      44.916  15.914 -14.979  0.00  0.00    -0.019 A 
ATOM     47  H   NON d   1      45.804  15.324 -14.757  0.00  0.00     0.098 H 
ENDBRANCH  37  40
ENDBRANCH  31  34
ENDBRANCH  28  31
ENDBRANCH  25  28
ENDBRANCH   1  25
TORSDOF 10
