REMARK  8 active torsions:
REMARK  status: ('A' for Active; 'I' for Inactive)
REMARK       I    between atoms: C_2  and  N2_3 
REMARK       I    between atoms: C_2  and  N_9 
REMARK    1  A    between atoms: N2_3  and  C13_4 
REMARK    2  A    between atoms: N_9  and  C1_10 
REMARK    3  A    between atoms: C1_10  and  C2_11 
REMARK    4  A    between atoms: C2_11  and  C3_12 
REMARK    5  A    between atoms: C3_12  and  N1_13 
REMARK    6  A    between atoms: N1_13  and  C4_14 
REMARK    7  A    between atoms: C4_14  and  C5_15 
REMARK    8  A    between atoms: C9_17  and  C11_18 
ROOT
ATOM      1  C11 NON d   1     -37.938  15.091   7.213  0.00  0.00    -0.078 C 
ATOM      2  C12 NON d   1     -36.803  15.270   7.242  0.00  0.00    -0.149 C 
ATOM      3  H   NON d   1     -35.760  15.434   7.269  0.00  0.00     0.166 H 
ENDROOT
BRANCH   1   4
ATOM      4  C9  NON d   1     -39.310  14.920   7.185  0.00  0.00     0.017 A 
ATOM      5  C10 NON d   1     -39.836  13.638   7.166  0.00  0.00    -0.057 A 
ATOM      6  C5  NON d   1     -41.198  13.484   7.114  0.00  0.00    -0.031 A 
ATOM      7  H   NON d   1     -39.183  12.773   7.192  0.00  0.00     0.086 H 
ATOM      8  C6  NON d   1     -42.024  14.588   7.084  0.00  0.00    -0.075 A 
ATOM      9  C7  NON d   1     -41.479  15.870   7.111  0.00  0.00    -0.081 A 
ATOM     10  H   NON d   1     -43.099  14.458   7.039  0.00  0.00     0.084 H 
ATOM     11  C8  NON d   1     -40.121  16.039   7.164  0.00  0.00    -0.065 A 
ATOM     12  H   NON d   1     -42.131  16.735   7.090  0.00  0.00     0.083 H 
ATOM     13  H   NON d   1     -39.690  17.033   7.189  0.00  0.00     0.085 H 
BRANCH   6  14
ATOM     14  C4  NON d   1     -41.823  12.117   7.081  0.00  0.00     0.105 C 
ATOM     15  H   NON d   1     -42.807  12.175   6.593  0.00  0.00     0.083 H 
ATOM     16  H   NON d   1     -41.174  11.430   6.519  0.00  0.00     0.083 H 
BRANCH  14  17
ATOM     17  N1  NON d   1     -41.985  11.625   8.454  0.00  0.00    -0.071 N 
ATOM     18  H   NON d   1     -41.957  10.618   8.431  0.00  0.00     0.277 HD
ATOM     19  H   NON d   1     -41.214  11.970   9.004  0.00  0.00     0.277 HD
BRANCH  17  20
ATOM     20  C3  NON d   1     -43.228  12.031   9.109  0.00  0.00     0.083 C 
ATOM     21  H   NON d   1     -43.195  13.115   9.290  0.00  0.00     0.075 H 
ATOM     22  H   NON d   1     -44.072  11.796   8.444  0.00  0.00     0.075 H 
BRANCH  20  23
ATOM     23  C2  NON d   1     -43.435  11.326  10.422  0.00  0.00    -0.028 C 
ATOM     24  H   NON d   1     -43.907  10.352  10.224  0.00  0.00     0.037 H 
ATOM     25  H   NON d   1     -42.453  11.168  10.891  0.00  0.00     0.037 H 
BRANCH  23  26
ATOM     26  C1  NON d   1     -44.306  12.091  11.385  0.00  0.00    -0.002 C 
ATOM     27  H   NON d   1     -45.056  12.654  10.810  0.00  0.00     0.064 H 
ATOM     28  H   NON d   1     -44.814  11.374  12.046  0.00  0.00     0.064 H 
BRANCH  26  29
ATOM     29  N   NON d   1     -43.548  13.027  12.206  0.00  0.00    -0.343 N 
ATOM     30  C   NON d   1     -44.163  13.917  13.002  0.00  0.00     0.320 C 
ATOM     31  O   NON d   1     -45.380  13.975  13.104  0.00  0.00    -0.247 OA
ATOM     32  N2  NON d   1     -43.354  14.761  13.721  0.00  0.00    -0.308 N 
ATOM     33  H   NON d   1     -42.366  14.633  13.636  0.00  0.00     0.170 HD
ATOM     34  H   NON d   1     -42.549  13.006  12.176  0.00  0.00     0.164 HD
BRANCH  32  35
ATOM     35  C13 NON d   1     -43.804  15.798  14.573  0.00  0.00     0.043 A 
ATOM     36  C16 NON d   1     -42.841  16.739  15.059  0.00  0.00    -0.050 A 
ATOM     37  C15 NON d   1     -43.366  17.694  15.837  0.00  0.00    -0.043 A 
ATOM     38  H   NON d   1     -41.780  16.683  14.818  0.00  0.00     0.087 H 
ATOM     39  S   NON d   1     -45.050  17.481  15.992  0.00  0.00    -0.111 SA
ATOM     40  H   NON d   1     -42.796  18.495  16.305  0.00  0.00     0.095 H 
ATOM     41  C14 NON d   1     -45.065  16.092  15.017  0.00  0.00    -0.019 A 
ATOM     42  H   NON d   1     -45.956  15.514  14.777  0.00  0.00     0.098 H 
ENDBRANCH  32  35
ENDBRANCH  26  29
ENDBRANCH  23  26
ENDBRANCH  20  23
ENDBRANCH  17  20
ENDBRANCH  14  17
ENDBRANCH   6  14
ENDBRANCH   1   4
TORSDOF 8
