REMARK  10 active torsions:
REMARK  status: ('A' for Active; 'I' for Inactive)
REMARK    1  A    between atoms: C1_1  and  C2_4 
REMARK    2  A    between atoms: C4_6  and  N4_20 
REMARK    3  A    between atoms: C5_7  and  N5_8 
REMARK       I    between atoms: N5_8  and  C10_9 
REMARK    4  A    between atoms: C10_9  and  C11_11 
REMARK    5  A    between atoms: C6_12  and  O7_14 
REMARK    6  A    between atoms: O7_14  and  C8_15 
REMARK    7  A    between atoms: C8_15  and  C9_16 
REMARK    8  A    between atoms: C8_15  and  C81_17 
REMARK    9  A    between atoms: C9_16  and  C91_19 
REMARK   10  A    between atoms: C81_17  and  C82_18 
ROOT
ATOM      1  C2  G39 d   1     -18.668  64.398 -24.494  0.00  0.00     0.035 C 
ATOM      2  C3  G39 d   1     -17.322  64.037 -23.746  0.00  0.00    -0.024 C 
ATOM      3  C4  G39 d   1     -16.472  62.938 -24.368  0.00  0.00     0.122 C 
ATOM      4  C5  G39 d   1     -16.512  62.750 -25.854  0.00  0.00     0.064 C 
ATOM      5  C6  G39 d   1     -17.833  62.918 -26.575  0.00  0.00     0.061 C 
ATOM      6  C7  G39 d   1     -18.996  63.654 -25.861  0.00  0.00    -0.026 C 
ATOM      7  H1  G39 d   1     -18.305  65.340 -24.931  0.00  0.00     0.056 H 
ATOM      8  H2  G39 d   1     -17.582  63.721 -22.725  0.00  0.00     0.037 H 
ATOM      9  H3  G39 d   1     -16.709  64.949 -23.703  0.00  0.00     0.037 H 
ATOM     10  H4  G39 d   1     -17.042  62.053 -24.048  0.00  0.00     0.087 H 
ATOM     11  H5  G39 d   1     -15.983  63.657 -26.182  0.00  0.00     0.079 H 
ATOM     12  H10 G39 d   1     -18.198  61.889 -26.437  0.00  0.00     0.086 H 
ATOM     13  H11 G39 d   1     -19.387  64.408 -26.560  0.00  0.00     0.038 H 
ATOM     14  H12 G39 d   1     -19.777  62.909 -25.651  0.00  0.00     0.038 H 
ENDROOT
BRANCH   5  15
ATOM     15  O7  G39 d   1     -17.856  62.943 -27.995  0.00  0.00    -0.379 OA
BRANCH  15  16
ATOM     16  C8  G39 d   1     -18.059  61.761 -28.755  0.00  0.00     0.038 C 
ATOM     17  H13 G39 d   1     -17.381  61.005 -28.332  0.00  0.00     0.083 H 
BRANCH  16  18
ATOM     18  C9  G39 d   1     -19.460  61.178 -28.608  0.00  0.00    -0.044 C 
ATOM     19  H14 G39 d   1     -19.602  60.936 -27.544  0.00  0.00     0.036 H 
ATOM     20  H15 G39 d   1     -19.492  60.252 -29.202  0.00  0.00     0.036 H 
BRANCH  18  21
ATOM     21  C91 G39 d   1     -20.625  62.017 -29.032  0.00  0.00    -0.074 C 
ATOM     22  H21 G39 d   1     -21.558  61.460 -28.864  0.00  0.00     0.027 H 
ATOM     23  H22 G39 d   1     -20.531  62.262 -30.100  0.00  0.00     0.027 H 
ATOM     24  H23 G39 d   1     -20.642  62.946 -28.443  0.00  0.00     0.027 H 
ENDBRANCH  18  21
ENDBRANCH  16  18
BRANCH  16  25
ATOM     25  C81 G39 d   1     -17.617  61.963 -30.190  0.00  0.00    -0.044 C 
ATOM     26  H16 G39 d   1     -18.282  62.712 -30.644  0.00  0.00     0.036 H 
ATOM     27  H17 G39 d   1     -17.733  61.004 -30.716  0.00  0.00     0.036 H 
BRANCH  25  28
ATOM     28  C82 G39 d   1     -16.202  62.426 -30.386  0.00  0.00    -0.074 C 
ATOM     29  H18 G39 d   1     -15.998  62.536 -31.461  0.00  0.00     0.027 H 
ATOM     30  H19 G39 d   1     -15.511  61.686 -29.956  0.00  0.00     0.027 H 
ATOM     31  H20 G39 d   1     -16.060  63.395 -29.884  0.00  0.00     0.027 H 
ENDBRANCH  25  28
ENDBRANCH  16  25
ENDBRANCH  15  16
ENDBRANCH   5  15
BRANCH   4  32
ATOM     32  N5  G39 d   1     -15.655  61.714 -26.398  0.00  0.00    -0.352 N 
ATOM     33  C10 G39 d   1     -14.376  61.960 -27.035  0.00  0.00     0.214 C 
ATOM     34  O10 G39 d   1     -13.932  63.098 -27.137  0.00  0.00    -0.274 OA
ATOM     35  H6  G39 d   1     -15.967  60.767 -26.329  0.00  0.00     0.163 HD
BRANCH  33  36
ATOM     36  C11 G39 d   1     -13.606  60.758 -27.557  0.00  0.00    -0.003 C 
ATOM     37  H7  G39 d   1     -12.663  61.096 -28.011  0.00  0.00     0.040 H 
ATOM     38  H8  G39 d   1     -14.210  60.236 -28.313  0.00  0.00     0.040 H 
ATOM     39  H9  G39 d   1     -13.388  60.073 -26.725  0.00  0.00     0.040 H 
ENDBRANCH  33  36
ENDBRANCH   4  32
BRANCH   3  40
ATOM     40  N4  G39 d   1     -15.208  62.678 -23.737  0.00  0.00    -0.073 N 
ATOM     41  H24 G39 d   1     -15.290  62.833 -22.744  0.00  0.00     0.274 HD
ATOM     42  H25 G39 d   1     -14.509  63.297 -24.117  0.00  0.00     0.274 HD
ATOM     43  H26 G39 d   1     -14.938  61.722 -23.907  0.00  0.00     0.274 HD
ENDBRANCH   3  40
BRANCH   1  44
ATOM     44  C1  G39 d   1     -19.835  64.976 -23.798  0.00  0.00     0.177 C 
ATOM     45  O1A G39 d   1     -19.772  65.333 -22.632  0.00  0.00    -0.648 OA
ATOM     46  O1B G39 d   1     -21.012  65.005 -24.505  0.00  0.00    -0.648 OA
ENDBRANCH   1  44
TORSDOF 10
