REMARK  10 active torsions:
REMARK  status: ('A' for Active; 'I' for Inactive)
REMARK    1  A    between atoms: C1_1  and  C2_4 
REMARK    2  A    between atoms: C4_6  and  NE_20 
REMARK    3  A    between atoms: C5_7  and  N5_8 
REMARK       I    between atoms: N5_8  and  C10_9 
REMARK    4  A    between atoms: C10_9  and  C11_11 
REMARK    5  A    between atoms: C6_12  and  C7_14 
REMARK    6  A    between atoms: C7_14  and  O7_15 
REMARK    7  A    between atoms: C7_14  and  C8_16 
REMARK    8  A    between atoms: C8_16  and  O8_17 
REMARK    9  A    between atoms: C8_16  and  C9_18 
REMARK   10  A    between atoms: C9_18  and  O9_19 
REMARK       I    between atoms: NE_20  and  CZ_21 
REMARK       I    between atoms: CZ_21  and  NH1_22 
ROOT
ATOM      1  C2  ZMR d   1      64.103  18.463 -24.699  0.00  0.00     0.124 C 
ATOM      2  C3  ZMR d   1      63.357  17.516 -23.788  0.00  0.00    -0.010 C 
ATOM      3  C4  ZMR d   1      62.488  16.555 -24.515  0.00  0.00     0.051 C 
ATOM      4  C5  ZMR d   1      62.575  16.657 -25.921  0.00  0.00     0.059 C 
ATOM      5  C6  ZMR d   1      62.438  18.071 -26.439  0.00  0.00     0.088 C 
ATOM      6  O6  ZMR d   1      63.286  19.037 -25.680  0.00  0.00    -0.365 OA
ATOM      7  H1  ZMR d   1      64.906  17.902 -25.199  0.00  0.00     0.100 H 
ATOM      8  H2  ZMR d   1      62.727  18.110 -23.109  0.00  0.00     0.040 H 
ATOM      9  H3  ZMR d   1      64.092  16.945 -23.201  0.00  0.00     0.040 H 
ATOM     10  H4  ZMR d   1      61.446  16.756 -24.225  0.00  0.00     0.076 H 
ATOM     11  H5  ZMR d   1      63.560  16.278 -26.231  0.00  0.00     0.079 H 
ATOM     12  H10 ZMR d   1      61.389  18.369 -26.296  0.00  0.00     0.090 H 
ENDROOT
BRANCH   5  13
ATOM     13  C7  ZMR d   1      62.734  18.161 -27.877  0.00  0.00     0.089 C 
ATOM     14  H11 ZMR d   1      62.012  17.546 -28.434  0.00  0.00     0.091 H 
BRANCH  13  15
ATOM     15  O7  ZMR d   1      64.010  17.734 -28.165  0.00  0.00    -0.390 OA
ATOM     16  H12 ZMR d   1      64.636  18.273 -27.697  0.00  0.00     0.210 HD
ENDBRANCH  13  15
BRANCH  13  17
ATOM     17  C8  ZMR d   1      62.614  19.614 -28.303  0.00  0.00     0.083 C 
ATOM     18  H13 ZMR d   1      63.415  20.191 -27.818  0.00  0.00     0.090 H 
BRANCH  17  19
ATOM     19  O8  ZMR d   1      61.394  20.122 -27.913  0.00  0.00    -0.391 OA
ATOM     20  H14 ZMR d   1      61.329  21.030 -28.184  0.00  0.00     0.210 HD
ENDBRANCH  17  19
BRANCH  17  21
ATOM     21  C9  ZMR d   1      62.752  19.747 -29.785  0.00  0.00     0.043 C 
ATOM     22  H15 ZMR d   1      63.705  19.277 -30.070  0.00  0.00     0.078 H 
ATOM     23  H16 ZMR d   1      62.790  20.822 -30.016  0.00  0.00     0.078 H 
BRANCH  21  24
ATOM     24  O9  ZMR d   1      61.763  19.189 -30.576  0.00  0.00    -0.398 OA
ATOM     25  H17 ZMR d   1      60.928  19.589 -30.366  0.00  0.00     0.209 HD
ENDBRANCH  21  24
ENDBRANCH  17  21
ENDBRANCH  13  17
ENDBRANCH   5  13
BRANCH   4  26
ATOM     26  N5  ZMR d   1      61.503  15.790 -26.531  0.00  0.00    -0.352 N 
ATOM     27  C10 ZMR d   1      61.838  14.496 -27.141  0.00  0.00     0.214 C 
ATOM     28  O10 ZMR d   1      62.990  14.106 -27.161  0.00  0.00    -0.274 OA
ATOM     29  H6  ZMR d   1      60.552  16.099 -26.520  0.00  0.00     0.163 HD
BRANCH  27  30
ATOM     30  C11 ZMR d   1      60.749  13.651 -27.742  0.00  0.00    -0.003 C 
ATOM     31  H7  ZMR d   1      61.184  12.726 -28.148  0.00  0.00     0.040 H 
ATOM     32  H8  ZMR d   1      60.256  14.210 -28.551  0.00  0.00     0.040 H 
ATOM     33  H9  ZMR d   1      60.010  13.399 -26.967  0.00  0.00     0.040 H 
ENDBRANCH  27  30
ENDBRANCH   4  26
BRANCH   3  34
ATOM     34  NE  ZMR d   1      62.848  15.139 -24.099  0.00  0.00    -0.220 N 
ATOM     35  CZ  ZMR d   1      61.859  14.094 -23.890  0.00  0.00     0.665 C 
ATOM     36  NH1 ZMR d   1      60.587  14.392 -24.068  0.00  0.00    -0.235 N 
ATOM     37  NH2 ZMR d   1      62.162  12.893 -23.538  0.00  0.00    -0.235 N 
ATOM     38  H19 ZMR d   1      59.865  13.671 -23.927  0.00  0.00     0.174 HD
ATOM     39  H20 ZMR d   1      60.316  15.345 -24.348  0.00  0.00     0.174 HD
ATOM     40  H21 ZMR d   1      63.148  12.632 -23.392  0.00  0.00     0.174 HD
ATOM     41  H22 ZMR d   1      61.419  12.193 -23.402  0.00  0.00     0.174 HD
ATOM     42  H18 ZMR d   1      63.842  14.908 -23.958  0.00  0.00     0.178 HD
ENDBRANCH   3  34
BRANCH   1  43
ATOM     43  C1  ZMR d   1      64.707  19.564 -23.877  0.00  0.00     0.203 C 
ATOM     44  O1A ZMR d   1      64.872  20.713 -24.384  0.00  0.00    -0.646 OA
ATOM     45  O1B ZMR d   1      65.048  19.348 -22.683  0.00  0.00    -0.646 OA
ENDBRANCH   1  43
TORSDOF 10
