REMARK  11 active torsions:
REMARK  status: ('A' for Active; 'I' for Inactive)
REMARK    1  A    between atoms: CAA_1  and  CAG_7 
REMARK    2  A    between atoms: CAC_3  and  NAZ_17 
REMARK    3  A    between atoms: NBG_24  and  CAD_4 
REMARK    4  A    between atoms: CAE_5  and  CAJ_10 
REMARK    5  A    between atoms: CAJ_10  and  CAK_11 
REMARK    6  A    between atoms: CAJ_10  and  OAW_14 
REMARK    7  A    between atoms: CAK_11  and  CAL_12 
REMARK    8  A    between atoms: CAK_11  and  OAY_16 
REMARK    9  A    between atoms: CAL_12  and  OAM_13 
REMARK   10  A    between atoms: OAW_14  and  CAX_15 
REMARK       I    between atoms: NAZ_17  and  CBA_18 
REMARK       I    between atoms: CBA_18  and  NBB_19 
REMARK   11  A    between atoms: CBD_21  and  CBE_22 
REMARK       I    between atoms: CBD_21  and  NBG_24 
ROOT
ATOM      1  CAA LNV d   1      63.672  18.652 -24.343  0.00  0.00     0.124 C 
ATOM      2  CAB LNV d   1      63.636  17.240 -23.777  0.00  0.00    -0.010 C 
ATOM      3  CAC LNV d   1      62.559  16.440 -24.425  0.00  0.00     0.051 C 
ATOM      4  CAD LNV d   1      62.544  16.516 -25.906  0.00  0.00     0.059 C 
ATOM      5  CAE LNV d   1      62.540  17.935 -26.378  0.00  0.00     0.088 C 
ATOM      6  OAF LNV d   1      63.658  18.720 -25.756  0.00  0.00    -0.365 OA
ATOM      7  H1  LNV d   1      62.687  19.047 -24.052  0.00  0.00     0.100 H 
ATOM      8  H2  LNV d   1      63.447  17.290 -22.695  0.00  0.00     0.040 H 
ATOM      9  H3  LNV d   1      64.606  16.753 -23.958  0.00  0.00     0.040 H 
ATOM     10  H4  LNV d   1      61.586  16.781 -24.042  0.00  0.00     0.076 H 
ATOM     11  H5  LNV d   1      63.476  16.056 -26.267  0.00  0.00     0.079 H 
ATOM     12  H6  LNV d   1      61.580  18.378 -26.076  0.00  0.00     0.090 H 
ENDROOT
BRANCH   5  13
ATOM     13  CAJ LNV d   1      62.686  18.096 -27.833  0.00  0.00     0.091 C 
ATOM     14  H7  LNV d   1      61.938  17.476 -28.350  0.00  0.00     0.091 H 
BRANCH  13  15
ATOM     15  CAK LNV d   1      62.499  19.569 -28.232  0.00  0.00     0.083 C 
ATOM     16  H8  LNV d   1      63.276  20.157 -27.722  0.00  0.00     0.090 H 
BRANCH  15  17
ATOM     17  CAL LNV d   1      62.653  19.770 -29.729  0.00  0.00     0.043 C 
ATOM     18  H9  LNV d   1      63.659  19.426 -30.009  0.00  0.00     0.078 H 
ATOM     19  H10 LNV d   1      62.565  20.848 -29.931  0.00  0.00     0.078 H 
BRANCH  17  20
ATOM     20  OAM LNV d   1      61.742  19.114 -30.547  0.00  0.00    -0.398 OA
ATOM     21  H11 LNV d   1      60.862  19.406 -30.337  0.00  0.00     0.209 HD
ENDBRANCH  17  20
ENDBRANCH  15  17
BRANCH  15  22
ATOM     22  OAY LNV d   1      61.260  20.048 -27.839  0.00  0.00    -0.391 OA
ATOM     23  H15 LNV d   1      61.199  20.973 -28.047  0.00  0.00     0.210 HD
ENDBRANCH  15  22
ENDBRANCH  13  15
BRANCH  13  24
ATOM     24  OAW LNV d   1      63.977  17.694 -28.200  0.00  0.00    -0.385 OA
BRANCH  24  25
ATOM     25  CAX LNV d   1      64.138  16.647 -29.113  0.00  0.00     0.005 C 
ATOM     26  H12 LNV d   1      65.210  16.469 -29.282  0.00  0.00     0.066 H 
ATOM     27  H13 LNV d   1      63.656  16.913 -30.065  0.00  0.00     0.066 H 
ATOM     28  H14 LNV d   1      63.674  15.735 -28.710  0.00  0.00     0.066 H 
ENDBRANCH  24  25
ENDBRANCH  13  24
ENDBRANCH   5  13
BRANCH   4  29
ATOM     29  NBG LNV d   1      61.415  15.730 -26.481  0.00  0.00    -0.352 N 
ATOM     30  CBD LNV d   1      61.640  14.468 -27.115  0.00  0.00     0.214 C 
ATOM     31  OBF LNV d   1      62.772  14.008 -27.212  0.00  0.00    -0.274 OA
ATOM     32  H24 LNV d   1      60.484  16.091 -26.422  0.00  0.00     0.163 HD
BRANCH  30  33
ATOM     33  CBE LNV d   1      60.451  13.742 -27.653  0.00  0.00    -0.003 C 
ATOM     34  H21 LNV d   1      59.543  14.331 -27.459  0.00  0.00     0.040 H 
ATOM     35  H22 LNV d   1      60.365  12.763 -27.160  0.00  0.00     0.040 H 
ATOM     36  H23 LNV d   1      60.569  13.597 -28.737  0.00  0.00     0.040 H 
ENDBRANCH  30  33
ENDBRANCH   4  29
BRANCH   3  37
ATOM     37  NAZ LNV d   1      62.782  15.023 -24.068  0.00  0.00    -0.220 N 
ATOM     38  CBA LNV d   1      61.778  14.034 -23.834  0.00  0.00     0.665 C 
ATOM     39  NBB LNV d   1      60.507  14.354 -23.889  0.00  0.00    -0.235 N 
ATOM     40  NBC LNV d   1      62.102  12.805 -23.566  0.00  0.00    -0.235 N 
ATOM     41  H17 LNV d   1      59.788  13.637 -23.719  0.00  0.00     0.174 HD
ATOM     42  H18 LNV d   1      60.228  15.322 -24.102  0.00  0.00     0.174 HD
ATOM     43  H19 LNV d   1      63.094  12.533 -23.518  0.00  0.00     0.174 HD
ATOM     44  H20 LNV d   1      61.367  12.103 -23.401  0.00  0.00     0.174 HD
ATOM     45  H16 LNV d   1      63.762  14.717 -23.979  0.00  0.00     0.178 HD
ENDBRANCH   3  37
BRANCH   1  46
ATOM     46  CAG LNV d   1      64.605  19.635 -23.761  0.00  0.00     0.203 C 
ATOM     47  OAH LNV d   1      65.145  19.452 -22.642  0.00  0.00    -0.646 OA
ATOM     48  OAI LNV d   1      64.802  20.700 -24.406  0.00  0.00    -0.646 OA
ENDBRANCH   1  46
TORSDOF 11
