REMARK  11 active torsions:
REMARK  status: ('A' for Active; 'I' for Inactive)
REMARK    1  A    between atoms: C2_1  and  N25_2 
REMARK       I    between atoms: N25_2  and  C26_3 
REMARK       I    between atoms: C26_3  and  N30_4 
REMARK    2  A    between atoms: C3_6  and  C10_7 
REMARK    3  A    between atoms: C10_7  and  C24_8 
REMARK    4  A    between atoms: C10_7  and  N11_13 
REMARK    5  A    between atoms: C24_8  and  C37_9 
REMARK    6  A    between atoms: C24_8  and  C36_11 
REMARK    7  A    between atoms: C37_9  and  C38_10 
REMARK    8  A    between atoms: C36_11  and  C39_12 
REMARK       I    between atoms: N11_13  and  C13_14 
REMARK    9  A    between atoms: C13_14  and  C15_15 
REMARK   10  A    between atoms: C4_17  and  O9_18 
REMARK   11  A    between atoms: C5_19  and  C6_20 
ROOT
ATOM      1  C10 BCZ d   1      62.387  16.898 -27.174  0.00  0.00     0.023 C 
ATOM      2  H8  BCZ d   1      63.262  16.286 -27.439  0.00  0.00     0.073 H 
ENDROOT
BRANCH   1   3
ATOM      3  C3  BCZ d   1      62.733  17.491 -25.766  0.00  0.00     0.012 C 
ATOM      4  C2  BCZ d   1      62.938  16.441 -24.769  0.00  0.00     0.035 C 
ATOM      5  C1  BCZ d   1      63.600  17.216 -23.649  0.00  0.00    -0.030 C 
ATOM      6  H1  BCZ d   1      63.616  15.661 -25.147  0.00  0.00     0.074 H 
ATOM      7  C5  BCZ d   1      64.492  18.171 -24.364  0.00  0.00     0.057 C 
ATOM      8  H27 BCZ d   1      64.182  16.547 -22.999  0.00  0.00     0.037 H 
ATOM      9  H28 BCZ d   1      62.852  17.753 -23.047  0.00  0.00     0.037 H 
ATOM     10  C4  BCZ d   1      63.976  18.281 -25.730  0.00  0.00     0.056 C 
ATOM     11  H26 BCZ d   1      65.520  17.780 -24.384  0.00  0.00     0.060 H 
ATOM     12  H24 BCZ d   1      63.767  19.332 -25.979  0.00  0.00     0.085 H 
ATOM     13  H7  BCZ d   1      61.893  18.131 -25.459  0.00  0.00     0.050 H 
BRANCH   4  14
ATOM     14  N25 BCZ d   1      61.690  15.829 -24.416  0.00  0.00    -0.222 N 
ATOM     15  C26 BCZ d   1      61.593  14.408 -23.998  0.00  0.00     0.665 C 
ATOM     16  N30 BCZ d   1      62.690  13.658 -23.908  0.00  0.00    -0.235 N 
ATOM     17  N27 BCZ d   1      60.426  13.862 -23.700  0.00  0.00    -0.235 N 
ATOM     18  H3  BCZ d   1      62.618  12.672 -23.617  0.00  0.00     0.174 HD
ATOM     19  H4  BCZ d   1      63.611  14.063 -24.129  0.00  0.00     0.174 HD
ATOM     20  H5  BCZ d   1      59.564  14.423 -23.762  0.00  0.00     0.174 HD
ATOM     21  H6  BCZ d   1      60.379  12.876 -23.406  0.00  0.00     0.174 HD
ATOM     22  H2  BCZ d   1      60.831  16.395 -24.454  0.00  0.00     0.178 HD
ENDBRANCH   4  14
BRANCH   7  23
ATOM     23  C6  BCZ d   1      64.489  19.523 -23.671  0.00  0.00     0.179 C 
ATOM     24  O8  BCZ d   1      64.950  19.602 -22.362  0.00  0.00    -0.648 OA
ATOM     25  O7  BCZ d   1      64.622  20.673 -24.445  0.00  0.00    -0.648 OA
ENDBRANCH   7  23
BRANCH  10  26
ATOM     26  O9  BCZ d   1      64.912  17.762 -26.631  0.00  0.00    -0.394 OA
ATOM     27  H25 BCZ d   1      65.110  16.863 -26.397  0.00  0.00     0.210 HD
ENDBRANCH  10  26
ENDBRANCH   1   3
BRANCH   1  28
ATOM     28  C24 BCZ d   1      62.248  17.996 -28.369  0.00  0.00    -0.035 C 
ATOM     29  H9  BCZ d   1      63.198  18.550 -28.393  0.00  0.00     0.043 H 
BRANCH  28  30
ATOM     30  C37 BCZ d   1      61.151  19.015 -28.008  0.00  0.00    -0.063 C 
ATOM     31  H10 BCZ d   1      61.258  19.244 -26.938  0.00  0.00     0.033 H 
ATOM     32  H11 BCZ d   1      60.181  18.526 -28.183  0.00  0.00     0.033 H 
BRANCH  30  33
ATOM     33  C38 BCZ d   1      61.127  20.336 -28.749  0.00  0.00    -0.076 C 
ATOM     34  H12 BCZ d   1      60.291  20.948 -28.380  0.00  0.00     0.027 H 
ATOM     35  H13 BCZ d   1      60.998  20.150 -29.826  0.00  0.00     0.027 H 
ATOM     36  H14 BCZ d   1      62.075  20.869 -28.580  0.00  0.00     0.027 H 
ENDBRANCH  30  33
ENDBRANCH  28  30
BRANCH  28  37
ATOM     37  C36 BCZ d   1      62.084  17.409 -29.751  0.00  0.00    -0.063 C 
ATOM     38  H15 BCZ d   1      61.756  18.221 -30.416  0.00  0.00     0.033 H 
ATOM     39  H16 BCZ d   1      61.297  16.643 -29.692  0.00  0.00     0.033 H 
BRANCH  37  40
ATOM     40  C39 BCZ d   1      63.298  16.763 -30.389  0.00  0.00    -0.076 C 
ATOM     41  H17 BCZ d   1      63.030  16.383 -31.386  0.00  0.00     0.027 H 
ATOM     42  H18 BCZ d   1      63.643  15.929 -29.760  0.00  0.00     0.027 H 
ATOM     43  H19 BCZ d   1      64.102  17.508 -30.485  0.00  0.00     0.027 H 
ENDBRANCH  37  40
ENDBRANCH  28  37
ENDBRANCH   1  28
BRANCH   1  44
ATOM     44  N11 BCZ d   1      61.175  15.919 -27.191  0.00  0.00    -0.356 N 
ATOM     45  C13 BCZ d   1      61.349  14.508 -27.364  0.00  0.00     0.213 C 
ATOM     46  O14 BCZ d   1      62.458  14.038 -27.513  0.00  0.00    -0.274 OA
ATOM     47  H20 BCZ d   1      60.251  16.285 -27.078  0.00  0.00     0.162 HD
BRANCH  45  48
ATOM     48  C15 BCZ d   1      60.140  13.641 -27.360  0.00  0.00    -0.003 C 
ATOM     49  H21 BCZ d   1      60.440  12.592 -27.503  0.00  0.00     0.040 H 
ATOM     50  H22 BCZ d   1      59.468  13.945 -28.177  0.00  0.00     0.040 H 
ATOM     51  H23 BCZ d   1      59.617  13.745 -26.398  0.00  0.00     0.040 H 
ENDBRANCH  45  48
ENDBRANCH   1  44
TORSDOF 11
