REMARK  10 active torsions:
REMARK  status: ('A' for Active; 'I' for Inactive)
REMARK    1  A    between atoms: C1_1  and  C2_4 
REMARK    2  A    between atoms: C4_6  and  N4_20 
REMARK    3  A    between atoms: C5_7  and  N5_8 
REMARK       I    between atoms: N5_8  and  C10_9 
REMARK    4  A    between atoms: C10_9  and  C11_11 
REMARK    5  A    between atoms: C6_12  and  O7_14 
REMARK    6  A    between atoms: O7_14  and  C8_15 
REMARK    7  A    between atoms: C8_15  and  C9_16 
REMARK    8  A    between atoms: C8_15  and  C81_17 
REMARK    9  A    between atoms: C9_16  and  C91_19 
REMARK   10  A    between atoms: C81_17  and  C82_18 
ROOT
ATOM      1  C2  G39 d   1     -18.633  24.342  64.117  0.00  0.00     0.035 C 
ATOM      2  C3  G39 d   1     -17.190  23.725  63.965  0.00  0.00    -0.024 C 
ATOM      3  C4  G39 d   1     -16.382  24.354  62.841  0.00  0.00     0.122 C 
ATOM      4  C5  G39 d   1     -16.402  25.851  62.717  0.00  0.00     0.064 C 
ATOM      5  C6  G39 d   1     -17.656  26.627  63.084  0.00  0.00     0.061 C 
ATOM      6  C7  G39 d   1     -18.798  25.901  63.854  0.00  0.00    -0.026 C 
ATOM      7  H1  G39 d   1     -18.980  24.017  63.125  0.00  0.00     0.056 H 
ATOM      8  H2  G39 d   1     -17.290  22.648  63.763  0.00  0.00     0.037 H 
ATOM      9  H3  G39 d   1     -16.646  23.872  64.910  0.00  0.00     0.037 H 
ATOM     10  H4  G39 d   1     -17.014  24.087  61.981  0.00  0.00     0.087 H 
ATOM     11  H5  G39 d   1     -15.767  26.110  63.577  0.00  0.00     0.079 H 
ATOM     12  H10 G39 d   1     -18.122  26.646  62.088  0.00  0.00     0.086 H 
ATOM     13  H11 G39 d   1     -18.898  26.391  64.834  0.00  0.00     0.038 H 
ATOM     14  H12 G39 d   1     -19.724  26.041  63.278  0.00  0.00     0.038 H 
ENDROOT
BRANCH   5  15
ATOM     15  O7  G39 d   1     -17.543  28.033  63.292  0.00  0.00    -0.379 OA
BRANCH  15  16
ATOM     16  C8  G39 d   1     -18.345  28.987  62.604  0.00  0.00     0.038 C 
ATOM     17  H13 G39 d   1     -18.549  28.558  61.612  0.00  0.00     0.083 H 
BRANCH  16  18
ATOM     18  C9  G39 d   1     -19.703  29.221  63.252  0.00  0.00    -0.044 C 
ATOM     19  H14 G39 d   1     -20.282  28.291  63.153  0.00  0.00     0.036 H 
ATOM     20  H15 G39 d   1     -20.203  30.026  62.693  0.00  0.00     0.036 H 
BRANCH  18  21
ATOM     21  C91 G39 d   1     -19.711  29.604  64.697  0.00  0.00    -0.074 C 
ATOM     22  H21 G39 d   1     -20.749  29.741  65.034  0.00  0.00     0.027 H 
ATOM     23  H22 G39 d   1     -19.155  30.544  64.830  0.00  0.00     0.027 H 
ATOM     24  H23 G39 d   1     -19.235  28.809  65.290  0.00  0.00     0.027 H 
ENDBRANCH  18  21
ENDBRANCH  16  18
BRANCH  16  25
ATOM     25  C81 G39 d   1     -17.596  30.286  62.366  0.00  0.00    -0.044 C 
ATOM     26  H16 G39 d   1     -18.095  31.067  62.958  0.00  0.00     0.036 H 
ATOM     27  H17 G39 d   1     -17.683  30.526  61.296  0.00  0.00     0.036 H 
BRANCH  25  28
ATOM     28  C82 G39 d   1     -16.136  30.318  62.717  0.00  0.00    -0.074 C 
ATOM     29  H18 G39 d   1     -15.727  31.314  62.493  0.00  0.00     0.027 H 
ATOM     30  H19 G39 d   1     -15.600  29.561  62.126  0.00  0.00     0.027 H 
ATOM     31  H20 G39 d   1     -16.012  30.102  63.788  0.00  0.00     0.027 H 
ENDBRANCH  25  28
ENDBRANCH  16  25
ENDBRANCH  15  16
ENDBRANCH   5  15
BRANCH   4  32
ATOM     32  N5  G39 d   1     -15.620  26.423  61.633  0.00  0.00    -0.352 N 
ATOM     33  C10 G39 d   1     -14.322  27.032  61.838  0.00  0.00     0.214 C 
ATOM     34  O10 G39 d   1     -13.884  27.211  62.970  0.00  0.00    -0.274 OA
ATOM     35  H6  G39 d   1     -15.994  26.395  60.706  0.00  0.00     0.163 HD
BRANCH  33  36
ATOM     36  C11 G39 d   1     -13.627  27.612  60.622  0.00  0.00    -0.003 C 
ATOM     37  H7  G39 d   1     -12.658  28.038  60.922  0.00  0.00     0.040 H 
ATOM     38  H8  G39 d   1     -14.255  28.401  60.183  0.00  0.00     0.040 H 
ATOM     39  H9  G39 d   1     -13.464  26.817  59.879  0.00  0.00     0.040 H 
ENDBRANCH  33  36
ENDBRANCH   4  32
BRANCH   3  40
ATOM     40  N4  G39 d   1     -15.166  23.684  62.476  0.00  0.00    -0.073 N 
ATOM     41  H24 G39 d   1     -15.279  22.690  62.602  0.00  0.00     0.274 HD
ATOM     42  H25 G39 d   1     -14.413  24.013  63.059  0.00  0.00     0.274 HD
ATOM     43  H26 G39 d   1     -14.952  23.878  61.510  0.00  0.00     0.274 HD
ENDBRANCH   3  40
BRANCH   1  44
ATOM     44  C1  G39 d   1     -19.723  23.676  64.863  0.00  0.00     0.177 C 
ATOM     45  O1A G39 d   1     -19.650  22.501  65.171  0.00  0.00    -0.648 OA
ATOM     46  O1B G39 d   1     -20.874  24.397  65.042  0.00  0.00    -0.648 OA
ENDBRANCH   1  44
TORSDOF 10
