REMARK  10 active torsions:
REMARK  status: ('A' for Active; 'I' for Inactive)
REMARK    1  A    between atoms: C1_1  and  C2_4 
REMARK    2  A    between atoms: C4_6  and  NE_20 
REMARK    3  A    between atoms: C5_7  and  N5_8 
REMARK       I    between atoms: N5_8  and  C10_9 
REMARK    4  A    between atoms: C10_9  and  C11_11 
REMARK    5  A    between atoms: C6_12  and  C7_14 
REMARK    6  A    between atoms: C7_14  and  O7_15 
REMARK    7  A    between atoms: C7_14  and  C8_16 
REMARK    8  A    between atoms: C8_16  and  O8_17 
REMARK    9  A    between atoms: C8_16  and  C9_18 
REMARK   10  A    between atoms: C9_18  and  O9_19 
REMARK       I    between atoms: NE_20  and  CZ_21 
REMARK       I    between atoms: CZ_21  and  NH1_22 
ROOT
ATOM      1  C2  ZMR d   1     -24.519 -64.185 -18.254  0.00  0.00     0.124 C 
ATOM      2  C3  ZMR d   1     -23.759 -63.362 -17.381  0.00  0.00    -0.010 C 
ATOM      3  C4  ZMR d   1     -24.464 -62.460 -16.518  0.00  0.00     0.051 C 
ATOM      4  C5  ZMR d   1     -25.945 -62.567 -16.564  0.00  0.00     0.059 C 
ATOM      5  C6  ZMR d   1     -26.551 -62.572 -17.973  0.00  0.00     0.088 C 
ATOM      6  O6  ZMR d   1     -25.780 -63.612 -18.775  0.00  0.00    -0.365 OA
ATOM      7  H1  ZMR d   1     -24.806 -65.049 -17.637  0.00  0.00     0.100 H 
ATOM      8  H2  ZMR d   1     -23.086 -62.757 -18.006  0.00  0.00     0.040 H 
ATOM      9  H3  ZMR d   1     -23.163 -64.029 -16.740  0.00  0.00     0.040 H 
ATOM     10  H4  ZMR d   1     -24.171 -61.434 -16.785  0.00  0.00     0.076 H 
ATOM     11  H5  ZMR d   1     -26.215 -63.517 -16.079  0.00  0.00     0.079 H 
ATOM     12  H10 ZMR d   1     -26.381 -61.578 -18.413  0.00  0.00     0.090 H 
ENDROOT
BRANCH   5  13
ATOM     13  C7  ZMR d   1     -27.929 -62.838 -18.068  0.00  0.00     0.089 C 
ATOM     14  H11 ZMR d   1     -28.497 -62.086 -17.501  0.00  0.00     0.091 H 
BRANCH  13  15
ATOM     15  O7  ZMR d   1     -28.226 -64.104 -17.601  0.00  0.00    -0.390 OA
ATOM     16  H12 ZMR d   1     -29.161 -64.257 -17.677  0.00  0.00     0.210 HD
ENDBRANCH  13  15
BRANCH  13  17
ATOM     17  C8  ZMR d   1     -28.305 -62.795 -19.554  0.00  0.00     0.083 C 
ATOM     18  H13 ZMR d   1     -27.805 -63.630 -20.067  0.00  0.00     0.090 H 
BRANCH  17  19
ATOM     19  O8  ZMR d   1     -27.906 -61.600 -20.121  0.00  0.00    -0.391 OA
ATOM     20  H14 ZMR d   1     -28.147 -61.591 -21.040  0.00  0.00     0.210 HD
ENDBRANCH  17  19
BRANCH  17  21
ATOM     21  C9  ZMR d   1     -29.770 -62.907 -19.750  0.00  0.00     0.043 C 
ATOM     22  H15 ZMR d   1     -30.089 -63.864 -19.312  0.00  0.00     0.078 H 
ATOM     23  H16 ZMR d   1     -29.958 -62.919 -20.834  0.00  0.00     0.078 H 
BRANCH  21  24
ATOM     24  O9  ZMR d   1     -30.584 -61.890 -19.189  0.00  0.00    -0.398 OA
ATOM     25  H17 ZMR d   1     -30.343 -61.051 -19.563  0.00  0.00     0.209 HD
ENDBRANCH  21  24
ENDBRANCH  17  21
ENDBRANCH  13  17
ENDBRANCH   5  13
BRANCH   4  26
ATOM     26  N5  ZMR d   1     -26.574 -61.471 -15.826  0.00  0.00    -0.352 N 
ATOM     27  C10 ZMR d   1     -27.195 -61.648 -14.564  0.00  0.00     0.214 C 
ATOM     28  O10 ZMR d   1     -27.231 -62.790 -14.011  0.00  0.00    -0.274 OA
ATOM     29  H6  ZMR d   1     -26.565 -60.556 -16.230  0.00  0.00     0.163 HD
BRANCH  27  30
ATOM     30  C11 ZMR d   1     -27.812 -60.432 -13.889  0.00  0.00    -0.003 C 
ATOM     31  H7  ZMR d   1     -28.251 -60.731 -12.925  0.00  0.00     0.040 H 
ATOM     32  H8  ZMR d   1     -28.597 -60.013 -14.535  0.00  0.00     0.040 H 
ATOM     33  H9  ZMR d   1     -27.034 -59.673 -13.718  0.00  0.00     0.040 H 
ENDBRANCH  27  30
ENDBRANCH   4  26
BRANCH   3  34
ATOM     34  NE  ZMR d   1     -24.096 -62.750 -15.060  0.00  0.00    -0.220 N 
ATOM     35  CZ  ZMR d   1     -23.905 -61.744 -14.034  0.00  0.00     0.665 C 
ATOM     36  NH1 ZMR d   1     -23.999 -60.471 -14.320  0.00  0.00    -0.235 N 
ATOM     37  NH2 ZMR d   1     -23.622 -62.108 -12.795  0.00  0.00    -0.235 N 
ATOM     38  H19 ZMR d   1     -23.861 -59.766 -13.582  0.00  0.00     0.174 HD
ATOM     39  H20 ZMR d   1     -24.211 -60.174 -15.283  0.00  0.00     0.174 HD
ATOM     40  H21 ZMR d   1     -23.545 -63.107 -12.557  0.00  0.00     0.174 HD
ATOM     41  H22 ZMR d   1     -23.478 -61.392 -12.068  0.00  0.00     0.174 HD
ATOM     42  H18 ZMR d   1     -23.975 -63.736 -14.787  0.00  0.00     0.178 HD
ENDBRANCH   3  34
BRANCH   1  43
ATOM     43  C1  ZMR d   1     -23.773 -64.742 -19.447  0.00  0.00     0.203 C 
ATOM     44  O1A ZMR d   1     -24.432 -65.071 -20.472  0.00  0.00    -0.646 OA
ATOM     45  O1B ZMR d   1     -22.516 -64.919 -19.442  0.00  0.00    -0.646 OA
ENDBRANCH   1  43
TORSDOF 10
