REMARK  11 active torsions:
REMARK  status: ('A' for Active; 'I' for Inactive)
REMARK    1  A    between atoms: CAA_1  and  CAG_7 
REMARK    2  A    between atoms: CAC_3  and  NAZ_17 
REMARK    3  A    between atoms: NBG_24  and  CAD_4 
REMARK    4  A    between atoms: CAE_5  and  CAJ_10 
REMARK    5  A    between atoms: CAJ_10  and  CAK_11 
REMARK    6  A    between atoms: CAJ_10  and  OAW_14 
REMARK    7  A    between atoms: CAK_11  and  CAL_12 
REMARK    8  A    between atoms: CAK_11  and  OAY_16 
REMARK    9  A    between atoms: CAL_12  and  OAM_13 
REMARK   10  A    between atoms: OAW_14  and  CAX_15 
REMARK       I    between atoms: NAZ_17  and  CBA_18 
REMARK       I    between atoms: CBA_18  and  NBB_19 
REMARK   11  A    between atoms: CBD_21  and  CBE_22 
REMARK       I    between atoms: CBD_21  and  NBG_24 
ROOT
ATOM      1  CAA LNV d   1      24.375 -63.751  18.621  0.00  0.00     0.124 C 
ATOM      2  CAB LNV d   1      23.756 -63.602  17.262  0.00  0.00    -0.010 C 
ATOM      3  CAC LNV d   1      24.443 -62.599  16.450  0.00  0.00     0.051 C 
ATOM      4  CAD LNV d   1      25.901 -62.707  16.527  0.00  0.00     0.059 C 
ATOM      5  CAE LNV d   1      26.399 -62.730  17.945  0.00  0.00     0.088 C 
ATOM      6  OAF LNV d   1      25.813 -63.848  18.635  0.00  0.00    -0.365 OA
ATOM      7  H1  LNV d   1      24.171 -62.777  19.089  0.00  0.00     0.100 H 
ATOM      8  H2  LNV d   1      22.705 -63.301  17.382  0.00  0.00     0.040 H 
ATOM      9  H3  LNV d   1      23.803 -64.571  16.743  0.00  0.00     0.040 H 
ATOM     10  H4  LNV d   1      24.131 -61.594  16.769  0.00  0.00     0.076 H 
ATOM     11  H5  LNV d   1      26.198 -63.648  16.041  0.00  0.00     0.079 H 
ATOM     12  H6  LNV d   1      26.132 -61.786  18.443  0.00  0.00     0.090 H 
ENDROOT
BRANCH   5  13
ATOM     13  CAJ LNV d   1      27.864 -62.937  18.000  0.00  0.00     0.091 C 
ATOM     14  H7  LNV d   1      28.348 -62.190  17.354  0.00  0.00     0.091 H 
BRANCH  13  15
ATOM     15  CAK LNV d   1      28.365 -62.748  19.513  0.00  0.00     0.083 C 
ATOM     16  H8  LNV d   1      27.919 -63.590  20.063  0.00  0.00     0.090 H 
BRANCH  15  17
ATOM     17  CAL LNV d   1      29.949 -62.908  19.724  0.00  0.00     0.043 C 
ATOM     18  H9  LNV d   1      30.243 -63.914  19.391  0.00  0.00     0.078 H 
ATOM     19  H10 LNV d   1      30.168 -62.798  20.796  0.00  0.00     0.078 H 
BRANCH  17  20
ATOM     20  OAM LNV d   1      30.717 -61.967  19.017  0.00  0.00    -0.398 OA
ATOM     21  H11 LNV d   1      30.483 -61.091  19.301  0.00  0.00     0.209 HD
ENDBRANCH  17  20
ENDBRANCH  15  17
BRANCH  15  22
ATOM     22  OAY LNV d   1      27.829 -61.537  20.159  0.00  0.00    -0.391 OA
ATOM     23  H15 LNV d   1      27.998 -61.577  21.093  0.00  0.00     0.210 HD
ENDBRANCH  15  22
ENDBRANCH  13  15
BRANCH  13  24
ATOM     24  OAW LNV d   1      28.244 -64.193  17.589  0.00  0.00    -0.385 OA
BRANCH  24  25
ATOM     25  CAX LNV d   1      29.132 -64.318  16.532  0.00  0.00     0.005 C 
ATOM     26  H12 LNV d   1      29.324 -65.384  16.339  0.00  0.00     0.066 H 
ATOM     27  H13 LNV d   1      30.077 -63.815  16.785  0.00  0.00     0.066 H 
ATOM     28  H14 LNV d   1      28.700 -63.855  15.633  0.00  0.00     0.066 H 
ENDBRANCH  24  25
ENDBRANCH  13  24
ENDBRANCH   5  13
BRANCH   4  29
ATOM     29  NBG LNV d   1      26.544 -61.580  15.812  0.00  0.00    -0.352 N 
ATOM     30  CBD LNV d   1      27.179 -61.745  14.523  0.00  0.00     0.214 C 
ATOM     31  OBF LNV d   1      27.224 -62.840  13.969  0.00  0.00    -0.274 OA
ATOM     32  H24 LNV d   1      26.539 -60.674  16.235  0.00  0.00     0.163 HD
BRANCH  30  33
ATOM     33  CBE LNV d   1      27.791 -60.537  13.868  0.00  0.00    -0.003 C 
ATOM     34  H21 LNV d   1      27.649 -59.658  14.514  0.00  0.00     0.040 H 
ATOM     35  H22 LNV d   1      27.305 -60.360  12.897  0.00  0.00     0.040 H 
ATOM     36  H23 LNV d   1      28.866 -60.709  13.713  0.00  0.00     0.040 H 
ENDBRANCH  30  33
ENDBRANCH   4  29
BRANCH   3  37
ATOM     37  NAZ LNV d   1      24.065 -62.842  15.014  0.00  0.00    -0.220 N 
ATOM     38  CBA LNV d   1      23.871 -61.813  13.994  0.00  0.00     0.665 C 
ATOM     39  NBB LNV d   1      23.580 -62.166  12.770  0.00  0.00    -0.235 N 
ATOM     40  NBC LNV d   1      23.975 -60.535  14.297  0.00  0.00    -0.235 N 
ATOM     41  H17 LNV d   1      23.442 -61.447  12.046  0.00  0.00     0.174 HD
ATOM     42  H18 LNV d   1      23.489 -63.163  12.530  0.00  0.00     0.174 HD
ATOM     43  H19 LNV d   1      24.204 -60.251  15.260  0.00  0.00     0.174 HD
ATOM     44  H20 LNV d   1      23.827 -59.820  13.571  0.00  0.00     0.174 HD
ATOM     45  H16 LNV d   1      23.931 -63.821  14.724  0.00  0.00     0.178 HD
ENDBRANCH   3  37
BRANCH   1  46
ATOM     46  CAG LNV d   1      23.756 -64.716  19.553  0.00  0.00     0.203 C 
ATOM     47  OAH LNV d   1      24.447 -65.105  20.535  0.00  0.00    -0.646 OA
ATOM     48  OAI LNV d   1      22.573 -65.108  19.401  0.00  0.00    -0.646 OA
ENDBRANCH   1  46
TORSDOF 11
