REMARK  11 active torsions:
REMARK  status: ('A' for Active; 'I' for Inactive)
REMARK    1  A    between atoms: C2_1  and  N25_2 
REMARK       I    between atoms: N25_2  and  C26_3 
REMARK       I    between atoms: C26_3  and  N30_4 
REMARK    2  A    between atoms: C3_6  and  C10_7 
REMARK    3  A    between atoms: C10_7  and  C24_8 
REMARK    4  A    between atoms: C10_7  and  N11_13 
REMARK    5  A    between atoms: C24_8  and  C37_9 
REMARK    6  A    between atoms: C24_8  and  C36_11 
REMARK    7  A    between atoms: C37_9  and  C38_10 
REMARK    8  A    between atoms: C36_11  and  C39_12 
REMARK       I    between atoms: N11_13  and  C13_14 
REMARK    9  A    between atoms: C13_14  and  C15_15 
REMARK   10  A    between atoms: C4_17  and  O9_18 
REMARK   11  A    between atoms: C5_19  and  C6_20 
ROOT
ATOM      1  C10 BCZ d   1      27.119 -62.685  16.613  0.00  0.00     0.023 C 
ATOM      2  H8  BCZ d   1      27.255 -63.559  15.960  0.00  0.00     0.073 H 
ENDROOT
BRANCH   1   3
ATOM      3  C3  BCZ d   1      25.748 -62.969  17.320  0.00  0.00     0.012 C 
ATOM      4  C2  BCZ d   1      24.679 -63.097  16.320  0.00  0.00     0.035 C 
ATOM      5  C1  BCZ d   1      23.573 -63.743  17.122  0.00  0.00    -0.030 C 
ATOM      6  H1  BCZ d   1      24.985 -63.759  15.497  0.00  0.00     0.074 H 
ATOM      7  C5  BCZ d   1      24.296 -64.697  18.003  0.00  0.00     0.057 C 
ATOM      8  H27 BCZ d   1      22.868 -64.272  16.464  0.00  0.00     0.037 H 
ATOM      9  H28 BCZ d   1      23.029 -62.994  17.716  0.00  0.00     0.037 H 
ATOM     10  C4  BCZ d   1      25.684 -64.235  18.076  0.00  0.00     0.056 C 
ATOM     11  H26 BCZ d   1      24.254 -65.710  17.577  0.00  0.00     0.060 H 
ATOM     12  H24 BCZ d   1      25.977 -64.065  19.122  0.00  0.00     0.085 H 
ATOM     13  H7  BCZ d   1      25.535 -62.130  17.999  0.00  0.00     0.050 H 
BRANCH   4  14
ATOM     14  N25 BCZ d   1      24.352 -61.812  15.774  0.00  0.00    -0.222 N 
ATOM     15  C26 BCZ d   1      23.956 -61.648  14.354  0.00  0.00     0.665 C 
ATOM     16  N30 BCZ d   1      23.858 -62.712  13.562  0.00  0.00    -0.235 N 
ATOM     17  N27 BCZ d   1      23.680 -60.458  13.849  0.00  0.00    -0.235 N 
ATOM     18  H3  BCZ d   1      23.583 -62.597  12.576  0.00  0.00     0.174 HD
ATOM     19  H4  BCZ d   1      24.057 -63.651  13.934  0.00  0.00     0.174 HD
ATOM     20  H5  BCZ d   1      23.748 -59.618  14.442  0.00  0.00     0.174 HD
ATOM     21  H6  BCZ d   1      23.396 -60.370  12.863  0.00  0.00     0.174 HD
ATOM     22  H2  BCZ d   1      24.393 -60.982  16.383  0.00  0.00     0.178 HD
ENDBRANCH   4  14
BRANCH   7  23
ATOM     23  C6  BCZ d   1      23.686 -64.707  19.391  0.00  0.00     0.179 C 
ATOM     24  O8  BCZ d   1      22.367 -65.126  19.522  0.00  0.00    -0.648 OA
ATOM     25  O7  BCZ d   1      24.514 -64.888  20.499  0.00  0.00    -0.648 OA
ENDBRANCH   7  23
BRANCH  10  26
ATOM     26  O9  BCZ d   1      26.521 -65.198  17.507  0.00  0.00    -0.394 OA
ATOM     27  H25 BCZ d   1      26.250 -65.362  16.611  0.00  0.00     0.210 HD
ENDBRANCH  10  26
ENDBRANCH   1   3
BRANCH   1  28
ATOM     28  C24 BCZ d   1      28.447 -62.674  17.556  0.00  0.00    -0.035 C 
ATOM     29  H9  BCZ d   1      28.569 -63.696  17.943  0.00  0.00     0.043 H 
BRANCH  28  30
ATOM     30  C37 BCZ d   1      28.221 -61.763  18.776  0.00  0.00    -0.063 C 
ATOM     31  H10 BCZ d   1      29.092 -61.869  19.439  0.00  0.00     0.033 H 
ATOM     32  H11 BCZ d   1      27.319 -62.118  19.296  0.00  0.00     0.033 H 
BRANCH  30  33
ATOM     33  C38 BCZ d   1      28.038 -60.296  18.490  0.00  0.00    -0.076 C 
ATOM     34  H12 BCZ d   1      27.886 -59.754  19.435  0.00  0.00     0.027 H 
ATOM     35  H13 BCZ d   1      27.161 -60.156  17.842  0.00  0.00     0.027 H 
ATOM     36  H14 BCZ d   1      28.934 -59.907  17.984  0.00  0.00     0.027 H 
ENDBRANCH  30  33
ENDBRANCH  28  30
BRANCH  28  37
ATOM     37  C36 BCZ d   1      29.716 -62.360  16.799  0.00  0.00    -0.063 C 
ATOM     38  H15 BCZ d   1      29.632 -61.321  16.449  0.00  0.00     0.033 H 
ATOM     39  H16 BCZ d   1      29.750 -63.037  15.933  0.00  0.00     0.033 H 
BRANCH  37  40
ATOM     40  C39 BCZ d   1      31.049 -62.482  17.508  0.00  0.00    -0.076 C 
ATOM     41  H17 BCZ d   1      31.860 -62.218  16.813  0.00  0.00     0.027 H 
ATOM     42  H18 BCZ d   1      31.186 -63.517  17.855  0.00  0.00     0.027 H 
ATOM     43  H19 BCZ d   1      31.069 -61.800  18.371  0.00  0.00     0.027 H 
ENDBRANCH  37  40
ENDBRANCH  28  37
ENDBRANCH   1  28
BRANCH   1  44
ATOM     44  N11 BCZ d   1      27.135 -61.458  15.642  0.00  0.00    -0.356 N 
ATOM     45  C13 BCZ d   1      27.312 -61.628  14.226  0.00  0.00     0.213 C 
ATOM     46  O14 BCZ d   1      27.453 -62.740  13.743  0.00  0.00    -0.274 OA
ATOM     47  H20 BCZ d   1      27.020 -60.537  16.014  0.00  0.00     0.162 HD
BRANCH  45  48
ATOM     48  C15 BCZ d   1      27.312 -60.411  13.364  0.00  0.00    -0.003 C 
ATOM     49  H21 BCZ d   1      27.457 -60.705  12.314  0.00  0.00     0.040 H 
ATOM     50  H22 BCZ d   1      28.129 -59.742  13.674  0.00  0.00     0.040 H 
ATOM     51  H23 BCZ d   1      26.350 -59.888  13.469  0.00  0.00     0.040 H 
ENDBRANCH  45  48
ENDBRANCH   1  44
TORSDOF 11
