REMARK  6 active torsions:
REMARK  status: ('A' for Active; 'I' for Inactive)
REMARK    1  A    between atoms: C_1  and  N_2 
REMARK    2  A    between atoms: C6_16  and  C4_12 
REMARK       I    between atoms: N5_15  and  C6_16 
REMARK    3  A    between atoms: C7_18  and  N5_15 
REMARK    4  A    between atoms: C8_20  and  N6_17 
REMARK       I    between atoms: N6_17  and  C9_21 
REMARK    5  A    between atoms: C7_18  and  C8_20 
REMARK       I    between atoms: C9_21  and  N7_19 
REMARK    6  A    between atoms: N7_19  and  C10_22 
ROOT
ATOM      1  C7  1MX d   1     -25.150  16.049 -10.441  0.00  0.00     0.010 C 
ATOM      2  H   1MX d   1     -24.293  16.711 -10.635  0.00  0.00     0.066 H 
ATOM      3  H   1MX d   1     -25.705  16.414  -9.564  0.00  0.00     0.066 H 
ENDROOT
BRANCH   1   4
ATOM      4  N5  1MX d   1     -24.677  14.644 -10.208  0.00  0.00    -0.354 N 
ATOM      5  C6  1MX d   1     -24.767  14.089  -8.999  0.00  0.00     0.271 C 
ATOM      6  O1  1MX d   1     -25.517  14.620  -8.171  0.00  0.00    -0.266 OA
ATOM      7  H   1MX d   1     -24.291  14.119 -10.966  0.00  0.00     0.162 HD
BRANCH   5   8
ATOM      8  C4  1MX d   1     -24.219  12.698  -8.808  0.00  0.00     0.144 C 
ATOM      9  N3  1MX d   1     -24.481  12.027  -7.670  0.00  0.00    -0.221 NA
ATOM     10  C3  1MX d   1     -24.021  10.784  -7.522  0.00  0.00     0.178 C 
ATOM     11  C2  1MX d   1     -23.218  10.160  -8.561  0.00  0.00     0.171 C 
ATOM     12  N2  1MX d   1     -24.295  10.088  -6.443  0.00  0.00    -0.172 N 
ATOM     13  C1  1MX d   1     -22.822   8.819  -8.366  0.00  0.00     0.292 C 
ATOM     14  N4  1MX d   1     -22.901  10.939  -9.678  0.00  0.00    -0.249 NA
ATOM     15  O   1MX d   1     -22.122   8.252  -9.232  0.00  0.00    -0.265 OA
ATOM     16  N1  1MX d   1     -23.199   8.151  -7.260  0.00  0.00    -0.154 N 
ATOM     17  C   1MX d   1     -23.971   8.808  -6.360  0.00  0.00     0.680 C 
ATOM     18  H   1MX d   1     -22.919   7.203  -7.107  0.00  0.00     0.187 HD
ATOM     19  C5  1MX d   1     -23.351  12.193  -9.806  0.00  0.00     0.036 C 
ATOM     20  H   1MX d   1     -23.059  12.806 -10.651  0.00  0.00     0.118 H 
ATOM     21  H   1MX d   1     -24.769  10.545  -5.651  0.00  0.00     0.186 HD
BRANCH  17  22
ATOM     22  N   1MX d   1     -24.287   8.068  -5.284  0.00  0.00    -0.234 N 
ATOM     23  H   1MX d   1     -24.022   7.073  -5.247  0.00  0.00     0.174 HD
ATOM     24  H   1MX d   1     -24.794   8.495  -4.496  0.00  0.00     0.174 HD
ENDBRANCH  17  22
ENDBRANCH   5   8
ENDBRANCH   1   4
BRANCH   1  25
ATOM     25  C8  1MX d   1     -26.057  16.001 -11.650  0.00  0.00     0.011 C 
ATOM     26  H   1MX d   1     -26.840  15.242 -11.509  0.00  0.00     0.066 H 
ATOM     27  H   1MX d   1     -26.524  16.983 -11.816  0.00  0.00     0.066 H 
BRANCH  25  28
ATOM     28  N6  1MX d   1     -25.211  15.649 -12.777  0.00  0.00    -0.341 N 
ATOM     29  C9  1MX d   1     -25.514  14.792 -13.770  0.00  0.00     0.320 C 
ATOM     30  O2  1MX d   1     -25.199  15.103 -14.919  0.00  0.00    -0.247 OA
ATOM     31  N7  1MX d   1     -26.119  13.676 -13.356  0.00  0.00    -0.309 N 
ATOM     32  H   1MX d   1     -26.354  13.720 -12.385  0.00  0.00     0.170 HD
ATOM     33  H   1MX d   1     -24.313  16.087 -12.820  0.00  0.00     0.164 HD
BRANCH  31  34
ATOM     34  C10 1MX d   1     -26.503  12.479 -13.920  0.00  0.00     0.036 A 
ATOM     35  C11 1MX d   1     -26.336  11.371 -13.141  0.00  0.00    -0.057 A 
ATOM     36  C12 1MX d   1     -26.710  10.073 -13.560  0.00  0.00    -0.081 A 
ATOM     37  H   1MX d   1     -25.897  11.491 -12.157  0.00  0.00     0.086 H 
ATOM     38  C13 1MX d   1     -27.296   9.923 -14.806  0.00  0.00    -0.083 A 
ATOM     39  H   1MX d   1     -26.542   9.214 -12.920  0.00  0.00     0.083 H 
ATOM     40  C14 1MX d   1     -27.481  11.054 -15.598  0.00  0.00    -0.081 A 
ATOM     41  H   1MX d   1     -27.605   8.945 -15.158  0.00  0.00     0.083 H 
ATOM     42  C15 1MX d   1     -27.092  12.342 -15.203  0.00  0.00    -0.057 A 
ATOM     43  H   1MX d   1     -27.949  10.932 -16.568  0.00  0.00     0.083 H 
ATOM     44  H   1MX d   1     -27.236  13.198 -15.852  0.00  0.00     0.086 H 
ENDBRANCH  31  34
ENDBRANCH  25  28
ENDBRANCH   1  25
TORSDOF 6
