REMARK  5 active torsions:
REMARK  status: ('A' for Active; 'I' for Inactive)
REMARK    1  A    between atoms: C2_2  and  N2_3 
REMARK    2  A    between atoms: C7_9  and  CAM_13 
REMARK       I    between atoms: CAM_13  and  NAO_15 
REMARK    3  A    between atoms: NAO_15  and  CAP_16 
REMARK    4  A    between atoms: CAP_16  and  CAQ_17 
REMARK    5  A    between atoms: CAQ_17  and  NAR_18 
REMARK       I    between atoms: NAR_18  and  CAS_19 
ROOT
ATOM      1  N1  5MX d   1      24.201 -10.033  -6.560  0.00  0.00    -0.172 N 
ATOM      2  C2  5MX d   1      23.869  -8.750  -6.431  0.00  0.00     0.680 C 
ATOM      3  N3  5MX d   1      23.024  -8.162  -7.375  0.00  0.00    -0.154 N 
ATOM      4  C4  5MX d   1      22.719  -8.879  -8.510  0.00  0.00     0.292 C 
ATOM      5  O4  5MX d   1      21.916  -8.312  -9.295  0.00  0.00    -0.265 OA
ATOM      6  N5  5MX d   1      22.800 -10.982  -9.733  0.00  0.00    -0.249 NA
ATOM      7  C6  5MX d   1      23.267 -12.256  -9.835  0.00  0.00     0.036 C 
ATOM      8  C7  5MX d   1      24.202 -12.699  -8.869  0.00  0.00     0.144 C 
ATOM      9  N8  5MX d   1      24.424 -11.981  -7.760  0.00  0.00    -0.221 NA
ATOM     10  C4A 5MX d   1      23.073 -10.213  -8.635  0.00  0.00     0.171 C 
ATOM     11  C8A 5MX d   1      23.940 -10.717  -7.661  0.00  0.00     0.178 C 
ATOM     12  H   5MX d   1      24.676 -10.507  -5.778  0.00  0.00     0.186 HD
ATOM     13  H   5MX d   1      22.651  -7.245  -7.230  0.00  0.00     0.187 HD
ATOM     14  H   5MX d   1      22.933 -12.911 -10.631  0.00  0.00     0.118 H 
ENDROOT
BRANCH   8  15
ATOM     15  CAM 5MX d   1      24.743 -14.014  -9.031  0.00  0.00     0.271 C 
ATOM     16  OAN 5MX d   1      25.538 -14.481  -8.220  0.00  0.00    -0.266 OA
ATOM     17  NAO 5MX d   1      24.665 -14.564 -10.277  0.00  0.00    -0.354 N 
ATOM     18  H   5MX d   1      24.240 -14.048 -11.021  0.00  0.00     0.162 HD
BRANCH  17  19
ATOM     19  CAP 5MX d   1      25.194 -15.894 -10.534  0.00  0.00     0.010 C 
ATOM     20  H   5MX d   1      24.466 -16.469 -11.125  0.00  0.00     0.066 H 
ATOM     21  H   5MX d   1      25.375 -16.406  -9.578  0.00  0.00     0.066 H 
BRANCH  19  22
ATOM     22  CAQ 5MX d   1      26.526 -15.786 -11.321  0.00  0.00     0.013 C 
ATOM     23  H   5MX d   1      26.283 -15.574 -12.373  0.00  0.00     0.066 H 
ATOM     24  H   5MX d   1      27.041 -16.756 -11.252  0.00  0.00     0.066 H 
BRANCH  22  25
ATOM     25  NAR 5MX d   1      27.458 -14.738 -10.846  0.00  0.00    -0.334 N 
ATOM     26  CAS 5MX d   1      28.709 -15.026 -10.428  0.00  0.00     0.283 C 
ATOM     27  OAT 5MX d   1      29.435 -14.094 -10.009  0.00  0.00    -0.630 OA
ATOM     28  OAU 5MX d   1      29.151 -16.217 -10.467  0.00  0.00    -0.630 OA
ATOM     29  H   5MX d   1      27.151 -13.786 -10.835  0.00  0.00     0.165 HD
ENDBRANCH  22  25
ENDBRANCH  19  22
ENDBRANCH  17  19
ENDBRANCH   8  15
BRANCH   2  30
ATOM     30  N2  5MX d   1      24.190  -8.054  -5.314  0.00  0.00    -0.234 N 
ATOM     31  H   5MX d   1      23.925  -7.062  -5.231  0.00  0.00     0.174 HD
ATOM     32  H   5MX d   1      24.699  -8.517  -4.547  0.00  0.00     0.174 HD
ENDBRANCH   2  30
TORSDOF 5
