REMARK  8 active torsions:
REMARK  status: ('A' for Active; 'I' for Inactive)
REMARK    1  A    between atoms: NBD_3  and  CAB_4 
REMARK    2  A    between atoms: CBC_7  and  CAP_8 
REMARK    3  A    between atoms: CAP_8  and  NBE_9 
REMARK    4  A    between atoms: C6_15  and  NAC_16 
REMARK    5  A    between atoms: CAX_18  and  CAV_19 
REMARK    6  A    between atoms: CAU_28  and  OAT_29 
REMARK    7  A    between atoms: OAT_29  and  CAK_30 
REMARK    8  A    between atoms: CAK_30  and  CAA_31 
ROOT
ATOM      1  NBE 2E8 d   1      -2.573 -20.104 -30.694  0.00  0.00    -0.250 N 
ATOM      2  NAS 2E8 d   1      -1.424 -19.753 -30.904  0.00  0.00    -0.169 NA
ATOM      3  C4  2E8 d   1      -2.706 -21.386 -30.834  0.00  0.00     0.163 A 
ATOM      4  N3  2E8 d   1      -3.780 -22.141 -30.711  0.00  0.00    -0.222 NA
ATOM      5  C2  2E8 d   1      -3.656 -23.432 -30.902  0.00  0.00     0.091 A 
ATOM      6  N1  2E8 d   1      -2.483 -23.967 -31.215  0.00  0.00    -0.224 NA
ATOM      7  C6  2E8 d   1      -1.417 -23.228 -31.364  0.00  0.00     0.139 A 
ATOM      8  C5  2E8 d   1      -1.494 -21.882 -31.163  0.00  0.00     0.088 A 
ATOM      9  CAX 2E8 d   1      -0.679 -20.793 -31.187  0.00  0.00     0.105 A 
ATOM     10  H   2E8 d   1      -4.525 -24.072 -30.803  0.00  0.00     0.146 H 
ENDROOT
BRANCH   9  11
ATOM     11  CAV 2E8 d   1       0.644 -20.726 -31.484  0.00  0.00    -0.004 A 
ATOM     12  CAJ 2E8 d   1       1.198 -21.493 -32.479  0.00  0.00    -0.060 A 
ATOM     13  CAZ 2E8 d   1       2.529 -21.375 -32.769  0.00  0.00    -0.025 A 
ATOM     14  H   2E8 d   1       0.581 -22.191 -33.034  0.00  0.00     0.086 H 
ATOM     15  CAY 2E8 d   1       3.315 -20.498 -32.090  0.00  0.00    -0.023 A 
ATOM     16  CAF 2E8 d   1       3.069 -22.147 -33.748  0.00  0.00    -0.070 A 
ATOM     17  CAG 2E8 d   1       2.777 -19.732 -31.106  0.00  0.00    -0.071 A 
ATOM     18  CAI 2E8 d   1       4.641 -20.389 -32.393  0.00  0.00    -0.040 A 
ATOM     19  CAE 2E8 d   1       1.442 -19.844 -30.819  0.00  0.00    -0.070 A 
ATOM     20  H   2E8 d   1       3.399 -19.038 -30.552  0.00  0.00     0.084 H 
ATOM     21  H   2E8 d   1       1.011 -19.218 -30.046  0.00  0.00     0.084 H 
ATOM     22  CAU 2E8 d   1       5.196 -21.172 -33.383  0.00  0.00     0.069 A 
ATOM     23  H   2E8 d   1       5.261 -19.683 -31.853  0.00  0.00     0.089 H 
ATOM     24  CAD 2E8 d   1       4.404 -22.057 -34.062  0.00  0.00    -0.050 A 
ATOM     25  H   2E8 d   1       4.826 -22.682 -34.841  0.00  0.00     0.087 H 
ATOM     26  H   2E8 d   1       2.438 -22.843 -34.289  0.00  0.00     0.085 H 
BRANCH  22  27
ATOM     27  OAT 2E8 d   1       6.486 -21.091 -33.704  0.00  0.00    -0.351 OA
BRANCH  27  28
ATOM     28  CAK 2E8 d   1       7.272 -21.458 -32.617  0.00  0.00     0.023 C 
ATOM     29  H   2E8 d   1       7.055 -22.506 -32.361  0.00  0.00     0.074 H 
ATOM     30  H   2E8 d   1       7.019 -20.812 -31.763  0.00  0.00     0.074 H 
BRANCH  28  31
ATOM     31  CAA 2E8 d   1       8.758 -21.323 -32.910  0.00  0.00    -0.056 C 
ATOM     32  H   2E8 d   1       9.335 -21.624 -32.023  0.00  0.00     0.030 H 
ATOM     33  H   2E8 d   1       8.989 -20.277 -33.160  0.00  0.00     0.030 H 
ATOM     34  H   2E8 d   1       9.025 -21.971 -33.758  0.00  0.00     0.030 H 
ENDBRANCH  28  31
ENDBRANCH  27  28
ENDBRANCH  22  27
ENDBRANCH   9  11
BRANCH   1  35
ATOM     35  CAP 2E8 d   1      -3.735 -19.289 -30.360  0.00  0.00     0.022 C 
ATOM     36  H   2E8 d   1      -4.354 -19.210 -31.266  0.00  0.00     0.068 H 
ATOM     37  H   2E8 d   1      -4.297 -19.820 -29.578  0.00  0.00     0.068 H 
BRANCH  35  38
ATOM     38  CBC 2E8 d   1      -3.477 -17.866 -29.854  0.00  0.00    -0.034 C 
ATOM     39  CAL 2E8 d   1      -2.065 -17.682 -29.247  0.00  0.00    -0.037 C 
ATOM     40  CAN 2E8 d   1      -1.916 -16.384 -28.473  0.00  0.00     0.084 C 
ATOM     41  H   2E8 d   1      -1.865 -18.522 -28.565  0.00  0.00     0.036 H 
ATOM     42  H   2E8 d   1      -1.329 -17.689 -30.064  0.00  0.00     0.036 H 
ATOM     43  NBD 2E8 d   1      -2.966 -16.219 -27.446  0.00  0.00    -0.075 N 
ATOM     44  H   2E8 d   1      -1.976 -15.543 -29.179  0.00  0.00     0.075 H 
ATOM     45  H   2E8 d   1      -0.933 -16.378 -27.978  0.00  0.00     0.075 H 
ATOM     46  CAO 2E8 d   1      -4.273 -16.270 -28.082  0.00  0.00     0.084 C 
ATOM     47  H   2E8 d   1      -2.880 -16.924 -26.731  0.00  0.00     0.279 HD
ATOM     48  CAM 2E8 d   1      -4.499 -17.615 -28.753  0.00  0.00    -0.037 C 
ATOM     49  H   2E8 d   1      -4.336 -15.475 -28.840  0.00  0.00     0.075 H 
ATOM     50  H   2E8 d   1      -5.051 -16.113 -27.320  0.00  0.00     0.075 H 
ATOM     51  H   2E8 d   1      -5.508 -17.631 -29.191  0.00  0.00     0.036 H 
ATOM     52  H   2E8 d   1      -4.414 -18.410 -27.998  0.00  0.00     0.036 H 
ATOM     53  H   2E8 d   1      -3.612 -17.151 -30.679  0.00  0.00     0.042 H 
BRANCH  43  54
ATOM     54  CAB 2E8 d   1      -2.847 -14.865 -26.883  0.00  0.00     0.066 C 
ATOM     55  H   2E8 d   1      -3.620 -14.718 -26.114  0.00  0.00     0.068 H 
ATOM     56  H   2E8 d   1      -2.980 -14.122 -27.683  0.00  0.00     0.068 H 
ATOM     57  H   2E8 d   1      -1.852 -14.742 -26.430  0.00  0.00     0.068 H 
ENDBRANCH  43  54
ENDBRANCH  35  38
ENDBRANCH   1  35
BRANCH   7  58
ATOM     58  NAC 2E8 d   1      -0.304 -23.843 -31.673  0.00  0.00    -0.383 N 
ATOM     59  H   2E8 d   1       0.564 -23.303 -31.801  0.00  0.00     0.157 HD
ATOM     60  H   2E8 d   1      -0.296 -24.866 -31.788  0.00  0.00     0.157 HD
ENDBRANCH   7  58
TORSDOF 8
