REMARK  7 active torsions:
REMARK  status: ('A' for Active; 'I' for Inactive)
REMARK    1  A    between atoms: C6_6  and  NAB_8 
REMARK    2  A    between atoms: CAJ_15  and  CAA_7 
REMARK    3  A    between atoms: OAT_23  and  CAJ_15 
REMARK    4  A    between atoms: CAO_20  and  CBC_29 
REMARK    5  A    between atoms: NBD_30  and  CAO_20 
REMARK    6  A    between atoms: CAU_24  and  OAT_23 
REMARK    7  A    between atoms: CAV_25  and  CAX_26 
ROOT
ATOM      1  N1  BK7 d   1      -3.015 -23.516 -31.031  0.00  0.00    -0.224 NA
ATOM      2  C2  BK7 d   1      -4.161 -22.945 -30.723  0.00  0.00     0.091 A 
ATOM      3  N3  BK7 d   1      -4.226 -21.628 -30.569  0.00  0.00    -0.222 NA
ATOM      4  C4  BK7 d   1      -3.135 -20.857 -30.755  0.00  0.00     0.163 A 
ATOM      5  C5  BK7 d   1      -1.924 -21.429 -31.089  0.00  0.00     0.088 A 
ATOM      6  C6  BK7 d   1      -1.888 -22.793 -31.232  0.00  0.00     0.139 A 
ATOM      7  NAR BK7 d   1      -1.730 -19.260 -30.913  0.00  0.00    -0.169 NA
ATOM      8  CAX BK7 d   1      -1.038 -20.361 -31.222  0.00  0.00     0.105 A 
ATOM      9  NBD BK7 d   1      -2.898 -19.554 -30.669  0.00  0.00    -0.250 N 
ATOM     10  H   BK7 d   1      -5.051 -23.550 -30.595  0.00  0.00     0.146 H 
ENDROOT
BRANCH   8  11
ATOM     11  CAV BK7 d   1       0.331 -20.422 -31.490  0.00  0.00    -0.004 A 
ATOM     12  CAD BK7 d   1       1.110 -19.899 -30.499  0.00  0.00    -0.070 A 
ATOM     13  CAF BK7 d   1       2.489 -19.896 -30.561  0.00  0.00    -0.071 A 
ATOM     14  H   BK7 d   1       0.627 -19.469 -29.629  0.00  0.00     0.084 H 
ATOM     15  CAY BK7 d   1       3.109 -20.404 -31.650  0.00  0.00    -0.023 A 
ATOM     16  H   BK7 d   1       3.071 -19.489 -29.742  0.00  0.00     0.084 H 
ATOM     17  CAH BK7 d   1       4.467 -20.382 -31.669  0.00  0.00    -0.040 A 
ATOM     18  CAZ BK7 d   1       2.363 -20.923 -32.681  0.00  0.00    -0.025 A 
ATOM     19  CAU BK7 d   1       5.121 -20.904 -32.771  0.00  0.00     0.069 A 
ATOM     20  H   BK7 d   1       5.026 -19.965 -30.839  0.00  0.00     0.089 H 
ATOM     21  CAC BK7 d   1       4.422 -21.445 -33.830  0.00  0.00    -0.050 A 
ATOM     22  CAE BK7 d   1       3.038 -21.449 -33.779  0.00  0.00    -0.070 A 
ATOM     23  H   BK7 d   1       4.945 -21.858 -34.685  0.00  0.00     0.087 H 
ATOM     24  H   BK7 d   1       2.473 -21.867 -34.605  0.00  0.00     0.085 H 
ATOM     25  CAI BK7 d   1       0.972 -20.932 -32.608  0.00  0.00    -0.060 A 
ATOM     26  H   BK7 d   1       0.390 -21.339 -33.427  0.00  0.00     0.086 H 
BRANCH  19  27
ATOM     27  OAT BK7 d   1       6.467 -20.871 -32.792  0.00  0.00    -0.351 OA
BRANCH  27  28
ATOM     28  CAJ BK7 d   1       6.946 -21.863 -31.867  0.00  0.00     0.023 C 
ATOM     29  H   BK7 d   1       6.417 -21.798 -30.905  0.00  0.00     0.074 H 
ATOM     30  H   BK7 d   1       6.835 -22.877 -32.279  0.00  0.00     0.074 H 
BRANCH  28  31
ATOM     31  CAA BK7 d   1       8.440 -21.482 -31.711  0.00  0.00    -0.056 C 
ATOM     32  H   BK7 d   1       8.926 -22.181 -31.014  0.00  0.00     0.030 H 
ATOM     33  H   BK7 d   1       8.518 -20.458 -31.317  0.00  0.00     0.030 H 
ATOM     34  H   BK7 d   1       8.937 -21.537 -32.691  0.00  0.00     0.030 H 
ENDBRANCH  28  31
ENDBRANCH  27  28
ENDBRANCH  19  27
ENDBRANCH   8  11
BRANCH   6  35
ATOM     35  NAB BK7 d   1      -0.764 -23.399 -31.531  0.00  0.00    -0.383 N 
ATOM     36  H   BK7 d   1       0.093 -22.849 -31.684  0.00  0.00     0.157 HD
ATOM     37  H   BK7 d   1      -0.738 -24.425 -31.613  0.00  0.00     0.157 HD
ENDBRANCH   6  35
BRANCH   9  38
ATOM     38  CAO BK7 d   1      -3.892 -18.542 -30.359  0.00  0.00     0.022 C 
ATOM     39  H   BK7 d   1      -3.651 -17.626 -30.918  0.00  0.00     0.068 H 
ATOM     40  H   BK7 d   1      -4.881 -18.911 -30.669  0.00  0.00     0.068 H 
BRANCH  38  41
ATOM     41  CBC BK7 d   1      -3.936 -18.212 -28.876  0.00  0.00    -0.034 C 
ATOM     42  CAM BK7 d   1      -5.253 -17.491 -28.582  0.00  0.00    -0.038 C 
ATOM     43  CAK BK7 d   1      -5.260 -17.079 -27.141  0.00  0.00     0.082 C 
ATOM     44  H   BK7 d   1      -5.339 -16.601 -29.223  0.00  0.00     0.036 H 
ATOM     45  H   BK7 d   1      -6.098 -18.168 -28.778  0.00  0.00     0.036 H 
ATOM     46  NAS BK7 d   1      -4.178 -16.099 -26.921  0.00  0.00    -0.075 N 
ATOM     47  H   BK7 d   1      -5.096 -17.960 -26.504  0.00  0.00     0.075 H 
ATOM     48  H   BK7 d   1      -6.229 -16.622 -26.892  0.00  0.00     0.075 H 
ATOM     49  CAL BK7 d   1      -2.863 -16.778 -27.106  0.00  0.00     0.082 C 
ATOM     50  H   BK7 d   1      -4.240 -15.732 -25.984  0.00  0.00     0.277 HD
ATOM     51  H   BK7 d   1      -4.265 -15.345 -27.584  0.00  0.00     0.277 HD
ATOM     52  CAN BK7 d   1      -2.743 -17.309 -28.548  0.00  0.00    -0.038 C 
ATOM     53  H   BK7 d   1      -2.052 -16.060 -26.913  0.00  0.00     0.075 H 
ATOM     54  H   BK7 d   1      -2.784 -17.618 -26.401  0.00  0.00     0.075 H 
ATOM     55  H   BK7 d   1      -1.812 -17.886 -28.647  0.00  0.00     0.036 H 
ATOM     56  H   BK7 d   1      -2.725 -16.461 -29.248  0.00  0.00     0.036 H 
ATOM     57  H   BK7 d   1      -3.877 -19.135 -28.280  0.00  0.00     0.042 H 
ENDBRANCH  38  41
ENDBRANCH   9  38
TORSDOF 7
