REMARK  11 active torsions:
REMARK  status: ('A' for Active; 'I' for Inactive)
REMARK    1  A    between atoms: C4_1  and  OBC_19 
REMARK    2  A    between atoms: SBP_7  and  CAA_6 
REMARK    3  A    between atoms: CAW_10  and  SBP_7 
REMARK    4  A    between atoms: CBG_11  and  CAW_10 
REMARK    5  A    between atoms: NBB_17  and  CBJ_16 
REMARK    6  A    between atoms: NBB_17  and  C2_18 
REMARK    7  A    between atoms: OBC_19  and  CBN_20 
REMARK    8  A    between atoms: CBI_26  and  NBA_27 
REMARK       I    between atoms: NBA_27  and  CBE_28 
REMARK    9  A    between atoms: CBE_28  and  CBO_30 
REMARK   10  A    between atoms: CBO_30  and  CBD_33 
REMARK       I    between atoms: CBD_33  and  NAZ_35 
REMARK   11  A    between atoms: NAZ_35  and  CBH_36 
ROOT
ATOM      1  CBN DWF d   1      -9.236  17.744 -30.686  0.00  0.00     0.116 A 
ATOM      2  CBK DWF d   1      -9.332  16.675 -31.550  0.00  0.00     0.152 A 
ATOM      3  FAG DWF d   1      -9.290  16.917 -32.856  0.00  0.00    -0.203 F 
ATOM      4  CAT DWF d   1      -9.490  15.379 -31.075  0.00  0.00    -0.017 A 
ATOM      5  CAR DWF d   1      -9.270  17.560 -29.313  0.00  0.00    -0.045 A 
ATOM      6  CAQ DWF d   1      -9.425  16.265 -28.832  0.00  0.00    -0.054 A 
ATOM      7  CBI DWF d   1      -9.509  15.192 -29.694  0.00  0.00     0.037 A 
ATOM      8  H13 DWF d   1      -9.595  14.542 -31.755  0.00  0.00     0.091 H 
ATOM      9  H14 DWF d   1      -9.178  18.401 -28.634  0.00  0.00     0.088 H 
ATOM     10  H15 DWF d   1      -9.481  16.096 -27.763  0.00  0.00     0.087 H 
ENDROOT
BRANCH   1  11
ATOM     11  OBC DWF d   1      -9.078  18.999 -31.223  0.00  0.00    -0.288 OA
BRANCH  11  12
ATOM     12  C4  DWF d   1     -10.131  19.859 -30.989  0.00  0.00     0.190 A 
ATOM     13  C5  DWF d   1     -11.448  19.451 -30.728  0.00  0.00    -0.013 A 
ATOM     14  C6  DWF d   1     -12.423  20.424 -30.496  0.00  0.00     0.025 A 
ATOM     15  H1  DWF d   1     -11.704  18.398 -30.707  0.00  0.00     0.092 H 
ATOM     16  N1  DWF d   1     -12.079  21.725 -30.552  0.00  0.00    -0.075 NA
ATOM     17  H2  DWF d   1     -13.444  20.136 -30.274  0.00  0.00     0.115 H 
ATOM     18  C2  DWF d   1     -10.809  22.066 -30.799  0.00  0.00     0.729 A 
ATOM     19  N3  DWF d   1      -9.851  21.167 -31.022  0.00  0.00    -0.038 NA
BRANCH  18  20
ATOM     20  NBB DWF d   1     -10.529  23.467 -30.830  0.00  0.00    -0.188 N 
ATOM     21  H12 DWF d   1     -11.356  24.078 -30.887  0.00  0.00     0.184 HD
BRANCH  20  22
ATOM     22  CBJ DWF d   1      -9.268  24.150 -30.794  0.00  0.00     0.050 A 
ATOM     23  CAS DWF d   1      -8.018  23.538 -30.733  0.00  0.00    -0.050 A 
ATOM     24  CBG DWF d   1      -6.879  24.352 -30.711  0.00  0.00    -0.042 A 
ATOM     25  H8  DWF d   1      -7.929  22.458 -30.703  0.00  0.00     0.087 H 
ATOM     26  CAJ DWF d   1      -6.986  25.733 -30.738  0.00  0.00    -0.076 A 
ATOM     27  CAH DWF d   1      -8.230  26.339 -30.789  0.00  0.00    -0.080 A 
ATOM     28  H9  DWF d   1      -6.090  26.343 -30.719  0.00  0.00     0.084 H 
ATOM     29  CAK DWF d   1      -9.363  25.536 -30.820  0.00  0.00    -0.057 A 
ATOM     30  H10 DWF d   1      -8.318  27.419 -30.804  0.00  0.00     0.083 H 
ATOM     31  H11 DWF d   1     -10.341  26.000 -30.865  0.00  0.00     0.086 H 
BRANCH  24  32
ATOM     32  CAW DWF d   1      -5.502  23.762 -30.664  0.00  0.00     0.052 C 
ATOM     33  H6  DWF d   1      -5.498  22.807 -31.209  0.00  0.00     0.063 H 
ATOM     34  H7  DWF d   1      -4.793  24.457 -31.137  0.00  0.00     0.063 H 
BRANCH  32  35
ATOM     35  SBP DWF d   1      -5.010  23.479 -28.991  0.00  0.00     0.144 S 
ATOM     36  OAD DWF d   1      -3.583  23.249 -28.918  0.00  0.00    -0.228 OA
ATOM     37  OAE DWF d   1      -5.146  24.654 -28.153  0.00  0.00    -0.228 OA
BRANCH  35  38
ATOM     38  CAA DWF d   1      -5.898  22.078 -28.408  0.00  0.00     0.016 C 
ATOM     39  H3  DWF d   1      -5.743  21.234 -29.096  0.00  0.00     0.048 H 
ATOM     40  H4  DWF d   1      -6.970  22.318 -28.358  0.00  0.00     0.048 H 
ATOM     41  H5  DWF d   1      -5.536  21.805 -27.406  0.00  0.00     0.048 H 
ENDBRANCH  35  38
ENDBRANCH  32  35
ENDBRANCH  24  32
ENDBRANCH  20  22
ENDBRANCH  18  20
ENDBRANCH  11  12
ENDBRANCH   1  11
BRANCH   7  42
ATOM     42  NBA DWF d   1      -9.713  13.893 -29.111  0.00  0.00    -0.325 N 
ATOM     43  CBE DWF d   1      -9.595  12.631 -29.752  0.00  0.00     0.247 C 
ATOM     44  OAC DWF d   1      -9.234  12.471 -30.900  0.00  0.00    -0.271 OA
ATOM     45  H16 DWF d   1      -9.967  13.877 -28.144  0.00  0.00     0.169 HD
BRANCH  43  46
ATOM     46  CBO DWF d   1      -9.944  11.499 -28.846  0.00  0.00     0.157 A 
ATOM     47  CAU DWF d   1     -10.532  10.329 -29.569  0.00  0.00    -0.075 A 
ATOM     48  CAV DWF d   1      -9.103  10.298 -29.156  0.00  0.00    -0.075 A 
ATOM     49  H17 DWF d   1     -11.384   9.850 -30.048  0.00  0.00     0.079 H 
ATOM     50  H18 DWF d   1      -8.146   9.781 -29.111  0.00  0.00     0.079 H 
BRANCH  46  51
ATOM     51  CBD DWF d   1     -10.304  11.657 -27.406  0.00  0.00     0.247 C 
ATOM     52  OAB DWF d   1     -10.340  12.792 -26.920  0.00  0.00    -0.271 OA
ATOM     53  NAZ DWF d   1     -10.596  10.523 -26.617  0.00  0.00    -0.326 N 
ATOM     54  H19 DWF d   1     -10.572   9.610 -27.025  0.00  0.00     0.169 HD
BRANCH  53  55
ATOM     55  CBH DWF d   1     -10.928  10.681 -25.224  0.00  0.00     0.035 A 
ATOM     56  CAO DWF d   1     -11.954  11.541 -24.825  0.00  0.00    -0.054 A 
ATOM     57  CAM DWF d   1     -12.221  11.656 -23.463  0.00  0.00    -0.044 A 
ATOM     58  H20 DWF d   1     -12.526  12.103 -25.555  0.00  0.00     0.087 H 
ATOM     59  CBF DWF d   1     -11.482  10.933 -22.546  0.00  0.00     0.116 A 
ATOM     60  H21 DWF d   1     -13.011  12.315 -23.121  0.00  0.00     0.088 H 
ATOM     61  FAF DWF d   1     -11.758  11.062 -21.249  0.00  0.00    -0.206 F 
ATOM     62  CAN DWF d   1     -10.465  10.083 -22.952  0.00  0.00    -0.044 A 
ATOM     63  CAP DWF d   1     -10.189   9.958 -24.309  0.00  0.00    -0.054 A 
ATOM     64  H22 DWF d   1      -9.893   9.523 -22.221  0.00  0.00     0.088 H 
ATOM     65  H23 DWF d   1      -9.399   9.297 -24.646  0.00  0.00     0.087 H 
ENDBRANCH  53  55
ENDBRANCH  46  51
ENDBRANCH  43  46
ENDBRANCH   7  42
TORSDOF 11
