REMARK  7 active torsions:
REMARK  status: ('A' for Active; 'I' for Inactive)
REMARK    1  A    between atoms: C32_1  and  C33_3 
REMARK       I    between atoms: N4_13  and  C32_1 
REMARK    2  A    between atoms: C13_11  and  C14_10 
REMARK    3  A    between atoms: C12_12  and  C13_11 
REMARK    4  A    between atoms: C12_12  and  N4_13 
REMARK    5  A    between atoms: C12_12  and  C11_14 
REMARK       I    between atoms: C11_14  and  N5_16 
REMARK    6  A    between atoms: C10_29  and  C20_30 
REMARK       I    between atoms: C20_30  and  N2_32 
REMARK    7  A    between atoms: C2_44  and  C1_46 
ROOT
ATOM      1  C11 3VH d   1      20.640  -6.513 -14.561  0.00  0.00     0.244 C 
ATOM      2  O4  3VH d   1      20.292  -5.471 -15.064  0.00  0.00    -0.271 OA
ATOM      3  N5  3VH d   1      20.274  -6.810 -13.272  0.00  0.00    -0.329 N 
ATOM      4  C30 3VH d   1      20.616  -8.060 -12.567  0.00  0.00    -0.001 C 
ATOM      5  C29 3VH d   1      20.300  -7.725 -11.104  0.00  0.00    -0.047 C 
ATOM      6  C34 3VH d   1      19.175  -6.716 -11.189  0.00  0.00    -0.028 C 
ATOM      7  C35 3VH d   1      19.497  -5.861 -12.431  0.00  0.00     0.134 C 
ATOM      8  C31 3VH d   1      20.374  -4.699 -12.072  0.00  0.00     0.253 C 
ATOM      9  O3  3VH d   1      21.616  -4.711 -12.036  0.00  0.00    -0.270 OA
ATOM     10  N3  3VH d   1      19.734  -3.542 -11.777  0.00  0.00    -0.328 N 
ATOM     11  C26 3VH d   1      18.234  -5.431 -13.155  0.00  0.00    -0.069 C 
ATOM     12  C28 3VH d   1      17.638  -4.243 -12.903  0.00  0.00    -0.082 C 
ATOM     13  C27 3VH d   1      18.285  -3.306 -11.912  0.00  0.00     0.032 C 
ATOM     14  C24 3VH d   1      18.155  -1.821 -12.247  0.00  0.00    -0.041 C 
ATOM     15  C9  3VH d   1      19.378  -1.216 -11.535  0.00  0.00    -0.035 C 
ATOM     16  C10 3VH d   1      20.460  -2.303 -11.482  0.00  0.00     0.092 C 
ATOM     17  H12 3VH d   1      21.680  -8.309 -12.695  0.00  0.00     0.064 H 
ATOM     18  H13 3VH d   1      19.998  -8.897 -12.924  0.00  0.00     0.064 H 
ATOM     19  H14 3VH d   1      21.178  -7.289 -10.605  0.00  0.00     0.035 H 
ATOM     20  H15 3VH d   1      19.977  -8.624 -10.559  0.00  0.00     0.035 H 
ATOM     21  H16 3VH d   1      19.148  -6.090 -10.285  0.00  0.00     0.037 H 
ATOM     22  H17 3VH d   1      18.208  -7.225 -11.311  0.00  0.00     0.037 H 
ATOM     23  H18 3VH d   1      17.796  -6.097 -13.897  0.00  0.00     0.081 H 
ATOM     24  H19 3VH d   1      16.711  -3.969 -13.404  0.00  0.00     0.079 H 
ATOM     25  H20 3VH d   1      17.803  -3.485 -10.940  0.00  0.00     0.079 H 
ATOM     26  H21 3VH d   1      17.217  -1.404 -11.851  0.00  0.00     0.036 H 
ATOM     27  H22 3VH d   1      18.202  -1.652 -13.333  0.00  0.00     0.036 H 
ATOM     28  H23 3VH d   1      19.105  -0.907 -10.515  0.00  0.00     0.036 H 
ATOM     29  H24 3VH d   1      19.747  -0.345 -12.096  0.00  0.00     0.036 H 
ATOM     30  H25 3VH d   1      21.239  -2.115 -12.235  0.00  0.00     0.087 H 
ENDROOT
BRANCH   1  31
ATOM     31  C12 3VH d   1      21.523  -7.453 -15.296  0.00  0.00     0.093 C 
ATOM     32  H10 3VH d   1      21.442  -8.465 -14.872  0.00  0.00     0.088 H 
BRANCH  31  33
ATOM     33  C13 3VH d   1      22.981  -6.954 -15.166  0.00  0.00    -0.012 C 
ATOM     34  H8  3VH d   1      23.020  -5.902 -15.485  0.00  0.00     0.043 H 
ATOM     35  H9  3VH d   1      23.284  -7.029 -14.111  0.00  0.00     0.043 H 
BRANCH  33  36
ATOM     36  C14 3VH d   1      23.960  -7.750 -16.006  0.00  0.00    -0.034 A 
ATOM     37  C15 3VH d   1      24.472  -8.989 -15.539  0.00  0.00     0.040 A 
ATOM     38 CL   3VH d   1      24.064  -9.555 -13.965  0.00  0.00    -0.084 Cl
ATOM     39  C19 3VH d   1      25.381  -9.758 -16.306  0.00  0.00    -0.061 A 
ATOM     40  C18 3VH d   1      25.712  -9.281 -17.566  0.00  0.00    -0.081 A 
ATOM     41  H4  3VH d   1      25.801 -10.681 -15.924  0.00  0.00     0.086 H 
ATOM     42  C17 3VH d   1      25.197  -8.091 -18.078  0.00  0.00    -0.082 A 
ATOM     43  H5  3VH d   1      26.398  -9.857 -18.177  0.00  0.00     0.083 H 
ATOM     44  C16 3VH d   1      24.297  -7.318 -17.296  0.00  0.00    -0.075 A 
ATOM     45  H6  3VH d   1      25.482  -7.757 -19.069  0.00  0.00     0.083 H 
ATOM     46  H7  3VH d   1      23.875  -6.402 -17.694  0.00  0.00     0.084 H 
ENDBRANCH  33  36
ENDBRANCH  31  33
BRANCH  31  47
ATOM     47  N4  3VH d   1      21.070  -7.465 -16.720  0.00  0.00    -0.348 N 
ATOM     48  C32 3VH d   1      20.995  -8.669 -17.367  0.00  0.00     0.214 C 
ATOM     49  O5  3VH d   1      21.149  -9.741 -16.770  0.00  0.00    -0.274 OA
ATOM     50  H11 3VH d   1      20.828  -6.615 -17.188  0.00  0.00     0.163 HD
BRANCH  48  51
ATOM     51  C33 3VH d   1      20.727  -8.665 -18.846  0.00  0.00    -0.003 C 
ATOM     52  H1  3VH d   1      20.619  -7.628 -19.196  0.00  0.00     0.040 H 
ATOM     53  H2  3VH d   1      19.800  -9.220 -19.052  0.00  0.00     0.040 H 
ATOM     54  H3  3VH d   1      21.566  -9.144 -19.372  0.00  0.00     0.040 H 
ENDBRANCH  48  51
ENDBRANCH  31  47
ENDBRANCH   1  31
BRANCH  16  55
ATOM     55  C20 3VH d   1      21.089  -2.376 -10.114  0.00  0.00     0.243 C 
ATOM     56  O6  3VH d   1      20.727  -3.225  -9.294  0.00  0.00    -0.271 OA
ATOM     57  N2  3VH d   1      22.092  -1.486  -9.807  0.00  0.00    -0.336 N 
ATOM     58  C22 3VH d   1      22.716  -0.527 -10.789  0.00  0.00    -0.001 C 
ATOM     59  C21 3VH d   1      22.840  -1.482  -8.556  0.00  0.00     0.098 C 
ATOM     60  C23 3VH d   1      24.105  -0.248 -10.250  0.00  0.00    -0.041 C 
ATOM     61  H26 3VH d   1      22.131   0.403 -10.844  0.00  0.00     0.064 H 
ATOM     62  H27 3VH d   1      22.775  -0.983 -11.788  0.00  0.00     0.064 H 
ATOM     63  C8  3VH d   1      23.819  -0.306  -8.745  0.00  0.00    -0.008 C 
ATOM     64  H28 3VH d   1      24.472   0.742 -10.559  0.00  0.00     0.036 H 
ATOM     65  H29 3VH d   1      24.826  -1.019 -10.559  0.00  0.00     0.036 H 
ATOM     66  C7  3VH d   1      25.010  -0.509  -7.873  0.00  0.00    -0.098 C 
ATOM     67  H30 3VH d   1      23.336   0.635  -8.443  0.00  0.00     0.050 H 
ATOM     68  C6  3VH d   1      25.073  -1.199  -6.711  0.00  0.00    -0.084 C 
ATOM     69  H32 3VH d   1      25.938  -0.049  -8.210  0.00  0.00     0.077 H 
ATOM     70  C5  3VH d   1      23.996  -1.944  -6.000  0.00  0.00     0.032 C 
ATOM     71  H33 3VH d   1      26.048  -1.212  -6.227  0.00  0.00     0.079 H 
ATOM     72  C4  3VH d   1      24.305  -1.991  -4.497  0.00  0.00    -0.041 C 
ATOM     73  N1  3VH d   1      22.611  -1.386  -6.138  0.00  0.00    -0.328 N 
ATOM     74  H34 3VH d   1      23.988  -2.969  -6.399  0.00  0.00     0.079 H 
ATOM     75  C3  3VH d   1      23.031  -1.620  -3.772  0.00  0.00    -0.034 C 
ATOM     76  H35 3VH d   1      25.102  -1.273  -4.252  0.00  0.00     0.036 H 
ATOM     77  H36 3VH d   1      24.623  -3.004  -4.208  0.00  0.00     0.036 H 
ATOM     78  C2  3VH d   1      21.963  -1.271  -4.816  0.00  0.00     0.099 C 
ATOM     79  H37 3VH d   1      23.213  -0.751  -3.122  0.00  0.00     0.036 H 
ATOM     80  H38 3VH d   1      22.690  -2.469  -3.162  0.00  0.00     0.036 H 
ATOM     81  H39 3VH d   1      21.105  -1.956  -4.750  0.00  0.00     0.089 H 
ATOM     82  C25 3VH d   1      21.974  -1.259  -7.343  0.00  0.00     0.244 C 
ATOM     83  O7  3VH d   1      20.750  -0.978  -7.384  0.00  0.00    -0.271 OA
ATOM     84  H31 3VH d   1      23.384  -2.430  -8.434  0.00  0.00     0.088 H 
BRANCH  78  85
ATOM     85  C1  3VH d   1      21.524   0.130  -4.554  0.00  0.00     0.197 C 
ATOM     86  O2  3VH d   1      20.506   0.310  -3.807  0.00  0.00    -0.646 OA
ATOM     87  O1  3VH d   1      22.198   1.057  -5.085  0.00  0.00    -0.646 OA
ENDBRANCH  78  85
ENDBRANCH  16  55
TORSDOF 7
