REMARK  11 active torsions:
REMARK  status: ('A' for Active; 'I' for Inactive)
REMARK    1  A    between atoms: N1_1  and  CA1_2 
REMARK    2  A    between atoms: CA1_2  and  C1_3 
REMARK    3  A    between atoms: CA1_2  and  CB1_6 
REMARK    4  A    between atoms: CB1_6  and  CG1_7 
REMARK    5  A    between atoms: CG1_7  and  CD1_8 
REMARK       I    between atoms: CD1_8  and  N2_10 
REMARK    6  A    between atoms: N2_10  and  CA2_11 
REMARK    7  A    between atoms: CA2_11  and  C2_12 
REMARK    8  A    between atoms: CA2_11  and  CB2_14 
REMARK       I    between atoms: C2_12  and  N3_16 
REMARK    9  A    between atoms: CB2_14  and  SG2_15 
REMARK   10  A    between atoms: N3_16  and  CA3_17 
REMARK   11  A    between atoms: CA3_17  and  C3_18 
ROOT
ATOM      1  CD1 GSH d   1      48.269 -56.143 -91.789  0.00  0.00     0.218 C 
ATOM      2  OE1 GSH d   1      49.119 -55.220 -91.729  0.00  0.00    -0.274 OA
ATOM      3  N2  GSH d   1      46.919 -55.962 -92.302  0.00  0.00    -0.347 N 
ATOM      4  H   GSH d   1      46.313 -56.757 -92.294  0.00  0.00     0.163 HD
ENDROOT
BRANCH   3   5
ATOM      5  CA2 GSH d   1      46.383 -54.717 -92.824  0.00  0.00     0.097 C 
ATOM      6  H   GSH d   1      47.283 -54.156 -93.116  0.00  0.00     0.088 H 
BRANCH   5   7
ATOM      7  C2  GSH d   1      45.707 -53.773 -91.822  0.00  0.00     0.241 C 
ATOM      8  O2  GSH d   1      44.876 -52.938 -92.190  0.00  0.00    -0.271 OA
ATOM      9  N3  GSH d   1      46.090 -53.847 -90.423  0.00  0.00    -0.349 N 
ATOM     10  H   GSH d   1      46.774 -54.522 -90.145  0.00  0.00     0.163 HD
BRANCH   9  11
ATOM     11  CA3 GSH d   1      45.514 -52.975 -89.414  0.00  0.00     0.075 C 
ATOM     12  H   GSH d   1      45.607 -53.446 -88.424  0.00  0.00     0.080 H 
ATOM     13  H   GSH d   1      44.451 -52.803 -89.640  0.00  0.00     0.080 H 
BRANCH  11  14
ATOM     14  C3  GSH d   1      46.250 -51.657 -89.416  0.00  0.00     0.191 C 
ATOM     15  O31 GSH d   1      45.649 -50.586 -89.079  0.00  0.00    -0.647 OA
ATOM     16  O32 GSH d   1      47.465 -51.618 -89.749  0.00  0.00    -0.647 OA
ENDBRANCH  11  14
ENDBRANCH   9  11
ENDBRANCH   5   7
BRANCH   5  17
ATOM     17  CB2 GSH d   1      45.642 -54.913 -94.133  0.00  0.00     0.001 C 
ATOM     18  H   GSH d   1      44.635 -54.476 -94.062  0.00  0.00     0.052 H 
ATOM     19  H   GSH d   1      45.560 -55.986 -94.360  0.00  0.00     0.052 H 
BRANCH  17  20
ATOM     20  SG2 GSH d   1      46.558 -54.103 -95.397  0.00  0.00    -0.180 SA
ATOM     21  H   GSH d   1      46.085 -54.219 -96.280  0.00  0.00     0.101 HD
ENDBRANCH  17  20
ENDBRANCH   5  17
ENDBRANCH   3   5
BRANCH   1  22
ATOM     22  CG1 GSH d   1      48.664 -57.537 -91.293  0.00  0.00     0.012 C 
ATOM     23  H   GSH d   1      49.725 -57.547 -91.002  0.00  0.00     0.047 H 
ATOM     24  H   GSH d   1      48.044 -57.820 -90.429  0.00  0.00     0.047 H 
BRANCH  22  25
ATOM     25  CB1 GSH d   1      48.430 -58.499 -92.436  0.00  0.00    -0.021 C 
ATOM     26  H   GSH d   1      47.538 -58.174 -92.992  0.00  0.00     0.037 H 
ATOM     27  H   GSH d   1      49.306 -58.474 -93.101  0.00  0.00     0.037 H 
BRANCH  25  28
ATOM     28  CA1 GSH d   1      48.218 -59.921 -91.970  0.00  0.00     0.183 C 
ATOM     29  H   GSH d   1      48.209 -59.915 -90.870  0.00  0.00     0.101 H 
BRANCH  28  30
ATOM     30  N1  GSH d   1      49.294 -60.777 -92.412  0.00  0.00    -0.065 N 
ATOM     31  H   GSH d   1      50.174 -60.401 -92.096  0.00  0.00     0.275 HD
ATOM     32  H   GSH d   1      49.292 -60.827 -93.419  0.00  0.00     0.275 HD
ATOM     33  H   GSH d   1      49.167 -61.701 -92.029  0.00  0.00     0.275 HD
ENDBRANCH  28  30
BRANCH  28  34
ATOM     34  C1  GSH d   1      46.912 -60.488 -92.444  0.00  0.00     0.204 C 
ATOM     35  O11 GSH d   1      46.075 -60.978 -91.609  0.00  0.00    -0.646 OA
ATOM     36  O12 GSH d   1      46.626 -60.455 -93.695  0.00  0.00    -0.646 OA
ENDBRANCH  28  34
ENDBRANCH  25  28
ENDBRANCH  22  25
ENDBRANCH   1  22
TORSDOF 11
