REMARK  8 active torsions:
REMARK  status: ('A' for Active; 'I' for Inactive)
REMARK    1  A    between atoms: C7_22  and  C2_1 
REMARK    2  A    between atoms: C4_2  and  C13_19 
REMARK    3  A    between atoms: C5_3  and  C14_17 
REMARK    4  A    between atoms: C23_8  and  C24_6 
REMARK    5  A    between atoms: C20_9  and  C23_8 
REMARK    6  A    between atoms: N16_15  and  C17_14 
REMARK    7  A    between atoms: C6_16  and  N16_15 
REMARK    8  A    between atoms: C14_17  and  C15_18 
ROOT
ATOM      1  C2  19T d   1     -17.707  32.679  -7.699  0.00  0.00     0.169 A 
ATOM      2  C4  19T d   1     -16.996  30.501  -7.339  0.00  0.00     0.043 A 
ATOM      3  C5  19T d   1     -15.796  31.033  -6.828  0.00  0.00     0.012 A 
ATOM      4  C6  19T d   1     -15.598  32.432  -6.822  0.00  0.00     0.138 A 
ATOM      5  N3  19T d   1     -17.937  31.334  -7.783  0.00  0.00    -0.232 NA
ATOM      6  N7  19T d   1     -16.542  33.191  -7.246  0.00  0.00    -0.210 NA
ENDROOT
BRANCH   4   7
ATOM      7  N16 19T d   1     -14.441  32.948  -6.363  0.00  0.00    -0.340 N 
ATOM      8  H   19T d   1     -13.676  32.294  -6.145  0.00  0.00     0.167 HD
BRANCH   7   9
ATOM      9  C17 19T d   1     -14.212  34.295  -6.165  0.00  0.00     0.033 A 
ATOM     10  C18 19T d   1     -14.771  35.280  -7.021  0.00  0.00    -0.057 A 
ATOM     11  C19 19T d   1     -14.548  36.658  -6.706  0.00  0.00    -0.074 A 
ATOM     12  H   19T d   1     -15.352  34.996  -7.891  0.00  0.00     0.086 H 
ATOM     13  C20 19T d   1     -13.792  37.009  -5.572  0.00  0.00    -0.048 A 
ATOM     14  H   19T d   1     -14.962  37.432  -7.342  0.00  0.00     0.084 H 
ATOM     15  C21 19T d   1     -13.252  36.021  -4.783  0.00  0.00    -0.074 A 
ATOM     16  C22 19T d   1     -13.446  34.695  -5.077  0.00  0.00    -0.057 A 
ATOM     17  H   19T d   1     -12.664  36.294  -3.915  0.00  0.00     0.084 H 
ATOM     18  H   19T d   1     -12.991  33.941  -4.445  0.00  0.00     0.086 H 
BRANCH  13  19
ATOM     19  C23 19T d   1     -13.480  38.480  -5.250  0.00  0.00     0.039 C 
ATOM     20  H   19T d   1     -12.749  38.526  -4.430  0.00  0.00     0.056 H 
ATOM     21  H   19T d   1     -13.061  38.967  -6.143  0.00  0.00     0.056 H 
BRANCH  19  22
ATOM     22  C24 19T d   1     -14.737  39.195  -4.837  0.00  0.00     0.176 C 
ATOM     23  O26 19T d   1     -15.343  38.899  -3.786  0.00  0.00    -0.648 OA
ATOM     24  O25 19T d   1     -15.080  40.118  -5.563  0.00  0.00    -0.648 OA
ENDBRANCH  19  22
ENDBRANCH  13  19
ENDBRANCH   7   9
ENDBRANCH   4   7
BRANCH   3  25
ATOM     25  C14 19T d   1     -14.700  30.118  -6.343  0.00  0.00    -0.039 C 
ATOM     26  H   19T d   1     -15.118  29.125  -6.122  0.00  0.00     0.039 H 
ATOM     27  H   19T d   1     -14.245  30.536  -5.433  0.00  0.00     0.039 H 
BRANCH  25  28
ATOM     28  C15 19T d   1     -13.644  29.998  -7.436  0.00  0.00    -0.072 C 
ATOM     29  H   19T d   1     -12.837  29.332  -7.095  0.00  0.00     0.028 H 
ATOM     30  H   19T d   1     -13.230  30.993  -7.657  0.00  0.00     0.028 H 
ATOM     31  H   19T d   1     -14.103  29.582  -8.345  0.00  0.00     0.028 H 
ENDBRANCH  25  28
ENDBRANCH   3  25
BRANCH   2  32
ATOM     32  C13 19T d   1     -17.215  28.993  -7.407  0.00  0.00    -0.035 C 
ATOM     33  H   19T d   1     -18.207  28.785  -7.834  0.00  0.00     0.035 H 
ATOM     34  H   19T d   1     -17.155  28.568  -6.394  0.00  0.00     0.035 H 
ATOM     35  H   19T d   1     -16.441  28.538  -8.042  0.00  0.00     0.035 H 
ENDBRANCH   2  32
BRANCH   1  36
ATOM     36  C7  19T d   1     -18.634  33.603  -8.223  0.00  0.00     0.054 A 
ATOM     37  C11 19T d   1     -19.808  33.259  -8.860  0.00  0.00    -0.060 A 
ATOM     38  C10 19T d   1     -20.517  34.405  -9.295  0.00  0.00    -0.054 A 
ATOM     39  H   19T d   1     -20.147  32.235  -9.010  0.00  0.00     0.085 H 
ATOM     40  C9  19T d   1     -19.855  35.562  -8.982  0.00  0.00     0.075 A 
ATOM     41  H   19T d   1     -21.473  34.370  -9.815  0.00  0.00     0.086 H 
ATOM     42  S8  19T d   1     -18.404  35.256  -8.182  0.00  0.00    -0.074 SA
ATOM     43 CL1  19T d   1     -20.456  37.233  -9.389  0.00  0.00    -0.076 Cl
ENDBRANCH   1  36
TORSDOF 8
