REMARK  5 active torsions:
REMARK  status: ('A' for Active; 'I' for Inactive)
REMARK    1  A    between atoms: C20_15  and  C7_4 
REMARK    2  A    between atoms: C16_13  and  C10_7 
REMARK    3  A    between atoms: C12_9  and  C25_31 
REMARK    4  A    between atoms: C15_12  and  C19_14 
REMARK    5  A    between atoms: C20_15  and  N2_23 
ROOT
ATOM      1  C11 2F3 d   1      24.284  43.818  48.201  0.00  0.00    -0.061 A 
ATOM      2  C12 2F3 d   1      24.931  42.762  48.886  0.00  0.00    -0.022 A 
ATOM      3  C13 2F3 d   1      24.334  43.857  46.779  0.00  0.00     0.005 A 
ATOM      4  C14 2F3 d   1      25.004  42.822  46.088  0.00  0.00     0.049 A 
ATOM      5  C15 2F3 d   1      24.200  44.266  44.530  0.00  0.00     0.125 A 
ATOM      6  C16 2F3 d   1      23.827  44.739  45.793  0.00  0.00     0.026 A 
ATOM      7  N2  2F3 d   1      24.890  43.074  44.752  0.00  0.00    -0.336 N 
ATOM      8  C17 2F3 d   1      25.607  41.786  48.148  0.00  0.00     0.124 A 
ATOM      9  C18 2F3 d   1      25.643  41.777  46.758  0.00  0.00    -0.018 A 
ATOM     10  F1  2F3 d   1      26.257  40.809  48.796  0.00  0.00    -0.205 F 
ATOM     11  H4  2F3 d   1      23.757  44.588  48.753  0.00  0.00     0.085 H 
ATOM     12  H12 2F3 d   1      26.149  40.987  46.214  0.00  0.00     0.091 H 
ENDROOT
BRANCH   7  13
ATOM     13  C20 2F3 d   1      25.425  42.138  43.757  0.00  0.00     0.026 C 
ATOM     14  H5  2F3 d   1      25.679  41.206  44.283  0.00  0.00     0.072 H 
ATOM     15  H6  2F3 d   1      24.628  41.941  43.026  0.00  0.00     0.072 H 
BRANCH  13  16
ATOM     16  C7  2F3 d   1      26.627  42.567  43.002  0.00  0.00    -0.021 A 
ATOM     17  C8  2F3 d   1      26.524  42.752  41.609  0.00  0.00    -0.062 A 
ATOM     18  C2  2F3 d   1      27.634  43.124  40.847  0.00  0.00    -0.007 A 
ATOM     19  H2  2F3 d   1      25.568  42.603  41.121  0.00  0.00     0.085 H 
ATOM     20  C1  2F3 d   1      28.871  43.302  41.526  0.00  0.00     0.066 A 
ATOM     21  C3  2F3 d   1      27.545  43.327  39.447  0.00  0.00    -0.071 A 
ATOM     22  C6  2F3 d   1      29.978  43.688  40.766  0.00  0.00    -0.054 A 
ATOM     23  N1  2F3 d   1      28.994  43.107  42.864  0.00  0.00    -0.260 NA
ATOM     24  C5  2F3 d   1      29.885  43.888  39.380  0.00  0.00    -0.081 A 
ATOM     25  H11 2F3 d   1      30.932  43.837  41.259  0.00  0.00     0.087 H 
ATOM     26  C4  2F3 d   1      28.677  43.705  38.723  0.00  0.00    -0.082 A 
ATOM     27  H10 2F3 d   1      30.763  44.188  38.819  0.00  0.00     0.083 H 
ATOM     28  H9  2F3 d   1      28.612  43.855  37.651  0.00  0.00     0.083 H 
ATOM     29  C9  2F3 d   1      27.891  42.740  43.559  0.00  0.00     0.011 A 
ATOM     30  H3  2F3 d   1      28.000  42.569  44.624  0.00  0.00     0.115 H 
ATOM     31  H1  2F3 d   1      26.598  43.189  38.938  0.00  0.00     0.084 H 
ENDBRANCH  13  16
ENDBRANCH   7  13
BRANCH   5  32
ATOM     32  C19 2F3 d   1      23.915  44.916  43.253  0.00  0.00     0.228 C 
ATOM     33  O1  2F3 d   1      23.902  46.123  43.082  0.00  0.00    -0.643 OA
ATOM     34  O3  2F3 d   1      23.585  44.049  42.277  0.00  0.00    -0.643 OA
ENDBRANCH   5  32
BRANCH   6  35
ATOM     35  C10 2F3 d   1      23.038  45.905  46.071  0.00  0.00     0.044 A 
ATOM     36  C21 2F3 d   1      21.722  46.086  45.335  0.00  0.00     0.277 A 
ATOM     37  N3  2F3 d   1      20.984  47.209  45.663  0.00  0.00    -0.226 NA
ATOM     38  O2  2F3 d   1      21.347  45.272  44.474  0.00  0.00    -0.265 OA
ATOM     39  C22 2F3 d   1      21.369  48.124  46.610  0.00  0.00    -0.011 A 
ATOM     40  C23 2F3 d   1      22.520  47.971  47.286  0.00  0.00    -0.018 A 
ATOM     41  H7  2F3 d   1      20.734  48.984  46.816  0.00  0.00     0.108 H 
ATOM     42  C24 2F3 d   1      23.371  46.819  47.008  0.00  0.00    -0.082 A 
ATOM     43  H13 2F3 d   1      22.260  47.926  48.354  0.00  0.00     0.046 H 
ATOM     44  H14 2F3 d   1      23.125  48.869  47.094  0.00  0.00     0.046 H 
ATOM     45  H8  2F3 d   1      24.296  46.693  47.569  0.00  0.00     0.079 H 
ENDBRANCH   6  35
BRANCH   2  46
ATOM     46  C25 2F3 d   1      24.926  42.681  50.395  0.00  0.00    -0.048 C 
ATOM     47  H15 2F3 d   1      24.351  43.524  50.806  0.00  0.00     0.033 H 
ATOM     48  H16 2F3 d   1      25.960  42.726  50.768  0.00  0.00     0.033 H 
ATOM     49  H17 2F3 d   1      24.464  41.734  50.710  0.00  0.00     0.033 H 
ENDBRANCH   2  46
TORSDOF 5
