REMARK  32 active torsions:
REMARK  status: ('A' for Active; 'I' for Inactive)
REMARK    1  A    between atoms: N_1  and  CA_2 
REMARK    2  A    between atoms: CA_2  and  C_3 
REMARK    3  A    between atoms: CA_2  and  CB_5 
REMARK       I    between atoms: C_3  and  N_7 
REMARK    4  A    between atoms: CB_5  and  OG_6 
REMARK    5  A    between atoms: CA_8  and  C_9 
REMARK       I    between atoms: C_9  and  N_14 
REMARK    6  A    between atoms: N_14  and  CA_15 
REMARK    7  A    between atoms: CA_15  and  C_16 
REMARK    8  A    between atoms: CA_15  and  CB_18 
REMARK       I    between atoms: C_16  and  N_20 
REMARK    9  A    between atoms: CB_18  and  OG_19 
REMARK   10  A    between atoms: N_20  and  CA_21 
REMARK   11  A    between atoms: CA_21  and  C_22 
REMARK   12  A    between atoms: CA_21  and  CB_24 
REMARK       I    between atoms: C_22  and  N_29 
REMARK   13  A    between atoms: CB_24  and  CG_25 
REMARK   14  A    between atoms: CG_25  and  CD_26 
REMARK   15  A    between atoms: CD_26  and  CE_27 
REMARK   16  A    between atoms: CE_27  and  NZ_28 
REMARK   17  A    between atoms: N_29  and  CA_30 
REMARK   18  A    between atoms: CA_30  and  C_31 
REMARK   19  A    between atoms: CA_30  and  CB_33 
REMARK       I    between atoms: C_31  and  N_40 
REMARK   20  A    between atoms: CB_33  and  CG_34 
REMARK   21  A    between atoms: CG_34  and  CD_35 
REMARK   22  A    between atoms: CD_35  and  NE_36 
REMARK       I    between atoms: NE_36  and  CZ_37 
REMARK       I    between atoms: CZ_37  and  NH1_38 
REMARK       I    between atoms: CZ_37  and  NH2_39 
REMARK   23  A    between atoms: N_40  and  CA_41 
REMARK   24  A    between atoms: CA_41  and  C_42 
REMARK   25  A    between atoms: CA_41  and  CB_44 
REMARK       I    between atoms: C_42  and  N_45 
REMARK   26  A    between atoms: N_45  and  CA_46 
REMARK   27  A    between atoms: CA_46  and  C_47 
REMARK   28  A    between atoms: CA_46  and  CB_49 
REMARK       I    between atoms: C_47  and  N_56 
REMARK   29  A    between atoms: CB_49  and  CG_50 
REMARK   30  A    between atoms: CG_50  and  CD_51 
REMARK   31  A    between atoms: CD_51  and  NE_52 
REMARK       I    between atoms: NE_52  and  CZ_53 
REMARK       I    between atoms: CZ_53  and  NH1_54 
REMARK   32  A    between atoms: CA_57  and  C_58 
ROOT
ATOM      1  CA  ARG d   1      42.421  57.352  39.962  0.00  0.00     0.089 C 
ATOM      2  H34 ARG d   1      43.475  57.291  39.655  0.00  0.00     0.087 H 
ENDROOT
BRANCH   1   3
ATOM      3  N   ARG d   1      42.013  56.036  40.455  0.00  0.00    -0.346 N 
ATOM      4  C   LYS d   1      42.881  55.030  40.523  0.00  0.00     0.241 C 
ATOM      5  O   LYS d   1      44.039  55.121  40.112  0.00  0.00    -0.271 OA
ATOM      6  H33 ARG d   1      41.067  55.891  40.745  0.00  0.00     0.163 HD
BRANCH   4   7
ATOM      7  CA  LYS d   1      42.391  53.722  41.123  0.00  0.00     0.089 C 
ATOM      8  H21 LYS d   1      41.291  53.701  41.150  0.00  0.00     0.087 H 
BRANCH   7   9
ATOM      9  N   LYS d   1      42.888  52.638  40.269  0.00  0.00    -0.346 N 
ATOM     10  C   SER d   1      42.472  52.509  39.007  0.00  0.00     0.243 C 
ATOM     11  O   SER d   1      41.547  53.172  38.544  0.00  0.00    -0.271 OA
ATOM     12  H20 LYS d   1      43.549  51.985  40.638  0.00  0.00     0.163 HD
BRANCH  10  13
ATOM     13  CA  SER d   1      43.194  51.486  38.123  0.00  0.00     0.109 C 
ATOM     14  H16 SER d   1      43.667  52.039  37.298  0.00  0.00     0.090 H 
BRANCH  13  15
ATOM     15  N   SER d   1      44.242  50.758  38.821  0.00  0.00    -0.344 N 
ATOM     16  C   PRO d   1      45.499  51.186  38.840  0.00  0.00     0.241 C 
ATOM     17  O   PRO d   1      45.871  52.228  38.299  0.00  0.00    -0.271 OA
ATOM     18  H15 SER d   1      44.010  49.911  39.300  0.00  0.00     0.163 HD
BRANCH  16  19
ATOM     19  CA  PRO d   1      46.498  50.305  39.581  0.00  0.00     0.091 C 
ATOM     20  N   PRO d   1      45.826  49.417  40.540  0.00  0.00    -0.337 N 
ATOM     21  C   SER d   1      45.313  49.983  41.655  0.00  0.00     0.253 C 
ATOM     22  CD  PRO d   1      45.776  48.033  40.038  0.00  0.00    -0.001 C 
ATOM     23  O   SER d   1      45.311  51.203  41.830  0.00  0.00    -0.271 OA
ATOM     24  CG  PRO d   1      46.996  47.960  39.183  0.00  0.00    -0.048 C 
ATOM     25  H13 PRO d   1      44.865  47.856  39.448  0.00  0.00     0.064 H 
ATOM     26  H14 PRO d   1      45.825  47.308  40.864  0.00  0.00     0.064 H 
ATOM     27  CB  PRO d   1      47.152  49.331  38.587  0.00  0.00    -0.036 C 
ATOM     28  H11 PRO d   1      47.876  47.703  39.791  0.00  0.00     0.035 H 
ATOM     29  H12 PRO d   1      46.865  47.209  38.390  0.00  0.00     0.035 H 
ATOM     30  H9  PRO d   1      48.218  49.573  38.460  0.00  0.00     0.036 H 
ATOM     31  H10 PRO d   1      46.645  49.383  37.612  0.00  0.00     0.036 H 
ATOM     32  H8  PRO d   1      47.249  50.932  40.084  0.00  0.00     0.087 H 
BRANCH  21  33
ATOM     33  CA  SER d   1      44.702  49.062  42.728  0.00  0.00     0.196 C 
ATOM     34  H4  SER d   1      44.265  49.724  43.490  0.00  0.00     0.102 H 
BRANCH  33  35
ATOM     35  N   SER d   1      43.609  48.219  42.239  0.00  0.00    -0.064 N 
ATOM     36  H1  SER d   1      43.262  47.648  42.993  0.00  0.00     0.275 HD
ATOM     37  H2  SER d   1      43.948  47.627  41.497  0.00  0.00     0.275 HD
ATOM     38  H3  SER d   1      42.865  48.803  41.890  0.00  0.00     0.275 HD
ENDBRANCH  33  35
BRANCH  33  39
ATOM     39  CB  SER d   1      45.784  48.223  43.433  0.00  0.00     0.051 C 
ATOM     40  H5  SER d   1      46.324  47.631  42.679  0.00  0.00     0.077 H 
ATOM     41  H6  SER d   1      45.298  47.546  44.151  0.00  0.00     0.077 H 
BRANCH  39  42
ATOM     42  OG  SER d   1      46.714  49.041  44.128  0.00  0.00    -0.398 OA
ATOM     43  H7  SER d   1      47.364  48.492  44.549  0.00  0.00     0.209 HD
ENDBRANCH  39  42
ENDBRANCH  33  39
ENDBRANCH  21  33
ENDBRANCH  16  19
ENDBRANCH  13  15
BRANCH  13  44
ATOM     44  CB  SER d   1      42.198  50.501  37.524  0.00  0.00     0.044 C 
ATOM     45  H17 SER d   1      42.593  50.117  36.572  0.00  0.00     0.077 H 
ATOM     46  H18 SER d   1      41.242  51.014  37.344  0.00  0.00     0.077 H 
BRANCH  44  47
ATOM     47  OG  SER d   1      41.989  49.421  38.413  0.00  0.00    -0.398 OA
ATOM     48  H19 SER d   1      41.367  48.813  38.031  0.00  0.00     0.209 HD
ENDBRANCH  44  47
ENDBRANCH  13  44
ENDBRANCH  10  13
ENDBRANCH   7   9
BRANCH   7  49
ATOM     49  CB  LYS d   1      42.941  53.607  42.550  0.00  0.00    -0.038 C 
ATOM     50  H22 LYS d   1      42.550  54.455  43.131  0.00  0.00     0.036 H 
ATOM     51  H23 LYS d   1      44.038  53.675  42.495  0.00  0.00     0.036 H 
BRANCH  49  52
ATOM     52  CG  LYS d   1      42.591  52.330  43.298  0.00  0.00    -0.061 C 
ATOM     53  H24 LYS d   1      43.268  52.228  44.159  0.00  0.00     0.033 H 
ATOM     54  H25 LYS d   1      42.729  51.475  42.620  0.00  0.00     0.033 H 
BRANCH  52  55
ATOM     55  CD  LYS d   1      41.150  52.326  43.805  0.00  0.00    -0.043 C 
ATOM     56  H26 LYS d   1      40.469  52.118  42.967  0.00  0.00     0.035 H 
ATOM     57  H27 LYS d   1      40.912  53.310  44.235  0.00  0.00     0.035 H 
BRANCH  55  58
ATOM     58  CE  LYS d   1      40.978  51.251  44.875  0.00  0.00     0.080 C 
ATOM     59  H28 LYS d   1      41.731  51.408  45.661  0.00  0.00     0.075 H 
ATOM     60  H29 LYS d   1      41.130  50.264  44.415  0.00  0.00     0.075 H 
BRANCH  58  61
ATOM     61  NZ  LYS d   1      39.631  51.292  45.487  0.00  0.00    -0.079 N 
ATOM     62  H30 LYS d   1      39.557  50.569  46.186  0.00  0.00     0.274 HD
ATOM     63  H31 LYS d   1      38.934  51.143  44.775  0.00  0.00     0.274 HD
ATOM     64  H32 LYS d   1      39.485  52.192  45.917  0.00  0.00     0.274 HD
ENDBRANCH  58  61
ENDBRANCH  55  58
ENDBRANCH  52  55
ENDBRANCH  49  52
ENDBRANCH   7  49
ENDBRANCH   4   7
ENDBRANCH   1   3
BRANCH   1  65
ATOM     65  C   ARG d   1      42.288  58.425  41.039  0.00  0.00     0.241 C 
ATOM     66  O   ARG d   1      41.440  58.326  41.929  0.00  0.00    -0.271 OA
ATOM     67  N   ALA d   1      43.116  59.460  40.947  0.00  0.00    -0.346 N 
ATOM     68  H46 ALA d   1      43.864  59.435  40.283  0.00  0.00     0.163 HD
BRANCH  67  69
ATOM     69  CA  ALA d   1      42.951  60.635  41.801  0.00  0.00     0.086 C 
ATOM     70  H47 ALA d   1      42.683  60.290  42.810  0.00  0.00     0.086 H 
BRANCH  69  71
ATOM     71  C   ALA d   1      41.829  61.538  41.290  0.00  0.00     0.240 C 
ATOM     72  O   ALA d   1      41.465  61.499  40.109  0.00  0.00    -0.271 OA
ATOM     73  N   ARG d   1      41.277  62.338  42.197  0.00  0.00    -0.346 N 
ATOM     74  H51 ARG d   1      41.539  62.228  43.156  0.00  0.00     0.163 HD
BRANCH  73  75
ATOM     75  CA  ARG d   1      40.308  63.367  41.853  0.00  0.00     0.089 C 
ATOM     76  H52 ARG d   1      39.403  62.906  41.431  0.00  0.00     0.087 H 
BRANCH  75  77
ATOM     77  C   ARG d   1      40.948  64.286  40.818  0.00  0.00     0.243 C 
ATOM     78  O   ARG d   1      42.103  64.683  40.975  0.00  0.00    -0.271 OA
ATOM     79  N   PRO d   1      40.221  64.594  39.733  0.00  0.00    -0.336 N 
ATOM     80  CA  PRO d   1      40.773  65.489  38.712  0.00  0.00     0.098 C 
ATOM     81  CD  PRO d   1      38.949  63.985  39.299  0.00  0.00    -0.001 C 
ATOM     82  CB  PRO d   1      40.148  64.954  37.424  0.00  0.00    -0.035 C 
ATOM     83  H64 PRO d   1      41.871  65.430  38.682  0.00  0.00     0.089 H 
ATOM     84  CG  PRO d   1      38.794  64.474  37.866  0.00  0.00    -0.048 C 
ATOM     85  H65 PRO d   1      40.744  64.126  37.012  0.00  0.00     0.036 H 
ATOM     86  H66 PRO d   1      40.056  65.750  36.671  0.00  0.00     0.036 H 
ATOM     87  H67 PRO d   1      38.454  63.651  37.220  0.00  0.00     0.035 H 
ATOM     88  H68 PRO d   1      38.067  65.299  37.824  0.00  0.00     0.035 H 
ATOM     89  H69 PRO d   1      38.113  64.331  39.925  0.00  0.00     0.064 H 
ATOM     90  H70 PRO d   1      39.005  62.887  39.336  0.00  0.00     0.064 H 
BRANCH  80  91
ATOM     91  C   PRO d   1      40.339  66.935  38.945  0.00  0.00     0.196 C 
ATOM     92  O   PRO d   1      41.140  67.874  38.693  0.00  0.00    -0.646 OA
ATOM     93  O   PRO d   1      39.186  67.187  39.387  0.00  0.00    -0.646 OA
ENDBRANCH  80  91
ENDBRANCH  75  77
BRANCH  75  94
ATOM     94  CB  ARG d   1      39.938  64.154  43.120  0.00  0.00    -0.036 C 
ATOM     95  H53 ARG d   1      40.828  64.717  43.439  0.00  0.00     0.036 H 
ATOM     96  H54 ARG d   1      39.664  63.428  43.900  0.00  0.00     0.036 H 
BRANCH  94  97
ATOM     97  CG  ARG d   1      38.793  65.137  42.978  0.00  0.00    -0.048 C 
ATOM     98  H55 ARG d   1      37.883  64.591  42.688  0.00  0.00     0.035 H 
ATOM     99  H56 ARG d   1      39.044  65.871  42.198  0.00  0.00     0.035 H 
BRANCH  97 100
ATOM    100  CD  ARG d   1      38.536  65.876  44.301  0.00  0.00     0.009 C 
ATOM    101  H57 ARG d   1      37.936  66.773  44.090  0.00  0.00     0.064 H 
ATOM    102  H58 ARG d   1      39.504  66.175  44.729  0.00  0.00     0.064 H 
BRANCH 100 103
ATOM    103  NE  ARG d   1      37.821  65.058  45.290  0.00  0.00    -0.227 N 
ATOM    104  CZ  ARG d   1      38.378  64.519  46.375  0.00  0.00     0.665 C 
ATOM    105  NH1 ARG d   1      39.670  64.706  46.632  0.00  0.00    -0.235 N 
ATOM    106  NH2 ARG d   1      37.640  63.797  47.211  0.00  0.00    -0.235 N 
ATOM    107  H60 ARG d   1      40.094  64.287  47.472  0.00  0.00     0.174 HD
ATOM    108  H61 ARG d   1      40.246  65.270  45.991  0.00  0.00     0.174 HD
ATOM    109  H62 ARG d   1      36.639  63.648  47.018  0.00  0.00     0.174 HD
ATOM    110  H63 ARG d   1      38.069  63.386  48.053  0.00  0.00     0.174 HD
ATOM    111  H59 ARG d   1      36.817  64.889  45.134  0.00  0.00     0.177 HD
ENDBRANCH 100 103
ENDBRANCH  97 100
ENDBRANCH  94  97
ENDBRANCH  75  94
ENDBRANCH  73  75
ENDBRANCH  69  71
BRANCH  69 112
ATOM    112  CB  ALA d   1      44.235  61.411  41.891  0.00  0.00    -0.049 C 
ATOM    113  H48 ALA d   1      44.088  62.289  42.537  0.00  0.00     0.030 H 
ATOM    114  H49 ALA d   1      44.535  61.742  40.886  0.00  0.00     0.030 H 
ATOM    115  H50 ALA d   1      45.022  60.770  42.316  0.00  0.00     0.030 H 
ENDBRANCH  69 112
ENDBRANCH  67  69
ENDBRANCH   1  65
BRANCH   1 116
ATOM    116  CB  ARG d   1      41.579  57.771  38.753  0.00  0.00    -0.036 C 
ATOM    117  H35 ARG d   1      41.831  58.814  38.512  0.00  0.00     0.036 H 
ATOM    118  H36 ARG d   1      40.519  57.706  39.041  0.00  0.00     0.036 H 
BRANCH 116 119
ATOM    119  CG  ARG d   1      41.771  56.940  37.489  0.00  0.00    -0.048 C 
ATOM    120  H37 ARG d   1      41.552  55.884  37.706  0.00  0.00     0.035 H 
ATOM    121  H38 ARG d   1      42.810  57.035  37.141  0.00  0.00     0.035 H 
BRANCH 119 122
ATOM    122  CD  ARG d   1      40.827  57.443  36.413  0.00  0.00     0.009 C 
ATOM    123  H39 ARG d   1      40.753  56.695  35.610  0.00  0.00     0.064 H 
ATOM    124  H40 ARG d   1      41.211  58.387  36.000  0.00  0.00     0.064 H 
BRANCH 122 125
ATOM    125  NE  ARG d   1      39.509  57.666  36.992  0.00  0.00    -0.227 N 
ATOM    126  CZ  ARG d   1      38.820  58.801  36.917  0.00  0.00     0.665 C 
ATOM    127  NH1 ARG d   1      39.297  59.846  36.256  0.00  0.00    -0.235 N 
ATOM    128  NH2 ARG d   1      37.636  58.879  37.500  0.00  0.00    -0.235 N 
ATOM    129  H42 ARG d   1      38.751  60.718  36.208  0.00  0.00     0.174 HD
ATOM    130  H43 ARG d   1      40.214  59.786  35.791  0.00  0.00     0.174 HD
ATOM    131  H44 ARG d   1      37.261  58.069  38.015  0.00  0.00     0.174 HD
ATOM    132  H45 ARG d   1      37.088  59.749  37.439  0.00  0.00     0.174 HD
ATOM    133  H41 ARG d   1      39.076  56.882  37.500  0.00  0.00     0.177 HD
ENDBRANCH 122 125
ENDBRANCH 119 122
ENDBRANCH 116 119
ENDBRANCH   1 116
TORSDOF 32
