REMARK WARNING: 32 MAX_TORS EXCEEDED!!!
REMARK  52 active torsions:
REMARK  status: ('A' for Active; 'I' for Inactive)
REMARK    1  A    between atoms: CA_2  and  N_1 
REMARK    2  A    between atoms: C_3  and  CA_2 
REMARK    3  A    between atoms: CA_2  and  CB_5 
REMARK       I    between atoms: N_6  and  C_3 
REMARK    4  A    between atoms: CA_7  and  N_6 
REMARK    5  A    between atoms: C_8  and  CA_7 
REMARK    6  A    between atoms: CA_7  and  CB_10 
REMARK       I    between atoms: N_17  and  C_8 
REMARK    7  A    between atoms: CB_10  and  CG_11 
REMARK    8  A    between atoms: CG_11  and  CD_12 
REMARK    9  A    between atoms: CD_12  and  NE_13 
REMARK       I    between atoms: NE_13  and  CZ_14 
REMARK       I    between atoms: CZ_14  and  NH1_15 
REMARK       I    between atoms: CZ_14  and  NH2_16 
REMARK   10  A    between atoms: CA_18  and  N_17 
REMARK   11  A    between atoms: C_19  and  CA_18 
REMARK   12  A    between atoms: CA_18  and  CB_21 
REMARK       I    between atoms: N_24  and  C_19 
REMARK   13  A    between atoms: CB_21  and  OG1_22 
REMARK   14  A    between atoms: CB_21  and  CG2_23 
REMARK   15  A    between atoms: CA_25  and  N_24 
REMARK   16  A    between atoms: CA_25  and  CB_26 
REMARK   17  A    between atoms: C_31  and  CA_25 
REMARK   18  A    between atoms: CB_26  and  CG_27 
REMARK   19  A    between atoms: CG_27  and  CD_28 
REMARK   20  A    between atoms: CD_28  and  CE_29 
REMARK   21  A    between atoms: CE_29  and  NZ_30 
REMARK   22  A    between atoms: NZ_30  and  CM1_33 
REMARK   23  A    between atoms: NZ_30  and  CM2_34 
REMARK   24  A    between atoms: NZ_30  and  CM3_35 
REMARK       I    between atoms: N_36  and  C_31 
REMARK   25  A    between atoms: CA_37  and  N_36 
REMARK   26  A    between atoms: C_38  and  CA_37 
REMARK   27  A    between atoms: CA_37  and  CB_40 
REMARK       I    between atoms: N_45  and  C_38 
REMARK   28  A    between atoms: CB_40  and  CG_41 
REMARK   29  A    between atoms: CG_41  and  CD_42 
REMARK       I    between atoms: CD_42  and  NE2_44 
REMARK   30  A    between atoms: CA_46  and  N_45 
REMARK   31  A    between atoms: C_47  and  CA_46 
REMARK   32  A    between atoms: CA_46  and  CB_49 
REMARK       I    between atoms: N_52  and  C_47 
REMARK   33  A    between atoms: CB_49  and  OG1_50 
REMARK   34  A    between atoms: CB_49  and  CG2_51 
REMARK   35  A    between atoms: CA_53  and  N_52 
REMARK   36  A    between atoms: C_54  and  CA_53 
REMARK   37  A    between atoms: CA_53  and  CB_56 
REMARK       I    between atoms: N_59  and  C_54 
REMARK   38  A    between atoms: NH1_67  and  C1_57 
REMARK   39  A    between atoms: NH1_67  and  C2_58 
REMARK   40  A    between atoms: CA_60  and  N_59 
REMARK   41  A    between atoms: CB_61  and  CA_60 
REMARK   42  A    between atoms: CA_60  and  C_68 
REMARK   43  A    between atoms: CG_62  and  CB_61 
REMARK   44  A    between atoms: CD_63  and  CG_62 
REMARK   45  A    between atoms: NE_64  and  CD_63 
REMARK       I    between atoms: CZ_65  and  NE_64 
REMARK       I    between atoms: CZ_65  and  NH2_66 
REMARK       I    between atoms: C_68  and  N_70 
REMARK   46  A    between atoms: N_70  and  CA_71 
REMARK   47  A    between atoms: CA_71  and  C_72 
REMARK   48  A    between atoms: CA_71  and  CB_74 
REMARK   49  A    between atoms: CB_74  and  CG_75 
REMARK   50  A    between atoms: CG_75  and  CD_76 
REMARK   51  A    between atoms: CD_76  and  CE_77 
REMARK   52  A    between atoms: CE_77  and  NZ_78 
ROOT
ATOM      1  CA  GLN d   1     -17.376   2.786   1.926  0.00  0.00     0.090 C 
ATOM      2  H   GLN d   1     -17.441   2.816   3.024  0.00  0.00     0.087 H 
ENDROOT
BRANCH   1   3
ATOM      3  N   GLN d   1     -15.983   3.060   1.545  0.00  0.00    -0.346 N 
ATOM      4  C   M3L d   1     -14.960   2.681   2.306  0.00  0.00     0.241 C 
ATOM      5  O   M3L d   1     -15.124   2.050   3.352  0.00  0.00    -0.271 OA
ATOM      6  H   GLN d   1     -15.799   3.545   0.690  0.00  0.00     0.163 HD
BRANCH   4   7
ATOM      7  CA  M3L d   1     -13.582   3.098   1.793  0.00  0.00     0.089 C 
ATOM      8  H   M3L d   1     -13.707   3.865   1.015  0.00  0.00     0.087 H 
BRANCH   7   9
ATOM      9  N   M3L d   1     -12.769   3.627   2.843  0.00  0.00    -0.346 N 
ATOM     10  C   THR d   1     -13.005   4.807   3.388  0.00  0.00     0.243 C 
ATOM     11  O   THR d   1     -13.902   5.560   2.999  0.00  0.00    -0.271 OA
ATOM     12  H   M3L d   1     -11.996   3.086   3.176  0.00  0.00     0.163 HD
BRANCH  10  13
ATOM     13  CA  THR d   1     -12.062   5.206   4.520  0.00  0.00     0.113 C 
ATOM     14  H   THR d   1     -11.124   4.641   4.416  0.00  0.00     0.091 H 
BRANCH  13  15
ATOM     15  N   THR d   1     -11.763   6.620   4.422  0.00  0.00    -0.344 N 
ATOM     16  C   ARG d   1     -10.575   7.053   4.019  0.00  0.00     0.241 C 
ATOM     17  O   ARG d   1      -9.617   6.311   3.813  0.00  0.00    -0.271 OA
ATOM     18  H   THR d   1     -12.469   7.286   4.664  0.00  0.00     0.163 HD
BRANCH  16  19
ATOM     19  CA  ARG d   1     -10.469   8.542   3.774  0.00  0.00     0.089 C 
ATOM     20  H   ARG d   1     -11.110   9.079   4.489  0.00  0.00     0.087 H 
BRANCH  19  21
ATOM     21  N   ARG d   1      -9.092   9.009   3.937  0.00  0.00    -0.346 N 
ATOM     22  C   ALA d   1      -8.420   8.857   5.080  0.00  0.00     0.248 C 
ATOM     23  O   ALA d   1      -8.928   8.400   6.112  0.00  0.00    -0.271 OA
ATOM     24  H   ARG d   1      -8.639   9.457   3.166  0.00  0.00     0.163 HD
BRANCH  22  25
ATOM     25  CA  ALA d   1      -6.950   9.295   5.064  0.00  0.00     0.172 C 
ATOM     26  H   ALA d   1      -6.865  10.205   4.452  0.00  0.00     0.098 H 
BRANCH  25  27
ATOM     27  N   ALA d   1      -6.487   9.599   6.411  0.00  0.00    -0.067 N 
ATOM     28  H   ALA d   1      -5.521   9.884   6.378  0.00  0.00     0.275 HD
ATOM     29  H   ALA d   1      -6.575   8.779   6.990  0.00  0.00     0.275 HD
ATOM     30  H   ALA d   1      -7.044  10.345   6.798  0.00  0.00     0.275 HD
ENDBRANCH  25  27
BRANCH  25  31
ATOM     31  CB  ALA d   1      -6.081   8.215   4.447  0.00  0.00    -0.042 C 
ATOM     32  H   ALA d   1      -6.439   7.993   3.431  0.00  0.00     0.030 H 
ATOM     33  H   ALA d   1      -6.135   7.305   5.062  0.00  0.00     0.030 H 
ATOM     34  H   ALA d   1      -5.039   8.565   4.401  0.00  0.00     0.030 H 
ENDBRANCH  25  31
ENDBRANCH  22  25
ENDBRANCH  19  21
BRANCH  19  35
ATOM     35  CB  ARG d   1     -10.967   8.792   2.351  0.00  0.00    -0.036 C 
ATOM     36  H   ARG d   1     -11.914   8.248   2.219  0.00  0.00     0.036 H 
ATOM     37  H   ARG d   1     -10.216   8.396   1.651  0.00  0.00     0.036 H 
BRANCH  35  38
ATOM     38  CG  ARG d   1     -11.205  10.226   2.014  0.00  0.00    -0.048 C 
ATOM     39  H   ARG d   1     -10.298  10.806   2.240  0.00  0.00     0.035 H 
ATOM     40  H   ARG d   1     -12.043  10.605   2.617  0.00  0.00     0.035 H 
BRANCH  38  41
ATOM     41  CD  ARG d   1     -11.540  10.377   0.545  0.00  0.00     0.009 C 
ATOM     42  H   ARG d   1     -12.598  10.120   0.386  0.00  0.00     0.064 H 
ATOM     43  H   ARG d   1     -10.905   9.698  -0.043  0.00  0.00     0.064 H 
BRANCH  41  44
ATOM     44  NE  ARG d   1     -11.308  11.752   0.110  0.00  0.00    -0.227 N 
ATOM     45  CZ  ARG d   1     -12.139  12.757   0.356  0.00  0.00     0.665 C 
ATOM     46  NH1 ARG d   1     -13.262  12.526   1.028  0.00  0.00    -0.235 N 
ATOM     47  NH2 ARG d   1     -11.861  13.987  -0.078  0.00  0.00    -0.235 N 
ATOM     48  H   ARG d   1     -13.913  13.300   1.224  0.00  0.00     0.174 HD
ATOM     49  H   ARG d   1     -13.481  11.573   1.353  0.00  0.00     0.174 HD
ATOM     50  H   ARG d   1     -10.990  14.165  -0.599  0.00  0.00     0.174 HD
ATOM     51  H   ARG d   1     -12.517  14.759   0.107  0.00  0.00     0.174 HD
ATOM     52  H   ARG d   1     -10.448  11.954  -0.419  0.00  0.00     0.177 HD
ENDBRANCH  41  44
ENDBRANCH  38  41
ENDBRANCH  35  38
ENDBRANCH  19  35
ENDBRANCH  16  19
ENDBRANCH  13  15
BRANCH  13  53
ATOM     53  CB  THR d   1     -12.688   4.862   5.880  0.00  0.00     0.060 C 
ATOM     54  H   THR d   1     -13.695   5.302   5.933  0.00  0.00     0.086 H 
BRANCH  53  55
ATOM     55  OG1 THR d   1     -11.876   5.412   6.929  0.00  0.00    -0.393 OA
ATOM     56  H   THR d   1     -12.262   5.200   7.771  0.00  0.00     0.210 HD
ENDBRANCH  53  55
BRANCH  53  57
ATOM     57  CG2 THR d   1     -12.798   3.341   6.059  0.00  0.00    -0.050 C 
ATOM     58  H   THR d   1     -13.248   3.119   7.038  0.00  0.00     0.031 H 
ATOM     59  H   THR d   1     -11.795   2.892   6.006  0.00  0.00     0.031 H 
ATOM     60  H   THR d   1     -13.430   2.923   5.261  0.00  0.00     0.031 H 
ENDBRANCH  53  57
ENDBRANCH  13  53
ENDBRANCH  10  13
ENDBRANCH   7   9
BRANCH   7  61
ATOM     61  CB  M3L d   1     -12.880   1.875   1.198  0.00  0.00    -0.038 C 
ATOM     62  H   M3L d   1     -13.282   0.963   1.664  0.00  0.00     0.036 H 
ATOM     63  H   M3L d   1     -11.800   1.943   1.398  0.00  0.00     0.036 H 
BRANCH  61  64
ATOM     64  CG  M3L d   1     -13.106   1.814  -0.284  0.00  0.00    -0.061 C 
ATOM     65  H   M3L d   1     -14.136   2.136  -0.495  0.00  0.00     0.033 H 
ATOM     66  H   M3L d   1     -12.972   0.774  -0.616  0.00  0.00     0.033 H 
BRANCH  64  67
ATOM     67  CD  M3L d   1     -12.154   2.698  -1.067  0.00  0.00    -0.042 C 
ATOM     68  H   M3L d   1     -11.118   2.579  -0.716  0.00  0.00     0.035 H 
ATOM     69  H   M3L d   1     -12.445   3.757  -0.999  0.00  0.00     0.035 H 
BRANCH  67  70
ATOM     70  CE  M3L d   1     -12.321   2.169  -2.485  0.00  0.00     0.084 C 
ATOM     71  H   M3L d   1     -13.326   1.723  -2.532  0.00  0.00     0.076 H 
ATOM     72  H   M3L d   1     -11.564   1.381  -2.611  0.00  0.00     0.076 H 
BRANCH  70  73
ATOM     73  NZ  M3L d   1     -12.201   3.067  -3.689  0.00  0.00    -0.079 N 
BRANCH  73  74
ATOM     74  CM1 M3L d   1     -13.015   4.323  -3.561  0.00  0.00     0.067 C 
ATOM     75  H   M3L d   1     -12.888   4.936  -4.466  0.00  0.00     0.068 H 
ATOM     76  H   M3L d   1     -12.676   4.892  -2.682  0.00  0.00     0.068 H 
ATOM     77  H   M3L d   1     -14.077   4.061  -3.441  0.00  0.00     0.068 H 
ENDBRANCH  73  74
BRANCH  73  78
ATOM     78  CM2 M3L d   1     -12.654   2.298  -4.884  0.00  0.00     0.067 C 
ATOM     79  H   M3L d   1     -12.057   1.379  -4.976  0.00  0.00     0.068 H 
ATOM     80  H   M3L d   1     -12.523   2.913  -5.787  0.00  0.00     0.068 H 
ATOM     81  H   M3L d   1     -13.716   2.035  -4.770  0.00  0.00     0.068 H 
ENDBRANCH  73  78
BRANCH  73  82
ATOM     82  CM3 M3L d   1     -10.760   3.424  -3.842  0.00  0.00     0.067 C 
ATOM     83  H   M3L d   1     -10.427   3.991  -2.960  0.00  0.00     0.068 H 
ATOM     84  H   M3L d   1     -10.628   4.039  -4.745  0.00  0.00     0.068 H 
ATOM     85  H   M3L d   1     -10.162   2.505  -3.934  0.00  0.00     0.068 H 
ENDBRANCH  73  82
ENDBRANCH  70  73
ENDBRANCH  67  70
ENDBRANCH  64  67
ENDBRANCH  61  64
ENDBRANCH   7  61
ENDBRANCH   4   7
ENDBRANCH   1   3
BRANCH   1  86
ATOM     86  C   GLN d   1     -17.890   1.453   1.439  0.00  0.00     0.241 C 
ATOM     87  O   GLN d   1     -17.517   0.991   0.366  0.00  0.00    -0.271 OA
ATOM     88  N   THR d   1     -18.781   0.858   2.226  0.00  0.00    -0.344 N 
ATOM     89  H   THR d   1     -18.867   1.147   3.179  0.00  0.00     0.163 HD
BRANCH  88  90
ATOM     90  CA  THR d   1     -19.630  -0.204   1.723  0.00  0.00     0.113 C 
ATOM     91  H   THR d   1     -19.047  -0.908   1.111  0.00  0.00     0.091 H 
BRANCH  90  92
ATOM     92  C   THR d   1     -20.695   0.497   0.893  0.00  0.00     0.243 C 
ATOM     93  O   THR d   1     -21.141   1.597   1.238  0.00  0.00    -0.271 OA
ATOM     94  N   ALA d   1     -21.086  -0.119  -0.210  0.00  0.00    -0.346 N 
ATOM     95  H   ALA d   1     -20.714  -1.021  -0.430  0.00  0.00     0.163 HD
BRANCH  94  96
ATOM     96  CA  ALA d   1     -22.050   0.499  -1.106  0.00  0.00     0.086 C 
ATOM     97  H   ALA d   1     -22.567   1.308  -0.569  0.00  0.00     0.086 H 
BRANCH  96  98
ATOM     98  C   ALA d   1     -23.089  -0.534  -1.549  0.00  0.00     0.240 C 
ATOM     99  O   ALA d   1     -22.795  -1.728  -1.622  0.00  0.00    -0.271 OA
ATOM    100  N   DA2 d   1     -24.305  -0.076  -1.834  0.00  0.00    -0.346 N 
ATOM    101  H   DA2 d   1     -24.485   0.906  -1.780  0.00  0.00     0.163 HD
BRANCH 100 102
ATOM    102  CA  DA2 d   1     -25.377  -0.979  -2.223  0.00  0.00     0.089 C 
ATOM    103  H   DA2 d   1     -25.410  -1.782  -1.472  0.00  0.00     0.087 H 
BRANCH 102 104
ATOM    104  CB  DA2 d   1     -26.753  -0.295  -2.240  0.00  0.00    -0.036 C 
ATOM    105  H   DA2 d   1     -26.953   0.118  -1.240  0.00  0.00     0.036 H 
ATOM    106  H   DA2 d   1     -27.517  -1.047  -2.486  0.00  0.00     0.036 H 
BRANCH 104 107
ATOM    107  CG  DA2 d   1     -26.834   0.843  -3.268  0.00  0.00    -0.048 C 
ATOM    108  H   DA2 d   1     -26.544   0.452  -4.255  0.00  0.00     0.035 H 
ATOM    109  H   DA2 d   1     -26.138   1.641  -2.971  0.00  0.00     0.035 H 
BRANCH 107 110
ATOM    110  CD  DA2 d   1     -28.252   1.430  -3.363  0.00  0.00     0.009 C 
ATOM    111  H   DA2 d   1     -28.675   1.501  -2.350  0.00  0.00     0.064 H 
ATOM    112  H   DA2 d   1     -28.874   0.758  -3.973  0.00  0.00     0.064 H 
BRANCH 110 113
ATOM    113  NE  DA2 d   1     -28.259   2.753  -3.968  0.00  0.00    -0.227 N 
ATOM    114  CZ  DA2 d   1     -29.372   3.362  -4.399  0.00  0.00     0.668 C 
ATOM    115  NH2 DA2 d   1     -30.515   2.865  -4.184  0.00  0.00    -0.235 N 
ATOM    116  NH1 DA2 d   1     -29.286   4.519  -5.059  0.00  0.00    -0.227 N 
ATOM    117  H   DA2 d   1     -30.602   1.973  -3.676  0.00  0.00     0.174 HD
ATOM    118  H   DA2 d   1     -31.359   3.352  -4.516  0.00  0.00     0.174 HD
ATOM    119  H   DA2 d   1     -27.361   3.248  -4.070  0.00  0.00     0.177 HD
BRANCH 116 120
ATOM    120  C1  DA2 d   1     -28.013   5.109  -5.444  0.00  0.00    -0.003 C 
ATOM    121  H   DA2 d   1     -28.193   6.056  -5.974  0.00  0.00     0.057 H 
ATOM    122  H   DA2 d   1     -27.473   4.416  -6.105  0.00  0.00     0.057 H 
ATOM    123  H   DA2 d   1     -27.411   5.302  -4.544  0.00  0.00     0.057 H 
ENDBRANCH 116 120
BRANCH 116 124
ATOM    124  C2  DA2 d   1     -30.470   5.292  -5.434  0.00  0.00    -0.003 C 
ATOM    125  H   DA2 d   1     -31.374   4.763  -5.099  0.00  0.00     0.057 H 
ATOM    126  H   DA2 d   1     -30.499   5.412  -6.527  0.00  0.00     0.057 H 
ATOM    127  H   DA2 d   1     -30.427   6.282  -4.957  0.00  0.00     0.057 H 
ENDBRANCH 116 124
ENDBRANCH 110 113
ENDBRANCH 107 110
ENDBRANCH 104 107
ENDBRANCH 102 104
BRANCH 102 128
ATOM    128  C   DA2 d   1     -25.140  -1.614  -3.569  0.00  0.00     0.241 C 
ATOM    129  O   DA2 d   1     -24.515  -1.004  -4.476  0.00  0.00    -0.271 OA
ATOM    130  N   LYS d   1     -25.635  -2.841  -3.683  0.00  0.00    -0.345 N 
ATOM    131  H   LYS d   1     -25.922  -3.298  -2.841  0.00  0.00     0.163 HD
BRANCH 130 132
ATOM    132  CA  LYS d   1     -25.796  -3.582  -4.936  0.00  0.00     0.096 C 
ATOM    133  H   LYS d   1     -26.391  -4.473  -4.688  0.00  0.00     0.089 H 
BRANCH 132 134
ATOM    134  C   LYS d   1     -24.489  -4.103  -5.518  0.00  0.00     0.196 C 
ATOM    135  O   LYS d   1     -24.024  -5.177  -5.124  0.00  0.00    -0.646 OA
ATOM    136  O1  LYS d   1     -23.883  -3.439  -6.401  0.00  0.00    -0.646 OA
ENDBRANCH 132 134
BRANCH 132 137
ATOM    137  CB  LYS d   1     -26.617  -2.785  -5.957  0.00  0.00    -0.037 C 
ATOM    138  H   LYS d   1     -26.372  -1.719  -5.836  0.00  0.00     0.036 H 
ATOM    139  H   LYS d   1     -27.683  -2.943  -5.738  0.00  0.00     0.036 H 
BRANCH 137 140
ATOM    140  CG  LYS d   1     -26.372  -3.164  -7.401  0.00  0.00    -0.061 C 
ATOM    141  H   LYS d   1     -25.669  -4.009  -7.435  0.00  0.00     0.033 H 
ATOM    142  H   LYS d   1     -25.935  -2.303  -7.928  0.00  0.00     0.033 H 
BRANCH 140 143
ATOM    143  CD  LYS d   1     -27.670  -3.569  -8.101  0.00  0.00    -0.043 C 
ATOM    144  H   LYS d   1     -28.501  -2.979  -7.688  0.00  0.00     0.035 H 
ATOM    145  H   LYS d   1     -27.856  -4.638  -7.923  0.00  0.00     0.035 H 
BRANCH 143 146
ATOM    146  CE  LYS d   1     -27.581  -3.321  -9.603  0.00  0.00     0.080 C 
ATOM    147  H   LYS d   1     -28.515  -3.647 -10.083  0.00  0.00     0.075 H 
ATOM    148  H   LYS d   1     -26.737  -3.892 -10.018  0.00  0.00     0.075 H 
BRANCH 146 149
ATOM    149  NZ  LYS d   1     -27.371  -1.864  -9.866  0.00  0.00    -0.079 N 
ATOM    150  H   LYS d   1     -27.313  -1.707 -10.860  0.00  0.00     0.274 HD
ATOM    151  H   LYS d   1     -26.514  -1.563  -9.428  0.00  0.00     0.274 HD
ATOM    152  H   LYS d   1     -28.144  -1.339  -9.488  0.00  0.00     0.274 HD
ENDBRANCH 146 149
ENDBRANCH 143 146
ENDBRANCH 140 143
ENDBRANCH 137 140
ENDBRANCH 132 137
ENDBRANCH 130 132
ENDBRANCH 102 128
ENDBRANCH 100 102
ENDBRANCH  96  98
BRANCH  96 153
ATOM    153  CB  ALA d   1     -21.332   1.091  -2.297  0.00  0.00    -0.049 C 
ATOM    154  H   ALA d   1     -22.065   1.557  -2.972  0.00  0.00     0.030 H 
ATOM    155  H   ALA d   1     -20.794   0.296  -2.833  0.00  0.00     0.030 H 
ATOM    156  H   ALA d   1     -20.615   1.851  -1.952  0.00  0.00     0.030 H 
ENDBRANCH  96 153
ENDBRANCH  94  96
ENDBRANCH  90  92
BRANCH  90 157
ATOM    157  CB  THR d   1     -20.326  -0.953   2.859  0.00  0.00     0.060 C 
ATOM    158  H   THR d   1     -20.907  -1.787   2.439  0.00  0.00     0.086 H 
BRANCH 157 159
ATOM    159  OG1 THR d   1     -21.209  -0.052   3.540  0.00  0.00    -0.393 OA
ATOM    160  H   THR d   1     -21.857   0.277   2.928  0.00  0.00     0.210 HD
ENDBRANCH 157 159
BRANCH 157 161
ATOM    161  CG2 THR d   1     -19.307  -1.503   3.844  0.00  0.00    -0.050 C 
ATOM    162  H   THR d   1     -19.829  -2.037   4.652  0.00  0.00     0.031 H 
ATOM    163  H   THR d   1     -18.724  -0.673   4.270  0.00  0.00     0.031 H 
ATOM    164  H   THR d   1     -18.631  -2.197   3.323  0.00  0.00     0.031 H 
ENDBRANCH 157 161
ENDBRANCH  90 157
ENDBRANCH  88  90
ENDBRANCH   1  86
BRANCH   1 165
ATOM    165  CB  GLN d   1     -18.318   3.831   1.327  0.00  0.00    -0.030 C 
ATOM    166  H   GLN d   1     -19.348   3.460   1.437  0.00  0.00     0.037 H 
ATOM    167  H   GLN d   1     -18.076   3.930   0.259  0.00  0.00     0.037 H 
BRANCH 165 168
ATOM    168  CG  GLN d   1     -18.253   5.194   1.941  0.00  0.00     0.011 C 
ATOM    169  H   GLN d   1     -17.266   5.635   1.738  0.00  0.00     0.047 H 
ATOM    170  H   GLN d   1     -18.400   5.108   3.028  0.00  0.00     0.047 H 
BRANCH 168 171
ATOM    171  CD  GLN d   1     -19.323   6.089   1.365  0.00  0.00     0.215 C 
ATOM    172  OE1 GLN d   1     -19.974   5.742   0.364  0.00  0.00    -0.274 OA
ATOM    173  NE2 GLN d   1     -19.511   7.247   1.982  0.00  0.00    -0.370 N 
ATOM    174  H   GLN d   1     -20.206   7.884   1.648  0.00  0.00     0.159 HD
ATOM    175  H   GLN d   1     -18.958   7.483   2.781  0.00  0.00     0.159 HD
ENDBRANCH 168 171
ENDBRANCH 165 168
ENDBRANCH   1 165
TORSDOF 52
