REMARK WARNING: 32 MAX_TORS EXCEEDED!!!
REMARK  37 active torsions:
REMARK  status: ('A' for Active; 'I' for Inactive)
REMARK    1  A    between atoms: N_1  and  CA_2 
REMARK    2  A    between atoms: CA_2  and  C_3 
REMARK    3  A    between atoms: CA_2  and  CB_5 
REMARK       I    between atoms: C_3  and  N_6 
REMARK    4  A    between atoms: N_6  and  CA_7 
REMARK    5  A    between atoms: CA_7  and  C_8 
REMARK    6  A    between atoms: CA_7  and  CB_10 
REMARK       I    between atoms: C_8  and  N_17 
REMARK    7  A    between atoms: CB_10  and  CG_11 
REMARK    8  A    between atoms: CG_11  and  CD_12 
REMARK    9  A    between atoms: CD_12  and  NE_13 
REMARK       I    between atoms: NE_13  and  CZ_14 
REMARK       I    between atoms: CZ_14  and  NH1_15 
REMARK   10  A    between atoms: N_17  and  CA_18 
REMARK   11  A    between atoms: CA_18  and  C_19 
REMARK   12  A    between atoms: CA_18  and  CB_21 
REMARK       I    between atoms: C_19  and  N_24 
REMARK   13  A    between atoms: CB_21  and  OG1_22 
REMARK   14  A    between atoms: CB_21  and  CG2_23 
REMARK   15  A    between atoms: N_24  and  CA_25 
REMARK   16  A    between atoms: CA_25  and  CB_26 
REMARK   17  A    between atoms: CA_25  and  C_31 
REMARK   18  A    between atoms: CB_26  and  CG_27 
REMARK   19  A    between atoms: CG_27  and  CD_28 
REMARK   20  A    between atoms: CD_28  and  CE_29 
REMARK   21  A    between atoms: CE_29  and  NZ_30 
REMARK   22  A    between atoms: NZ_30  and  CM1_33 
REMARK   23  A    between atoms: NZ_30  and  CM2_34 
REMARK   24  A    between atoms: NZ_30  and  CM3_35 
REMARK       I    between atoms: C_31  and  N_36 
REMARK   25  A    between atoms: N_36  and  CA_37 
REMARK   26  A    between atoms: CA_37  and  C_38 
REMARK   27  A    between atoms: CA_37  and  CB_40 
REMARK       I    between atoms: C_38  and  N_45 
REMARK   28  A    between atoms: CB_40  and  CG_41 
REMARK   29  A    between atoms: CG_41  and  CD_42 
REMARK       I    between atoms: CD_42  and  NE2_44 
REMARK   30  A    between atoms: N_45  and  CA_46 
REMARK   31  A    between atoms: CA_46  and  C_47 
REMARK   32  A    between atoms: CA_46  and  CB_49 
REMARK       I    between atoms: C_47  and  N_52 
REMARK   33  A    between atoms: CB_49  and  OG1_50 
REMARK   34  A    between atoms: CB_49  and  CG2_51 
REMARK   35  A    between atoms: N_52  and  CA_53 
REMARK   36  A    between atoms: CA_53  and  C_54 
REMARK   37  A    between atoms: CA_53  and  CB_56 
ROOT
ATOM      1  CA  M3L d   1      13.619   2.420  -1.303  0.00  0.00     0.089 C 
ATOM      2  H   M3L d   1      13.766   3.227  -0.570  0.00  0.00     0.087 H 
ENDROOT
BRANCH   1   3
ATOM      3  N   M3L d   1      12.863   2.983  -2.394  0.00  0.00    -0.346 N 
ATOM      4  C   THR d   1      13.069   4.235  -2.791  0.00  0.00     0.243 C 
ATOM      5  O   THR d   1      13.866   4.984  -2.231  0.00  0.00    -0.271 OA
ATOM      6  H   M3L d   1      12.175   2.425  -2.858  0.00  0.00     0.163 HD
BRANCH   4   7
ATOM      7  CA  THR d   1      12.269   4.723  -3.998  0.00  0.00     0.113 C 
ATOM      8  H   THR d   1      11.329   4.157  -4.073  0.00  0.00     0.091 H 
BRANCH   7   9
ATOM      9  N   THR d   1      11.966   6.129  -3.801  0.00  0.00    -0.344 N 
ATOM     10  C   ARG d   1      10.742   6.556  -3.520  0.00  0.00     0.241 C 
ATOM     11  O   ARG d   1       9.763   5.816  -3.485  0.00  0.00    -0.271 OA
ATOM     12  H   THR d   1      12.705   6.798  -3.880  0.00  0.00     0.163 HD
BRANCH  10  13
ATOM     13  CA  ARG d   1      10.622   8.043  -3.218  0.00  0.00     0.089 C 
ATOM     14  H   ARG d   1      11.216   8.606  -3.954  0.00  0.00     0.087 H 
BRANCH  13  15
ATOM     15  N   ARG d   1       9.235   8.491  -3.304  0.00  0.00    -0.346 N 
ATOM     16  C   ALA d   1       8.560   8.487  -4.452  0.00  0.00     0.248 C 
ATOM     17  O   ALA d   1       9.057   8.143  -5.524  0.00  0.00    -0.271 OA
ATOM     18  H   ARG d   1       8.777   8.811  -2.474  0.00  0.00     0.163 HD
BRANCH  16  19
ATOM     19  CA  ALA d   1       7.105   8.944  -4.378  0.00  0.00     0.172 C 
ATOM     20  H   ALA d   1       7.069   9.874  -3.792  0.00  0.00     0.098 H 
BRANCH  19  21
ATOM     21  N   ALA d   1       6.562   9.220  -5.701  0.00  0.00    -0.067 N 
ATOM     22  H   ALA d   1       5.603   9.518  -5.615  0.00  0.00     0.275 HD
ATOM     23  H   ALA d   1       6.605   8.384  -6.263  0.00  0.00     0.275 HD
ATOM     24  H   ALA d   1       7.102   9.948  -6.141  0.00  0.00     0.275 HD
ENDBRANCH  19  21
BRANCH  19  25
ATOM     25  CB  ALA d   1       6.257   7.902  -3.673  0.00  0.00    -0.042 C 
ATOM     26  H   ALA d   1       6.676   7.702  -2.676  0.00  0.00     0.030 H 
ATOM     27  H   ALA d   1       6.253   6.973  -4.262  0.00  0.00     0.030 H 
ATOM     28  H   ALA d   1       5.228   8.276  -3.570  0.00  0.00     0.030 H 
ENDBRANCH  19  25
ENDBRANCH  16  19
ENDBRANCH  13  15
BRANCH  13  29
ATOM     29  CB  ARG d   1      11.190   8.296  -1.821  0.00  0.00    -0.036 C 
ATOM     30  H   ARG d   1      12.213   7.892  -1.790  0.00  0.00     0.036 H 
ATOM     31  H   ARG d   1      10.562   7.759  -1.095  0.00  0.00     0.036 H 
BRANCH  29  32
ATOM     32  CG  ARG d   1      11.247   9.745  -1.408  0.00  0.00    -0.048 C 
ATOM     33  H   ARG d   1      10.234  10.172  -1.442  0.00  0.00     0.035 H 
ATOM     34  H   ARG d   1      11.900  10.294  -2.102  0.00  0.00     0.035 H 
BRANCH  32  35
ATOM     35  CD  ARG d   1      11.796   9.873   0.002  0.00  0.00     0.009 C 
ATOM     36  H   ARG d   1      12.856   9.580   0.003  0.00  0.00     0.064 H 
ATOM     37  H   ARG d   1      11.230   9.207   0.670  0.00  0.00     0.064 H 
BRANCH  35  38
ATOM     38  NE  ARG d   1      11.680  11.241   0.484  0.00  0.00    -0.227 N 
ATOM     39  CZ  ARG d   1      12.563  12.196   0.216  0.00  0.00     0.665 C 
ATOM     40  NH1 ARG d   1      13.631  11.928  -0.526  0.00  0.00    -0.235 N 
ATOM     41  NH2 ARG d   1      12.383  13.418   0.695  0.00  0.00    -0.235 N 
ATOM     42  H   ARG d   1      14.314  12.671  -0.732  0.00  0.00     0.174 HD
ATOM     43  H   ARG d   1      13.776  10.977  -0.895  0.00  0.00     0.174 HD
ATOM     44  H   ARG d   1      11.555  13.629   1.271  0.00  0.00     0.174 HD
ATOM     45  H   ARG d   1      13.071  14.157   0.491  0.00  0.00     0.174 HD
ATOM     46  H   ARG d   1      10.866  11.483   1.067  0.00  0.00     0.177 HD
ENDBRANCH  35  38
ENDBRANCH  32  35
ENDBRANCH  29  32
ENDBRANCH  13  29
ENDBRANCH  10  13
ENDBRANCH   7   9
BRANCH   7  47
ATOM     47  CB  THR d   1      13.093   4.496  -5.273  0.00  0.00     0.060 C 
ATOM     48  H   THR d   1      14.159   4.615  -5.030  0.00  0.00     0.086 H 
BRANCH  47  49
ATOM     49  OG1 THR d   1      12.734   5.456  -6.274  0.00  0.00    -0.393 OA
ATOM     50  H   THR d   1      13.251   5.304  -7.057  0.00  0.00     0.210 HD
ENDBRANCH  47  49
BRANCH  47  51
ATOM     51  CG2 THR d   1      12.866   3.100  -5.814  0.00  0.00    -0.050 C 
ATOM     52  H   THR d   1      13.465   2.958  -6.726  0.00  0.00     0.031 H 
ATOM     53  H   THR d   1      11.800   2.967  -6.051  0.00  0.00     0.031 H 
ATOM     54  H   THR d   1      13.169   2.360  -5.058  0.00  0.00     0.031 H 
ENDBRANCH  47  51
ENDBRANCH   7  47
ENDBRANCH   4   7
ENDBRANCH   1   3
BRANCH   1  55
ATOM     55  CB  M3L d   1      12.931   1.248  -0.591  0.00  0.00    -0.038 C 
ATOM     56  H   M3L d   1      13.696   0.607  -0.128  0.00  0.00     0.036 H 
ATOM     57  H   M3L d   1      12.360   0.663  -1.327  0.00  0.00     0.036 H 
BRANCH  55  58
ATOM     58  CG  M3L d   1      11.991   1.751   0.480  0.00  0.00    -0.061 C 
ATOM     59  H   M3L d   1      11.043   1.196   0.426  0.00  0.00     0.033 H 
ATOM     60  H   M3L d   1      11.798   2.823   0.325  0.00  0.00     0.033 H 
BRANCH  58  61
ATOM     61  CD  M3L d   1      12.620   1.544   1.842  0.00  0.00    -0.042 C 
ATOM     62  H   M3L d   1      13.471   2.227   1.979  0.00  0.00     0.035 H 
ATOM     63  H   M3L d   1      12.962   0.504   1.952  0.00  0.00     0.035 H 
BRANCH  61  64
ATOM     64  CE  M3L d   1      11.528   1.851   2.852  0.00  0.00     0.084 C 
ATOM     65  H   M3L d   1      11.031   0.903   3.106  0.00  0.00     0.076 H 
ATOM     66  H   M3L d   1      10.806   2.526   2.370  0.00  0.00     0.076 H 
BRANCH  64  67
ATOM     67  NZ  M3L d   1      11.970   2.494   4.134  0.00  0.00    -0.079 N 
BRANCH  67  68
ATOM     68  CM1 M3L d   1      12.829   3.680   3.843  0.00  0.00     0.067 C 
ATOM     69  H   M3L d   1      13.147   4.143   4.789  0.00  0.00     0.068 H 
ATOM     70  H   M3L d   1      12.258   4.410   3.251  0.00  0.00     0.068 H 
ATOM     71  H   M3L d   1      13.715   3.360   3.275  0.00  0.00     0.068 H 
ENDBRANCH  67  68
BRANCH  67  72
ATOM     72  CM2 M3L d   1      12.679   1.511   5.005  0.00  0.00     0.067 C 
ATOM     73  H   M3L d   1      12.020   0.652   5.200  0.00  0.00     0.068 H 
ATOM     74  H   M3L d   1      12.946   1.991   5.958  0.00  0.00     0.068 H 
ATOM     75  H   M3L d   1      13.593   1.165   4.500  0.00  0.00     0.068 H 
ENDBRANCH  67  72
BRANCH  67  76
ATOM     76  CM3 M3L d   1      10.742   2.957   4.840  0.00  0.00     0.067 C 
ATOM     77  H   M3L d   1      10.208   3.683   4.209  0.00  0.00     0.068 H 
ATOM     78  H   M3L d   1      11.023   3.434   5.790  0.00  0.00     0.068 H 
ATOM     79  H   M3L d   1      10.088   2.096   5.041  0.00  0.00     0.068 H 
ENDBRANCH  67  76
ENDBRANCH  64  67
ENDBRANCH  61  64
ENDBRANCH  58  61
ENDBRANCH  55  58
ENDBRANCH   1  55
BRANCH   1  80
ATOM     80  C   M3L d   1      14.984   1.904  -1.728  0.00  0.00     0.241 C 
ATOM     81  O   M3L d   1      15.153   1.156  -2.692  0.00  0.00    -0.271 OA
ATOM     82  N   GLN d   1      16.000   2.321  -0.979  0.00  0.00    -0.346 N 
ATOM     83  H   GLN d   1      15.844   3.013  -0.274  0.00  0.00     0.163 HD
BRANCH  82  84
ATOM     84  CA  GLN d   1      17.338   1.780  -1.176  0.00  0.00     0.090 C 
ATOM     85  H   GLN d   1      17.491   1.597  -2.250  0.00  0.00     0.087 H 
BRANCH  84  86
ATOM     86  C   GLN d   1      17.469   0.462  -0.426  0.00  0.00     0.241 C 
ATOM     87  O   GLN d   1      16.472  -0.183  -0.097  0.00  0.00    -0.271 OA
ATOM     88  N   THR d   1      18.707   0.069  -0.157  0.00  0.00    -0.344 N 
ATOM     89  H   THR d   1      19.476   0.608  -0.501  0.00  0.00     0.163 HD
BRANCH  88  90
ATOM     90  CA  THR d   1      18.974  -1.129   0.628  0.00  0.00     0.113 C 
ATOM     91  H   THR d   1      18.102  -1.303   1.276  0.00  0.00     0.091 H 
BRANCH  90  92
ATOM     92  C   THR d   1      20.196  -0.940   1.532  0.00  0.00     0.243 C 
ATOM     93  O   THR d   1      21.101  -0.158   1.212  0.00  0.00    -0.271 OA
ATOM     94  N   ALA d   1      20.204  -1.665   2.652  0.00  0.00    -0.345 N 
ATOM     95  H   ALA d   1      19.469  -2.328   2.792  0.00  0.00     0.163 HD
BRANCH  94  96
ATOM     96  CA  ALA d   1      21.232  -1.541   3.687  0.00  0.00     0.093 C 
ATOM     97  H   ALA d   1      21.222  -0.501   4.047  0.00  0.00     0.089 H 
BRANCH  96  98
ATOM     98  C   ALA d   1      22.631  -1.839   3.162  0.00  0.00     0.196 C 
ATOM     99  O   ALA d   1      22.862  -2.886   2.566  0.00  0.00    -0.646 OA
ATOM    100  O1  ALA d   1      23.557  -1.004   3.341  0.00  0.00    -0.646 OA
ENDBRANCH  96  98
BRANCH  96 101
ATOM    101  CB  ALA d   1      20.907  -2.460   4.867  0.00  0.00    -0.048 C 
ATOM    102  H   ALA d   1      21.686  -2.358   5.637  0.00  0.00     0.030 H 
ATOM    103  H   ALA d   1      20.869  -3.503   4.520  0.00  0.00     0.030 H 
ATOM    104  H   ALA d   1      19.932  -2.180   5.292  0.00  0.00     0.030 H 
ENDBRANCH  96 101
ENDBRANCH  94  96
ENDBRANCH  90  92
BRANCH  90 105
ATOM    105  CB  THR d   1      19.144  -2.373  -0.272  0.00  0.00     0.060 C 
ATOM    106  H   THR d   1      18.832  -2.110  -1.294  0.00  0.00     0.086 H 
BRANCH 105 107
ATOM    107  OG1 THR d   1      18.310  -3.435   0.208  0.00  0.00    -0.393 OA
ATOM    108  H   THR d   1      18.418  -4.197  -0.349  0.00  0.00     0.210 HD
ENDBRANCH 105 107
BRANCH 105 109
ATOM    109  CG2 THR d   1      20.597  -2.841  -0.314  0.00  0.00    -0.050 C 
ATOM    110  H   THR d   1      20.679  -3.726  -0.963  0.00  0.00     0.031 H 
ATOM    111  H   THR d   1      20.928  -3.100   0.703  0.00  0.00     0.031 H 
ATOM    112  H   THR d   1      21.230  -2.035  -0.712  0.00  0.00     0.031 H 
ENDBRANCH 105 109
ENDBRANCH  90 105
ENDBRANCH  88  90
ENDBRANCH  84  86
BRANCH  84 113
ATOM    113  CB  GLN d   1      18.405   2.765  -0.689  0.00  0.00    -0.030 C 
ATOM    114  H   GLN d   1      19.392   2.297  -0.821  0.00  0.00     0.037 H 
ATOM    115  H   GLN d   1      18.232   2.959   0.380  0.00  0.00     0.037 H 
BRANCH 113 116
ATOM    116  CG  GLN d   1      18.410   4.099  -1.420  0.00  0.00     0.011 C 
ATOM    117  H   GLN d   1      17.481   4.637  -1.181  0.00  0.00     0.047 H 
ATOM    118  H   GLN d   1      18.455   3.909  -2.502  0.00  0.00     0.047 H 
BRANCH 116 119
ATOM    119  CD  GLN d   1      19.590   4.966  -1.028  0.00  0.00     0.215 C 
ATOM    120  OE1 GLN d   1      20.746   4.570  -1.187  0.00  0.00    -0.274 OA
ATOM    121  NE2 GLN d   1      19.305   6.152  -0.505  0.00  0.00    -0.370 N 
ATOM    122  H   GLN d   1      20.043   6.767  -0.228  0.00  0.00     0.159 HD
ATOM    123  H   GLN d   1      18.352   6.431  -0.388  0.00  0.00     0.159 HD
ENDBRANCH 116 119
ENDBRANCH 113 116
ENDBRANCH  84 113
ENDBRANCH  82  84
ENDBRANCH   1  80
TORSDOF 37
