REMARK WARNING: 32 MAX_TORS EXCEEDED!!!
REMARK  80 active torsions:
REMARK  status: ('A' for Active; 'I' for Inactive)
REMARK    1  A    between atoms: C_1  and  CH3_3 
REMARK       I    between atoms: C_1  and  N_4 
REMARK    2  A    between atoms: N_4  and  CA_5 
REMARK    3  A    between atoms: CA_5  and  C_6 
REMARK    4  A    between atoms: CA_5  and  CB_8 
REMARK       I    between atoms: C_6  and  N_13 
REMARK    5  A    between atoms: CB_8  and  CG_9 
REMARK    6  A    between atoms: CG_9  and  CD_10 
REMARK    7  A    between atoms: CD_10  and  CE_11 
REMARK    8  A    between atoms: CE_11  and  NZ_12 
REMARK    9  A    between atoms: N_13  and  CA_14 
REMARK   10  A    between atoms: CA_14  and  C_15 
REMARK   11  A    between atoms: CA_14  and  CB_17 
REMARK       I    between atoms: C_15  and  N_21 
REMARK   12  A    between atoms: CB_17  and  CG_18 
REMARK       I    between atoms: CG_18  and  ND2_20 
REMARK   13  A    between atoms: N_21  and  CA_22 
REMARK   14  A    between atoms: CA_37  and  CB_40 
REMARK   15  A    between atoms: CB_40  and  OG_41 
REMARK   16  A    between atoms: CA_43  and  CB_46 
REMARK   17  A    between atoms: CB_46  and  CG_47 
REMARK   18  A    between atoms: CG_47  and  CD1_48 
REMARK   19  A    between atoms: CG_47  and  CD2_49 
REMARK   20  A    between atoms: CA_51  and  C_52 
REMARK       I    between atoms: C_52  and  N_58 
REMARK   21  A    between atoms: N_58  and  CA_59 
REMARK   22  A    between atoms: CA_59  and  C_60 
REMARK   23  A    between atoms: CA_59  and  CB_62 
REMARK       I    between atoms: C_60  and  N_69 
REMARK   24  A    between atoms: CB_62  and  CG_63 
REMARK   25  A    between atoms: CG_63  and  CD_64 
REMARK   26  A    between atoms: CD_64  and  NE_65 
REMARK       I    between atoms: NE_65  and  CZ_66 
REMARK       I    between atoms: CZ_66  and  NH1_67 
REMARK       I    between atoms: CZ_66  and  NH2_68 
REMARK   27  A    between atoms: N_69  and  CA_70 
REMARK   28  A    between atoms: CA_70  and  C_71 
REMARK   29  A    between atoms: CA_70  and  CB_73 
REMARK       I    between atoms: C_71  and  N_76 
REMARK   30  A    between atoms: CB_73  and  CG1_74 
REMARK   31  A    between atoms: CB_73  and  CG2_75 
REMARK   32  A    between atoms: N_76  and  CA_77 
REMARK   33  A    between atoms: CA_77  and  C_78 
REMARK   34  A    between atoms: CA_77  and  CB_80 
REMARK       I    between atoms: C_78  and  N_85 
REMARK   35  A    between atoms: CB_80  and  CG_81 
REMARK   36  A    between atoms: CG_81  and  CD_82 
REMARK       I    between atoms: CD_82  and  NE2_84 
REMARK   37  A    between atoms: N_85  and  CA_86 
REMARK   38  A    between atoms: CA_86  and  C_87 
REMARK   39  A    between atoms: CA_86  and  CB_89 
REMARK       I    between atoms: C_87  and  N_90 
REMARK   40  A    between atoms: N_90  and  CA_91 
REMARK   41  A    between atoms: CA_91  and  C_92 
REMARK   42  A    between atoms: CA_91  and  CB_94 
REMARK       I    between atoms: C_92  and  N_100 
REMARK   43  A    between atoms: CB_94  and  CG_95 
REMARK   44  A    between atoms: N_100  and  CA_101 
REMARK   45  A    between atoms: CA_101  and  C_102 
REMARK   46  A    between atoms: CA_101  and  CB_104 
REMARK       I    between atoms: C_102  and  N_108 
REMARK   47  A    between atoms: CB_104  and  CG1_105 
REMARK   48  A    between atoms: CB_104  and  CG2_106 
REMARK   49  A    between atoms: CG1_105  and  CD1_107 
REMARK   50  A    between atoms: N_108  and  CA_109 
REMARK   51  A    between atoms: CA_109  and  C_110 
REMARK   52  A    between atoms: CA_109  and  CB_112 
REMARK       I    between atoms: C_110  and  N_119 
REMARK   53  A    between atoms: CB_112  and  CG_113 
REMARK   54  A    between atoms: CG_113  and  CD_114 
REMARK   55  A    between atoms: CD_114  and  NE_115 
REMARK       I    between atoms: NE_115  and  CZ_116 
REMARK       I    between atoms: CZ_116  and  NH1_117 
REMARK   56  A    between atoms: N_119  and  CA_120 
REMARK   57  A    between atoms: CA_120  and  C_121 
REMARK   58  A    between atoms: CA_120  and  CB_123 
REMARK       I    between atoms: C_121  and  N_128 
REMARK   59  A    between atoms: CB_123  and  CG_124 
REMARK   60  A    between atoms: CG_124  and  CD_125 
REMARK   61  A    between atoms: CD_125  and  CE_126 
REMARK   62  A    between atoms: CE_126  and  NZ_127 
REMARK   63  A    between atoms: N_128  and  CA_129 
REMARK   64  A    between atoms: CA_129  and  C_130 
REMARK   65  A    between atoms: CA_129  and  CB_132 
REMARK       I    between atoms: C_130  and  N_137 
REMARK   66  A    between atoms: CB_132  and  CG_133 
REMARK   67  A    between atoms: CG_133  and  CD_134 
REMARK   68  A    between atoms: CD_134  and  CE_135 
REMARK   69  A    between atoms: CE_135  and  NZ_136 
REMARK   70  A    between atoms: N_137  and  CA_138 
REMARK   71  A    between atoms: CA_138  and  C_139 
REMARK   72  A    between atoms: CA_138  and  CB_141 
REMARK       I    between atoms: C_139  and  N_145 
REMARK   73  A    between atoms: CB_141  and  CG_142 
REMARK   74  A    between atoms: CG_142  and  SD_143 
REMARK   75  A    between atoms: SD_143  and  CE_144 
REMARK   76  A    between atoms: N_145  and  CA_146 
REMARK   77  A    between atoms: CA_146  and  C_147 
REMARK   78  A    between atoms: CA_146  and  CB_149 
REMARK   79  A    between atoms: CB_149  and  CG1_150 
REMARK   80  A    between atoms: CB_149  and  CG2_151 
ROOT
ATOM      1  CA  GLN d   1      12.150   8.282  13.576  0.00  0.00     0.090 C 
ATOM      2  H   GLN d   1      11.567   9.083  13.098  0.00  0.00     0.087 H 
ENDROOT
BRANCH   1   3
ATOM      3  N   GLN d   1      11.316   7.645  14.577  0.00  0.00    -0.346 N 
ATOM      4  C   VAL d   1      10.130   7.143  14.249  0.00  0.00     0.241 C 
ATOM      5  O   VAL d   1       9.698   7.159  13.092  0.00  0.00    -0.271 OA
ATOM      6  H   GLN d   1      11.636   7.583  15.522  0.00  0.00     0.163 HD
BRANCH   4   7
ATOM      7  CA  VAL d   1       9.318   6.510  15.380  0.00  0.00     0.092 C 
ATOM      8  H   VAL d   1       8.493   5.939  14.930  0.00  0.00     0.088 H 
BRANCH   7   9
ATOM      9  N   VAL d   1      10.143   5.566  16.147  0.00  0.00    -0.346 N 
ATOM     10  C   ARG d   1      10.733   4.532  15.541  0.00  0.00     0.241 C 
ATOM     11  O   ARG d   1      10.548   4.265  14.345  0.00  0.00    -0.271 OA
ATOM     12  H   VAL d   1      10.264   5.699  17.131  0.00  0.00     0.163 HD
BRANCH  10  13
ATOM     13  CA  ARG d   1      11.664   3.651  16.383  0.00  0.00     0.089 C 
ATOM     14  H   ARG d   1      12.347   3.123  15.701  0.00  0.00     0.087 H 
BRANCH  13  15
ATOM     15  N   ARG d   1      12.469   4.473  17.278  0.00  0.00    -0.346 N 
ATOM     16  C   NLE d   1      13.390   5.280  16.759  0.00  0.00     0.241 C 
ATOM     17  O   NLE d   1      13.612   5.315  15.543  0.00  0.00    -0.271 OA
ATOM     18  H   ARG d   1      12.331   4.431  18.267  0.00  0.00     0.163 HD
BRANCH  16  19
ATOM     19  CA  NLE d   1      14.159   6.192  17.717  0.00  0.00     0.089 C 
ATOM     20  N   NLE d   1      13.307   6.690  18.800  0.00  0.00    -0.346 N 
ATOM     21  C   LEU d   1      12.234   7.421  18.532  0.00  0.00     0.241 C 
ATOM     22  H   NLE d   1      13.537   6.477  19.750  0.00  0.00     0.163 HD
ATOM     23  CA  LEU d   1      11.367   7.813  19.717  0.00  0.00     0.089 C 
ATOM     24  O   LEU d   1      11.927   7.770  17.388  0.00  0.00    -0.271 OA
ATOM     25  N   LEU d   1      11.235   6.692  20.641  0.00  0.00    -0.346 N 
ATOM     26  H   LEU d   1      10.365   8.065  19.339  0.00  0.00     0.087 H 
ATOM     27  C   SER d   1      10.649   5.575  20.237  0.00  0.00     0.243 C 
ATOM     28  H   LEU d   1      11.585   6.766  21.575  0.00  0.00     0.163 HD
ATOM     29  CA  SER d   1      10.629   4.407  21.220  0.00  0.00     0.109 C 
ATOM     30  O   SER d   1      10.145   5.463  19.119  0.00  0.00    -0.271 OA
ATOM     31  N   SER d   1      11.870   4.343  21.977  0.00  0.00    -0.344 N 
ATOM     32  H   SER d   1      10.540   3.477  20.640  0.00  0.00     0.090 H 
ATOM     33  C   PRO d   1      13.007   4.004  21.377  0.00  0.00     0.241 C 
ATOM     34  H   SER d   1      11.868   4.555  22.954  0.00  0.00     0.163 HD
ATOM     35  CA  PRO d   1      14.276   3.960  22.234  0.00  0.00     0.091 C 
ATOM     36  O   PRO d   1      13.071   3.751  20.167  0.00  0.00    -0.271 OA
ATOM     37  N   PRO d   1      14.313   5.030  23.237  0.00  0.00    -0.337 N 
ATOM     38  CB  PRO d   1      14.320   2.685  23.088  0.00  0.00    -0.036 C 
ATOM     39  H   PRO d   1      15.154   4.019  21.575  0.00  0.00     0.087 H 
ATOM     40  C   NLE d   1      14.235   6.291  22.762  0.00  0.00     0.243 C 
ATOM     41  CD  PRO d   1      14.529   4.496  24.596  0.00  0.00    -0.001 C 
ATOM     42  CA  NLE d   1      14.263   7.450  23.771  0.00  0.00     0.089 C 
ATOM     43  O   NLE d   1      14.156   6.538  21.559  0.00  0.00    -0.271 OA
ATOM     44  CB  NLE d   1      15.694   7.756  24.237  0.00  0.00    -0.038 C 
ATOM     45  H   NLE d   1      13.911   8.337  23.223  0.00  0.00     0.087 H 
ATOM     46  CG  NLE d   1      16.648   8.170  23.121  0.00  0.00    -0.060 C 
ATOM     47  H   NLE d   1      16.099   6.854  24.718  0.00  0.00     0.036 H 
ATOM     48  H   NLE d   1      15.649   8.574  24.971  0.00  0.00     0.036 H 
ATOM     49  CD  NLE d   1      17.398   6.983  22.527  0.00  0.00    -0.050 C 
ATOM     50  H   NLE d   1      17.380   8.882  23.529  0.00  0.00     0.033 H 
ATOM     51  H   NLE d   1      16.068   8.656  22.323  0.00  0.00     0.033 H 
ATOM     52  CE  NLE d   1      18.422   7.446  21.510  0.00  0.00    -0.107 C 
ATOM     53  H   NLE d   1      16.679   6.312  22.034  0.00  0.00     0.038 H 
ATOM     54  H   NLE d   1      17.912   6.441  23.334  0.00  0.00     0.038 H 
ATOM     55  CE  NLE d   1      18.446   6.967  20.269  0.00  0.00    -0.107 C 
ATOM     56  H   NLE d   1      19.159   8.192  21.803  0.00  0.00     0.076 H 
ATOM     57  CD  NLE d   1      17.444   5.919  19.779  0.00  0.00    -0.050 C 
ATOM     58  H   NLE d   1      19.204   7.333  19.578  0.00  0.00     0.076 H 
ATOM     59  CG  NLE d   1      16.336   6.563  18.940  0.00  0.00    -0.060 C 
ATOM     60  H   NLE d   1      17.974   5.176  19.165  0.00  0.00     0.038 H 
ATOM     61  H   NLE d   1      16.992   5.420  20.649  0.00  0.00     0.038 H 
ATOM     62  CB  NLE d   1      15.427   5.532  18.273  0.00  0.00    -0.038 C 
ATOM     63  H   NLE d   1      15.724   7.200  19.595  0.00  0.00     0.033 H 
ATOM     64  H   NLE d   1      16.801   7.181  18.158  0.00  0.00     0.033 H 
ATOM     65  H   NLE d   1      15.973   5.052  17.448  0.00  0.00     0.036 H 
ATOM     66  H   NLE d   1      15.141   4.772  19.015  0.00  0.00     0.036 H 
ATOM     67  CG  PRO d   1      15.032   3.103  24.337  0.00  0.00    -0.048 C 
ATOM     68  H   PRO d   1      13.589   4.477  25.167  0.00  0.00     0.064 H 
ATOM     69  H   PRO d   1      15.277   5.091  25.140  0.00  0.00     0.064 H 
ATOM     70  H   PRO d   1      16.121   3.103  24.184  0.00  0.00     0.035 H 
ATOM     71  H   PRO d   1      14.779   2.435  25.173  0.00  0.00     0.035 H 
ATOM     72  H   PRO d   1      14.875   1.888  22.571  0.00  0.00     0.036 H 
ATOM     73  H   PRO d   1      13.303   2.334  23.318  0.00  0.00     0.036 H 
ATOM     74  H   NLE d   1      14.483   7.066  17.132  0.00  0.00     0.087 H 
BRANCH  23  75
ATOM     75  CB  LEU d   1      11.926   9.043  20.426  0.00  0.00    -0.035 C 
ATOM     76  H   LEU d   1      12.851   8.741  20.938  0.00  0.00     0.037 H 
ATOM     77  H   LEU d   1      11.183   9.365  21.171  0.00  0.00     0.037 H 
BRANCH  75  78
ATOM     78  CG  LEU d   1      12.255  10.250  19.548  0.00  0.00    -0.059 C 
ATOM     79  H   LEU d   1      13.006   9.949  18.803  0.00  0.00     0.038 H 
BRANCH  78  80
ATOM     80  CD1 LEU d   1      11.015  10.748  18.809  0.00  0.00    -0.073 C 
ATOM     81  H   LEU d   1      11.282  11.615  18.187  0.00  0.00     0.028 H 
ATOM     82  H   LEU d   1      10.247  11.043  19.539  0.00  0.00     0.028 H 
ATOM     83  H   LEU d   1      10.622   9.944  18.169  0.00  0.00     0.028 H 
ENDBRANCH  78  80
BRANCH  78  84
ATOM     84  CD2 LEU d   1      12.832  11.344  20.404  0.00  0.00    -0.073 C 
ATOM     85  H   LEU d   1      13.723  10.968  20.928  0.00  0.00     0.028 H 
ATOM     86  H   LEU d   1      12.082  11.667  21.141  0.00  0.00     0.028 H 
ATOM     87  H   LEU d   1      13.113  12.197  19.769  0.00  0.00     0.028 H 
ENDBRANCH  78  84
ENDBRANCH  75  78
ENDBRANCH  23  75
BRANCH  29  88
ATOM     88  CB  SER d   1       9.420   4.502  22.142  0.00  0.00     0.044 C 
ATOM     89  H   SER d   1       8.537   4.785  21.549  0.00  0.00     0.077 H 
ATOM     90  H   SER d   1       9.610   5.270  22.906  0.00  0.00     0.077 H 
BRANCH  88  91
ATOM     91  OG  SER d   1       9.170   3.264  22.783  0.00  0.00    -0.398 OA
ATOM     92  H   SER d   1       9.002   2.598  22.127  0.00  0.00     0.209 HD
ENDBRANCH  88  91
ENDBRANCH  29  88
BRANCH  42  93
ATOM     93  N   NLE d   1      13.364   7.296  24.912  0.00  0.00    -0.346 N 
ATOM     94  C   ASN d   1      11.967   7.161  24.715  0.00  0.00     0.241 C 
ATOM     95  O   ASN d   1      11.347   7.038  23.659  0.00  0.00    -0.271 OA
ATOM     96  H   NLE d   1      13.737   7.286  25.840  0.00  0.00     0.163 HD
BRANCH  94  97
ATOM     97  CA  ASN d   1      11.230   7.294  26.043  0.00  0.00     0.097 C 
ATOM     98  H   ASN d   1      11.751   6.669  26.783  0.00  0.00     0.088 H 
BRANCH  97  99
ATOM     99  N   ASN d   1      11.230   8.665  26.539  0.00  0.00    -0.346 N 
ATOM    100  C   LYS d   1      11.941   9.023  27.603  0.00  0.00     0.241 C 
ATOM    101  O   LYS d   1      12.640   8.234  28.238  0.00  0.00    -0.271 OA
ATOM    102  H   ASN d   1      10.681   9.354  26.066  0.00  0.00     0.163 HD
BRANCH 100 103
ATOM    103  CA  LYS d   1      11.850  10.490  28.012  0.00  0.00     0.089 C 
ATOM    104  H   LYS d   1      12.627  10.687  28.766  0.00  0.00     0.087 H 
BRANCH 103 105
ATOM    105  N   LYS d   1      12.085  11.370  26.875  0.00  0.00    -0.348 N 
ATOM    106  C   ACE d   1      13.310  11.754  26.530  0.00  0.00     0.214 C 
ATOM    107  O   ACE d   1      14.311  11.402  27.133  0.00  0.00    -0.274 OA
ATOM    108  H   LYS d   1      11.305  11.694  26.340  0.00  0.00     0.163 HD
BRANCH 106 109
ATOM    109  CH3 ACE d   1      13.419  12.665  25.331  0.00  0.00    -0.003 C 
ATOM    110  H   ACE d   1      12.414  12.865  24.930  0.00  0.00     0.040 H 
ATOM    111  H   ACE d   1      14.033  12.181  24.557  0.00  0.00     0.040 H 
ATOM    112  H   ACE d   1      13.889  13.613  25.632  0.00  0.00     0.040 H 
ENDBRANCH 106 109
ENDBRANCH 103 105
BRANCH 103 113
ATOM    113  CB  LYS d   1      10.483  10.777  28.639  0.00  0.00    -0.038 C 
ATOM    114  H   LYS d   1       9.772  10.999  27.830  0.00  0.00     0.036 H 
ATOM    115  H   LYS d   1      10.581  11.656  29.293  0.00  0.00     0.036 H 
BRANCH 113 116
ATOM    116  CG  LYS d   1       9.925   9.628  29.463  0.00  0.00    -0.061 C 
ATOM    117  H   LYS d   1      10.430   8.697  29.168  0.00  0.00     0.033 H 
ATOM    118  H   LYS d   1       8.846   9.538  29.268  0.00  0.00     0.033 H 
BRANCH 116 119
ATOM    119  CD  LYS d   1      10.142   9.859  30.949  0.00  0.00    -0.043 C 
ATOM    120  H   LYS d   1       9.874  10.898  31.193  0.00  0.00     0.035 H 
ATOM    121  H   LYS d   1      11.202   9.688  31.187  0.00  0.00     0.035 H 
BRANCH 119 122
ATOM    122  CE  LYS d   1       9.289   8.918  31.784  0.00  0.00     0.080 C 
ATOM    123  H   LYS d   1       9.628   7.885  31.614  0.00  0.00     0.075 H 
ATOM    124  H   LYS d   1       8.239   9.016  31.470  0.00  0.00     0.075 H 
BRANCH 122 125
ATOM    125  NZ  LYS d   1       9.387   9.223  33.239  0.00  0.00    -0.079 N 
ATOM    126  H   LYS d   1       8.809   8.579  33.757  0.00  0.00     0.274 HD
ATOM    127  H   LYS d   1       9.073  10.166  33.407  0.00  0.00     0.274 HD
ATOM    128  H   LYS d   1      10.345   9.130  33.538  0.00  0.00     0.274 HD
ENDBRANCH 122 125
ENDBRANCH 119 122
ENDBRANCH 116 119
ENDBRANCH 113 116
ENDBRANCH 103 113
ENDBRANCH 100 103
ENDBRANCH  97  99
BRANCH  97 129
ATOM    129  CB  ASN d   1       9.797   6.776  25.903  0.00  0.00     0.036 C 
ATOM    130  H   ASN d   1       9.830   5.690  25.733  0.00  0.00     0.051 H 
ATOM    131  H   ASN d   1       9.327   7.268  25.038  0.00  0.00     0.051 H 
BRANCH 129 132
ATOM    132  CG  ASN d   1       8.955   7.050  27.134  0.00  0.00     0.217 C 
ATOM    133  OD1 ASN d   1       8.137   7.970  27.148  0.00  0.00    -0.274 OA
ATOM    134  ND2 ASN d   1       9.153   6.251  28.176  0.00  0.00    -0.370 N 
ATOM    135  H   ASN d   1       8.626   6.384  29.015  0.00  0.00     0.159 HD
ATOM    136  H   ASN d   1       9.829   5.516  28.121  0.00  0.00     0.159 HD
ENDBRANCH 129 132
ENDBRANCH  97 129
ENDBRANCH  94  97
ENDBRANCH  42  93
ENDBRANCH  16  19
ENDBRANCH  13  15
BRANCH  13 137
ATOM    137  CB  ARG d   1      10.859   2.598  17.153  0.00  0.00    -0.036 C 
ATOM    138  H   ARG d   1      10.270   2.021  16.424  0.00  0.00     0.036 H 
ATOM    139  H   ARG d   1      10.179   3.125  17.839  0.00  0.00     0.036 H 
BRANCH 137 140
ATOM    140  CG  ARG d   1      11.695   1.603  17.983  0.00  0.00    -0.048 C 
ATOM    141  H   ARG d   1      11.018   0.835  18.387  0.00  0.00     0.035 H 
ATOM    142  H   ARG d   1      12.163   2.152  18.813  0.00  0.00     0.035 H 
BRANCH 140 143
ATOM    143  CD  ARG d   1      12.800   0.901  17.187  0.00  0.00     0.009 C 
ATOM    144  H   ARG d   1      13.248   0.112  17.809  0.00  0.00     0.064 H 
ATOM    145  H   ARG d   1      13.572   1.636  16.915  0.00  0.00     0.064 H 
BRANCH 143 146
ATOM    146  NE  ARG d   1      12.258   0.303  15.971  0.00  0.00    -0.227 N 
ATOM    147  CZ  ARG d   1      12.871   0.324  14.793  0.00  0.00     0.665 C 
ATOM    148  NH1 ARG d   1      14.069   0.882  14.672  0.00  0.00    -0.235 N 
ATOM    149  NH2 ARG d   1      12.278  -0.209  13.743  0.00  0.00    -0.235 N 
ATOM    150  H   ARG d   1      14.540   0.896  13.756  0.00  0.00     0.174 HD
ATOM    151  H   ARG d   1      14.527   1.301  15.494  0.00  0.00     0.174 HD
ATOM    152  H   ARG d   1      11.348  -0.641  13.841  0.00  0.00     0.174 HD
ATOM    153  H   ARG d   1      12.745  -0.193  12.825  0.00  0.00     0.174 HD
ATOM    154  H   ARG d   1      11.342  -0.165  16.030  0.00  0.00     0.177 HD
ENDBRANCH 143 146
ENDBRANCH 140 143
ENDBRANCH 137 140
ENDBRANCH  13 137
ENDBRANCH  10  13
ENDBRANCH   7   9
BRANCH   7 155
ATOM    155  CB  VAL d   1       8.697   7.614  16.266  0.00  0.00    -0.033 C 
ATOM    156  H   VAL d   1       9.479   8.014  16.928  0.00  0.00     0.042 H 
BRANCH 155 157
ATOM    157  CG1 VAL d   1       8.158   8.757  15.411  0.00  0.00    -0.071 C 
ATOM    158  H   VAL d   1       7.722   9.528  16.063  0.00  0.00     0.028 H 
ATOM    159  H   VAL d   1       7.384   8.372  14.730  0.00  0.00     0.028 H 
ATOM    160  H   VAL d   1       8.979   9.194  14.824  0.00  0.00     0.028 H 
ENDBRANCH 155 157
BRANCH 155 161
ATOM    161  CG2 VAL d   1       7.585   7.018  17.127  0.00  0.00    -0.071 C 
ATOM    162  H   VAL d   1       7.992   6.197  17.735  0.00  0.00     0.028 H 
ATOM    163  H   VAL d   1       6.786   6.632  16.478  0.00  0.00     0.028 H 
ATOM    164  H   VAL d   1       7.176   7.796  17.788  0.00  0.00     0.028 H 
ENDBRANCH 155 161
ENDBRANCH   7 155
ENDBRANCH   4   7
ENDBRANCH   1   3
BRANCH   1 165
ATOM    165  C   GLN d   1      12.560   7.294  12.496  0.00  0.00     0.241 C 
ATOM    166  O   GLN d   1      12.630   7.662  11.328  0.00  0.00    -0.271 OA
ATOM    167  N   ALA d   1      12.824   6.048  12.883  0.00  0.00    -0.346 N 
ATOM    168  H   ALA d   1      12.764   5.808  13.852  0.00  0.00     0.163 HD
BRANCH 167 169
ATOM    169  CA  ALA d   1      13.200   5.029  11.910  0.00  0.00     0.086 C 
ATOM    170  H   ALA d   1      14.075   5.394  11.353  0.00  0.00     0.086 H 
BRANCH 169 171
ATOM    171  C   ALA d   1      12.073   4.789  10.921  0.00  0.00     0.240 C 
ATOM    172  O   ALA d   1      12.313   4.662   9.725  0.00  0.00    -0.271 OA
ATOM    173  N   HIS d   1      10.844   4.692  11.412  0.00  0.00    -0.346 N 
ATOM    174  H   HIS d   1      10.686   4.771  12.396  0.00  0.00     0.163 HD
BRANCH 173 175
ATOM    175  CA  HIS d   1       9.725   4.469  10.500  0.00  0.00     0.094 C 
ATOM    176  H   HIS d   1      10.029   3.661   9.819  0.00  0.00     0.088 H 
BRANCH 175 177
ATOM    177  C   HIS d   1       9.430   5.679   9.628  0.00  0.00     0.241 C 
ATOM    178  O   HIS d   1       9.008   5.530   8.489  0.00  0.00    -0.271 OA
ATOM    179  N   ILE d   1       9.682   6.877  10.147  0.00  0.00    -0.346 N 
ATOM    180  H   ILE d   1       9.968   6.958  11.102  0.00  0.00     0.163 HD
BRANCH 179 181
ATOM    181  CA  ILE d   1       9.542   8.069   9.325  0.00  0.00     0.092 C 
ATOM    182  H   ILE d   1       8.526   8.071   8.904  0.00  0.00     0.088 H 
BRANCH 181 183
ATOM    183  C   ILE d   1      10.537   8.020   8.167  0.00  0.00     0.241 C 
ATOM    184  O   ILE d   1      10.167   8.264   7.025  0.00  0.00    -0.271 OA
ATOM    185  N   ARG d   1      11.793   7.684   8.452  0.00  0.00    -0.346 N 
ATOM    186  H   ARG d   1      12.052   7.499   9.400  0.00  0.00     0.163 HD
BRANCH 185 187
ATOM    187  CA  ARG d   1      12.795   7.583   7.398  0.00  0.00     0.089 C 
ATOM    188  H   ARG d   1      12.829   8.548   6.872  0.00  0.00     0.087 H 
BRANCH 187 189
ATOM    189  C   ARG d   1      12.416   6.505   6.374  0.00  0.00     0.241 C 
ATOM    190  O   ARG d   1      12.641   6.671   5.174  0.00  0.00    -0.271 OA
ATOM    191  N   LYS d   1      11.832   5.408   6.851  0.00  0.00    -0.346 N 
ATOM    192  H   LYS d   1      11.736   5.298   7.840  0.00  0.00     0.163 HD
BRANCH 191 193
ATOM    193  CA  LYS d   1      11.329   4.363   5.967  0.00  0.00     0.089 C 
ATOM    194  H   LYS d   1      12.159   4.002   5.342  0.00  0.00     0.087 H 
BRANCH 193 195
ATOM    195  C   LYS d   1      10.230   4.904   5.050  0.00  0.00     0.241 C 
ATOM    196  O   LYS d   1      10.256   4.672   3.839  0.00  0.00    -0.271 OA
ATOM    197  N   LYS d   1       9.264   5.613   5.624  0.00  0.00    -0.346 N 
ATOM    198  H   LYS d   1       9.292   5.770   6.611  0.00  0.00     0.163 HD
BRANCH 197 199
ATOM    199  CA  LYS d   1       8.162   6.167   4.842  0.00  0.00     0.089 C 
ATOM    200  H   LYS d   1       7.638   5.336   4.347  0.00  0.00     0.087 H 
BRANCH 199 201
ATOM    201  C   LYS d   1       8.679   7.119   3.767  0.00  0.00     0.241 C 
ATOM    202  O   LYS d   1       8.195   7.122   2.636  0.00  0.00    -0.271 OA
ATOM    203  N   MET d   1       9.668   7.924   4.138  0.00  0.00    -0.346 N 
ATOM    204  H   MET d   1      10.006   7.866   5.077  0.00  0.00     0.163 HD
BRANCH 203 205
ATOM    205  CA  MET d   1      10.285   8.894   3.228  0.00  0.00     0.090 C 
ATOM    206  H   MET d   1       9.516   9.626   2.942  0.00  0.00     0.087 H 
BRANCH 205 207
ATOM    207  C   MET d   1      10.842   8.261   1.965  0.00  0.00     0.241 C 
ATOM    208  O   MET d   1      10.859   8.889   0.907  0.00  0.00    -0.271 OA
ATOM    209  N   VAL d   1      11.319   7.025   2.086  0.00  0.00    -0.344 N 
ATOM    210  H   VAL d   1      11.257   6.570   2.974  0.00  0.00     0.163 HD
BRANCH 209 211
ATOM    211  CA  VAL d   1      11.928   6.310   0.972  0.00  0.00     0.099 C 
ATOM    212  H   VAL d   1      12.468   7.038   0.349  0.00  0.00     0.090 H 
BRANCH 211 213
ATOM    213  C   VAL d   1      10.868   5.629   0.114  0.00  0.00     0.197 C 
ATOM    214  O   VAL d   1       9.978   4.955   0.637  0.00  0.00    -0.646 OA
ATOM    215  O1  VAL d   1      10.902   5.756  -1.139  0.00  0.00    -0.646 OA
ENDBRANCH 211 213
BRANCH 211 216
ATOM    216  CB  VAL d   1      12.932   5.253   1.475  0.00  0.00    -0.032 C 
ATOM    217  H   VAL d   1      12.450   4.672   2.275  0.00  0.00     0.042 H 
BRANCH 216 218
ATOM    218  CG1 VAL d   1      13.314   4.298   0.359  0.00  0.00    -0.071 C 
ATOM    219  H   VAL d   1      14.029   3.555   0.741  0.00  0.00     0.028 H 
ATOM    220  H   VAL d   1      13.776   4.862  -0.464  0.00  0.00     0.028 H 
ATOM    221  H   VAL d   1      12.413   3.785  -0.009  0.00  0.00     0.028 H 
ENDBRANCH 216 218
BRANCH 216 222
ATOM    222  CG2 VAL d   1      14.167   5.929   2.052  0.00  0.00    -0.071 C 
ATOM    223  H   VAL d   1      13.867   6.615   2.858  0.00  0.00     0.028 H 
ATOM    224  H   VAL d   1      14.679   6.495   1.260  0.00  0.00     0.028 H 
ATOM    225  H   VAL d   1      14.848   5.165   2.456  0.00  0.00     0.028 H 
ENDBRANCH 216 222
ENDBRANCH 211 216
ENDBRANCH 209 211
ENDBRANCH 205 207
BRANCH 205 226
ATOM    226  CB  MET d   1      11.436   9.625   3.923  0.00  0.00    -0.030 C 
ATOM    227  H   MET d   1      12.114  10.010   3.147  0.00  0.00     0.037 H 
ATOM    228  H   MET d   1      11.972   8.899   4.551  0.00  0.00     0.037 H 
BRANCH 226 229
ATOM    229  CG  MET d   1      11.020  10.780   4.795  0.00  0.00    -0.021 C 
ATOM    230  H   MET d   1      10.063  10.531   5.278  0.00  0.00     0.049 H 
ATOM    231  H   MET d   1      10.891  11.671   4.163  0.00  0.00     0.049 H 
BRANCH 229 232
ATOM    232  SD  MET d   1      12.242  11.152   6.082  0.00  0.00    -0.173 SA
BRANCH 232 233
ATOM    233  CE  MET d   1      13.782  11.067   5.173  0.00  0.00    -0.035 C 
ATOM    234  H   MET d   1      14.621  11.278   5.853  0.00  0.00     0.041 H 
ATOM    235  H   MET d   1      13.771  11.811   4.362  0.00  0.00     0.041 H 
ATOM    236  H   MET d   1      13.900  10.060   4.745  0.00  0.00     0.041 H 
ENDBRANCH 232 233
ENDBRANCH 229 232
ENDBRANCH 226 229
ENDBRANCH 205 226
ENDBRANCH 203 205
ENDBRANCH 199 201
BRANCH 199 237
ATOM    237  CB  LYS d   1       7.169   6.891   5.753  0.00  0.00    -0.038 C 
ATOM    238  H   LYS d   1       6.504   7.501   5.124  0.00  0.00     0.036 H 
ATOM    239  H   LYS d   1       7.736   7.546   6.430  0.00  0.00     0.036 H 
BRANCH 237 240
ATOM    240  CG  LYS d   1       6.309   5.963   6.596  0.00  0.00    -0.061 C 
ATOM    241  H   LYS d   1       5.703   6.566   7.288  0.00  0.00     0.033 H 
ATOM    242  H   LYS d   1       6.963   5.292   7.172  0.00  0.00     0.033 H 
BRANCH 240 243
ATOM    243  CD  LYS d   1       5.384   5.127   5.726  0.00  0.00    -0.043 C 
ATOM    244  H   LYS d   1       5.217   4.154   6.212  0.00  0.00     0.035 H 
ATOM    245  H   LYS d   1       5.858   4.971   4.746  0.00  0.00     0.035 H 
BRANCH 243 246
ATOM    246  CE  LYS d   1       4.044   5.816   5.524  0.00  0.00     0.080 C 
ATOM    247  H   LYS d   1       4.077   6.389   4.585  0.00  0.00     0.075 H 
ATOM    248  H   LYS d   1       3.866   6.501   6.366  0.00  0.00     0.075 H 
BRANCH 246 249
ATOM    249  NZ  LYS d   1       2.923   4.839   5.453  0.00  0.00    -0.079 N 
ATOM    250  H   LYS d   1       2.055   5.333   5.319  0.00  0.00     0.274 HD
ATOM    251  H   LYS d   1       2.881   4.313   6.312  0.00  0.00     0.274 HD
ATOM    252  H   LYS d   1       3.074   4.210   4.680  0.00  0.00     0.274 HD
ENDBRANCH 246 249
ENDBRANCH 243 246
ENDBRANCH 240 243
ENDBRANCH 237 240
ENDBRANCH 199 237
ENDBRANCH 197 199
ENDBRANCH 193 195
BRANCH 193 253
ATOM    253  CB  LYS d   1      10.795   3.193   6.800  0.00  0.00    -0.038 C 
ATOM    254  H   LYS d   1      10.039   3.586   7.496  0.00  0.00     0.036 H 
ATOM    255  H   LYS d   1      11.634   2.768   7.371  0.00  0.00     0.036 H 
BRANCH 253 256
ATOM    256  CG  LYS d   1      10.160   2.077   5.995  0.00  0.00    -0.061 C 
ATOM    257  H   LYS d   1      10.947   1.407   5.618  0.00  0.00     0.033 H 
ATOM    258  H   LYS d   1       9.609   2.509   5.147  0.00  0.00     0.033 H 
BRANCH 256 259
ATOM    259  CD  LYS d   1       9.200   1.283   6.865  0.00  0.00    -0.043 C 
ATOM    260  H   LYS d   1       9.709   0.991   7.796  0.00  0.00     0.035 H 
ATOM    261  H   LYS d   1       8.879   0.381   6.324  0.00  0.00     0.035 H 
BRANCH 259 262
ATOM    262  CE  LYS d   1       7.971   2.135   7.204  0.00  0.00     0.080 C 
ATOM    263  H   LYS d   1       7.450   2.401   6.272  0.00  0.00     0.075 H 
ATOM    264  H   LYS d   1       8.299   3.052   7.715  0.00  0.00     0.075 H 
BRANCH 262 265
ATOM    265  NZ  LYS d   1       7.039   1.398   8.085  0.00  0.00    -0.079 N 
ATOM    266  H   LYS d   1       6.242   1.979   8.292  0.00  0.00     0.274 HD
ATOM    267  H   LYS d   1       7.509   1.155   8.943  0.00  0.00     0.274 HD
ATOM    268  H   LYS d   1       6.731   0.558   7.621  0.00  0.00     0.274 HD
ENDBRANCH 262 265
ENDBRANCH 259 262
ENDBRANCH 256 259
ENDBRANCH 253 256
ENDBRANCH 193 253
ENDBRANCH 191 193
ENDBRANCH 187 189
BRANCH 187 269
ATOM    269  CB  ARG d   1      14.181   7.323   7.989  0.00  0.00    -0.036 C 
ATOM    270  H   ARG d   1      14.860   7.037   7.173  0.00  0.00     0.036 H 
ATOM    271  H   ARG d   1      14.104   6.495   8.709  0.00  0.00     0.036 H 
BRANCH 269 272
ATOM    272  CG  ARG d   1      14.769   8.533   8.706  0.00  0.00    -0.048 C 
ATOM    273  H   ARG d   1      14.162   8.750   9.597  0.00  0.00     0.035 H 
ATOM    274  H   ARG d   1      14.745   9.398   8.026  0.00  0.00     0.035 H 
BRANCH 272 275
ATOM    275  CD  ARG d   1      16.205   8.284   9.136  0.00  0.00     0.009 C 
ATOM    276  H   ARG d   1      16.788   7.939   8.269  0.00  0.00     0.064 H 
ATOM    277  H   ARG d   1      16.220   7.511   9.918  0.00  0.00     0.064 H 
BRANCH 275 278
ATOM    278  NE  ARG d   1      16.803   9.509   9.660  0.00  0.00    -0.227 N 
ATOM    279  CZ  ARG d   1      16.815   9.837  10.947  0.00  0.00     0.665 C 
ATOM    280  NH1 ARG d   1      16.286   9.020  11.853  0.00  0.00    -0.235 N 
ATOM    281  NH2 ARG d   1      17.366  10.981  11.329  0.00  0.00    -0.235 N 
ATOM    282  H   ARG d   1      16.298   9.279  12.850  0.00  0.00     0.174 HD
ATOM    283  H   ARG d   1      15.864   8.128  11.558  0.00  0.00     0.174 HD
ATOM    284  H   ARG d   1      17.776  11.614  10.628  0.00  0.00     0.174 HD
ATOM    285  H   ARG d   1      17.384  11.236  12.327  0.00  0.00     0.174 HD
ATOM    286  H   ARG d   1      17.242  10.158   8.991  0.00  0.00     0.177 HD
ENDBRANCH 275 278
ENDBRANCH 272 275
ENDBRANCH 269 272
ENDBRANCH 187 269
ENDBRANCH 185 187
ENDBRANCH 181 183
BRANCH 181 287
ATOM    287  CB  ILE d   1       9.713   9.365  10.138  0.00  0.00    -0.030 C 
ATOM    288  H   ILE d   1      10.651   9.305  10.709  0.00  0.00     0.043 H 
BRANCH 287 289
ATOM    289  CG1 ILE d   1       8.550   9.508  11.120  0.00  0.00    -0.063 C 
ATOM    290  H   ILE d   1       8.481   8.586  11.715  0.00  0.00     0.033 H 
ATOM    291  H   ILE d   1       7.622   9.643  10.544  0.00  0.00     0.033 H 
BRANCH 289 292
ATOM    292  CD1 ILE d   1       8.702  10.686  12.072  0.00  0.00    -0.076 C 
ATOM    293  H   ILE d   1       7.834  10.727  12.746  0.00  0.00     0.027 H 
ATOM    294  H   ILE d   1       8.762  11.620  11.493  0.00  0.00     0.027 H 
ATOM    295  H   ILE d   1       9.620  10.562  12.665  0.00  0.00     0.027 H 
ENDBRANCH 289 292
ENDBRANCH 287 289
BRANCH 287 296
ATOM    296  CG2 ILE d   1       9.790  10.582   9.196  0.00  0.00    -0.071 C 
ATOM    297  H   ILE d   1      10.633  10.455   8.501  0.00  0.00     0.028 H 
ATOM    298  H   ILE d   1       9.939  11.496   9.789  0.00  0.00     0.028 H 
ATOM    299  H   ILE d   1       8.853  10.664   8.625  0.00  0.00     0.028 H 
ENDBRANCH 287 296
ENDBRANCH 181 287
ENDBRANCH 179 181
ENDBRANCH 175 177
BRANCH 175 300
ATOM    300  CB  HIS d   1       8.492   3.972  11.246  0.00  0.00     0.004 C 
ATOM    301  H   HIS d   1       7.613   4.095  10.596  0.00  0.00     0.046 H 
ATOM    302  H   HIS d   1       8.363   4.577  12.155  0.00  0.00     0.046 H 
BRANCH 300 303
ATOM    303  CG  HIS d   1       8.599   2.531  11.640  0.00  0.00     0.053 A 
ATOM    304  ND1 HIS d   1       8.337   1.505  10.758  0.00  0.00    -0.247 NA
ATOM    305  CE1 HIS d   1       8.532   0.350  11.363  0.00  0.00     0.064 A 
ATOM    306  NE2 HIS d   1       8.934   0.588  12.600  0.00  0.00    -0.359 N 
ATOM    307  H   HIS d   1       8.387  -0.634  10.919  0.00  0.00     0.143 H 
ATOM    308  CD2 HIS d   1       8.989   1.948  12.793  0.00  0.00     0.002 A 
ATOM    309  H   HIS d   1       9.168  -0.128  13.303  0.00  0.00     0.166 HD
ATOM    310  H   HIS d   1       9.291   2.459  13.706  0.00  0.00     0.114 H 
ENDBRANCH 300 303
ENDBRANCH 175 300
ENDBRANCH 173 175
ENDBRANCH 169 171
BRANCH 169 311
ATOM    311  CB  ALA d   1      13.587   3.725  12.604  0.00  0.00    -0.049 C 
ATOM    312  H   ALA d   1      13.865   2.976  11.848  0.00  0.00     0.030 H 
ATOM    313  H   ALA d   1      12.733   3.354  13.190  0.00  0.00     0.030 H 
ATOM    314  H   ALA d   1      14.441   3.905  13.273  0.00  0.00     0.030 H 
ENDBRANCH 169 311
ENDBRANCH 167 169
ENDBRANCH   1 165
BRANCH   1 315
ATOM    315  CB  GLN d   1      13.366   8.914  14.253  0.00  0.00    -0.030 C 
ATOM    316  H   GLN d   1      14.070   9.248  13.476  0.00  0.00     0.037 H 
ATOM    317  H   GLN d   1      13.851   8.158  14.887  0.00  0.00     0.037 H 
BRANCH 315 318
ATOM    318  CG  GLN d   1      12.988  10.107  15.116  0.00  0.00     0.011 C 
ATOM    319  H   GLN d   1      12.011   9.909  15.581  0.00  0.00     0.047 H 
ATOM    320  H   GLN d   1      12.915  10.996  14.473  0.00  0.00     0.047 H 
BRANCH 318 321
ATOM    321  CD  GLN d   1      13.997  10.385  16.212  0.00  0.00     0.215 C 
ATOM    322  OE1 GLN d   1      14.612   9.461  16.756  0.00  0.00    -0.274 OA
ATOM    323  NE2 GLN d   1      14.161  11.655  16.554  0.00  0.00    -0.370 N 
ATOM    324  H   GLN d   1      14.813  11.899  17.271  0.00  0.00     0.159 HD
ATOM    325  H   GLN d   1      13.632  12.369  16.095  0.00  0.00     0.159 HD
ENDBRANCH 318 321
ENDBRANCH 315 318
ENDBRANCH   1 315
TORSDOF 80
