REMARK WARNING: 32 MAX_TORS EXCEEDED!!!
REMARK  77 active torsions:
REMARK  status: ('A' for Active; 'I' for Inactive)
REMARK    1  A    between atoms: C_1  and  CH3_3 
REMARK       I    between atoms: C_1  and  N_4 
REMARK    2  A    between atoms: N_4  and  CA_5 
REMARK    3  A    between atoms: CA_5  and  C_6 
REMARK    4  A    between atoms: CA_5  and  CB_8 
REMARK       I    between atoms: C_6  and  N_13 
REMARK    5  A    between atoms: CB_8  and  CG_9 
REMARK    6  A    between atoms: CG_9  and  CD_10 
REMARK    7  A    between atoms: CD_10  and  CE_11 
REMARK    8  A    between atoms: CE_11  and  NZ_12 
REMARK    9  A    between atoms: N_13  and  CA_14 
REMARK   10  A    between atoms: CA_14  and  C_15 
REMARK   11  A    between atoms: CA_14  and  CB_17 
REMARK       I    between atoms: C_15  and  N_21 
REMARK   12  A    between atoms: CB_17  and  CG_18 
REMARK       I    between atoms: CG_18  and  ND2_20 
REMARK   13  A    between atoms: N_21  and  CA_22 
REMARK   14  A    between atoms: CA_22  and  C_23 
REMARK   15  A    between atoms: CA_22  and  CB_25 
REMARK       I    between atoms: C_23  and  N_29 
REMARK   16  A    between atoms: CB_25  and  CG1_26 
REMARK   17  A    between atoms: CB_25  and  CG2_27 
REMARK   18  A    between atoms: CG1_26  and  CD1_28 
REMARK   19  A    between atoms: CA_30  and  C_31 
REMARK       I    between atoms: C_31  and  N_36 
REMARK   20  A    between atoms: N_36  and  CA_37 
REMARK   21  A    between atoms: CA_37  and  C_38 
REMARK   22  A    between atoms: CA_37  and  CB_40 
REMARK       I    between atoms: C_38  and  N_42 
REMARK   23  A    between atoms: CB_40  and  OG_41 
REMARK   24  A    between atoms: N_42  and  CA_43 
REMARK   25  A    between atoms: CA_43  and  C_44 
REMARK   26  A    between atoms: CA_43  and  CB_46 
REMARK       I    between atoms: C_44  and  N_50 
REMARK   27  A    between atoms: CB_46  and  CG_47 
REMARK   28  A    between atoms: CG_47  and  CD1_48 
REMARK   29  A    between atoms: CG_47  and  CD2_49 
REMARK   30  A    between atoms: N_50  and  CA_51 
REMARK   31  A    between atoms: CA_51  and  C_52 
REMARK   32  A    between atoms: CA_51  and  CB_54 
REMARK       I    between atoms: C_52  and  N_58 
REMARK   33  A    between atoms: CB_54  and  CG_55 
REMARK   34  A    between atoms: CG_55  and  CD1_56 
REMARK   35  A    between atoms: CG_55  and  CD2_57 
REMARK   36  A    between atoms: N_58  and  CA_59 
REMARK   37  A    between atoms: CA_59  and  C_60 
REMARK   38  A    between atoms: CA_59  and  CB_62 
REMARK       I    between atoms: C_60  and  N_69 
REMARK   39  A    between atoms: CB_62  and  CG_63 
REMARK   40  A    between atoms: CG_63  and  CD_64 
REMARK   41  A    between atoms: CD_64  and  NE_65 
REMARK       I    between atoms: NE_65  and  CZ_66 
REMARK       I    between atoms: CZ_66  and  NH1_67 
REMARK       I    between atoms: CZ_66  and  NH2_68 
REMARK   42  A    between atoms: N_69  and  CA_70 
REMARK   43  A    between atoms: CA_78  and  CB_81 
REMARK   44  A    between atoms: CB_81  and  CG_82 
REMARK   45  A    between atoms: CG_82  and  CD_83 
REMARK       I    between atoms: CD_83  and  NE2_85 
REMARK   46  A    between atoms: CA_87  and  CB_90 
REMARK   47  A    between atoms: CA_92  and  CB_95 
REMARK   48  A    between atoms: CB_95  and  CG_96 
REMARK   49  A    between atoms: CA_102  and  C_103 
REMARK       I    between atoms: C_103  and  N_109 
REMARK   50  A    between atoms: N_109  and  CA_110 
REMARK   51  A    between atoms: CA_110  and  C_111 
REMARK   52  A    between atoms: CA_110  and  CB_113 
REMARK       I    between atoms: C_111  and  N_120 
REMARK   53  A    between atoms: CB_113  and  CG_114 
REMARK   54  A    between atoms: CG_114  and  CD_115 
REMARK   55  A    between atoms: CD_115  and  NE_116 
REMARK       I    between atoms: NE_116  and  CZ_117 
REMARK       I    between atoms: CZ_117  and  NH1_118 
REMARK   56  A    between atoms: N_120  and  CA_121 
REMARK   57  A    between atoms: CA_121  and  C_122 
REMARK   58  A    between atoms: CA_121  and  CB_124 
REMARK       I    between atoms: C_122  and  N_129 
REMARK   59  A    between atoms: CB_124  and  CG_125 
REMARK   60  A    between atoms: CG_125  and  CD_126 
REMARK   61  A    between atoms: CD_126  and  CE_127 
REMARK   62  A    between atoms: CE_127  and  NZ_128 
REMARK   63  A    between atoms: N_129  and  CA_130 
REMARK   64  A    between atoms: CA_130  and  C_131 
REMARK   65  A    between atoms: CA_130  and  CB_133 
REMARK       I    between atoms: C_131  and  N_135 
REMARK   66  A    between atoms: CB_133  and  CG_134 
REMARK   67  A    between atoms: N_135  and  CA_136 
REMARK   68  A    between atoms: CA_136  and  C_137 
REMARK   69  A    between atoms: CA_136  and  CB_139 
REMARK       I    between atoms: C_137  and  N_143 
REMARK   70  A    between atoms: CB_139  and  CG_140 
REMARK   71  A    between atoms: CG_140  and  SD_141 
REMARK   72  A    between atoms: SD_141  and  CE_142 
REMARK   73  A    between atoms: N_143  and  CA_144 
REMARK   74  A    between atoms: CA_144  and  C_145 
REMARK   75  A    between atoms: CA_144  and  CB_147 
REMARK   76  A    between atoms: CB_147  and  CG1_148 
REMARK   77  A    between atoms: CB_147  and  CG2_149 
ROOT
ATOM      1  CA  NLE d   1       9.395   6.023  15.356  0.00  0.00     0.089 C 
ATOM      2  C   NLE d   1      10.230   6.690  14.253  0.00  0.00     0.241 C 
ATOM      3  O   NLE d   1       9.808   6.744  13.087  0.00  0.00    -0.271 OA
ATOM      4  CB  NLE d   1       8.722   7.079  16.254  0.00  0.00    -0.038 C 
ATOM      5  CG  NLE d   1       7.651   7.945  15.541  0.00  0.00    -0.060 C 
ATOM      6  CD  NLE d   1       8.257   9.156  14.836  0.00  0.00    -0.050 C 
ATOM      7  CE  NLE d   1       7.205  10.018  14.130  0.00  0.00    -0.107 C 
ATOM      8  N   NLE d   1       9.739   6.596  10.126  0.00  0.00    -0.346 N 
ATOM      9  CA  NLE d   1       9.619   7.805   9.318  0.00  0.00     0.089 C 
ATOM     10  CB  NLE d   1       9.761   9.044  10.196  0.00  0.00    -0.038 C 
ATOM     11  CG  NLE d   1       8.505   9.299  11.031  0.00  0.00    -0.060 C 
ATOM     12  CD  NLE d   1       8.729  10.304  12.156  0.00  0.00    -0.050 C 
ATOM     13  CE  NLE d   1       7.425  10.545  12.922  0.00  0.00    -0.107 C 
ATOM     14  H   NLE d   1       8.598   5.440  14.870  0.00  0.00     0.087 H 
ATOM     15  H   NLE d   1       9.504   7.750  16.640  0.00  0.00     0.036 H 
ATOM     16  H   NLE d   1       8.239   6.558  17.093  0.00  0.00     0.036 H 
ATOM     17  H   NLE d   1       6.926   8.298  16.290  0.00  0.00     0.033 H 
ATOM     18  H   NLE d   1       7.134   7.324  14.795  0.00  0.00     0.033 H 
ATOM     19  H   NLE d   1       8.981   8.802  14.088  0.00  0.00     0.038 H 
ATOM     20  H   NLE d   1       8.775   9.775  15.583  0.00  0.00     0.038 H 
ATOM     21  H   NLE d   1       6.254  10.206  14.626  0.00  0.00     0.076 H 
ATOM     22  H   NLE d   1      10.056   6.662  11.072  0.00  0.00     0.163 HD
ATOM     23  H   NLE d   1       8.611   7.819   8.877  0.00  0.00     0.087 H 
ATOM     24  H   NLE d   1       9.943   9.917   9.552  0.00  0.00     0.036 H 
ATOM     25  H   NLE d   1      10.616   8.903  10.874  0.00  0.00     0.036 H 
ATOM     26  H   NLE d   1       8.179   8.346  11.473  0.00  0.00     0.033 H 
ATOM     27  H   NLE d   1       7.716   9.685  10.368  0.00  0.00     0.033 H 
ATOM     28  H   NLE d   1       9.079  11.255  11.728  0.00  0.00     0.038 H 
ATOM     29  H   NLE d   1       9.489   9.911  12.848  0.00  0.00     0.038 H 
ATOM     30  H   NLE d   1       6.653  11.165  12.468  0.00  0.00     0.076 H 
ATOM     31  N   GLN d   1      11.397   7.217  14.611  0.00  0.00    -0.346 N 
ATOM     32  CA  GLN d   1      12.235   7.893  13.625  0.00  0.00     0.090 C 
ATOM     33  C   GLN d   1      12.630   6.920  12.519  0.00  0.00     0.241 C 
ATOM     34  O   GLN d   1      12.714   7.300  11.352  0.00  0.00    -0.271 OA
ATOM     35  H   GLN d   1      11.702   7.150  15.561  0.00  0.00     0.163 HD
ATOM     36  H   GLN d   1      11.648   8.706  13.174  0.00  0.00     0.087 H 
ATOM     37  N   ALA d   1      12.856   5.665  12.892  0.00  0.00    -0.346 N 
ATOM     38  CA  ALA d   1      13.196   4.636  11.915  0.00  0.00     0.086 C 
ATOM     39  C   ALA d   1      12.043   4.415  10.929  0.00  0.00     0.240 C 
ATOM     40  O   ALA d   1      12.261   4.282   9.728  0.00  0.00    -0.271 OA
ATOM     41  H   ALA d   1      12.792   5.421  13.860  0.00  0.00     0.163 HD
ATOM     42  H   ALA d   1      14.072   4.979  11.346  0.00  0.00     0.086 H 
ATOM     43  N   HIS d   1      10.813   4.371  11.421  0.00  0.00    -0.346 N 
ATOM     44  CA  HIS d   1       9.685   4.190  10.501  0.00  0.00     0.094 C 
ATOM     45  C   HIS d   1       9.432   5.409   9.617  0.00  0.00     0.241 C 
ATOM     46  O   HIS d   1       8.977   5.275   8.484  0.00  0.00    -0.271 OA
ATOM     47  H   HIS d   1      10.656   4.460  12.405  0.00  0.00     0.163 HD
ATOM     48  H   HIS d   1       9.956   3.364   9.827  0.00  0.00     0.088 H 
ENDROOT
BRANCH   1  49
ATOM     49  N   NLE d   1      10.211   5.098  16.135  0.00  0.00    -0.346 N 
ATOM     50  C   ARG d   1      10.773   4.058  15.531  0.00  0.00     0.241 C 
ATOM     51  O   ARG d   1      10.589   3.820  14.342  0.00  0.00    -0.271 OA
ATOM     52  H   NLE d   1      10.346   5.246  17.115  0.00  0.00     0.163 HD
BRANCH  50  53
ATOM     53  CA  ARG d   1      11.667   3.158  16.377  0.00  0.00     0.089 C 
ATOM     54  H   ARG d   1      12.324   2.592  15.700  0.00  0.00     0.087 H 
BRANCH  53  55
ATOM     55  N   ARG d   1      12.512   3.972  17.249  0.00  0.00    -0.346 N 
ATOM     56  C   LEU d   1      13.439   4.778  16.733  0.00  0.00     0.241 C 
ATOM     57  O   LEU d   1      13.645   4.864  15.526  0.00  0.00    -0.271 OA
ATOM     58  H   ARG d   1      12.393   3.924  18.241  0.00  0.00     0.163 HD
BRANCH  56  59
ATOM     59  CA  LEU d   1      14.267   5.610  17.709  0.00  0.00     0.089 C 
ATOM     60  H   LEU d   1      14.661   6.487  17.174  0.00  0.00     0.087 H 
BRANCH  59  61
ATOM     61  N   LEU d   1      13.429   6.084  18.802  0.00  0.00    -0.346 N 
ATOM     62  C   LEU d   1      12.407   6.897  18.546  0.00  0.00     0.241 C 
ATOM     63  O   LEU d   1      12.158   7.302  17.411  0.00  0.00    -0.271 OA
ATOM     64  H   LEU d   1      13.621   5.800  19.741  0.00  0.00     0.163 HD
BRANCH  62  65
ATOM     65  CA  LEU d   1      11.553   7.349  19.733  0.00  0.00     0.089 C 
ATOM     66  H   LEU d   1      10.574   7.662  19.340  0.00  0.00     0.087 H 
BRANCH  65  67
ATOM     67  N   LEU d   1      11.320   6.254  20.671  0.00  0.00    -0.346 N 
ATOM     68  C   SER d   1      10.666   5.175  20.261  0.00  0.00     0.243 C 
ATOM     69  O   SER d   1      10.146   5.099  19.137  0.00  0.00    -0.271 OA
ATOM     70  H   LEU d   1      11.650   6.317  21.613  0.00  0.00     0.163 HD
BRANCH  68  71
ATOM     71  CA  SER d   1      10.560   4.026  21.254  0.00  0.00     0.109 C 
ATOM     72  H   SER d   1      10.425   3.092  20.689  0.00  0.00     0.090 H 
BRANCH  71  73
ATOM     73  N   SER d   1      11.781   3.907  22.047  0.00  0.00    -0.344 N 
ATOM     74  C   PRO d   1      12.928   3.524  21.487  0.00  0.00     0.241 C 
ATOM     75  O   PRO d   1      13.046   3.269  20.289  0.00  0.00    -0.271 OA
ATOM     76  H   SER d   1      11.756   4.116  23.025  0.00  0.00     0.163 HD
BRANCH  74  77
ATOM     77  CA  PRO d   1      14.165   3.411  22.384  0.00  0.00     0.091 C 
ATOM     78  N   PRO d   1      14.319   4.541  23.315  0.00  0.00    -0.337 N 
ATOM     79  C   ILE d   1      14.341   5.779  22.777  0.00  0.00     0.243 C 
ATOM     80  CD  PRO d   1      14.550   4.075  24.695  0.00  0.00    -0.001 C 
ATOM     81  O   ILE d   1      14.252   5.968  21.558  0.00  0.00    -0.271 OA
ATOM     82  CG  PRO d   1      14.824   2.607  24.520  0.00  0.00    -0.048 C 
ATOM     83  H   PRO d   1      13.660   4.238  25.321  0.00  0.00     0.064 H 
ATOM     84  H   PRO d   1      15.414   4.587  25.145  0.00  0.00     0.064 H 
ATOM     85  CB  PRO d   1      14.030   2.209  23.320  0.00  0.00    -0.036 C 
ATOM     86  H   PRO d   1      15.896   2.431  24.350  0.00  0.00     0.035 H 
ATOM     87  H   PRO d   1      14.495   2.044  25.406  0.00  0.00     0.035 H 
ATOM     88  H   PRO d   1      14.446   1.302  22.857  0.00  0.00     0.036 H 
ATOM     89  H   PRO d   1      12.977   2.035  23.586  0.00  0.00     0.036 H 
ATOM     90  H   PRO d   1      15.058   3.316  21.749  0.00  0.00     0.087 H 
BRANCH  79  91
ATOM     91  CA  ILE d   1      14.474   6.991  23.722  0.00  0.00     0.092 C 
ATOM     92  H   ILE d   1      14.119   7.857  23.144  0.00  0.00     0.088 H 
BRANCH  91  93
ATOM     93  N   ILE d   1      13.624   6.944  24.917  0.00  0.00    -0.346 N 
ATOM     94  C   ASN d   1      12.305   6.831  24.816  0.00  0.00     0.241 C 
ATOM     95  O   ASN d   1      11.733   6.679  23.734  0.00  0.00    -0.271 OA
ATOM     96  H   ILE d   1      14.045   6.998  25.822  0.00  0.00     0.163 HD
BRANCH  94  97
ATOM     97  CA  ASN d   1      11.507   6.917  26.118  0.00  0.00     0.097 C 
ATOM     98  H   ASN d   1      11.494   5.913  26.567  0.00  0.00     0.088 H 
BRANCH  97  99
ATOM     99  N   ASN d   1      12.107   7.830  27.099  0.00  0.00    -0.346 N 
ATOM    100  C   LYS d   1      12.374   9.097  26.801  0.00  0.00     0.241 C 
ATOM    101  O   LYS d   1      12.141   9.590  25.697  0.00  0.00    -0.271 OA
ATOM    102  H   ASN d   1      12.320   7.489  28.015  0.00  0.00     0.163 HD
BRANCH 100 103
ATOM    103  CA  LYS d   1      12.996   9.934  27.914  0.00  0.00     0.089 C 
ATOM    104  H   LYS d   1      13.739   9.315  28.437  0.00  0.00     0.087 H 
BRANCH 103 105
ATOM    105  N   LYS d   1      13.677  11.106  27.374  0.00  0.00    -0.348 N 
ATOM    106  C   ACE d   1      14.922  11.413  27.723  0.00  0.00     0.214 C 
ATOM    107  O   ACE d   1      15.575  10.746  28.508  0.00  0.00    -0.274 OA
ATOM    108  H   LYS d   1      13.194  11.694  26.724  0.00  0.00     0.163 HD
BRANCH 106 109
ATOM    109  CH3 ACE d   1      15.387  12.789  27.313  0.00  0.00    -0.003 C 
ATOM    110  H   ACE d   1      14.666  13.224  26.605  0.00  0.00     0.040 H 
ATOM    111  H   ACE d   1      16.374  12.715  26.833  0.00  0.00     0.040 H 
ATOM    112  H   ACE d   1      15.460  13.432  28.203  0.00  0.00     0.040 H 
ENDBRANCH 106 109
ENDBRANCH 103 105
BRANCH 103 113
ATOM    113  CB  LYS d   1      11.923  10.354  28.919  0.00  0.00    -0.038 C 
ATOM    114  H   LYS d   1      11.004  10.592  28.364  0.00  0.00     0.036 H 
ATOM    115  H   LYS d   1      12.276  11.253  29.446  0.00  0.00     0.036 H 
BRANCH 113 116
ATOM    116  CG  LYS d   1      11.593   9.292  29.955  0.00  0.00    -0.061 C 
ATOM    117  H   LYS d   1      12.530   8.902  30.379  0.00  0.00     0.033 H 
ATOM    118  H   LYS d   1      11.043   8.474  29.467  0.00  0.00     0.033 H 
BRANCH 116 119
ATOM    119  CD  LYS d   1      10.740   9.861  31.078  0.00  0.00    -0.043 C 
ATOM    120  H   LYS d   1      10.050  10.609  30.660  0.00  0.00     0.035 H 
ATOM    121  H   LYS d   1      11.396  10.341  31.818  0.00  0.00     0.035 H 
BRANCH 119 122
ATOM    122  CE  LYS d   1       9.933   8.772  31.765  0.00  0.00     0.080 C 
ATOM    123  H   LYS d   1      10.626   8.052  32.224  0.00  0.00     0.075 H 
ATOM    124  H   LYS d   1       9.316   8.258  31.013  0.00  0.00     0.075 H 
BRANCH 122 125
ATOM    125  NZ  LYS d   1       9.042   9.325  32.823  0.00  0.00    -0.079 N 
ATOM    126  H   LYS d   1       8.525   8.574  33.254  0.00  0.00     0.274 HD
ATOM    127  H   LYS d   1       8.399   9.982  32.411  0.00  0.00     0.274 HD
ATOM    128  H   LYS d   1       9.599   9.793  33.521  0.00  0.00     0.274 HD
ENDBRANCH 122 125
ENDBRANCH 119 122
ENDBRANCH 116 119
ENDBRANCH 113 116
ENDBRANCH 103 113
ENDBRANCH 100 103
ENDBRANCH  97  99
BRANCH  97 129
ATOM    129  CB  ASN d   1      10.058   7.321  25.815  0.00  0.00     0.036 C 
ATOM    130  H   ASN d   1       9.618   6.572  25.141  0.00  0.00     0.051 H 
ATOM    131  H   ASN d   1      10.063   8.303  25.319  0.00  0.00     0.051 H 
BRANCH 129 132
ATOM    132  CG  ASN d   1       9.201   7.413  27.064  0.00  0.00     0.217 C 
ATOM    133  OD1 ASN d   1       9.385   6.659  28.018  0.00  0.00    -0.274 OA
ATOM    134  ND2 ASN d   1       8.263   8.352  27.066  0.00  0.00    -0.370 N 
ATOM    135  H   ASN d   1       7.667   8.461  27.861  0.00  0.00     0.159 HD
ATOM    136  H   ASN d   1       8.153   8.950  26.272  0.00  0.00     0.159 HD
ENDBRANCH 129 132
ENDBRANCH  97 129
ENDBRANCH  94  97
ENDBRANCH  91  93
BRANCH  91 137
ATOM    137  CB  ILE d   1      15.957   7.283  24.070  0.00  0.00    -0.030 C 
ATOM    138  H   ILE d   1      16.326   6.471  24.714  0.00  0.00     0.043 H 
BRANCH 137 139
ATOM    139  CG1 ILE d   1      16.075   8.602  24.846  0.00  0.00    -0.063 C 
ATOM    140  H   ILE d   1      17.120   8.721  25.168  0.00  0.00     0.033 H 
ATOM    141  H   ILE d   1      15.424   8.541  25.730  0.00  0.00     0.033 H 
BRANCH 139 142
ATOM    142  CD1 ILE d   1      15.677   9.841  24.041  0.00  0.00    -0.076 C 
ATOM    143  H   ILE d   1      15.790  10.738  24.668  0.00  0.00     0.027 H 
ATOM    144  H   ILE d   1      14.629   9.748  23.720  0.00  0.00     0.027 H 
ATOM    145  H   ILE d   1      16.326   9.928  23.157  0.00  0.00     0.027 H 
ENDBRANCH 139 142
ENDBRANCH 137 139
BRANCH 137 146
ATOM    146  CG2 ILE d   1      16.814   7.314  22.808  0.00  0.00    -0.071 C 
ATOM    147  H   ILE d   1      16.712   6.359  22.272  0.00  0.00     0.028 H 
ATOM    148  H   ILE d   1      17.868   7.468  23.084  0.00  0.00     0.028 H 
ATOM    149  H   ILE d   1      16.481   8.137  22.159  0.00  0.00     0.028 H 
ENDBRANCH 137 146
ENDBRANCH  91 137
ENDBRANCH  79  91
ENDBRANCH  74  77
ENDBRANCH  71  73
BRANCH  71 150
ATOM    150  CB  SER d   1       9.342   4.222  22.161  0.00  0.00     0.044 C 
ATOM    151  H   SER d   1       8.445   4.367  21.541  0.00  0.00     0.077 H 
ATOM    152  H   SER d   1       9.497   5.108  22.794  0.00  0.00     0.077 H 
BRANCH 150 153
ATOM    153  OG  SER d   1       9.165   3.080  22.986  0.00  0.00    -0.398 OA
ATOM    154  H   SER d   1       8.408   3.209  23.545  0.00  0.00     0.209 HD
ENDBRANCH 150 153
ENDBRANCH  71 150
ENDBRANCH  68  71
ENDBRANCH  65  67
BRANCH  65 155
ATOM    155  CB  LEU d   1      12.186   8.562  20.426  0.00  0.00    -0.035 C 
ATOM    156  H   LEU d   1      13.096   8.216  20.939  0.00  0.00     0.037 H 
ATOM    157  H   LEU d   1      11.466   8.935  21.169  0.00  0.00     0.037 H 
BRANCH 155 158
ATOM    158  CG  LEU d   1      12.581   9.747  19.523  0.00  0.00    -0.059 C 
ATOM    159  H   LEU d   1      13.299   9.371  18.780  0.00  0.00     0.038 H 
BRANCH 158 160
ATOM    160  CD1 LEU d   1      11.377  10.343  18.753  0.00  0.00    -0.073 C 
ATOM    161  H   LEU d   1      11.720  11.181  18.128  0.00  0.00     0.028 H 
ATOM    162  H   LEU d   1      10.625  10.704  19.470  0.00  0.00     0.028 H 
ATOM    163  H   LEU d   1      10.931   9.568  18.113  0.00  0.00     0.028 H 
ENDBRANCH 158 160
BRANCH 158 164
ATOM    164  CD2 LEU d   1      13.278  10.854  20.344  0.00  0.00    -0.073 C 
ATOM    165  H   LEU d   1      14.132  10.424  20.888  0.00  0.00     0.028 H 
ATOM    166  H   LEU d   1      12.564  11.283  21.062  0.00  0.00     0.028 H 
ATOM    167  H   LEU d   1      13.635  11.643  19.666  0.00  0.00     0.028 H 
ENDBRANCH 158 164
ENDBRANCH 155 158
ENDBRANCH  65 155
ENDBRANCH  62  65
ENDBRANCH  59  61
BRANCH  59 168
ATOM    168  CB  LEU d   1      15.454   4.787  18.220  0.00  0.00    -0.035 C 
ATOM    169  H   LEU d   1      15.964   4.375  17.337  0.00  0.00     0.037 H 
ATOM    170  H   LEU d   1      15.040   3.964  18.822  0.00  0.00     0.037 H 
BRANCH 168 171
ATOM    171  CG  LEU d   1      16.521   5.471  19.073  0.00  0.00    -0.059 C 
ATOM    172  H   LEU d   1      16.076   5.736  20.044  0.00  0.00     0.038 H 
BRANCH 171 173
ATOM    173  CD1 LEU d   1      17.687   4.521  19.310  0.00  0.00    -0.073 C 
ATOM    174  H   LEU d   1      18.449   5.022  19.925  0.00  0.00     0.028 H 
ATOM    175  H   LEU d   1      18.127   4.232  18.344  0.00  0.00     0.028 H 
ATOM    176  H   LEU d   1      17.328   3.622  19.833  0.00  0.00     0.028 H 
ENDBRANCH 171 173
BRANCH 171 177
ATOM    177  CD2 LEU d   1      17.016   6.728  18.412  0.00  0.00    -0.073 C 
ATOM    178  H   LEU d   1      16.170   7.411  18.243  0.00  0.00     0.028 H 
ATOM    179  H   LEU d   1      17.482   6.476  17.448  0.00  0.00     0.028 H 
ATOM    180  H   LEU d   1      17.757   7.216  19.061  0.00  0.00     0.028 H 
ENDBRANCH 171 177
ENDBRANCH 168 171
ENDBRANCH  59 168
ENDBRANCH  56  59
ENDBRANCH  53  55
BRANCH  53 181
ATOM    181  CB  ARG d   1      10.826   2.147  17.170  0.00  0.00    -0.036 C 
ATOM    182  H   ARG d   1      10.191   1.600  16.457  0.00  0.00     0.036 H 
ATOM    183  H   ARG d   1      10.191   2.709  17.871  0.00  0.00     0.036 H 
BRANCH 181 184
ATOM    184  CG  ARG d   1      11.635   1.109  17.985  0.00  0.00    -0.048 C 
ATOM    185  H   ARG d   1      10.944   0.333  18.346  0.00  0.00     0.035 H 
ATOM    186  H   ARG d   1      12.094   1.621  18.844  0.00  0.00     0.035 H 
BRANCH 184 187
ATOM    187  CD  ARG d   1      12.744   0.432  17.174  0.00  0.00     0.009 C 
ATOM    188  H   ARG d   1      13.159  -0.401  17.760  0.00  0.00     0.064 H 
ATOM    189  H   ARG d   1      13.537   1.166  16.968  0.00  0.00     0.064 H 
BRANCH 187 190
ATOM    190  NE  ARG d   1      12.236  -0.083  15.912  0.00  0.00    -0.227 N 
ATOM    191  CZ  ARG d   1      12.889  -0.015  14.759  0.00  0.00     0.665 C 
ATOM    192  NH1 ARG d   1      14.107   0.515  14.716  0.00  0.00    -0.235 N 
ATOM    193  NH2 ARG d   1      12.323  -0.482  13.653  0.00  0.00    -0.235 N 
ATOM    194  H   ARG d   1      14.614   0.568  13.821  0.00  0.00     0.174 HD
ATOM    195  H   ARG d   1      14.544   0.873  15.578  0.00  0.00     0.174 HD
ATOM    196  H   ARG d   1      11.379  -0.892  13.691  0.00  0.00     0.174 HD
ATOM    197  H   ARG d   1      12.828  -0.434  12.757  0.00  0.00     0.174 HD
ATOM    198  H   ARG d   1      11.308  -0.530  15.914  0.00  0.00     0.177 HD
ENDBRANCH 187 190
ENDBRANCH 184 187
ENDBRANCH 181 184
ENDBRANCH  53 181
ENDBRANCH  50  53
ENDBRANCH   1  49
BRANCH  32 199
ATOM    199  CB  GLN d   1      13.472   8.512  14.288  0.00  0.00    -0.030 C 
ATOM    200  H   GLN d   1      14.166   8.842  13.501  0.00  0.00     0.037 H 
ATOM    201  H   GLN d   1      13.960   7.746  14.909  0.00  0.00     0.037 H 
BRANCH 199 202
ATOM    202  CG  GLN d   1      13.127   9.715  15.174  0.00  0.00     0.011 C 
ATOM    203  H   GLN d   1      12.195   9.495  15.715  0.00  0.00     0.047 H 
ATOM    204  H   GLN d   1      12.978  10.594  14.529  0.00  0.00     0.047 H 
BRANCH 202 205
ATOM    205  CD  GLN d   1      14.212  10.039  16.190  0.00  0.00     0.215 C 
ATOM    206  OE1 GLN d   1      14.911   9.151  16.670  0.00  0.00    -0.274 OA
ATOM    207  NE2 GLN d   1      14.336  11.316  16.539  0.00  0.00    -0.370 N 
ATOM    208  H   GLN d   1      15.033  11.587  17.203  0.00  0.00     0.159 HD
ATOM    209  H   GLN d   1      13.733  12.005  16.137  0.00  0.00     0.159 HD
ENDBRANCH 202 205
ENDBRANCH 199 202
ENDBRANCH  32 199
BRANCH  38 210
ATOM    210  CB  ALA d   1      13.565   3.330  12.619  0.00  0.00    -0.049 C 
ATOM    211  H   ALA d   1      13.818   2.567  11.868  0.00  0.00     0.030 H 
ATOM    212  H   ALA d   1      12.711   2.984  13.220  0.00  0.00     0.030 H 
ATOM    213  H   ALA d   1      14.431   3.499  13.275  0.00  0.00     0.030 H 
ENDBRANCH  38 210
BRANCH  44 214
ATOM    214  CB  HIS d   1       8.424   3.760  11.248  0.00  0.00     0.004 C 
ATOM    215  H   HIS d   1       7.557   3.905  10.587  0.00  0.00     0.046 H 
ATOM    216  H   HIS d   1       8.312   4.391  12.142  0.00  0.00     0.046 H 
BRANCH 214 217
ATOM    217  CG  HIS d   1       8.465   2.325  11.677  0.00  0.00     0.053 A 
ATOM    218  ND1 HIS d   1       8.114   1.294  10.833  0.00  0.00    -0.247 NA
ATOM    219  CE1 HIS d   1       8.269   0.143  11.467  0.00  0.00     0.064 A 
ATOM    220  NE2 HIS d   1       8.711   0.394  12.684  0.00  0.00    -0.359 N 
ATOM    221  H   HIS d   1       8.066  -0.844  11.054  0.00  0.00     0.143 H 
ATOM    222  CD2 HIS d   1       8.855   1.754  12.837  0.00  0.00     0.002 A 
ATOM    223  H   HIS d   1       8.915  -0.314  13.404  0.00  0.00     0.166 HD
ATOM    224  H   HIS d   1       9.215   2.272  13.725  0.00  0.00     0.114 H 
ENDBRANCH 214 217
ENDBRANCH  44 214
BRANCH   9 225
ATOM    225  C   NLE d   1      10.628   7.801   8.168  0.00  0.00     0.241 C 
ATOM    226  O   NLE d   1      10.296   8.182   7.043  0.00  0.00    -0.271 OA
ATOM    227  N   ARG d   1      11.840   7.328   8.441  0.00  0.00    -0.346 N 
ATOM    228  H   ARG d   1      12.059   7.037   9.373  0.00  0.00     0.163 HD
BRANCH 227 229
ATOM    229  CA  ARG d   1      12.858   7.228   7.395  0.00  0.00     0.089 C 
ATOM    230  H   ARG d   1      12.898   8.192   6.866  0.00  0.00     0.087 H 
BRANCH 229 231
ATOM    231  C   ARG d   1      12.482   6.150   6.379  0.00  0.00     0.241 C 
ATOM    232  O   ARG d   1      12.695   6.310   5.168  0.00  0.00    -0.271 OA
ATOM    233  N   LYS d   1      11.918   5.052   6.878  0.00  0.00    -0.346 N 
ATOM    234  H   LYS d   1      11.851   4.944   7.870  0.00  0.00     0.163 HD
BRANCH 233 235
ATOM    235  CA  LYS d   1      11.394   4.000   6.006  0.00  0.00     0.089 C 
ATOM    236  H   LYS d   1      12.222   3.594   5.406  0.00  0.00     0.087 H 
BRANCH 235 237
ATOM    237  C   LYS d   1      10.328   4.556   5.066  0.00  0.00     0.241 C 
ATOM    238  O   LYS d   1      10.388   4.359   3.845  0.00  0.00    -0.271 OA
ATOM    239  N   LYS d   1       9.349   5.255   5.632  0.00  0.00    -0.346 N 
ATOM    240  H   LYS d   1       9.381   5.451   6.612  0.00  0.00     0.163 HD
BRANCH 239 241
ATOM    241  CA  LYS d   1       8.223   5.740   4.829  0.00  0.00     0.089 C 
ATOM    242  H   LYS d   1       7.806   4.873   4.295  0.00  0.00     0.087 H 
BRANCH 241 243
ATOM    243  C   LYS d   1       8.646   6.760   3.784  0.00  0.00     0.241 C 
ATOM    244  O   LYS d   1       8.045   6.833   2.712  0.00  0.00    -0.271 OA
ATOM    245  N   MET d   1       9.677   7.541   4.094  0.00  0.00    -0.346 N 
ATOM    246  H   MET d   1      10.143   7.410   4.969  0.00  0.00     0.163 HD
BRANCH 245 247
ATOM    247  CA  MET d   1      10.147   8.589   3.183  0.00  0.00     0.090 C 
ATOM    248  H   MET d   1       9.258   9.049   2.727  0.00  0.00     0.087 H 
BRANCH 247 249
ATOM    249  C   MET d   1      11.005   8.021   2.054  0.00  0.00     0.241 C 
ATOM    250  O   MET d   1      11.298   8.715   1.078  0.00  0.00    -0.271 OA
ATOM    251  N   VAL d   1      11.419   6.817   2.115  0.00  0.00    -0.344 N 
ATOM    252  H   VAL d   1      11.060   6.225   2.837  0.00  0.00     0.163 HD
BRANCH 251 253
ATOM    253  CA  VAL d   1      12.393   6.263   1.179  0.00  0.00     0.099 C 
ATOM    254  H   VAL d   1      13.176   7.024   1.046  0.00  0.00     0.090 H 
BRANCH 253 255
ATOM    255  C   VAL d   1      11.809   5.969  -0.210  0.00  0.00     0.197 C 
ATOM    256  O   VAL d   1      10.599   5.799  -0.371  0.00  0.00    -0.646 OA
ATOM    257  O1  VAL d   1      12.581   5.900  -1.204  0.00  0.00    -0.646 OA
ENDBRANCH 253 255
BRANCH 253 258
ATOM    258  CB  VAL d   1      13.065   5.004   1.746  0.00  0.00    -0.032 C 
ATOM    259  H   VAL d   1      13.525   5.255   2.713  0.00  0.00     0.042 H 
BRANCH 258 260
ATOM    260  CG1 VAL d   1      12.035   3.896   1.965  0.00  0.00    -0.071 C 
ATOM    261  H   VAL d   1      12.536   3.005   2.371  0.00  0.00     0.028 H 
ATOM    262  H   VAL d   1      11.558   3.644   1.006  0.00  0.00     0.028 H 
ATOM    263  H   VAL d   1      11.270   4.242   2.675  0.00  0.00     0.028 H 
ENDBRANCH 258 260
BRANCH 258 264
ATOM    264  CG2 VAL d   1      14.134   4.527   0.809  0.00  0.00    -0.071 C 
ATOM    265  H   VAL d   1      14.872   5.329   0.656  0.00  0.00     0.028 H 
ATOM    266  H   VAL d   1      13.681   4.256  -0.156  0.00  0.00     0.028 H 
ATOM    267  H   VAL d   1      14.633   3.647   1.240  0.00  0.00     0.028 H 
ENDBRANCH 258 264
ENDBRANCH 253 258
ENDBRANCH 251 253
ENDBRANCH 247 249
BRANCH 247 268
ATOM    268  CB  MET d   1      10.916   9.697   3.931  0.00  0.00    -0.030 C 
ATOM    269  H   MET d   1      10.338   9.970   4.826  0.00  0.00     0.037 H 
ATOM    270  H   MET d   1      10.993  10.569   3.265  0.00  0.00     0.037 H 
BRANCH 268 271
ATOM    271  CG  MET d   1      12.339   9.311   4.380  0.00  0.00    -0.021 C 
ATOM    272  H   MET d   1      12.900   9.021   3.479  0.00  0.00     0.049 H 
ATOM    273  H   MET d   1      12.248   8.444   5.050  0.00  0.00     0.049 H 
BRANCH 271 274
ATOM    274  SD  MET d   1      13.326  10.576   5.255  0.00  0.00    -0.173 SA
BRANCH 274 275
ATOM    275  CE  MET d   1      14.115  11.386   3.854  0.00  0.00    -0.035 C 
ATOM    276  H   MET d   1      14.764  12.197   4.217  0.00  0.00     0.041 H 
ATOM    277  H   MET d   1      13.344  11.803   3.189  0.00  0.00     0.041 H 
ATOM    278  H   MET d   1      14.720  10.653   3.300  0.00  0.00     0.041 H 
ENDBRANCH 274 275
ENDBRANCH 271 274
ENDBRANCH 268 271
ENDBRANCH 247 268
ENDBRANCH 245 247
ENDBRANCH 241 243
BRANCH 241 279
ATOM    279  CB  LYS d   1       7.112   6.323   5.713  0.00  0.00    -0.041 C 
ATOM    280  H   LYS d   1       6.411   6.875   5.070  0.00  0.00     0.036 H 
ATOM    281  H   LYS d   1       7.571   7.015   6.435  0.00  0.00     0.036 H 
BRANCH 279 282
ATOM    282  CG  LYS d   1       6.325   5.272   6.489  0.00  0.00    -0.074 C 
ATOM    283  H   LYS d   1       5.552   5.767   7.095  0.00  0.00     0.027 H 
ATOM    284  H   LYS d   1       7.008   4.716   7.148  0.00  0.00     0.027 H 
ATOM    285  H   LYS d   1       5.848   4.576   5.783  0.00  0.00     0.027 H 
ENDBRANCH 279 282
ENDBRANCH 241 279
ENDBRANCH 239 241
ENDBRANCH 235 237
BRANCH 235 286
ATOM    286  CB  LYS d   1      10.784   2.871   6.847  0.00  0.00    -0.038 C 
ATOM    287  H   LYS d   1       9.994   3.303   7.478  0.00  0.00     0.036 H 
ATOM    288  H   LYS d   1      11.576   2.454   7.486  0.00  0.00     0.036 H 
BRANCH 286 289
ATOM    289  CG  LYS d   1      10.172   1.723   6.037  0.00  0.00    -0.061 C 
ATOM    290  H   LYS d   1      10.962   1.003   5.777  0.00  0.00     0.033 H 
ATOM    291  H   LYS d   1       9.727   2.128   5.116  0.00  0.00     0.033 H 
BRANCH 289 292
ATOM    292  CD  LYS d   1       9.085   1.007   6.849  0.00  0.00    -0.043 C 
ATOM    293  H   LYS d   1       9.507   0.670   7.807  0.00  0.00     0.035 H 
ATOM    294  H   LYS d   1       8.719   0.138   6.283  0.00  0.00     0.035 H 
BRANCH 292 295
ATOM    295  CE  LYS d   1       7.918   1.973   7.115  0.00  0.00     0.080 C 
ATOM    296  H   LYS d   1       7.379   2.119   6.167  0.00  0.00     0.075 H 
ATOM    297  H   LYS d   1       8.344   2.932   7.446  0.00  0.00     0.075 H 
BRANCH 295 298
ATOM    298  NZ  LYS d   1       6.920   1.533   8.147  0.00  0.00    -0.079 N 
ATOM    299  H   LYS d   1       6.203   2.235   8.242  0.00  0.00     0.274 HD
ATOM    300  H   LYS d   1       7.385   1.407   9.032  0.00  0.00     0.274 HD
ATOM    301  H   LYS d   1       6.502   0.662   7.860  0.00  0.00     0.274 HD
ENDBRANCH 295 298
ENDBRANCH 292 295
ENDBRANCH 289 292
ENDBRANCH 286 289
ENDBRANCH 235 286
ENDBRANCH 233 235
ENDBRANCH 229 231
BRANCH 229 302
ATOM    302  CB  ARG d   1      14.240   6.968   8.000  0.00  0.00    -0.036 C 
ATOM    303  H   ARG d   1      14.923   6.650   7.198  0.00  0.00     0.036 H 
ATOM    304  H   ARG d   1      14.154   6.166   8.748  0.00  0.00     0.036 H 
BRANCH 302 305
ATOM    305  CG  ARG d   1      14.820   8.209   8.676  0.00  0.00    -0.048 C 
ATOM    306  H   ARG d   1      14.316   8.348   9.644  0.00  0.00     0.035 H 
ATOM    307  H   ARG d   1      14.626   9.080   8.033  0.00  0.00     0.035 H 
BRANCH 305 308
ATOM    308  CD  ARG d   1      16.314   8.115   8.921  0.00  0.00     0.009 C 
ATOM    309  H   ARG d   1      16.820   7.871   7.976  0.00  0.00     0.064 H 
ATOM    310  H   ARG d   1      16.510   7.322   9.657  0.00  0.00     0.064 H 
BRANCH 308 311
ATOM    311  NE  ARG d   1      16.836   9.388   9.433  0.00  0.00    -0.227 N 
ATOM    312  CZ  ARG d   1      16.879   9.713  10.726  0.00  0.00     0.665 C 
ATOM    313  NH1 ARG d   1      16.442   8.857  11.651  0.00  0.00    -0.235 N 
ATOM    314  NH2 ARG d   1      17.362  10.892  11.093  0.00  0.00    -0.235 N 
ATOM    315  H   ARG d   1      16.478   9.114  12.648  0.00  0.00     0.174 HD
ATOM    316  H   ARG d   1      16.069   7.939  11.368  0.00  0.00     0.174 HD
ATOM    317  H   ARG d   1      17.700  11.555  10.380  0.00  0.00     0.174 HD
ATOM    318  H   ARG d   1      17.399  11.145  12.091  0.00  0.00     0.174 HD
ATOM    319  H   ARG d   1      17.191  10.073   8.751  0.00  0.00     0.177 HD
ENDBRANCH 308 311
ENDBRANCH 305 308
ENDBRANCH 302 305
ENDBRANCH 229 302
ENDBRANCH 227 229
ENDBRANCH   9 225
TORSDOF 77
