REMARK WARNING: 32 MAX_TORS EXCEEDED!!!
REMARK  82 active torsions:
REMARK  status: ('A' for Active; 'I' for Inactive)
REMARK    1  A    between atoms: CA_7  and  CB_10 
REMARK    2  A    between atoms: CB_10  and  CG_11 
REMARK       I    between atoms: CG_11  and  ND2_13 
REMARK    3  A    between atoms: CA_15  and  CB_18 
REMARK    4  A    between atoms: CB_18  and  CG1_19 
REMARK    5  A    between atoms: CB_18  and  CG2_20 
REMARK    6  A    between atoms: CG1_19  and  CD1_21 
REMARK    7  A    between atoms: N_22  and  CA_23 
REMARK    8  A    between atoms: CA_23  and  C_24 
REMARK       I    between atoms: C_24  and  N_28 
REMARK    9  A    between atoms: N_28  and  CA_29 
REMARK   10  A    between atoms: CA_29  and  C_30 
REMARK   11  A    between atoms: CA_29  and  CB_32 
REMARK       I    between atoms: C_30  and  N_34 
REMARK   12  A    between atoms: CB_32  and  OG_33 
REMARK   13  A    between atoms: N_34  and  CA_35 
REMARK   14  A    between atoms: CA_35  and  C_36 
REMARK   15  A    between atoms: CA_35  and  CB_38 
REMARK       I    between atoms: C_36  and  N_42 
REMARK   16  A    between atoms: CB_38  and  CG_39 
REMARK   17  A    between atoms: CG_39  and  CD1_40 
REMARK   18  A    between atoms: CG_39  and  CD2_41 
REMARK   19  A    between atoms: N_42  and  CA_43 
REMARK   20  A    between atoms: CA_43  and  C_44 
REMARK   21  A    between atoms: CA_43  and  CB_46 
REMARK       I    between atoms: C_44  and  N_50 
REMARK   22  A    between atoms: CB_46  and  CG_47 
REMARK   23  A    between atoms: CG_47  and  CD1_48 
REMARK   24  A    between atoms: CG_47  and  CD2_49 
REMARK   25  A    between atoms: N_50  and  CA_51 
REMARK   26  A    between atoms: CA_51  and  C_52 
REMARK   27  A    between atoms: CA_51  and  CB_54 
REMARK       I    between atoms: C_52  and  N_61 
REMARK   28  A    between atoms: CB_54  and  CG_55 
REMARK   29  A    between atoms: CG_55  and  CD_56 
REMARK   30  A    between atoms: CD_56  and  NE_57 
REMARK       I    between atoms: NE_57  and  CZ_58 
REMARK       I    between atoms: CZ_58  and  NH1_59 
REMARK       I    between atoms: CZ_58  and  NH2_60 
REMARK   31  A    between atoms: N_61  and  CA_62 
REMARK   32  A    between atoms: CA_62  and  C_63 
REMARK   33  A    between atoms: CA_62  and  CB_65 
REMARK       I    between atoms: C_63  and  N_68 
REMARK   34  A    between atoms: CB_65  and  CG1_66 
REMARK   35  A    between atoms: CB_65  and  CG2_67 
REMARK   36  A    between atoms: N_68  and  CA_69 
REMARK   37  A    between atoms: CA_69  and  C_70 
REMARK   38  A    between atoms: CA_69  and  CB_72 
REMARK       I    between atoms: C_70  and  N_77 
REMARK   39  A    between atoms: CB_72  and  CG_73 
REMARK   40  A    between atoms: CG_73  and  CD_74 
REMARK       I    between atoms: CD_74  and  NE2_76 
REMARK   41  A    between atoms: N_77  and  CA_78 
REMARK   42  A    between atoms: CA_78  and  C_79 
REMARK   43  A    between atoms: CA_78  and  CB_81 
REMARK       I    between atoms: C_79  and  N_82 
REMARK   44  A    between atoms: N_82  and  CA_83 
REMARK   45  A    between atoms: CA_83  and  C_84 
REMARK   46  A    between atoms: CA_83  and  CB_86 
REMARK       I    between atoms: C_84  and  N_92 
REMARK   47  A    between atoms: CB_86  and  CG_87 
REMARK   48  A    between atoms: N_92  and  CA_93 
REMARK   49  A    between atoms: CA_93  and  C_94 
REMARK   50  A    between atoms: CA_93  and  CB_96 
REMARK       I    between atoms: C_94  and  N_100 
REMARK   51  A    between atoms: CB_96  and  CG1_97 
REMARK   52  A    between atoms: CB_96  and  CG2_98 
REMARK   53  A    between atoms: CG1_97  and  CD1_99 
REMARK   54  A    between atoms: N_100  and  CA_101 
REMARK   55  A    between atoms: CA_101  and  C_102 
REMARK   56  A    between atoms: CA_101  and  CB_104 
REMARK       I    between atoms: C_102  and  N_111 
REMARK   57  A    between atoms: CB_104  and  CG_105 
REMARK   58  A    between atoms: CG_105  and  CD_106 
REMARK   59  A    between atoms: CD_106  and  NE_107 
REMARK       I    between atoms: NE_107  and  CZ_108 
REMARK       I    between atoms: CZ_108  and  NH1_109 
REMARK   60  A    between atoms: N_111  and  CA_112 
REMARK   61  A    between atoms: CA_112  and  C_113 
REMARK   62  A    between atoms: CA_112  and  CB_115 
REMARK       I    between atoms: C_113  and  N_120 
REMARK   63  A    between atoms: CB_115  and  CG_116 
REMARK   64  A    between atoms: CG_116  and  CD_117 
REMARK   65  A    between atoms: CD_117  and  CE_118 
REMARK   66  A    between atoms: CE_118  and  NZ_119 
REMARK   67  A    between atoms: N_120  and  CA_121 
REMARK   68  A    between atoms: CA_121  and  C_122 
REMARK   69  A    between atoms: CA_121  and  CB_124 
REMARK       I    between atoms: C_122  and  N_127 
REMARK   70  A    between atoms: CB_124  and  CG_125 
REMARK   71  A    between atoms: CG_125  and  CD_126 
REMARK   72  A    between atoms: N_127  and  CA_128 
REMARK   73  A    between atoms: CA_128  and  C_129 
REMARK   74  A    between atoms: CA_128  and  CB_131 
REMARK       I    between atoms: C_129  and  N_135 
REMARK   75  A    between atoms: CB_131  and  CG_132 
REMARK   76  A    between atoms: CG_132  and  SD_133 
REMARK   77  A    between atoms: SD_133  and  CE_134 
REMARK   78  A    between atoms: N_135  and  CA_136 
REMARK   79  A    between atoms: CA_136  and  C_137 
REMARK   80  A    between atoms: CA_136  and  CB_139 
REMARK   81  A    between atoms: CB_139  and  CG1_140 
REMARK   82  A    between atoms: CB_139  and  CG2_141 
ROOT
ATOM      1  CA  GLN d   1      21.012   2.458  15.360  0.00  0.00     0.090 C 
ATOM      2  H   GLN d   1      20.466   3.228  15.925  0.00  0.00     0.087 H 
ENDROOT
BRANCH   1   3
ATOM      3  N   GLN d   1      20.890   1.189  16.052  0.00  0.00    -0.346 N 
ATOM      4  C   VAL d   1      19.707   0.743  16.445  0.00  0.00     0.241 C 
ATOM      5  O   VAL d   1      18.655   1.332  16.176  0.00  0.00    -0.271 OA
ATOM      6  H   GLN d   1      21.709   0.645  16.234  0.00  0.00     0.163 HD
BRANCH   4   7
ATOM      7  CA  VAL d   1      19.709  -0.567  17.229  0.00  0.00     0.092 C 
ATOM      8  H   VAL d   1      18.679  -0.952  17.264  0.00  0.00     0.088 H 
BRANCH   7   9
ATOM      9  N   VAL d   1      20.552  -1.577  16.578  0.00  0.00    -0.346 N 
ATOM     10  C   ARG d   1      20.271  -2.033  15.359  0.00  0.00     0.241 C 
ATOM     11  O   ARG d   1      19.254  -1.699  14.743  0.00  0.00    -0.271 OA
ATOM     12  H   VAL d   1      21.354  -1.930  17.060  0.00  0.00     0.163 HD
BRANCH  10  13
ATOM     13  CA  ARG d   1      21.287  -2.983  14.727  0.00  0.00     0.089 C 
ATOM     14  H   ARG d   1      21.194  -2.908  13.633  0.00  0.00     0.087 H 
BRANCH  13  15
ATOM     15  N   ARG d   1      22.633  -2.591  15.101  0.00  0.00    -0.346 N 
ATOM     16  C   LEU d   1      23.155  -1.482  14.590  0.00  0.00     0.241 C 
ATOM     17  O   LEU d   1      22.554  -0.784  13.777  0.00  0.00    -0.271 OA
ATOM     18  H   ARG d   1      23.163  -3.151  15.738  0.00  0.00     0.163 HD
BRANCH  16  19
ATOM     19  CA  LEU d   1      24.558  -1.120  15.025  0.00  0.00     0.089 C 
ATOM     20  H   LEU d   1      24.683  -0.032  14.927  0.00  0.00     0.087 H 
BRANCH  19  21
ATOM     21  N   LEU d   1      24.824  -1.485  16.429  0.00  0.00    -0.346 N 
ATOM     22  C   LEU d   1      24.084  -0.966  17.401  0.00  0.00     0.241 C 
ATOM     23  O   LEU d   1      23.180  -0.126  17.172  0.00  0.00    -0.271 OA
ATOM     24  H   LEU d   1      25.562  -2.123  16.649  0.00  0.00     0.163 HD
BRANCH  22  25
ATOM     25  CA  LEU d   1      24.374  -1.451  18.832  0.00  0.00     0.089 C 
ATOM     26  H   LEU d   1      23.472  -1.248  19.427  0.00  0.00     0.087 H 
BRANCH  25  27
ATOM     27  N   LEU d   1      24.620  -2.906  18.910  0.00  0.00    -0.346 N 
ATOM     28  C   SER d   1      23.704  -3.767  18.470  0.00  0.00     0.243 C 
ATOM     29  O   SER d   1      22.606  -3.414  18.068  0.00  0.00    -0.271 OA
ATOM     30  H   LEU d   1      25.478  -3.246  19.295  0.00  0.00     0.163 HD
BRANCH  28  31
ATOM     31  CA  SER d   1      24.057  -5.243  18.490  0.00  0.00     0.109 C 
ATOM     32  H   SER d   1      23.419  -5.759  17.757  0.00  0.00     0.090 H 
BRANCH  31  33
ATOM     33  N   SER d   1      25.448  -5.433  18.087  0.00  0.00    -0.344 N 
ATOM     34  C   2JC d   1      25.837  -5.124  16.853  0.00  0.00     0.236 C 
ATOM     35  O   2JC d   1      25.046  -4.750  15.972  0.00  0.00    -0.272 OA
ATOM     36  H   SER d   1      26.111  -5.797  18.741  0.00  0.00     0.163 HD
BRANCH  34  37
ATOM     37  CA  2JC d   1      27.321  -5.252  16.566  0.00  0.00     0.071 C 
ATOM     38  H   2JC d   1      27.548  -6.307  16.352  0.00  0.00     0.079 H 
ATOM     39  H   2JC d   1      27.563  -4.639  15.685  0.00  0.00     0.079 H 
BRANCH  37  40
ATOM     40  N   2JC d   1      28.148  -4.815  17.676  0.00  0.00    -0.338 N 
ATOM     41  C   ILE d   1      28.089  -3.564  18.114  0.00  0.00     0.243 C 
ATOM     42  CA  ILE d   1      28.960  -3.197  19.325  0.00  0.00     0.092 C 
ATOM     43  O   ILE d   1      27.349  -2.735  17.606  0.00  0.00    -0.271 OA
ATOM     44  N   ILE d   1      28.921  -4.251  20.352  0.00  0.00    -0.346 N 
ATOM     45  H   ILE d   1      28.517  -2.296  19.774  0.00  0.00     0.088 H 
ATOM     46  C   ASN d   1      27.786  -4.512  20.995  0.00  0.00     0.241 C 
ATOM     47  H   ILE d   1      29.748  -4.771  20.566  0.00  0.00     0.163 HD
ATOM     48  CA  ASN d   1      27.863  -5.466  22.185  0.00  0.00     0.097 C 
ATOM     49  O   ASN d   1      26.711  -4.003  20.674  0.00  0.00    -0.271 OA
ATOM     50  N   ASN d   1      28.730  -6.625  21.971  0.00  0.00    -0.347 N 
ATOM     51  H   ASN d   1      26.848  -5.848  22.369  0.00  0.00     0.088 H 
ATOM     52  C4  BUA d   1      28.316  -7.833  21.412  0.00  0.00     0.218 C 
ATOM     53  H   ASN d   1      29.688  -6.545  22.245  0.00  0.00     0.163 HD
ATOM     54  C3  BUA d   1      29.290  -8.908  21.076  0.00  0.00     0.012 C 
ATOM     55  O2  BUA d   1      27.071  -7.978  21.114  0.00  0.00    -0.274 OA
ATOM     56  C2  BUA d   1      29.445  -8.956  19.628  0.00  0.00    -0.042 C 
ATOM     57  H   BUA d   1      30.260  -8.690  21.546  0.00  0.00     0.047 H 
ATOM     58  H   BUA d   1      28.915  -9.876  21.441  0.00  0.00     0.047 H 
ATOM     59  C1  BUA d   1      29.776  -7.613  19.055  0.00  0.00    -0.105 C 
ATOM     60  H   BUA d   1      30.256  -9.657  19.381  0.00  0.00     0.039 H 
ATOM     61  H   BUA d   1      28.504  -9.311  19.182  0.00  0.00     0.039 H 
ATOM     62  C1  2JC d   1      28.963  -7.025  18.179  0.00  0.00    -0.090 C 
ATOM     63  H   BUA d   1      30.693  -7.110  19.358  0.00  0.00     0.076 H 
ATOM     64  C3  2JC d   1      29.310  -5.693  17.616  0.00  0.00     0.013 C 
ATOM     65  H   2JC d   1      28.042  -7.521  17.875  0.00  0.00     0.078 H 
ATOM     66  H   2JC d   1      30.131  -5.252  18.200  0.00  0.00     0.070 H 
ATOM     67  H   2JC d   1      29.626  -5.810  16.569  0.00  0.00     0.070 H 
BRANCH  42  68
ATOM     68  CB  ILE d   1      30.409  -2.829  18.927  0.00  0.00    -0.030 C 
ATOM     69  H   ILE d   1      30.992  -3.752  18.790  0.00  0.00     0.043 H 
BRANCH  68  70
ATOM     70  CG1 ILE d   1      31.027  -1.973  20.017  0.00  0.00    -0.063 C 
ATOM     71  H   ILE d   1      32.086  -1.807  19.769  0.00  0.00     0.033 H 
ATOM     72  H   ILE d   1      30.955  -2.518  20.969  0.00  0.00     0.033 H 
BRANCH  70  73
ATOM     73  CD1 ILE d   1      30.347  -0.601  20.190  0.00  0.00    -0.076 C 
ATOM     74  H   ILE d   1      30.848  -0.042  20.994  0.00  0.00     0.027 H 
ATOM     75  H   ILE d   1      29.288  -0.747  20.450  0.00  0.00     0.027 H 
ATOM     76  H   ILE d   1      30.419  -0.035  19.250  0.00  0.00     0.027 H 
ENDBRANCH  70  73
ENDBRANCH  68  70
BRANCH  68  77
ATOM     77  CG2 ILE d   1      30.453  -2.005  17.661  0.00  0.00    -0.071 C 
ATOM     78  H   ILE d   1      30.015  -2.581  16.833  0.00  0.00     0.028 H 
ATOM     79  H   ILE d   1      31.497  -1.756  17.422  0.00  0.00     0.028 H 
ATOM     80  H   ILE d   1      29.879  -1.078  17.807  0.00  0.00     0.028 H 
ENDBRANCH  68  77
ENDBRANCH  42  68
BRANCH  48  81
ATOM     81  CB  ASN d   1      28.311  -4.681  23.419  0.00  0.00     0.036 C 
ATOM     82  H   ASN d   1      27.766  -3.726  23.445  0.00  0.00     0.051 H 
ATOM     83  H   ASN d   1      29.390  -4.485  23.338  0.00  0.00     0.051 H 
BRANCH  81  84
ATOM     84  CG  ASN d   1      28.048  -5.427  24.717  0.00  0.00     0.217 C 
ATOM     85  OD1 ASN d   1      27.153  -6.277  24.789  0.00  0.00    -0.274 OA
ATOM     86  ND2 ASN d   1      28.840  -5.127  25.745  0.00  0.00    -0.370 N 
ATOM     87  H   ASN d   1      28.714  -5.586  26.624  0.00  0.00     0.159 HD
ATOM     88  H   ASN d   1      29.561  -4.442  25.638  0.00  0.00     0.159 HD
ENDBRANCH  81  84
ENDBRANCH  48  81
ENDBRANCH  37  40
ENDBRANCH  34  37
ENDBRANCH  31  33
BRANCH  31  89
ATOM     89  CB  SER d   1      23.768  -5.843  19.867  0.00  0.00     0.044 C 
ATOM     90  H   SER d   1      24.240  -6.835  19.930  0.00  0.00     0.077 H 
ATOM     91  H   SER d   1      22.680  -5.946  19.990  0.00  0.00     0.077 H 
BRANCH  89  92
ATOM     92  OG  SER d   1      24.269  -5.033  20.901  0.00  0.00    -0.398 OA
ATOM     93  H   SER d   1      25.210  -4.944  20.804  0.00  0.00     0.209 HD
ENDBRANCH  89  92
ENDBRANCH  31  89
ENDBRANCH  28  31
ENDBRANCH  25  27
BRANCH  25  94
ATOM     94  CB  LEU d   1      25.530  -0.652  19.467  0.00  0.00    -0.035 C 
ATOM     95  H   LEU d   1      26.449  -0.871  18.903  0.00  0.00     0.037 H 
ATOM     96  H   LEU d   1      25.649  -0.989  20.507  0.00  0.00     0.037 H 
BRANCH  94  97
ATOM     97  CG  LEU d   1      25.326   0.872  19.477  0.00  0.00    -0.059 C 
ATOM     98  H   LEU d   1      25.105   1.190  18.447  0.00  0.00     0.038 H 
BRANCH  97  99
ATOM     99  CD1 LEU d   1      24.135   1.262  20.368  0.00  0.00    -0.073 C 
ATOM    100  H   LEU d   1      24.012   2.355  20.357  0.00  0.00     0.028 H 
ATOM    101  H   LEU d   1      24.322   0.924  21.398  0.00  0.00     0.028 H 
ATOM    102  H   LEU d   1      23.220   0.786  19.986  0.00  0.00     0.028 H 
ENDBRANCH  97  99
BRANCH  97 103
ATOM    103  CD2 LEU d   1      26.592   1.616  19.946  0.00  0.00    -0.073 C 
ATOM    104  H   LEU d   1      27.441   1.334  19.306  0.00  0.00     0.028 H 
ATOM    105  H   LEU d   1      26.812   1.343  20.989  0.00  0.00     0.028 H 
ATOM    106  H   LEU d   1      26.426   2.701  19.878  0.00  0.00     0.028 H 
ENDBRANCH  97 103
ENDBRANCH  94  97
ENDBRANCH  25  94
ENDBRANCH  22  25
ENDBRANCH  19  21
BRANCH  19 107
ATOM    107  CB  LEU d   1      25.545  -1.815  14.091  0.00  0.00    -0.035 C 
ATOM    108  H   LEU d   1      25.005  -2.128  13.185  0.00  0.00     0.037 H 
ATOM    109  H   LEU d   1      25.945  -2.702  14.605  0.00  0.00     0.037 H 
BRANCH 107 110
ATOM    110  CG  LEU d   1      26.713  -0.933  13.674  0.00  0.00    -0.059 C 
ATOM    111  H   LEU d   1      26.309   0.002  13.259  0.00  0.00     0.038 H 
BRANCH 110 112
ATOM    112  CD1 LEU d   1      27.581  -0.589  14.857  0.00  0.00    -0.073 C 
ATOM    113  H   LEU d   1      28.415   0.048  14.527  0.00  0.00     0.028 H 
ATOM    114  H   LEU d   1      27.979  -1.513  15.301  0.00  0.00     0.028 H 
ATOM    115  H   LEU d   1      26.983  -0.050  15.606  0.00  0.00     0.028 H 
ENDBRANCH 110 112
BRANCH 110 116
ATOM    116  CD2 LEU d   1      27.538  -1.623  12.594  0.00  0.00    -0.073 C 
ATOM    117  H   LEU d   1      26.891  -1.867  11.739  0.00  0.00     0.028 H 
ATOM    118  H   LEU d   1      27.974  -2.548  13.000  0.00  0.00     0.028 H 
ATOM    119  H   LEU d   1      28.345  -0.952  12.264  0.00  0.00     0.028 H 
ENDBRANCH 110 116
ENDBRANCH 107 110
ENDBRANCH  19 107
ENDBRANCH  16  19
ENDBRANCH  13  15
BRANCH  13 120
ATOM    120  CB  ARG d   1      21.021  -4.443  15.130  0.00  0.00    -0.036 C 
ATOM    121  H   ARG d   1      20.026  -4.729  14.759  0.00  0.00     0.036 H 
ATOM    122  H   ARG d   1      21.036  -4.508  16.228  0.00  0.00     0.036 H 
BRANCH 120 123
ATOM    123  CG  ARG d   1      22.037  -5.427  14.579  0.00  0.00    -0.048 C 
ATOM    124  H   ARG d   1      21.726  -6.450  14.837  0.00  0.00     0.035 H 
ATOM    125  H   ARG d   1      23.021  -5.219  15.025  0.00  0.00     0.035 H 
BRANCH 123 126
ATOM    126  CD  ARG d   1      22.134  -5.303  13.100  0.00  0.00     0.009 C 
ATOM    127  H   ARG d   1      22.671  -6.174  12.696  0.00  0.00     0.064 H 
ATOM    128  H   ARG d   1      22.683  -4.384  12.847  0.00  0.00     0.064 H 
BRANCH 126 129
ATOM    129  NE  ARG d   1      20.799  -5.244  12.512  0.00  0.00    -0.227 N 
ATOM    130  CZ  ARG d   1      20.479  -4.571  11.414  0.00  0.00     0.665 C 
ATOM    131  NH1 ARG d   1      21.425  -3.903  10.756  0.00  0.00    -0.235 N 
ATOM    132  NH2 ARG d   1      19.210  -4.575  10.980  0.00  0.00    -0.235 N 
ATOM    133  H   ARG d   1      21.186  -3.378   9.903  0.00  0.00     0.174 HD
ATOM    134  H   ARG d   1      22.396  -3.912  11.100  0.00  0.00     0.174 HD
ATOM    135  H   ARG d   1      18.490  -5.096  11.500  0.00  0.00     0.174 HD
ATOM    136  H   ARG d   1      18.956  -4.057  10.127  0.00  0.00     0.174 HD
ATOM    137  H   ARG d   1      20.047  -5.765  12.986  0.00  0.00     0.177 HD
ENDBRANCH 126 129
ENDBRANCH 123 126
ENDBRANCH 120 123
ENDBRANCH  13 120
ENDBRANCH  10  13
ENDBRANCH   7   9
BRANCH   7 138
ATOM    138  CB  VAL d   1      20.188  -0.304  18.689  0.00  0.00    -0.033 C 
ATOM    139  H   VAL d   1      21.250  -0.018  18.655  0.00  0.00     0.042 H 
BRANCH 138 140
ATOM    140  CG1 VAL d   1      19.409   0.831  19.330  0.00  0.00    -0.071 C 
ATOM    141  H   VAL d   1      19.771   0.990  20.357  0.00  0.00     0.028 H 
ATOM    142  H   VAL d   1      18.340   0.574  19.354  0.00  0.00     0.028 H 
ATOM    143  H   VAL d   1      19.552   1.751  18.744  0.00  0.00     0.028 H 
ENDBRANCH 138 140
BRANCH 138 144
ATOM    144  CG2 VAL d   1      20.056  -1.574  19.540  0.00  0.00    -0.071 C 
ATOM    145  H   VAL d   1      20.623  -2.391  19.070  0.00  0.00     0.028 H 
ATOM    146  H   VAL d   1      18.996  -1.858  19.613  0.00  0.00     0.028 H 
ATOM    147  H   VAL d   1      20.455  -1.384  20.547  0.00  0.00     0.028 H 
ENDBRANCH 138 144
ENDBRANCH   7 138
ENDBRANCH   4   7
ENDBRANCH   1   3
BRANCH   1 148
ATOM    148  C   GLN d   1      20.378   2.321  13.983  0.00  0.00     0.241 C 
ATOM    149  O   GLN d   1      19.775   3.261  13.476  0.00  0.00    -0.271 OA
ATOM    150  N   ALA d   1      20.464   1.129  13.403  0.00  0.00    -0.346 N 
ATOM    151  H   ALA d   1      20.934   0.380  13.870  0.00  0.00     0.163 HD
BRANCH 150 152
ATOM    152  CA  ALA d   1      19.873   0.908  12.084  0.00  0.00     0.086 C 
ATOM    153  H   ALA d   1      20.233   1.706  11.419  0.00  0.00     0.086 H 
BRANCH 152 154
ATOM    154  C   ALA d   1      18.350   1.003  12.129  0.00  0.00     0.240 C 
ATOM    155  O   ALA d   1      17.703   1.583  11.237  0.00  0.00    -0.271 OA
ATOM    156  N   HIS d   1      17.756   0.433  13.167  0.00  0.00    -0.346 N 
ATOM    157  H   HIS d   1      18.300  -0.020  13.873  0.00  0.00     0.163 HD
BRANCH 156 158
ATOM    158  CA  HIS d   1      16.294   0.473  13.271  0.00  0.00     0.094 C 
ATOM    159  H   HIS d   1      15.883   0.226  12.281  0.00  0.00     0.088 H 
BRANCH 158 160
ATOM    160  C   HIS d   1      15.832   1.860  13.622  0.00  0.00     0.241 C 
ATOM    161  O   HIS d   1      14.758   2.272  13.211  0.00  0.00    -0.271 OA
ATOM    162  N   ILE d   1      16.645   2.598  14.372  0.00  0.00    -0.346 N 
ATOM    163  H   ILE d   1      17.487   2.204  14.739  0.00  0.00     0.163 HD
BRANCH 162 164
ATOM    164  CA  ILE d   1      16.299   3.990  14.656  0.00  0.00     0.092 C 
ATOM    165  H   ILE d   1      15.269   4.008  15.041  0.00  0.00     0.088 H 
BRANCH 164 166
ATOM    166  C   ILE d   1      16.328   4.808  13.359  0.00  0.00     0.241 C 
ATOM    167  O   ILE d   1      15.463   5.648  13.133  0.00  0.00    -0.271 OA
ATOM    168  N   ARG d   1      17.310   4.571  12.495  0.00  0.00    -0.346 N 
ATOM    169  H   ARG d   1      17.998   3.872  12.693  0.00  0.00     0.163 HD
BRANCH 168 170
ATOM    170  CA  ARG d   1      17.376   5.337  11.259  0.00  0.00     0.089 C 
ATOM    171  H   ARG d   1      17.268   6.400  11.521  0.00  0.00     0.087 H 
BRANCH 170 172
ATOM    172  C   ARG d   1      16.242   4.984  10.321  0.00  0.00     0.241 C 
ATOM    173  O   ARG d   1      15.746   5.827   9.570  0.00  0.00    -0.271 OA
ATOM    174  N   LYS d   1      15.848   3.725  10.362  0.00  0.00    -0.346 N 
ATOM    175  H   LYS d   1      16.370   3.071  10.910  0.00  0.00     0.163 HD
BRANCH 174 176
ATOM    176  CA  LYS d   1      14.674   3.257   9.633  0.00  0.00     0.089 C 
ATOM    177  H   LYS d   1      14.832   3.441   8.560  0.00  0.00     0.087 H 
BRANCH 176 178
ATOM    178  C   LYS d   1      13.408   3.985  10.072  0.00  0.00     0.241 C 
ATOM    179  O   LYS d   1      12.618   4.398   9.239  0.00  0.00    -0.271 OA
ATOM    180  N   LYS d   1      13.208   4.131  11.380  0.00  0.00    -0.346 N 
ATOM    181  H   LYS d   1      13.856   3.721  12.022  0.00  0.00     0.163 HD
BRANCH 180 182
ATOM    182  CA  LYS d   1      12.055   4.882  11.904  0.00  0.00     0.089 C 
ATOM    183  H   LYS d   1      11.146   4.424  11.488  0.00  0.00     0.087 H 
BRANCH 182 184
ATOM    184  C   LYS d   1      12.048   6.367  11.511  0.00  0.00     0.241 C 
ATOM    185  O   LYS d   1      10.974   6.955  11.354  0.00  0.00    -0.271 OA
ATOM    186  N   MET d   1      13.229   6.974  11.363  0.00  0.00    -0.346 N 
ATOM    187  H   MET d   1      14.067   6.451  11.518  0.00  0.00     0.163 HD
BRANCH 186 188
ATOM    188  CA  MET d   1      13.330   8.392  10.977  0.00  0.00     0.090 C 
ATOM    189  H   MET d   1      12.798   9.014  11.712  0.00  0.00     0.087 H 
BRANCH 188 190
ATOM    190  C   MET d   1      12.738   8.568   9.607  0.00  0.00     0.241 C 
ATOM    191  O   MET d   1      11.948   9.478   9.350  0.00  0.00    -0.271 OA
ATOM    192  N   VAL d   1      13.155   7.684   8.714  0.00  0.00    -0.344 N 
ATOM    193  H   VAL d   1      13.864   7.029   8.977  0.00  0.00     0.163 HD
BRANCH 192 194
ATOM    194  CA  VAL d   1      12.619   7.632   7.365  0.00  0.00     0.099 C 
ATOM    195  H   VAL d   1      12.628   8.640   6.925  0.00  0.00     0.090 H 
BRANCH 194 196
ATOM    196  C   VAL d   1      11.209   7.089   7.394  0.00  0.00     0.197 C 
ATOM    197  O   VAL d   1      11.011   5.876   7.371  0.00  0.00    -0.646 OA
ATOM    198  O1  VAL d   1      10.232   7.883   7.442  0.00  0.00    -0.646 OA
ENDBRANCH 194 196
BRANCH 194 199
ATOM    199  CB  VAL d   1      13.444   6.684   6.516  0.00  0.00    -0.032 C 
ATOM    200  H   VAL d   1      13.297   5.658   6.885  0.00  0.00     0.042 H 
BRANCH 199 201
ATOM    201  CG1 VAL d   1      13.005   6.744   5.088  0.00  0.00    -0.071 C 
ATOM    202  H   VAL d   1      13.613   6.051   4.488  0.00  0.00     0.028 H 
ATOM    203  H   VAL d   1      13.133   7.768   4.708  0.00  0.00     0.028 H 
ATOM    204  H   VAL d   1      11.945   6.457   5.018  0.00  0.00     0.028 H 
ENDBRANCH 199 201
BRANCH 199 205
ATOM    205  CG2 VAL d   1      14.911   7.039   6.637  0.00  0.00    -0.071 C 
ATOM    206  H   VAL d   1      15.214   6.989   7.693  0.00  0.00     0.028 H 
ATOM    207  H   VAL d   1      15.074   8.058   6.256  0.00  0.00     0.028 H 
ATOM    208  H   VAL d   1      15.510   6.328   6.050  0.00  0.00     0.028 H 
ENDBRANCH 199 205
ENDBRANCH 194 199
ENDBRANCH 192 194
ENDBRANCH 188 190
BRANCH 188 209
ATOM    209  CB  MET d   1      14.791   8.834  10.871  0.00  0.00    -0.030 C 
ATOM    210  H   MET d   1      14.823   9.728  10.232  0.00  0.00     0.037 H 
ATOM    211  H   MET d   1      15.351   8.019  10.389  0.00  0.00     0.037 H 
BRANCH 209 212
ATOM    212  CG  MET d   1      15.495   9.171  12.162  0.00  0.00    -0.021 C 
ATOM    213  H   MET d   1      15.393   8.336  12.871  0.00  0.00     0.049 H 
ATOM    214  H   MET d   1      15.056  10.080  12.600  0.00  0.00     0.049 H 
BRANCH 212 215
ATOM    215  SD  MET d   1      17.252   9.452  11.790  0.00  0.00    -0.173 SA
BRANCH 215 216
ATOM    216  CE  MET d   1      18.017   8.547  13.133  0.00  0.00    -0.035 C 
ATOM    217  H   MET d   1      19.111   8.621  13.049  0.00  0.00     0.041 H 
ATOM    218  H   MET d   1      17.716   7.490  13.081  0.00  0.00     0.041 H 
ATOM    219  H   MET d   1      17.693   8.974  14.094  0.00  0.00     0.041 H 
ENDBRANCH 215 216
ENDBRANCH 212 215
ENDBRANCH 209 212
ENDBRANCH 188 209
ENDBRANCH 186 188
ENDBRANCH 182 184
BRANCH 182 220
ATOM    220  CB  LYS d   1      12.002   4.761  13.435  0.00  0.00    -0.038 C 
ATOM    221  H   LYS d   1      11.225   5.446  13.805  0.00  0.00     0.036 H 
ATOM    222  H   LYS d   1      12.980   5.066  13.835  0.00  0.00     0.036 H 
BRANCH 220 223
ATOM    223  CG  LYS d   1      11.691   3.365  13.960  0.00  0.00    -0.066 C 
ATOM    224  H   LYS d   1      11.935   3.321  15.032  0.00  0.00     0.032 H 
ATOM    225  H   LYS d   1      12.302   2.631  13.414  0.00  0.00     0.032 H 
BRANCH 223 226
ATOM    226  CD  LYS d   1      10.207   3.023  13.769  0.00  0.00    -0.076 C 
ATOM    227  H   LYS d   1      10.011   2.012  14.156  0.00  0.00     0.027 H 
ATOM    228  H   LYS d   1       9.957   3.061  12.698  0.00  0.00     0.027 H 
ATOM    229  H   LYS d   1       9.590   3.751  14.316  0.00  0.00     0.027 H 
ENDBRANCH 223 226
ENDBRANCH 220 223
ENDBRANCH 182 220
ENDBRANCH 180 182
ENDBRANCH 176 178
BRANCH 176 230
ATOM    230  CB  LYS d   1      14.487   1.751   9.862  0.00  0.00    -0.038 C 
ATOM    231  H   LYS d   1      14.528   1.555  10.944  0.00  0.00     0.036 H 
ATOM    232  H   LYS d   1      15.308   1.217   9.361  0.00  0.00     0.036 H 
BRANCH 230 233
ATOM    233  CG  LYS d   1      13.162   1.218   9.323  0.00  0.00    -0.061 C 
ATOM    234  H   LYS d   1      13.246   1.082   8.235  0.00  0.00     0.033 H 
ATOM    235  H   LYS d   1      12.367   1.946   9.541  0.00  0.00     0.033 H 
BRANCH 233 236
ATOM    236  CD  LYS d   1      12.796  -0.144   9.977  0.00  0.00    -0.043 C 
ATOM    237  H   LYS d   1      13.671  -0.810   9.931  0.00  0.00     0.035 H 
ATOM    238  H   LYS d   1      11.962  -0.596   9.420  0.00  0.00     0.035 H 
BRANCH 236 239
ATOM    239  CE  LYS d   1      12.379   0.034  11.446  0.00  0.00     0.080 C 
ATOM    240  H   LYS d   1      11.462   0.640  11.483  0.00  0.00     0.075 H 
ATOM    241  H   LYS d   1      13.185   0.556  11.982  0.00  0.00     0.075 H 
BRANCH 239 242
ATOM    242  NZ  LYS d   1      12.119  -1.276  12.122  0.00  0.00    -0.079 N 
ATOM    243  H   LYS d   1      11.850  -1.112  13.079  0.00  0.00     0.274 HD
ATOM    244  H   LYS d   1      12.956  -1.837  12.100  0.00  0.00     0.274 HD
ATOM    245  H   LYS d   1      11.377  -1.760  11.642  0.00  0.00     0.274 HD
ENDBRANCH 239 242
ENDBRANCH 236 239
ENDBRANCH 233 236
ENDBRANCH 230 233
ENDBRANCH 176 230
ENDBRANCH 174 176
ENDBRANCH 170 172
BRANCH 170 246
ATOM    246  CB  ARG d   1      18.747   5.162  10.578  0.00  0.00    -0.036 C 
ATOM    247  H   ARG d   1      18.680   5.559   9.554  0.00  0.00     0.036 H 
ATOM    248  H   ARG d   1      18.982   4.088  10.540  0.00  0.00     0.036 H 
BRANCH 246 249
ATOM    249  CG  ARG d   1      19.891   5.885  11.307  0.00  0.00    -0.048 C 
ATOM    250  H   ARG d   1      20.178   5.301  12.194  0.00  0.00     0.035 H 
ATOM    251  H   ARG d   1      19.545   6.881  11.620  0.00  0.00     0.035 H 
BRANCH 249 252
ATOM    252  CD  ARG d   1      21.109   6.042  10.398  0.00  0.00     0.009 C 
ATOM    253  H   ARG d   1      20.794   6.485   9.442  0.00  0.00     0.064 H 
ATOM    254  H   ARG d   1      21.556   5.054  10.215  0.00  0.00     0.064 H 
BRANCH 252 255
ATOM    255  NE  ARG d   1      22.099   6.909  11.028  0.00  0.00    -0.227 N 
ATOM    256  CZ  ARG d   1      23.036   6.486  11.870  0.00  0.00     0.665 C 
ATOM    257  NH1 ARG d   1      23.124   5.195  12.153  0.00  0.00    -0.235 N 
ATOM    258  NH2 ARG d   1      23.878   7.354  12.428  0.00  0.00    -0.235 N 
ATOM    259  H   ARG d   1      23.847   4.859  12.805  0.00  0.00     0.174 HD
ATOM    260  H   ARG d   1      22.469   4.527  11.722  0.00  0.00     0.174 HD
ATOM    261  H   ARG d   1      23.806   8.357  12.205  0.00  0.00     0.174 HD
ATOM    262  H   ARG d   1      24.601   7.022  13.082  0.00  0.00     0.174 HD
ATOM    263  H   ARG d   1      22.070   7.914  10.806  0.00  0.00     0.177 HD
ENDBRANCH 252 255
ENDBRANCH 249 252
ENDBRANCH 246 249
ENDBRANCH 170 246
ENDBRANCH 168 170
ENDBRANCH 164 166
BRANCH 164 264
ATOM    264  CB  ILE d   1      17.215   4.606  15.753  0.00  0.00    -0.030 C 
ATOM    265  H   ILE d   1      18.258   4.342  15.523  0.00  0.00     0.043 H 
BRANCH 264 266
ATOM    266  CG1 ILE d   1      16.856   4.047  17.124  0.00  0.00    -0.063 C 
ATOM    267  H   ILE d   1      16.808   2.950  17.054  0.00  0.00     0.033 H 
ATOM    268  H   ILE d   1      15.871   4.439  17.416  0.00  0.00     0.033 H 
BRANCH 266 269
ATOM    269  CD1 ILE d   1      17.857   4.418  18.191  0.00  0.00    -0.076 C 
ATOM    270  H   ILE d   1      17.544   3.987  19.153  0.00  0.00     0.027 H 
ATOM    271  H   ILE d   1      17.910   5.513  18.279  0.00  0.00     0.027 H 
ATOM    272  H   ILE d   1      18.847   4.024  17.918  0.00  0.00     0.027 H 
ENDBRANCH 266 269
ENDBRANCH 264 266
BRANCH 264 273
ATOM    273  CG2 ILE d   1      17.093   6.122  15.791  0.00  0.00    -0.071 C 
ATOM    274  H   ILE d   1      17.351   6.535  14.805  0.00  0.00     0.028 H 
ATOM    275  H   ILE d   1      17.780   6.526  16.549  0.00  0.00     0.028 H 
ATOM    276  H   ILE d   1      16.060   6.401  16.047  0.00  0.00     0.028 H 
ENDBRANCH 264 273
ENDBRANCH 164 264
ENDBRANCH 162 164
ENDBRANCH 158 160
BRANCH 158 277
ATOM    277  CB  HIS d   1      15.768  -0.571  14.256  0.00  0.00     0.002 C 
ATOM    278  H   HIS d   1      14.735  -0.310  14.530  0.00  0.00     0.046 H 
ATOM    279  H   HIS d   1      16.400  -0.558  15.156  0.00  0.00     0.046 H 
BRANCH 277 280
ATOM    280  CG  HIS d   1      15.778  -1.947  13.684  0.00  0.00     0.030 A 
ATOM    281  ND1 HIS d   1      14.777  -2.395  12.856  0.00  0.00    -0.353 N 
ATOM    282  CE1 HIS d   1      15.055  -3.633  12.475  0.00  0.00     0.063 A 
ATOM    283  H   HIS d   1      13.945  -1.856  12.577  0.00  0.00     0.166 HD
ATOM    284  NE2 HIS d   1      16.192  -3.996  13.032  0.00  0.00    -0.254 NA
ATOM    285  H   HIS d   1      14.446  -4.247  11.813  0.00  0.00     0.143 H 
ATOM    286  CD2 HIS d   1      16.686  -2.944  13.776  0.00  0.00     0.025 A 
ATOM    287  H   HIS d   1      17.624  -2.921  14.329  0.00  0.00     0.117 H 
ENDBRANCH 277 280
ENDBRANCH 158 277
ENDBRANCH 156 158
ENDBRANCH 152 154
BRANCH 152 288
ATOM    288  CB  ALA d   1      20.338  -0.413  11.508  0.00  0.00    -0.049 C 
ATOM    289  H   ALA d   1      19.884  -0.561  10.517  0.00  0.00     0.030 H 
ATOM    290  H   ALA d   1      20.034  -1.232  12.177  0.00  0.00     0.030 H 
ATOM    291  H   ALA d   1      21.434  -0.406  11.411  0.00  0.00     0.030 H 
ENDBRANCH 152 288
ENDBRANCH 150 152
ENDBRANCH   1 148
BRANCH   1 292
ATOM    292  CB  GLN d   1      22.487   2.876  15.272  0.00  0.00    -0.030 C 
ATOM    293  H   GLN d   1      22.566   3.745  14.602  0.00  0.00     0.037 H 
ATOM    294  H   GLN d   1      23.065   2.038  14.855  0.00  0.00     0.037 H 
BRANCH 292 295
ATOM    295  CG  GLN d   1      23.084   3.252  16.634  0.00  0.00     0.011 C 
ATOM    296  H   GLN d   1      22.691   2.558  17.391  0.00  0.00     0.047 H 
ATOM    297  H   GLN d   1      22.773   4.278  16.881  0.00  0.00     0.047 H 
BRANCH 295 298
ATOM    298  CD  GLN d   1      24.604   3.188  16.662  0.00  0.00     0.215 C 
ATOM    299  OE1 GLN d   1      25.212   2.323  16.022  0.00  0.00    -0.274 OA
ATOM    300  NE2 GLN d   1      25.233   4.111  17.413  0.00  0.00    -0.370 N 
ATOM    301  H   GLN d   1      26.232   4.115  17.468  0.00  0.00     0.159 HD
ATOM    302  H   GLN d   1      24.702   4.792  17.916  0.00  0.00     0.159 HD
ENDBRANCH 295 298
ENDBRANCH 292 295
ENDBRANCH   1 292
TORSDOF 82
