REMARK  6 active torsions:
REMARK  status: ('A' for Active; 'I' for Inactive)
REMARK    1  A    between atoms: N2_2  and  S1_1 
REMARK    2  A    between atoms: S1_1  and  C13_13 
REMARK    3  A    between atoms: C5_5  and  C3_3 
REMARK    4  A    between atoms: C4_4  and  C9_9 
REMARK       I    between atoms: N8_8  and  C5_5 
REMARK       I    between atoms: C9_9  and  N17_17 
REMARK    5  A    between atoms: C21_21  and  C14_14 
REMARK    6  A    between atoms: N17_17  and  C21_21 
ROOT
ATOM      1  N2  2EW d   1     -18.878 -17.770 -29.916  0.00  0.00    -0.205 NA
ATOM      2  C3  2EW d   1     -18.032 -15.612 -30.695  0.00  0.00     0.049 C 
ATOM      3  C4  2EW d   1     -18.988 -16.199 -31.760  0.00  0.00     0.049 C 
ATOM      4  C6  2EW d   1     -17.727 -16.824 -29.815  0.00  0.00     0.006 C 
ATOM      5  C7  2EW d   1     -19.833 -17.150 -30.870  0.00  0.00     0.006 C 
ATOM      6  H1  2EW d   1     -18.527 -14.804 -30.136  0.00  0.00     0.058 H 
ATOM      7  H2  2EW d   1     -18.433 -16.756 -32.529  0.00  0.00     0.058 H 
ATOM      8  H3  2EW d   1     -16.807 -17.317 -30.164  0.00  0.00     0.058 H 
ATOM      9  H4  2EW d   1     -17.598 -16.504 -28.771  0.00  0.00     0.058 H 
ATOM     10  H5  2EW d   1     -20.603 -16.582 -30.326  0.00  0.00     0.058 H 
ATOM     11  H6  2EW d   1     -20.315 -17.923 -31.486  0.00  0.00     0.058 H 
ENDROOT
BRANCH   2  12
ATOM     12  C5  2EW d   1     -16.726 -15.134 -31.221  0.00  0.00     0.226 C 
ATOM     13  N8  2EW d   1     -15.929 -14.265 -30.566  0.00  0.00    -0.348 N 
ATOM     14  C19 2EW d   1     -14.614 -13.870 -31.258  0.00  0.00     0.017 C 
ATOM     15  C20 2EW d   1     -16.234 -13.736 -29.188  0.00  0.00     0.017 C 
ATOM     16  C23 2EW d   1     -14.620 -12.315 -31.235  0.00  0.00     0.034 C 
ATOM     17  H10 2EW d   1     -14.590 -14.244 -32.292  0.00  0.00     0.067 H 
ATOM     18  H11 2EW d   1     -13.749 -14.264 -30.705  0.00  0.00     0.067 H 
ATOM     19  O18 2EW d   1     -14.853 -11.798 -29.917  0.00  0.00    -0.388 OA
ATOM     20  H18 2EW d   1     -13.646 -11.951 -31.592  0.00  0.00     0.076 H 
ATOM     21  H19 2EW d   1     -15.415 -11.953 -31.904  0.00  0.00     0.076 H 
ATOM     22  C22 2EW d   1     -16.041 -12.214 -29.208  0.00  0.00     0.034 C 
ATOM     23  H16 2EW d   1     -16.916 -11.758 -29.694  0.00  0.00     0.076 H 
ATOM     24  H17 2EW d   1     -15.971 -11.857 -28.170  0.00  0.00     0.076 H 
ATOM     25  H12 2EW d   1     -15.550 -14.189 -28.455  0.00  0.00     0.067 H 
ATOM     26  H13 2EW d   1     -17.273 -13.976 -28.918  0.00  0.00     0.067 H 
ATOM     27  O15 2EW d   1     -16.426 -15.531 -32.325  0.00  0.00    -0.273 OA
ENDBRANCH   2  12
BRANCH   3  28
ATOM     28  C9  2EW d   1     -19.831 -15.157 -32.429  0.00  0.00     0.224 C 
ATOM     29  O16 2EW d   1     -20.268 -14.153 -31.818  0.00  0.00    -0.273 OA
ATOM     30  N17 2EW d   1     -19.947 -15.319 -33.780  0.00  0.00    -0.356 N 
ATOM     31  H9  2EW d   1     -19.546 -16.152 -34.163  0.00  0.00     0.162 HD
BRANCH  30  32
ATOM     32  C21 2EW d   1     -20.570 -14.442 -34.701  0.00  0.00     0.025 C 
ATOM     33  H14 2EW d   1     -20.327 -13.405 -34.425  0.00  0.00     0.072 H 
ATOM     34  H15 2EW d   1     -20.185 -14.653 -35.709  0.00  0.00     0.072 H 
BRANCH  32  35
ATOM     35  C14 2EW d   1     -22.024 -14.602 -34.707  0.00  0.00    -0.010 C 
ATOM     36  N10 2EW d   1     -22.704 -14.012 -35.641  0.00  0.00    -0.315 NA
ATOM     37  H7  2EW d   1     -23.707 -14.105 -35.669  0.00  0.00     0.185 HD
ATOM     38  H8  2EW d   1     -22.523 -15.201 -33.947  0.00  0.00     0.109 H 
ENDBRANCH  32  35
ENDBRANCH  30  32
ENDBRANCH   3  28
BRANCH   1  39
ATOM     39  S1  2EW d   1     -18.513 -19.359 -30.053  0.00  0.00     0.243 S 
ATOM     40  O11 2EW d   1     -19.765 -20.014 -30.005  0.00  0.00    -0.206 OA
ATOM     41  O12 2EW d   1     -17.597 -19.317 -31.154  0.00  0.00    -0.206 OA
BRANCH  39  42
ATOM     42  C13 2EW d   1     -17.685 -19.741 -28.546  0.00  0.00     0.074 A 
ATOM     43  C24 2EW d   1     -18.486 -19.795 -27.404  0.00  0.00    -0.061 A 
ATOM     44  C27 2EW d   1     -17.870 -20.071 -26.190  0.00  0.00    -0.082 A 
ATOM     45  H20 2EW d   1     -19.555 -19.627 -27.463  0.00  0.00     0.085 H 
ATOM     46  C28 2EW d   1     -16.483 -20.252 -26.190  0.00  0.00    -0.083 A 
ATOM     47  H23 2EW d   1     -18.445 -20.144 -25.274  0.00  0.00     0.083 H 
ATOM     48  C26 2EW d   1     -15.681 -20.178 -27.326  0.00  0.00    -0.082 A 
ATOM     49  H24 2EW d   1     -16.000 -20.464 -25.243  0.00  0.00     0.083 H 
ATOM     50  C25 2EW d   1     -16.302 -19.928 -28.533  0.00  0.00    -0.061 A 
ATOM     51  H22 2EW d   1     -14.607 -20.312 -27.265  0.00  0.00     0.083 H 
ATOM     52  H21 2EW d   1     -15.728 -19.878 -29.451  0.00  0.00     0.085 H 
ENDBRANCH  39  42
ENDBRANCH   1  39
TORSDOF 6
