REMARK  6 active torsions:
REMARK  status: ('A' for Active; 'I' for Inactive)
REMARK    1  A    between atoms: N2_2  and  S1_1 
REMARK    2  A    between atoms: S1_1  and  C6_6 
REMARK    3  A    between atoms: C5_5  and  C3_3 
REMARK    4  A    between atoms: C4_4  and  C10_10 
REMARK       I    between atoms: N9_9  and  C5_5 
REMARK       I    between atoms: C10_10  and  N18_18 
REMARK    5  A    between atoms: C24_24  and  C14_14 
REMARK    6  A    between atoms: N18_18  and  C24_24 
ROOT
ATOM      1  N2  2EV d   1      -5.134  -1.291 -18.399  0.00  0.00    -0.305 N 
ATOM      2  C3  2EV d   1      -5.842  -3.487 -17.662  0.00  0.00     0.053 C 
ATOM      3  C4  2EV d   1      -7.042  -2.579 -18.046  0.00  0.00     0.053 C 
ATOM      4  C7  2EV d   1      -4.673  -2.470 -17.629  0.00  0.00     0.018 C 
ATOM      5  C8  2EV d   1      -6.367  -1.692 -19.093  0.00  0.00     0.018 C 
ATOM      6  H1  2EV d   1      -5.669  -4.229 -18.455  0.00  0.00     0.058 H 
ATOM      7  H2  2EV d   1      -7.396  -1.994 -17.184  0.00  0.00     0.058 H 
ATOM      8  H3  2EV d   1      -4.445  -2.183 -16.592  0.00  0.00     0.066 H 
ATOM      9  H4  2EV d   1      -3.776  -2.904 -18.095  0.00  0.00     0.066 H 
ATOM     10  H5  2EV d   1      -6.144  -2.255 -20.011  0.00  0.00     0.066 H 
ATOM     11  H6  2EV d   1      -6.989  -0.819 -19.340  0.00  0.00     0.066 H 
ENDROOT
BRANCH   2  12
ATOM     12  C5  2EV d   1      -6.027  -4.247 -16.361  0.00  0.00     0.226 C 
ATOM     13  N9  2EV d   1      -5.281  -5.361 -16.067  0.00  0.00    -0.348 N 
ATOM     14  C22 2EV d   1      -4.187  -5.867 -16.940  0.00  0.00     0.017 C 
ATOM     15  C23 2EV d   1      -5.489  -6.065 -14.776  0.00  0.00     0.017 C 
ATOM     16  C26 2EV d   1      -4.311  -7.391 -17.109  0.00  0.00     0.034 C 
ATOM     17  H11 2EV d   1      -3.216  -5.629 -16.482  0.00  0.00     0.067 H 
ATOM     18  H12 2EV d   1      -4.255  -5.384 -17.926  0.00  0.00     0.067 H 
ATOM     19  O19 2EV d   1      -4.466  -7.976 -15.811  0.00  0.00    -0.388 OA
ATOM     20  H19 2EV d   1      -5.188  -7.626 -17.730  0.00  0.00     0.076 H 
ATOM     21  H20 2EV d   1      -3.404  -7.787 -17.590  0.00  0.00     0.076 H 
ATOM     22  C25 2EV d   1      -5.602  -7.572 -15.041  0.00  0.00     0.034 C 
ATOM     23  H17 2EV d   1      -5.618  -8.118 -14.086  0.00  0.00     0.076 H 
ATOM     24  H18 2EV d   1      -6.525  -7.784 -15.600  0.00  0.00     0.076 H 
ATOM     25  H13 2EV d   1      -6.414  -5.703 -14.304  0.00  0.00     0.067 H 
ATOM     26  H14 2EV d   1      -4.636  -5.871 -14.109  0.00  0.00     0.067 H 
ATOM     27  O16 2EV d   1      -6.902  -3.884 -15.589  0.00  0.00    -0.273 OA
ENDBRANCH   2  12
BRANCH   3  28
ATOM     28  C10 2EV d   1      -8.203  -3.351 -18.629  0.00  0.00     0.224 C 
ATOM     29  O17 2EV d   1      -8.030  -4.234 -19.465  0.00  0.00    -0.273 OA
ATOM     30  N18 2EV d   1      -9.442  -2.983 -18.223  0.00  0.00    -0.356 N 
ATOM     31  H9  2EV d   1      -9.535  -2.222 -17.581  0.00  0.00     0.162 HD
BRANCH  30  32
ATOM     32  C24 2EV d   1     -10.647  -3.663 -18.693  0.00  0.00     0.025 C 
ATOM     33  H15 2EV d   1     -10.388  -4.694 -18.975  0.00  0.00     0.072 H 
ATOM     34  H16 2EV d   1     -11.387  -3.680 -17.879  0.00  0.00     0.072 H 
BRANCH  32  35
ATOM     35  C14 2EV d   1     -11.233  -2.985 -19.855  0.00  0.00    -0.010 C 
ATOM     36  N11 2EV d   1     -12.437  -3.328 -20.173  0.00  0.00    -0.315 NA
ATOM     37  H7  2EV d   1     -12.892  -2.897 -20.962  0.00  0.00     0.185 HD
ATOM     38  H8  2EV d   1     -10.682  -2.233 -20.419  0.00  0.00     0.109 H 
ENDBRANCH  32  35
ENDBRANCH  30  32
ENDBRANCH   3  28
BRANCH   1  39
ATOM     39  S1  2EV d   1      -4.873   0.259 -17.852  0.00  0.00     0.262 S 
ATOM     40  O12 2EV d   1      -5.445   1.143 -18.809  0.00  0.00    -0.200 OA
ATOM     41  O13 2EV d   1      -5.300   0.227 -16.504  0.00  0.00    -0.200 OA
BRANCH  39  42
ATOM     42  C6  2EV d   1      -3.104   0.455 -17.841  0.00  0.00     0.101 A 
ATOM     43  C15 2EV d   1      -2.318   0.583 -18.998  0.00  0.00     0.057 A 
ATOM     44 CL1  2EV d   1      -2.989   0.558 -20.582  0.00  0.00    -0.083 Cl
ATOM     45  C27 2EV d   1      -0.935   0.705 -18.934  0.00  0.00    -0.060 A 
ATOM     46  C29 2EV d   1      -0.302   0.691 -17.706  0.00  0.00    -0.081 A 
ATOM     47  H21 2EV d   1      -0.355   0.811 -19.844  0.00  0.00     0.086 H 
ATOM     48  C28 2EV d   1      -1.068   0.562 -16.564  0.00  0.00    -0.081 A 
ATOM     49  H23 2EV d   1       0.776   0.780 -17.640  0.00  0.00     0.083 H 
ATOM     50  C21 2EV d   1      -2.448   0.419 -16.623  0.00  0.00    -0.059 A 
ATOM     51  H22 2EV d   1      -0.579   0.573 -15.597  0.00  0.00     0.083 H 
ATOM     52  H10 2EV d   1      -3.015   0.278 -15.710  0.00  0.00     0.086 H 
ENDBRANCH  39  42
ENDBRANCH   1  39
TORSDOF 6
