REMARK  3 active torsions:
REMARK  status: ('A' for Active; 'I' for Inactive)
REMARK    1  A    between atoms: C1_1  and  C7_7 
REMARK    2  A    between atoms: C22_22  and  N26_26 
REMARK    3  A    between atoms: N23_23  and  C27_27 
ROOT
ATOM      1  C7  2EX d   1      27.079  15.783   9.546  0.00  0.00    -0.021 A 
ATOM      2  C8  2EX d   1      27.929  14.711   9.158  0.00  0.00    -0.069 A 
ATOM      3  C9  2EX d   1      27.367  13.506   8.670  0.00  0.00    -0.049 A 
ATOM      4  C10 2EX d   1      25.961  13.368   8.547  0.00  0.00     0.078 A 
ATOM      5  C11 2EX d   1      25.100  14.427   8.938  0.00  0.00     0.015 A 
ATOM      6  C12 2EX d   1      25.668  15.632   9.423  0.00  0.00    -0.060 A 
ATOM      7  O13 2EX d   1      25.463  12.174   8.081  0.00  0.00    -0.345 OA
ATOM      8  C14 2EX d   1      24.132  12.115   7.582  0.00  0.00     0.055 C 
ATOM      9  C15 2EX d   1      23.162  12.822   8.555  0.00  0.00     0.030 C 
ATOM     10  C16 2EX d   1      23.571  14.292   8.797  0.00  0.00     0.167 A 
ATOM     11  C17 2EX d   1      23.726  10.632   7.437  0.00  0.00    -0.020 C 
ATOM     12  C18 2EX d   1      22.243  10.543   7.004  0.00  0.00     0.022 C 
ATOM     13  O19 2EX d   1      21.415  11.227   7.947  0.00  0.00    -0.390 OA
ATOM     14  C20 2EX d   1      21.692  12.627   8.094  0.00  0.00     0.028 C 
ATOM     15  N21 2EX d   1      22.828  14.852   9.928  0.00  0.00    -0.203 N 
ATOM     16  C22 2EX d   1      22.157  15.890   9.546  0.00  0.00     0.677 A 
ATOM     17  N23 2EX d   1      22.313  16.203   8.230  0.00  0.00    -0.153 N 
ATOM     18  C24 2EX d   1      23.148  15.278   7.687  0.00  0.00     0.272 A 
ATOM     19  O25 2EX d   1      23.538  15.216   6.516  0.00  0.00    -0.269 OA
ATOM     20  H   2EX d   1      29.005  14.816   9.236  0.00  0.00     0.085 H 
ATOM     21  H   2EX d   1      28.016  12.684   8.389  0.00  0.00     0.087 H 
ATOM     22  H   2EX d   1      25.018  16.452   9.705  0.00  0.00     0.086 H 
ATOM     23  H   2EX d   1      24.086  12.609   6.600  0.00  0.00     0.085 H 
ATOM     24  H   2EX d   1      23.253  12.314   9.526  0.00  0.00     0.052 H 
ATOM     25  H   2EX d   1      23.858  10.120   8.402  0.00  0.00     0.040 H 
ATOM     26  H   2EX d   1      24.359  10.151   6.677  0.00  0.00     0.040 H 
ATOM     27  H   2EX d   1      21.941   9.486   6.954  0.00  0.00     0.074 H 
ATOM     28  H   2EX d   1      22.125  11.006   6.013  0.00  0.00     0.074 H 
ATOM     29  H   2EX d   1      21.541  13.133   7.129  0.00  0.00     0.075 H 
ATOM     30  H   2EX d   1      21.013  13.058   8.845  0.00  0.00     0.075 H 
ATOM     31  H   2EX d   1      22.838  14.475  10.886  0.00  0.00     0.179 HD
ENDROOT
BRANCH  16  32
ATOM     32  N26 2EX d   1      21.320  16.668  10.321  0.00  0.00    -0.234 N 
ATOM     33  H   2EX d   1      21.189  16.447  11.319  0.00  0.00     0.174 HD
ATOM     34  H   2EX d   1      20.827  17.469   9.902  0.00  0.00     0.174 HD
ENDBRANCH  16  32
BRANCH  17  35
ATOM     35  C27 2EX d   1      21.693  17.315   7.502  0.00  0.00     0.005 C 
ATOM     36  H   2EX d   1      21.068  17.901   8.191  0.00  0.00     0.058 H 
ATOM     37  H   2EX d   1      21.068  16.918   6.688  0.00  0.00     0.058 H 
ATOM     38  H   2EX d   1      22.478  17.960   7.080  0.00  0.00     0.058 H 
ENDBRANCH  17  35
BRANCH   1  39
ATOM     39  C1  2EX d   1      27.613  17.016   9.995  0.00  0.00     0.032 A 
ATOM     40  C2  2EX d   1      28.594  17.657   9.187  0.00  0.00    -0.066 A 
ATOM     41  C3  2EX d   1      29.112  18.908   9.616  0.00  0.00    -0.065 A 
ATOM     42  H   2EX d   1      28.938  17.201   8.266  0.00  0.00     0.085 H 
ATOM     43  C4  2EX d   1      28.612  19.482  10.816  0.00  0.00     0.005 A 
ATOM     44  H   2EX d   1      29.875  19.416   9.038  0.00  0.00     0.085 H 
ATOM     45  N5  2EX d   1      27.664  18.885  11.569  0.00  0.00    -0.232 NA
ATOM     46  H   2EX d   1      29.008  20.438  11.140  0.00  0.00     0.114 H 
ATOM     47  C6  2EX d   1      27.178  17.688  11.168  0.00  0.00     0.220 A 
ATOM     48  F28 2EX d   1      26.243  17.132  11.958  0.00  0.00    -0.183 F 
ENDBRANCH   1  39
TORSDOF 3
