REMARK  4 active torsions:
REMARK  status: ('A' for Active; 'I' for Inactive)
REMARK    1  A    between atoms: C4_2  and  C2_1 
REMARK    2  A    between atoms: C12_7  and  C10_23 
REMARK       I    between atoms: N14_24  and  C12_7 
REMARK    3  A    between atoms: C25_28  and  C23_27 
REMARK    4  A    between atoms: C25_28  and  N26_29 
ROOT
ATOM      1  C12 2FS d   1      15.821 -24.086 -35.647  0.00  0.00     0.225 C 
ATOM      2  O13 2FS d   1      15.194 -25.065 -35.267  0.00  0.00    -0.273 OA
ATOM      3  C16 2FS d   1      14.846 -21.007 -35.838  0.00  0.00    -0.025 C 
ATOM      4  C18 2FS d   1      13.063 -22.418 -36.884  0.00  0.00    -0.027 A 
ATOM      5  C19 2FS d   1      11.745 -22.599 -37.239  0.00  0.00    -0.074 A 
ATOM      6  C20 2FS d   1      10.807 -21.632 -36.966  0.00  0.00    -0.082 A 
ATOM      7  C21 2FS d   1      11.184 -20.472 -36.333  0.00  0.00    -0.082 A 
ATOM      8  C22 2FS d   1      12.497 -20.284 -35.975  0.00  0.00    -0.076 A 
ATOM      9  N14 2FS d   1      15.343 -23.221 -36.623  0.00  0.00    -0.341 N 
ATOM     10  C15 2FS d   1      15.745 -21.837 -36.716  0.00  0.00     0.002 C 
ATOM     11  C17 2FS d   1      13.436 -21.252 -36.246  0.00  0.00    -0.048 A 
ATOM     12  C23 2FS d   1      14.048 -23.493 -37.205  0.00  0.00     0.056 C 
ATOM     13  H   2FS d   1      15.088 -19.941 -35.960  0.00  0.00     0.042 H 
ATOM     14  H   2FS d   1      14.984 -21.296 -34.786  0.00  0.00     0.042 H 
ATOM     15  H   2FS d   1      11.444 -23.513 -37.739  0.00  0.00     0.084 H 
ATOM     16  H   2FS d   1       9.772 -21.784 -37.249  0.00  0.00     0.083 H 
ATOM     17  H   2FS d   1      10.447 -19.707 -36.117  0.00  0.00     0.083 H 
ATOM     18  H   2FS d   1      12.794 -19.369 -35.477  0.00  0.00     0.084 H 
ATOM     19  H   2FS d   1      16.787 -21.732 -36.381  0.00  0.00     0.064 H 
ATOM     20  H   2FS d   1      15.659 -21.497 -37.759  0.00  0.00     0.064 H 
ATOM     21  H   2FS d   1      13.679 -24.446 -36.799  0.00  0.00     0.083 H 
ENDROOT
BRANCH   1  22
ATOM     22  C10 2FS d   1      17.181 -23.757 -35.081  0.00  0.00     0.036 C 
ATOM     23  C4  2FS d   1      17.363 -24.260 -33.659  0.00  0.00     0.042 C 
ATOM     24  C6  2FS d   1      17.620 -25.752 -33.560  0.00  0.00    -0.052 C 
ATOM     25  H   2FS d   1      18.244 -23.755 -33.235  0.00  0.00     0.058 H 
ATOM     26  C7  2FS d   1      18.817 -26.089 -34.411  0.00  0.00    -0.064 C 
ATOM     27  H   2FS d   1      16.740 -26.305 -33.922  0.00  0.00     0.034 H 
ATOM     28  H   2FS d   1      17.820 -26.025 -32.514  0.00  0.00     0.034 H 
ATOM     29  C8  2FS d   1      18.468 -25.779 -35.845  0.00  0.00    -0.064 C 
ATOM     30  H   2FS d   1      19.060 -27.157 -34.308  0.00  0.00     0.033 H 
ATOM     31  H   2FS d   1      19.681 -25.484 -34.097  0.00  0.00     0.033 H 
ATOM     32  C9  2FS d   1      18.259 -24.289 -36.001  0.00  0.00    -0.053 C 
ATOM     33  H   2FS d   1      17.545 -26.310 -36.121  0.00  0.00     0.033 H 
ATOM     34  H   2FS d   1      19.289 -26.105 -36.501  0.00  0.00     0.033 H 
ATOM     35  H   2FS d   1      17.970 -24.080 -37.041  0.00  0.00     0.034 H 
ATOM     36  H   2FS d   1      19.204 -23.774 -35.773  0.00  0.00     0.034 H 
ATOM     37  H   2FS d   1      17.273 -22.661 -35.053  0.00  0.00     0.056 H 
BRANCH  23  38
ATOM     38  C2  2FS d   1      16.162 -23.844 -32.868  0.00  0.00     0.177 C 
ATOM     39  O1  2FS d   1      15.407 -24.904 -32.469  0.00  0.00    -0.648 OA
ATOM     40  O3  2FS d   1      15.893 -22.675 -32.622  0.00  0.00    -0.648 OA
ENDBRANCH  23  38
ENDBRANCH   1  22
BRANCH  12  41
ATOM     41  C25 2FS d   1      14.150 -23.604 -38.712  0.00  0.00     0.021 C 
ATOM     42  H   2FS d   1      14.570 -22.668 -39.109  0.00  0.00     0.068 H 
ATOM     43  H   2FS d   1      13.142 -23.758 -39.125  0.00  0.00     0.068 H 
BRANCH  41  44
ATOM     44  N26 2FS d   1      14.989 -24.697 -39.119  0.00  0.00    -0.341 N 
ATOM     45  C27 2FS d   1      14.530 -26.065 -39.025  0.00  0.00     0.023 A 
ATOM     46  C28 2FS d   1      15.794 -26.791 -39.278  0.00  0.00    -0.025 A 
ATOM     47  H   2FS d   1      14.125 -26.290 -38.027  0.00  0.00     0.071 H 
ATOM     48  H   2FS d   1      13.771 -26.292 -39.788  0.00  0.00     0.071 H 
ATOM     49  C29 2FS d   1      16.017 -28.146 -39.323  0.00  0.00    -0.074 A 
ATOM     50  C33 2FS d   1      16.826 -25.924 -39.485  0.00  0.00     0.040 A 
ATOM     51  C30 2FS d   1      17.302 -28.584 -39.581  0.00  0.00    -0.082 A 
ATOM     52  H   2FS d   1      15.209 -28.850 -39.161  0.00  0.00     0.084 H 
ATOM     53  C31 2FS d   1      18.338 -27.690 -39.788  0.00  0.00    -0.082 A 
ATOM     54  H   2FS d   1      17.502 -29.648 -39.622  0.00  0.00     0.083 H 
ATOM     55  C32 2FS d   1      18.112 -26.330 -39.742  0.00  0.00    -0.067 A 
ATOM     56  H   2FS d   1      19.336 -28.062 -39.988  0.00  0.00     0.083 H 
ATOM     57  H   2FS d   1      18.912 -25.616 -39.901  0.00  0.00     0.085 H 
ATOM     58  C34 2FS d   1      16.335 -24.560 -39.386  0.00  0.00     0.254 A 
ATOM     59  O35 2FS d   1      17.036 -23.567 -39.519  0.00  0.00    -0.267 OA
ENDBRANCH  41  44
ENDBRANCH  12  41
TORSDOF 4
