REMARK  4 active torsions:
REMARK  status: ('A' for Active; 'I' for Inactive)
REMARK    1  A    between atoms: C02_3  and  N01_2 
REMARK    2  A    between atoms: C04_5  and  C05_6 
REMARK    3  A    between atoms: C14_14  and  N15_15 
REMARK    4  A    between atoms: N15_15  and  C16_16 
ROOT
ATOM      1  C13 2GD d   1      16.281 -10.721   2.650  0.00  0.00    -0.009 C 
ATOM      2  C02 2GD d   1      17.086 -12.250   4.754  0.00  0.00     0.722 C 
ATOM      3  N03 2GD d   1      15.754 -12.101   4.460  0.00  0.00    -0.062 NA
ATOM      4  C04 2GD d   1      15.347 -11.281   3.422  0.00  0.00     0.091 C 
ATOM      5  C14 2GD d   1      17.668 -10.852   3.043  0.00  0.00     0.144 C 
ATOM      6  N17 2GD d   1      18.025 -11.595   4.070  0.00  0.00    -0.046 NA
ATOM      7  H   2GD d   1      16.007 -10.181   1.751  0.00  0.00     0.093 H 
ENDROOT
BRANCH   4   8
ATOM      8  C05 2GD d   1      13.889 -11.265   3.127  0.00  0.00     0.017 A 
ATOM      9  C06 2GD d   1      13.425 -11.657   1.900  0.00  0.00    -0.069 A 
ATOM     10  C07 2GD d   1      12.030 -11.702   1.679  0.00  0.00    -0.080 A 
ATOM     11  H   2GD d   1      14.117 -11.928   1.111  0.00  0.00     0.085 H 
ATOM     12  C08 2GD d   1      11.168 -11.339   2.656  0.00  0.00    -0.060 A 
ATOM     13  H   2GD d   1      11.648 -12.030   0.719  0.00  0.00     0.083 H 
ATOM     14  C09 2GD d   1      11.661 -10.947   3.846  0.00  0.00     0.056 A 
ATOM     15  H   2GD d   1      10.098 -11.363   2.484  0.00  0.00     0.086 H 
ATOM     16 CL1  2GD d   1      10.630 -10.516   5.121  0.00  0.00    -0.083 Cl
ATOM     17  C11 2GD d   1      13.031 -10.905   4.099  0.00  0.00     0.068 A 
ATOM     18 CL2  2GD d   1      13.579 -10.355   5.601  0.00  0.00    -0.082 Cl
ENDBRANCH   4   8
BRANCH   5  19
ATOM     19  N15 2GD d   1      18.682 -10.242   2.258  0.00  0.00    -0.379 N 
ATOM     20  H   2GD d   1      19.666 -10.372   2.532  0.00  0.00     0.160 HD
BRANCH  19  21
ATOM     21  C16 2GD d   1      18.385  -9.442   1.084  0.00  0.00    -0.020 C 
ATOM     22  H   2GD d   1      19.324  -9.076   0.643  0.00  0.00     0.056 H 
ATOM     23  H   2GD d   1      17.758  -8.586   1.373  0.00  0.00     0.056 H 
ATOM     24  H   2GD d   1      17.849 -10.058   0.347  0.00  0.00     0.056 H 
ENDBRANCH  19  21
ENDBRANCH   5  19
BRANCH   2  25
ATOM     25  N01 2GD d   1      17.476 -13.117   5.787  0.00  0.00    -0.231 N 
ATOM     26  H   2GD d   1      16.763 -13.630   6.325  0.00  0.00     0.174 HD
ATOM     27  H   2GD d   1      18.475 -13.240   6.007  0.00  0.00     0.174 HD
ENDBRANCH   2  25
TORSDOF 4
