REMARK  4 active torsions:
REMARK  status: ('A' for Active; 'I' for Inactive)
REMARK    1  A    between atoms: C02_4  and  N01_3 
REMARK    2  A    between atoms: C04_6  and  C05_7 
REMARK    3  A    between atoms: N15_16  and  C14_15 
REMARK    4  A    between atoms: N15_16  and  C16_17 
ROOT
ATOM      1  C13 2GE d   1       0.723  75.994  15.376  0.00  0.00    -0.009 A 
ATOM      2  C02 2GE d   1       2.297  77.364  13.731  0.00  0.00     0.722 A 
ATOM      3  N03 2GE d   1       0.989  77.355  13.491  0.00  0.00    -0.062 NA
ATOM      4  C04 2GE d   1       0.156  76.697  14.302  0.00  0.00     0.091 A 
ATOM      5  C14 2GE d   1       2.109  76.033  15.595  0.00  0.00     0.145 A 
ATOM      6  N19 2GE d   1       2.887  76.684  14.734  0.00  0.00    -0.046 NA
ATOM      7  H   2GE d   1       0.088  75.418  16.040  0.00  0.00     0.093 H 
ENDROOT
BRANCH   4   8
ATOM      8  C05 2GE d   1      -1.291  76.632  13.957  0.00  0.00     0.017 A 
ATOM      9  C06 2GE d   1      -1.614  76.280  12.640  0.00  0.00    -0.069 A 
ATOM     10  C07 2GE d   1      -2.953  76.218  12.239  0.00  0.00    -0.080 A 
ATOM     11  H   2GE d   1      -0.826  76.055  11.931  0.00  0.00     0.085 H 
ATOM     12  C08 2GE d   1      -3.970  76.392  13.158  0.00  0.00    -0.060 A 
ATOM     13  H   2GE d   1      -3.195  76.032  11.199  0.00  0.00     0.083 H 
ATOM     14  C09 2GE d   1      -3.625  76.700  14.460  0.00  0.00     0.056 A 
ATOM     15  H   2GE d   1      -5.009  76.290  12.866  0.00  0.00     0.086 H 
ATOM     16 CL1  2GE d   1      -4.774  76.915  15.737  0.00  0.00    -0.083 Cl
ATOM     17  C11 2GE d   1      -2.303  76.793  14.844  0.00  0.00     0.068 A 
ATOM     18 CL2  2GE d   1      -1.950  77.209  16.470  0.00  0.00    -0.082 Cl
ENDBRANCH   4   8
BRANCH   5  19
ATOM     19  N15 2GE d   1       2.720  75.371  16.699  0.00  0.00    -0.363 N 
ATOM     20  H   2GE d   1       3.712  75.541  16.917  0.00  0.00     0.162 HD
BRANCH  19  21
ATOM     21  C16 2GE d   1       1.942  74.454  17.519  0.00  0.00     0.044 A 
ATOM     22  C17 2GE d   1       2.359  74.548  18.949  0.00  0.00    -0.079 A 
ATOM     23  C18 2GE d   1       1.090  75.191  18.511  0.00  0.00    -0.079 A 
ATOM     24  H   2GE d   1       3.072  74.315  19.738  0.00  0.00     0.080 H 
ATOM     25  H   2GE d   1       0.198  75.771  18.741  0.00  0.00     0.080 H 
ATOM     26  H   2GE d   1       1.642  73.523  17.016  0.00  0.00     0.085 H 
ENDBRANCH  19  21
ENDBRANCH   5  19
BRANCH   2  27
ATOM     27  N01 2GE d   1       3.090  78.090  12.854  0.00  0.00    -0.231 N 
ATOM     28  H   2GE d   1       2.656  78.615  12.082  0.00  0.00     0.174 HD
ATOM     29  H   2GE d   1       4.113  78.103  12.975  0.00  0.00     0.174 HD
ENDBRANCH   2  27
TORSDOF 4
