REMARK  13 active torsions:
REMARK  status: ('A' for Active; 'I' for Inactive)
REMARK    1  A    between atoms: CAL_12  and  CAA_1 
REMARK    2  A    between atoms: CAV_22  and  OAD_4 
REMARK    3  A    between atoms: CAM_13  and  CAL_12 
REMARK    4  A    between atoms: CAN_14  and  CAM_13 
REMARK    5  A    between atoms: CAO_15  and  CAN_14 
REMARK    6  A    between atoms: CAP_16  and  CAO_15 
REMARK    7  A    between atoms: CAQ_17  and  CAP_16 
REMARK    8  A    between atoms: CAR_18  and  CAQ_17 
REMARK    9  A    between atoms: NAU_21  and  CAR_18 
REMARK   10  A    between atoms: CAS_19  and  NAT_20 
REMARK   11  A    between atoms: CAV_22  and  CAS_19 
REMARK   12  A    between atoms: CAV_22  and  PAW_23 
REMARK   13  A    between atoms: CAV_22  and  PAX_24 
ROOT
ATOM      1  CAR N1Z d   1      29.241  15.136   8.756  0.00  0.00     0.000 C 
ATOM      2  H20 N1Z d   1      28.806  14.249   9.239  0.00  0.00     0.064 H 
ATOM      3  H21 N1Z d   1      29.181  15.994   9.442  0.00  0.00     0.064 H 
ENDROOT
BRANCH   1   4
ATOM      4  CAQ N1Z d   1      28.484  15.444   7.504  0.00  0.00    -0.050 C 
ATOM      5  H18 N1Z d   1      29.158  15.341   6.641  0.00  0.00     0.035 H 
ATOM      6  H19 N1Z d   1      27.649  14.735   7.404  0.00  0.00     0.035 H 
BRANCH   4   7
ATOM      7  CAP N1Z d   1      27.935  16.855   7.540  0.00  0.00    -0.064 C 
ATOM      8  H16 N1Z d   1      27.128  16.925   8.284  0.00  0.00     0.033 H 
ATOM      9  H17 N1Z d   1      28.736  17.563   7.800  0.00  0.00     0.033 H 
BRANCH   7  10
ATOM     10  CAO N1Z d   1      27.393  17.172   6.158  0.00  0.00    -0.065 C 
ATOM     11  H14 N1Z d   1      28.236  17.233   5.454  0.00  0.00     0.033 H 
ATOM     12  H15 N1Z d   1      26.716  16.361   5.850  0.00  0.00     0.033 H 
BRANCH  10  13
ATOM     13  CAN N1Z d   1      26.621  18.500   6.119  0.00  0.00    -0.065 C 
ATOM     14  H12 N1Z d   1      26.432  18.848   7.145  0.00  0.00     0.033 H 
ATOM     15  H13 N1Z d   1      27.211  19.255   5.579  0.00  0.00     0.033 H 
BRANCH  13  16
ATOM     16  CAM N1Z d   1      25.275  18.274   5.391  0.00  0.00    -0.065 C 
ATOM     17  H10 N1Z d   1      25.478  17.869   4.389  0.00  0.00     0.033 H 
ATOM     18  H11 N1Z d   1      24.679  17.549   5.965  0.00  0.00     0.033 H 
BRANCH  16  19
ATOM     19  CAL N1Z d   1      24.476  19.559   5.247  0.00  0.00    -0.069 C 
ATOM     20  H8  N1Z d   1      23.509  19.434   5.756  0.00  0.00     0.032 H 
ATOM     21  H9  N1Z d   1      25.036  20.379   5.720  0.00  0.00     0.032 H 
BRANCH  19  22
ATOM     22  CAA N1Z d   1      24.211  19.930   3.737  0.00  0.00    -0.077 C 
ATOM     23  H1  N1Z d   1      23.632  20.864   3.685  0.00  0.00     0.027 H 
ATOM     24  H2  N1Z d   1      23.645  19.120   3.254  0.00  0.00     0.027 H 
ATOM     25  H3  N1Z d   1      25.172  20.065   3.219  0.00  0.00     0.027 H 
ENDBRANCH  19  22
ENDBRANCH  16  19
ENDBRANCH  13  16
ENDBRANCH  10  13
ENDBRANCH   7  10
ENDBRANCH   4   7
ENDBRANCH   1   4
BRANCH   1  26
ATOM     26  NAU N1Z d   1      30.601  14.881   8.434  0.00  0.00    -0.352 N 
ATOM     27  CAJ N1Z d   1      31.309  13.894   8.935  0.00  0.00    -0.005 A 
ATOM     28  CAI N1Z d   1      32.558  13.999   8.459  0.00  0.00    -0.004 A 
ATOM     29  H6  N1Z d   1      30.945  13.126   9.617  0.00  0.00     0.113 H 
ATOM     30  NAT N1Z d   1      32.558  15.061   7.673  0.00  0.00    -0.347 N 
ATOM     31  H5  N1Z d   1      33.400  13.343   8.676  0.00  0.00     0.113 H 
ATOM     32  CAK N1Z d   1      31.353  15.626   7.639  0.00  0.00     0.044 A 
ATOM     33  H7  N1Z d   1      31.051  16.510   7.079  0.00  0.00     0.141 H 
BRANCH  30  34
ATOM     34  CAS N1Z d   1      33.676  15.471   6.983  0.00  0.00     0.054 C 
ATOM     35  H22 N1Z d   1      33.353  16.090   6.133  0.00  0.00     0.071 H 
ATOM     36  H23 N1Z d   1      34.201  14.580   6.609  0.00  0.00     0.071 H 
BRANCH  34  37
ATOM     37  CAV N1Z d   1      34.664  16.296   7.844  0.00  0.00     0.301 C 
BRANCH  37  38
ATOM     38  OAD N1Z d   1      34.957  17.699   7.284  0.00  0.00    -0.364 OA
ATOM     39  H4  N1Z d   1      34.169  18.228   7.329  0.00  0.00     0.212 HD
ENDBRANCH  37  38
BRANCH  37  40
ATOM     40  PAW N1Z d   1      34.179  16.814   9.500  0.00  0.00     0.311 P 
ATOM     41  OAB N1Z d   1      33.084  16.103  10.286  0.00  0.00    -0.637 OA
ATOM     42  OAE N1Z d   1      35.344  16.488  10.423  0.00  0.00    -0.637 OA
ATOM     43  OAF N1Z d   1      33.674  18.311   9.214  0.00  0.00    -0.637 OA
ENDBRANCH  37  40
BRANCH  37  44
ATOM     44  PAX N1Z d   1      36.118  15.413   7.584  0.00  0.00     0.311 P 
ATOM     45  OAG N1Z d   1      35.850  14.392   6.331  0.00  0.00    -0.637 OA
ATOM     46  OAH N1Z d   1      36.403  16.399   6.468  0.00  0.00    -0.637 OA
ATOM     47  OAC N1Z d   1      37.233  15.301   8.614  0.00  0.00    -0.637 OA
ENDBRANCH  37  44
ENDBRANCH  34  37
ENDBRANCH  30  34
ENDBRANCH   1  26
TORSDOF 13
