REMARK  6 active torsions:
REMARK  status: ('A' for Active; 'I' for Inactive)
REMARK    1  A    between atoms: C4_5  and  N2_6 
REMARK    2  A    between atoms: C8_11  and  C9_12 
REMARK    3  A    between atoms: C14_18  and  C15_19 
REMARK       I    between atoms: C15_19  and  N4_21 
REMARK    4  A    between atoms: N4_21  and  C16_22 
REMARK    5  A    between atoms: C24_32  and  C25_33 
REMARK    6  A    between atoms: C24_32  and  C26_34 
ROOT
ATOM      1  C15 2GU d   1      -5.362  41.883  26.872  0.00  0.00     0.259 C 
ATOM      2  O1  2GU d   1      -4.702  40.949  26.415  0.00  0.00    -0.267 OA
ATOM      3  N4  2GU d   1      -4.803  42.908  27.590  0.00  0.00    -0.323 N 
ATOM      4  H10 2GU d   1      -5.362  43.688  27.871  0.00  0.00     0.169 HD
ENDROOT
BRANCH   1   5
ATOM      5  C14 2GU d   1      -6.825  42.117  26.771  0.00  0.00     0.071 A 
ATOM      6  C10 2GU d   1      -7.645  40.938  26.783  0.00  0.00    -0.054 A 
ATOM      7  C9  2GU d   1      -9.087  41.046  26.725  0.00  0.00    -0.025 A 
ATOM      8  H7  2GU d   1      -7.180  39.960  26.836  0.00  0.00     0.086 H 
ATOM      9  C11 2GU d   1      -9.663  42.376  26.649  0.00  0.00    -0.069 A 
ATOM     10  C12 2GU d   1      -8.896  43.580  26.634  0.00  0.00    -0.044 A 
ATOM     11  H8  2GU d   1     -10.743  42.460  26.601  0.00  0.00     0.085 H 
ATOM     12  C13 2GU d   1      -7.485  43.441  26.693  0.00  0.00     0.132 A 
ATOM     13  H9  2GU d   1      -9.369  44.554  26.580  0.00  0.00     0.088 H 
ATOM     14  F1  2GU d   1      -6.909  44.637  26.644  0.00  0.00    -0.205 F 
BRANCH   7  15
ATOM     15  C8  2GU d   1      -9.915  39.796  26.801  0.00  0.00    -0.025 A 
ATOM     16  C1  2GU d   1     -11.059  39.761  27.734  0.00  0.00    -0.059 A 
ATOM     17  C2  2GU d   1     -11.895  38.599  27.918  0.00  0.00     0.012 A 
ATOM     18  H1  2GU d   1     -11.282  40.652  28.309  0.00  0.00     0.086 H 
ATOM     19  C3  2GU d   1     -12.999  38.564  28.799  0.00  0.00     0.033 A 
ATOM     20  C5  2GU d   1     -11.553  37.334  27.128  0.00  0.00     0.087 A 
ATOM     21  N1  2GU d   1     -13.739  37.401  28.892  0.00  0.00    -0.075 NA
ATOM     22  H2  2GU d   1     -13.261  39.434  29.391  0.00  0.00     0.117 H 
ATOM     23  C4  2GU d   1     -13.390  36.252  28.146  0.00  0.00     0.720 A 
ATOM     24  N3  2GU d   1     -12.330  36.219  27.273  0.00  0.00    -0.063 NA
ATOM     25  C6  2GU d   1     -10.437  37.351  26.198  0.00  0.00    -0.053 A 
ATOM     26  C7  2GU d   1      -9.623  38.558  26.037  0.00  0.00    -0.070 A 
ATOM     27  H5  2GU d   1     -10.205  36.464  25.619  0.00  0.00     0.087 H 
ATOM     28  H6  2GU d   1      -8.789  38.547  25.345  0.00  0.00     0.084 H 
BRANCH  23  29
ATOM     29  N2  2GU d   1     -14.040  35.067  28.193  0.00  0.00    -0.231 N 
ATOM     30  H3  2GU d   1     -14.857  34.952  28.809  0.00  0.00     0.174 HD
ATOM     31  H4  2GU d   1     -13.718  34.279  27.613  0.00  0.00     0.174 HD
ENDBRANCH  23  29
ENDBRANCH   7  15
ENDBRANCH   1   5
BRANCH   3  32
ATOM     32  C16 2GU d   1      -3.501  42.860  27.914  0.00  0.00     0.037 A 
ATOM     33  C17 2GU d   1      -3.050  41.824  28.792  0.00  0.00    -0.031 A 
ATOM     34  C21 2GU d   1      -1.660  41.754  29.064  0.00  0.00     0.044 A 
ATOM     35  H11 2GU d   1      -3.745  41.119  29.233  0.00  0.00     0.090 H 
ATOM     36  C20 2GU d   1      -0.731  42.689  28.492  0.00  0.00    -0.023 A 
ATOM     37  N5  2GU d   1      -1.231  40.763  29.849  0.00  0.00    -0.327 N 
ATOM     38  C19 2GU d   1      -1.209  43.760  27.590  0.00  0.00    -0.072 A 
ATOM     39  C24 2GU d   1       0.768  42.539  28.859  0.00  0.00    -0.010 C 
ATOM     40  C18 2GU d   1      -2.633  43.818  27.318  0.00  0.00    -0.057 A 
ATOM     41  H13 2GU d   1      -0.522  44.474  27.149  0.00  0.00     0.084 H 
ATOM     42  H12 2GU d   1      -3.033  44.586  26.665  0.00  0.00     0.086 H 
ATOM     43  C23 2GU d   1       1.119  41.056  29.263  0.00  0.00     0.020 C 
ATOM     44  C22 2GU d   1       0.033  40.251  29.906  0.00  0.00     0.223 C 
ATOM     45  H15 2GU d   1       1.427  40.527  28.349  0.00  0.00     0.048 H 
ATOM     46  H16 2GU d   1       1.964  41.095  29.966  0.00  0.00     0.048 H 
ATOM     47  O2  2GU d   1       0.206  39.223  30.473  0.00  0.00    -0.273 OA
ATOM     48  H14 2GU d   1      -1.908  40.352  30.460  0.00  0.00     0.169 HD
BRANCH  39  49
ATOM     49  C25 2GU d   1       1.079  43.572  30.013  0.00  0.00    -0.065 C 
ATOM     50  H17 2GU d   1       0.816  44.586  29.678  0.00  0.00     0.028 H 
ATOM     51  H18 2GU d   1       2.150  43.534  30.261  0.00  0.00     0.028 H 
ATOM     52  H19 2GU d   1       0.487  43.316  30.904  0.00  0.00     0.028 H 
ENDBRANCH  39  49
BRANCH  39  53
ATOM     53  C26 2GU d   1       1.651  42.776  27.581  0.00  0.00    -0.065 C 
ATOM     54  H20 2GU d   1       1.393  42.031  26.814  0.00  0.00     0.028 H 
ATOM     55  H21 2GU d   1       2.714  42.676  27.846  0.00  0.00     0.028 H 
ATOM     56  H22 2GU d   1       1.464  43.786  27.189  0.00  0.00     0.028 H 
ENDBRANCH  39  53
ENDBRANCH   3  32
TORSDOF 6
