REMARK  29 active torsions:
REMARK  status: ('A' for Active; 'I' for Inactive)
REMARK    1  A    between atoms: CA_2  and  N_1 
REMARK    2  A    between atoms: C_3  and  CA_2 
REMARK    3  A    between atoms: CA_2  and  CB_5 
REMARK       I    between atoms: N_12  and  C_3 
REMARK    4  A    between atoms: CB_5  and  CG_6 
REMARK    5  A    between atoms: CG_6  and  CD_7 
REMARK    6  A    between atoms: CD_7  and  NE_8 
REMARK       I    between atoms: NE_8  and  CZ_9 
REMARK       I    between atoms: CZ_9  and  NH1_10 
REMARK       I    between atoms: CZ_9  and  NH2_11 
REMARK    7  A    between atoms: CA_13  and  N_12 
REMARK    8  A    between atoms: C_14  and  CA_13 
REMARK    9  A    between atoms: CA_13  and  CB_16 
REMARK       I    between atoms: N_22  and  C_14 
REMARK   10  A    between atoms: CB_16  and  CG_17 
REMARK   11  A    between atoms: CA_23  and  N_22 
REMARK   12  A    between atoms: C_24  and  CA_23 
REMARK   13  A    between atoms: CA_23  and  CB_26 
REMARK       I    between atoms: N_42  and  C_24 
REMARK   14  A    between atoms: CB_26  and  CG_27 
REMARK   15  A    between atoms: CG_27  and  CD_28 
REMARK   16  A    between atoms: CD_28  and  NE_29 
REMARK       I    between atoms: NE_29  and  CZ_30 
REMARK       I    between atoms: CZ_30  and  NH1_31 
REMARK   17  A    between atoms: CH_34  and  CH3_35 
REMARK       I    between atoms: NZ_36  and  CH_34 
REMARK   18  A    between atoms: CE_37  and  NZ_36 
REMARK   19  A    between atoms: CD_38  and  CE_37 
REMARK   20  A    between atoms: CG_39  and  CD_38 
REMARK   21  A    between atoms: CB_40  and  CG_39 
REMARK   22  A    between atoms: CA_41  and  CB_40 
REMARK   23  A    between atoms: CA_41  and  N_42 
REMARK   24  A    between atoms: CA_41  and  C_43 
REMARK       I    between atoms: C_43  and  N_45 
REMARK   25  A    between atoms: N_45  and  CA_46 
REMARK   26  A    between atoms: CA_46  and  C_47 
REMARK   27  A    between atoms: CA_46  and  CB_49 
REMARK   28  A    between atoms: CB_49  and  CG1_50 
REMARK   29  A    between atoms: CB_49  and  CG2_51 
ROOT
ATOM      1  CA  ARG d   1      28.031  18.762   8.851  0.00  0.00     0.089 C 
ATOM      2  H   ARG d   1      27.353  17.912   8.685  0.00  0.00     0.087 H 
ENDROOT
BRANCH   1   3
ATOM      3  N   ARG d   1      27.263  19.981   9.094  0.00  0.00    -0.346 N 
ATOM      4  C   HIS d   1      25.978  20.095   8.774  0.00  0.00     0.241 C 
ATOM      5  O   HIS d   1      25.328  19.220   8.221  0.00  0.00    -0.271 OA
ATOM      6  H   ARG d   1      27.723  20.761   9.518  0.00  0.00     0.163 HD
BRANCH   4   7
ATOM      7  CA  HIS d   1      25.338  21.431   9.080  0.00  0.00     0.094 C 
ATOM      8  H   HIS d   1      25.996  22.191   8.633  0.00  0.00     0.088 H 
BRANCH   7   9
ATOM      9  N   HIS d   1      24.025  21.589   8.471  0.00  0.00    -0.346 N 
ATOM     10  C   ARG d   1      23.938  21.924   7.205  0.00  0.00     0.249 C 
ATOM     11  O   ARG d   1      24.913  21.913   6.476  0.00  0.00    -0.271 OA
ATOM     12  H   HIS d   1      23.197  21.444   9.012  0.00  0.00     0.163 HD
BRANCH  10  13
ATOM     13  CA  ARG d   1      22.560  22.312   6.694  0.00  0.00     0.176 C 
ATOM     14  H   ARG d   1      21.886  22.422   7.556  0.00  0.00     0.099 H 
BRANCH  13  15
ATOM     15  N   ARG d   1      22.582  23.625   5.963  0.00  0.00    -0.067 N 
ATOM     16  H   ARG d   1      21.653  23.846   5.641  0.00  0.00     0.275 HD
ATOM     17  H   ARG d   1      23.204  23.559   5.173  0.00  0.00     0.275 HD
ATOM     18  H   ARG d   1      22.904  24.350   6.585  0.00  0.00     0.275 HD
ENDBRANCH  13  15
BRANCH  13  19
ATOM     19  CB  ARG d   1      22.050  21.173   5.828  0.00  0.00    -0.029 C 
ATOM     20  H   ARG d   1      22.843  20.865   5.131  0.00  0.00     0.036 H 
ATOM     21  H   ARG d   1      21.174  21.515   5.258  0.00  0.00     0.036 H 
BRANCH  19  22
ATOM     22  CG  ARG d   1      21.652  19.982   6.694  0.00  0.00    -0.047 C 
ATOM     23  H   ARG d   1      20.561  20.002   6.831  0.00  0.00     0.035 H 
ATOM     24  H   ARG d   1      22.146  20.083   7.671  0.00  0.00     0.035 H 
BRANCH  22  25
ATOM     25  CD  ARG d   1      22.035  18.644   6.101  0.00  0.00     0.009 C 
ATOM     26  H   ARG d   1      23.053  18.384   6.428  0.00  0.00     0.064 H 
ATOM     27  H   ARG d   1      22.009  18.716   5.004  0.00  0.00     0.064 H 
BRANCH  25  28
ATOM     28  NE  ARG d   1      21.111  17.595   6.533  0.00  0.00    -0.227 N 
ATOM     29  CZ  ARG d   1      20.959  16.426   5.915  0.00  0.00     0.665 C 
ATOM     30  NH1 ARG d   1      21.687  16.126   4.836  0.00  0.00    -0.235 N 
ATOM     31  NH2 ARG d   1      20.079  15.543   6.377  0.00  0.00    -0.235 N 
ATOM     32  H   ARG d   1      21.561  15.218   4.366  0.00  0.00     0.174 HD
ATOM     33  H   ARG d   1      22.374  16.802   4.474  0.00  0.00     0.174 HD
ATOM     34  H   ARG d   1      19.514  15.766   7.208  0.00  0.00     0.174 HD
ATOM     35  H   ARG d   1      19.963  14.636   5.904  0.00  0.00     0.174 HD
ATOM     36  H   ARG d   1      20.540  17.773   7.372  0.00  0.00     0.177 HD
ENDBRANCH  25  28
ENDBRANCH  22  25
ENDBRANCH  19  22
ENDBRANCH  13  19
ENDBRANCH  10  13
ENDBRANCH   7   9
BRANCH   7  37
ATOM     37  CB  HIS d   1      25.233  21.756  10.555  0.00  0.00     0.004 C 
ATOM     38  H   HIS d   1      26.167  21.461  11.055  0.00  0.00     0.046 H 
ATOM     39  H   HIS d   1      24.392  21.194  10.987  0.00  0.00     0.046 H 
BRANCH  37  40
ATOM     40  CG  HIS d   1      25.006  23.212  10.771  0.00  0.00     0.053 A 
ATOM     41  ND1 HIS d   1      23.791  23.811  10.517  0.00  0.00    -0.247 NA
ATOM     42  CE1 HIS d   1      23.898  25.109  10.719  0.00  0.00     0.064 A 
ATOM     43  NE2 HIS d   1      25.143  25.376  11.082  0.00  0.00    -0.359 N 
ATOM     44  H   HIS d   1      23.098  25.839  10.606  0.00  0.00     0.143 H 
ATOM     45  CD2 HIS d   1      25.865  24.209  11.096  0.00  0.00     0.002 A 
ATOM     46  H   HIS d   1      25.511  26.309  11.316  0.00  0.00     0.166 HD
ATOM     47  H   HIS d   1      26.925  24.104  11.324  0.00  0.00     0.114 H 
ENDBRANCH  37  40
ENDBRANCH   7  37
ENDBRANCH   4   7
ENDBRANCH   1   3
BRANCH   1  48
ATOM     48  C   ARG d   1      28.868  18.542  10.074  0.00  0.00     0.241 C 
ATOM     49  O   ARG d   1      29.249  19.515  10.730  0.00  0.00    -0.271 OA
ATOM     50  N   ALY d   1      29.264  17.297  10.318  0.00  0.00    -0.346 N 
ATOM     51  H   ALY d   1      29.027  16.557   9.688  0.00  0.00     0.163 HD
BRANCH  50  52
ATOM     52  CA  ALY d   1      30.050  17.024  11.518  0.00  0.00     0.089 C 
ATOM     53  H   ALY d   1      29.542  17.492  12.374  0.00  0.00     0.087 H 
BRANCH  52  54
ATOM     54  CB  ALY d   1      30.136  15.521  11.777  0.00  0.00    -0.038 C 
ATOM     55  H   ALY d   1      30.333  14.978  10.841  0.00  0.00     0.036 H 
ATOM     56  H   ALY d   1      30.931  15.299  12.504  0.00  0.00     0.036 H 
BRANCH  54  57
ATOM     57  CG  ALY d   1      28.749  15.132  12.351  0.00  0.00    -0.061 C 
ATOM     58  H   ALY d   1      28.470  15.855  13.132  0.00  0.00     0.033 H 
ATOM     59  H   ALY d   1      28.006  15.163  11.541  0.00  0.00     0.033 H 
BRANCH  57  60
ATOM     60  CD  ALY d   1      28.765  13.743  12.950  0.00  0.00    -0.050 C 
ATOM     61  H   ALY d   1      29.148  13.044  12.192  0.00  0.00     0.035 H 
ATOM     62  H   ALY d   1      29.441  13.749  13.818  0.00  0.00     0.035 H 
BRANCH  60  63
ATOM     63  CE  ALY d   1      27.397  13.247  13.411  0.00  0.00    -0.005 C 
ATOM     64  H   ALY d   1      27.056  13.841  14.272  0.00  0.00     0.064 H 
ATOM     65  H   ALY d   1      26.670  13.340  12.590  0.00  0.00     0.064 H 
BRANCH  63  66
ATOM     66  NZ  ALY d   1      27.532  11.840  13.799  0.00  0.00    -0.361 N 
ATOM     67  CH  ALY d   1      26.743  10.880  13.371  0.00  0.00     0.213 C 
ATOM     68  OH  ALY d   1      25.857  11.092  12.562  0.00  0.00    -0.274 OA
ATOM     69  H   ALY d   1      28.270  11.595  14.428  0.00  0.00     0.162 HD
BRANCH  67  70
ATOM     70  CH3 ALY d   1      27.028   9.536  13.929  0.00  0.00    -0.003 C 
ATOM     71  H   ALY d   1      27.869   9.603  14.635  0.00  0.00     0.040 H 
ATOM     72  H   ALY d   1      27.289   8.847  13.112  0.00  0.00     0.040 H 
ATOM     73  H   ALY d   1      26.137   9.161  14.455  0.00  0.00     0.040 H 
ENDBRANCH  67  70
ENDBRANCH  63  66
ENDBRANCH  60  63
ENDBRANCH  57  60
ENDBRANCH  54  57
ENDBRANCH  52  54
BRANCH  52  74
ATOM     74  C   ALY d   1      31.431  17.624  11.405  0.00  0.00     0.241 C 
ATOM     75  O   ALY d   1      32.181  17.323  10.507  0.00  0.00    -0.271 OA
ATOM     76  N   VAL d   1      31.768  18.440  12.382  0.00  0.00    -0.344 N 
ATOM     77  H   VAL d   1      31.239  18.417  13.231  0.00  0.00     0.163 HD
BRANCH  76  78
ATOM     78  CA  VAL d   1      32.866  19.363  12.277  0.00  0.00     0.099 C 
ATOM     79  H   VAL d   1      33.180  19.474  11.229  0.00  0.00     0.090 H 
BRANCH  78  80
ATOM     80  C   VAL d   1      33.979  18.781  13.104  0.00  0.00     0.197 C 
ATOM     81  O   VAL d   1      33.726  18.399  14.239  0.00  0.00    -0.646 OA
ATOM     82  O1  VAL d   1      35.146  18.689  12.639  0.00  0.00    -0.646 OA
ENDBRANCH  78  80
BRANCH  78  83
ATOM     83  CB  VAL d   1      32.452  20.741  12.850  0.00  0.00    -0.032 C 
ATOM     84  H   VAL d   1      32.487  20.679  13.948  0.00  0.00     0.042 H 
BRANCH  83  85
ATOM     85  CG1 VAL d   1      33.422  21.810  12.404  0.00  0.00    -0.071 C 
ATOM     86  H   VAL d   1      33.114  22.781  12.819  0.00  0.00     0.028 H 
ATOM     87  H   VAL d   1      33.427  21.866  11.305  0.00  0.00     0.028 H 
ATOM     88  H   VAL d   1      34.432  21.562  12.763  0.00  0.00     0.028 H 
ENDBRANCH  83  85
BRANCH  83  89
ATOM     89  CG2 VAL d   1      31.021  21.112  12.439  0.00  0.00    -0.071 C 
ATOM     90  H   VAL d   1      30.328  20.324  12.771  0.00  0.00     0.028 H 
ATOM     91  H   VAL d   1      30.968  21.210  11.345  0.00  0.00     0.028 H 
ATOM     92  H   VAL d   1      30.741  22.067  12.907  0.00  0.00     0.028 H 
ENDBRANCH  83  89
ENDBRANCH  78  83
ENDBRANCH  76  78
ENDBRANCH  52  74
ENDBRANCH  50  52
ENDBRANCH   1  48
BRANCH   1  93
ATOM     93  CB  ARG d   1      28.958  18.924   7.649  0.00  0.00    -0.036 C 
ATOM     94  H   ARG d   1      28.463  19.568   6.907  0.00  0.00     0.036 H 
ATOM     95  H   ARG d   1      29.142  17.932   7.210  0.00  0.00     0.036 H 
BRANCH  93  96
ATOM     96  CG  ARG d   1      30.296  19.548   8.021  0.00  0.00    -0.048 C 
ATOM     97  H   ARG d   1      30.983  18.733   8.292  0.00  0.00     0.035 H 
ATOM     98  H   ARG d   1      30.133  20.196   8.895  0.00  0.00     0.035 H 
BRANCH  96  99
ATOM     99  CD  ARG d   1      30.965  20.378   6.949  0.00  0.00     0.009 C 
ATOM    100  H   ARG d   1      31.426  21.255   7.426  0.00  0.00     0.064 H 
ATOM    101  H   ARG d   1      30.196  20.710   6.236  0.00  0.00     0.064 H 
BRANCH  99 102
ATOM    102  NE  ARG d   1      31.999  19.657   6.210  0.00  0.00    -0.227 N 
ATOM    103  CZ  ARG d   1      33.145  19.208   6.722  0.00  0.00     0.665 C 
ATOM    104  NH1 ARG d   1      33.437  19.359   8.011  0.00  0.00    -0.235 N 
ATOM    105  NH2 ARG d   1      34.005  18.578   5.933  0.00  0.00    -0.235 N 
ATOM    106  H   ARG d   1      34.330  19.003   8.382  0.00  0.00     0.174 HD
ATOM    107  H   ARG d   1      32.771  19.832   8.638  0.00  0.00     0.174 HD
ATOM    108  H   ARG d   1      33.791  18.454   4.933  0.00  0.00     0.174 HD
ATOM    109  H   ARG d   1      34.887  18.212   6.320  0.00  0.00     0.174 HD
ATOM    110  H   ARG d   1      31.828  19.481   5.210  0.00  0.00     0.177 HD
ENDBRANCH  99 102
ENDBRANCH  96  99
ENDBRANCH  93  96
ENDBRANCH   1  93
TORSDOF 29
