REMARK  9 active torsions:
REMARK  status: ('A' for Active; 'I' for Inactive)
REMARK    1  A    between atoms: CAL_1  and  CAK_2 
REMARK    2  A    between atoms: CAK_2  and  CAM_3 
REMARK    3  A    between atoms: CAK_2  and  NAG_4 
REMARK    4  A    between atoms: C6_10  and  NAJ_11 
REMARK    5  A    between atoms: CAI_13  and  CAN_14 
REMARK    6  A    between atoms: CAP_17  and  CAX_18 
REMARK    7  A    between atoms: CAU_24  and  OAY_25 
REMARK    8  A    between atoms: OAY_25  and  CAZ_26 
REMARK    9  A    between atoms: CAZ_26  and  CBA_27 
ROOT
ATOM      1  CAN 2H1 d   1     -12.456  17.549  -1.633  0.00  0.00    -0.003 A 
ATOM      2  CAS 2H1 d   1     -12.657  18.929  -1.648  0.00  0.00    -0.059 A 
ATOM      3  CAO 2H1 d   1     -11.154  17.050  -1.719  0.00  0.00    -0.063 A 
ATOM      4  CAP 2H1 d   1     -10.070  17.911  -1.856  0.00  0.00    -0.031 A 
ATOM      5  CAQ 2H1 d   1     -10.286  19.292  -1.895  0.00  0.00     0.075 A 
ATOM      6  NAT 2H1 d   1      -9.247  20.138  -2.036  0.00  0.00    -0.224 NA
ATOM      7  CAR 2H1 d   1     -11.585  19.798  -1.794  0.00  0.00    -0.006 A 
ATOM      8  CAW 2H1 d   1     -11.810  21.173  -1.829  0.00  0.00    -0.067 A 
ATOM      9  CAV 2H1 d   1     -10.716  22.025  -1.968  0.00  0.00    -0.031 A 
ATOM     10  CAU 2H1 d   1      -9.423  21.484  -2.070  0.00  0.00     0.165 A 
ATOM     11  H   2H1 d   1     -13.660  19.327  -1.545  0.00  0.00     0.086 H 
ATOM     12  H   2H1 d   1     -10.986  15.980  -1.679  0.00  0.00     0.085 H 
ATOM     13  H   2H1 d   1     -12.815  21.571  -1.750  0.00  0.00     0.085 H 
ATOM     14  H   2H1 d   1     -10.861  23.099  -1.997  0.00  0.00     0.090 H 
ENDROOT
BRANCH   1  15
ATOM     15  CAI 2H1 d   1     -13.500  16.724  -1.467  0.00  0.00     0.105 A 
ATOM     16  NAH 2H1 d   1     -13.479  15.777  -0.536  0.00  0.00    -0.169 NA
ATOM     17  NAG 2H1 d   1     -14.534  15.173  -0.561  0.00  0.00    -0.247 N 
ATOM     18  C4  2H1 d   1     -15.340  15.676  -1.494  0.00  0.00     0.164 A 
ATOM     19  N3  2H1 d   1     -16.586  15.313  -1.839  0.00  0.00    -0.222 NA
ATOM     20  C5  2H1 d   1     -14.697  16.697  -2.093  0.00  0.00     0.088 A 
ATOM     21  C2  2H1 d   1     -17.235  15.992  -2.850  0.00  0.00     0.091 A 
ATOM     22  N1  2H1 d   1     -16.567  17.039  -3.477  0.00  0.00    -0.224 NA
ATOM     23  H   2H1 d   1     -18.240  15.716  -3.148  0.00  0.00     0.146 H 
ATOM     24  C6  2H1 d   1     -15.325  17.375  -3.079  0.00  0.00     0.139 A 
BRANCH  17  25
ATOM     25  CAK 2H1 d   1     -14.923  14.057   0.287  0.00  0.00     0.029 C 
ATOM     26  H   2H1 d   1     -15.979  13.814   0.101  0.00  0.00     0.074 H 
BRANCH  25  27
ATOM     27  CAL 2H1 d   1     -14.755  14.455   1.748  0.00  0.00    -0.056 C 
ATOM     28  H   2H1 d   1     -15.048  13.614   2.393  0.00  0.00     0.030 H 
ATOM     29  H   2H1 d   1     -15.392  15.324   1.967  0.00  0.00     0.030 H 
ATOM     30  H   2H1 d   1     -13.703  14.714   1.939  0.00  0.00     0.030 H 
ENDBRANCH  25  27
BRANCH  25  31
ATOM     31  CAM 2H1 d   1     -14.065  12.826  -0.040  0.00  0.00    -0.056 C 
ATOM     32  H   2H1 d   1     -14.200  12.555  -1.098  0.00  0.00     0.030 H 
ATOM     33  H   2H1 d   1     -14.374  11.984   0.597  0.00  0.00     0.030 H 
ATOM     34  H   2H1 d   1     -13.006  13.057   0.147  0.00  0.00     0.030 H 
ENDBRANCH  25  31
ENDBRANCH  17  25
BRANCH  24  35
ATOM     35  NAJ 2H1 d   1     -14.688  18.361  -3.715  0.00  0.00    -0.383 N 
ATOM     36  H   2H1 d   1     -13.738  18.632  -3.425  0.00  0.00     0.157 HD
ATOM     37  H   2H1 d   1     -15.147  18.851  -4.496  0.00  0.00     0.157 HD
ENDBRANCH  24  35
ENDBRANCH   1  15
BRANCH   4  38
ATOM     38  CAX 2H1 d   1      -8.773  17.389  -1.963  0.00  0.00    -0.049 C 
ATOM     39  H   2H1 d   1      -8.814  16.291  -1.911  0.00  0.00     0.033 H 
ATOM     40  H   2H1 d   1      -8.154  17.772  -1.138  0.00  0.00     0.033 H 
ATOM     41  H   2H1 d   1      -8.333  17.694  -2.924  0.00  0.00     0.033 H 
ENDBRANCH   4  38
BRANCH  10  42
ATOM     42  OAY 2H1 d   1      -8.346  22.324  -2.213  0.00  0.00    -0.330 OA
BRANCH  42  43
ATOM     43  CAZ 2H1 d   1      -7.141  21.630  -2.559  0.00  0.00     0.051 C 
ATOM     44  H   2H1 d   1      -6.860  21.849  -3.600  0.00  0.00     0.082 H 
ATOM     45  H   2H1 d   1      -7.277  20.545  -2.436  0.00  0.00     0.082 H 
BRANCH  43  46
ATOM     46  CBA 2H1 d   1      -6.153  22.101  -1.677  0.00  0.00    -0.034 A 
ATOM     47  CBB 2H1 d   1      -5.687  23.410  -1.780  0.00  0.00    -0.075 A 
ATOM     48  CBC 2H1 d   1      -4.705  23.872  -0.910  0.00  0.00    -0.082 A 
ATOM     49  H   2H1 d   1      -6.090  24.070  -2.540  0.00  0.00     0.084 H 
ATOM     50  CBD 2H1 d   1      -4.183  23.037   0.071  0.00  0.00    -0.083 A 
ATOM     51  H   2H1 d   1      -4.344  24.890  -0.998  0.00  0.00     0.083 H 
ATOM     52  CBE 2H1 d   1      -4.642  21.733   0.185  0.00  0.00    -0.082 A 
ATOM     53  H   2H1 d   1      -3.418  23.404   0.746  0.00  0.00     0.083 H 
ATOM     54  CBF 2H1 d   1      -5.620  21.268  -0.689  0.00  0.00    -0.075 A 
ATOM     55  H   2H1 d   1      -4.241  21.079   0.951  0.00  0.00     0.083 H 
ATOM     56  H   2H1 d   1      -5.973  20.247  -0.603  0.00  0.00     0.084 H 
ENDBRANCH  43  46
ENDBRANCH  42  43
ENDBRANCH  10  42
TORSDOF 9
