REMARK  5 active torsions:
REMARK  status: ('A' for Active; 'I' for Inactive)
REMARK    1  A    between atoms: C7_7  and  C17_6 
REMARK    2  A    between atoms: C8_8  and  C9_9 
REMARK    3  A    between atoms: C8_8  and  C10_10 
REMARK    4  A    between atoms: C1_21  and  C5_19 
REMARK    5  A    between atoms: C6_32  and  C24_23 
ROOT
ATOM      1  C7  2GV d   1      -6.172  45.068  26.914  0.00  0.00     0.077 C 
ATOM      2  C8  2GV d   1      -4.991  45.546  26.154  0.00  0.00     0.090 C 
ATOM      3  O1  2GV d   1      -3.998  44.389  26.620  0.00  0.00    -0.291 OA
ATOM      4  C11 2GV d   1      -4.688  43.196  26.896  0.00  0.00     0.369 C 
ATOM      5  O2  2GV d   1      -4.001  42.194  27.007  0.00  0.00    -0.238 OA
ATOM      6  N2  2GV d   1      -6.019  43.577  26.971  0.00  0.00    -0.282 N 
ATOM      7  C18 2GV d   1      -8.345  43.095  26.728  0.00  0.00    -0.056 A 
ATOM      8  C19 2GV d   1      -6.990  42.703  27.071  0.00  0.00     0.040 A 
ATOM      9  C20 2GV d   1      -6.587  41.387  27.528  0.00  0.00    -0.056 A 
ATOM     10  C21 2GV d   1      -7.543  40.398  27.655  0.00  0.00    -0.070 A 
ATOM     11  C5  2GV d   1      -8.929  40.731  27.316  0.00  0.00    -0.024 A 
ATOM     12  C22 2GV d   1      -9.327  42.075  26.859  0.00  0.00    -0.070 A 
ATOM     13  H6  2GV d   1      -7.091  45.333  26.370  0.00  0.00     0.086 H 
ATOM     14  H13 2GV d   1      -8.591  44.097  26.395  0.00  0.00     0.087 H 
ATOM     15  H14 2GV d   1      -5.550  41.182  27.767  0.00  0.00     0.087 H 
ATOM     16  H15 2GV d   1      -7.276  39.404  27.996  0.00  0.00     0.084 H 
ATOM     17  H16 2GV d   1     -10.364  42.285  26.624  0.00  0.00     0.084 H 
ENDROOT
BRANCH   1  18
ATOM     18  C17 2GV d   1      -6.256  45.630  28.273  0.00  0.00    -0.032 A 
ATOM     19  C12 2GV d   1      -7.295  46.632  28.424  0.00  0.00    -0.075 A 
ATOM     20  C13 2GV d   1      -7.484  47.232  29.722  0.00  0.00    -0.082 A 
ATOM     21  H1  2GV d   1      -7.913  46.922  27.582  0.00  0.00     0.084 H 
ATOM     22  C14 2GV d   1      -6.619  46.799  30.823  0.00  0.00    -0.083 A 
ATOM     23  H2  2GV d   1      -8.248  47.985  29.879  0.00  0.00     0.083 H 
ATOM     24  C15 2GV d   1      -5.565  45.791  30.686  0.00  0.00    -0.082 A 
ATOM     25  H3  2GV d   1      -6.768  47.252  31.797  0.00  0.00     0.083 H 
ATOM     26  C16 2GV d   1      -5.384  45.201  29.390  0.00  0.00    -0.075 A 
ATOM     27  H4  2GV d   1      -4.947  45.502  31.529  0.00  0.00     0.083 H 
ATOM     28  H5  2GV d   1      -4.618  44.450  29.231  0.00  0.00     0.084 H 
ENDBRANCH   1  18
BRANCH   2  29
ATOM     29  C9  2GV d   1      -4.293  46.849  26.412  0.00  0.00    -0.045 C 
ATOM     30  H7  2GV d   1      -3.452  46.959  25.712  0.00  0.00     0.031 H 
ATOM     31  H8  2GV d   1      -3.914  46.864  27.445  0.00  0.00     0.031 H 
ATOM     32  H9  2GV d   1      -5.001  47.679  26.269  0.00  0.00     0.031 H 
ENDBRANCH   2  29
BRANCH   2  33
ATOM     33  C10 2GV d   1      -5.280  45.435  24.697  0.00  0.00    -0.045 C 
ATOM     34  H10 2GV d   1      -5.792  44.482  24.496  0.00  0.00     0.031 H 
ATOM     35  H11 2GV d   1      -4.337  45.470  24.132  0.00  0.00     0.031 H 
ATOM     36  H12 2GV d   1      -5.925  46.270  24.386  0.00  0.00     0.031 H 
ENDBRANCH   2  33
BRANCH  11  37
ATOM     37  C1  2GV d   1      -9.853  39.609  27.428  0.00  0.00    -0.007 A 
ATOM     38  C23 2GV d   1     -11.032  39.772  28.210  0.00  0.00    -0.053 A 
ATOM     39  C24 2GV d   1     -11.961  38.720  28.419  0.00  0.00     0.058 A 
ATOM     40  H17 2GV d   1     -11.227  40.737  28.663  0.00  0.00     0.086 H 
ATOM     41  C25 2GV d   1     -11.598  37.456  27.778  0.00  0.00     0.135 A 
ATOM     42  N3  2GV d   1     -10.459  37.311  27.012  0.00  0.00    -0.242 NA
ATOM     43  N4  2GV d   1     -12.259  36.312  27.889  0.00  0.00    -0.383 N 
ATOM     44  C26 2GV d   1      -9.563  38.314  26.789  0.00  0.00     0.015 A 
ATOM     45  H18 2GV d   1      -8.683  38.166  26.174  0.00  0.00     0.116 H 
ATOM     46  H22 2GV d   1     -11.922  35.473  27.396  0.00  0.00     0.157 HD
ATOM     47  H23 2GV d   1     -13.110  36.263  28.468  0.00  0.00     0.157 HD
BRANCH  39  48
ATOM     48  C6  2GV d   1     -13.195  39.069  29.134  0.00  0.00     0.162 A 
ATOM     49  N1  2GV d   1     -13.421  40.320  29.814  0.00  0.00    -0.241 NA
ATOM     50  C2  2GV d   1     -14.624  40.611  30.424  0.00  0.00     0.006 A 
ATOM     51  C3  2GV d   1     -15.728  39.659  30.416  0.00  0.00    -0.049 A 
ATOM     52  H19 2GV d   1     -14.751  41.567  30.919  0.00  0.00     0.114 H 
ATOM     53  C4  2GV d   1     -15.483  38.397  29.725  0.00  0.00     0.006 A 
ATOM     54  H20 2GV d   1     -16.676  39.876  30.895  0.00  0.00     0.087 H 
ATOM     55  N5  2GV d   1     -14.265  38.139  29.121  0.00  0.00    -0.241 NA
ATOM     56  H21 2GV d   1     -16.267  37.650  29.684  0.00  0.00     0.114 H 
ENDBRANCH  39  48
ENDBRANCH  11  37
TORSDOF 5
