REMARK  7 active torsions:
REMARK  status: ('A' for Active; 'I' for Inactive)
REMARK    1  A    between atoms: C13_7  and  C12_6 
REMARK    2  A    between atoms: C14_8  and  C15_9 
REMARK    3  A    between atoms: C14_8  and  C16_10 
REMARK    4  A    between atoms: C17_15  and  N2_14 
REMARK    5  A    between atoms: C1_21  and  C20_18 
REMARK    6  A    between atoms: C6_32  and  C24_23 
REMARK    7  A    between atoms: C25_24  and  N4_33 
ROOT
ATOM      1  C17 2GY d   1      -6.108  42.455  26.886  0.00  0.00     0.018 C 
ATOM      2  C18 2GY d   1      -6.427  42.041  28.325  0.00  0.00    -0.045 C 
ATOM      3  C19 2GY d   1      -7.585  41.118  28.408  0.00  0.00    -0.056 C 
ATOM      4  C20 2GY d   1      -8.625  41.264  27.292  0.00  0.00    -0.027 C 
ATOM      5  C21 2GY d   1      -8.345  41.855  25.910  0.00  0.00    -0.056 C 
ATOM      6  C22 2GY d   1      -7.201  42.823  25.878  0.00  0.00    -0.045 C 
ATOM      7  H13 2GY d   1      -5.532  41.625  26.452  0.00  0.00     0.072 H 
ATOM      8  H14 2GY d   1      -6.654  42.945  28.910  0.00  0.00     0.036 H 
ATOM      9  H15 2GY d   1      -5.545  41.540  28.751  0.00  0.00     0.036 H 
ATOM     10  H16 2GY d   1      -8.091  41.295  29.369  0.00  0.00     0.034 H 
ATOM     11  H17 2GY d   1      -7.200  40.088  28.380  0.00  0.00     0.034 H 
ATOM     12  H18 2GY d   1      -9.299  42.029  27.705  0.00  0.00     0.047 H 
ATOM     13  H19 2GY d   1      -9.250  42.379  25.569  0.00  0.00     0.034 H 
ATOM     14  H20 2GY d   1      -8.117  41.029  25.221  0.00  0.00     0.034 H 
ATOM     15  H21 2GY d   1      -6.766  42.825  24.868  0.00  0.00     0.036 H 
ATOM     16  H22 2GY d   1      -7.580  43.828  26.116  0.00  0.00     0.036 H 
ENDROOT
BRANCH   1  17
ATOM     17  N2  2GY d   1      -5.321  43.629  26.914  0.00  0.00    -0.311 N 
ATOM     18  C13 2GY d   1      -5.588  45.056  26.948  0.00  0.00     0.072 C 
ATOM     19  C14 2GY d   1      -4.334  45.684  26.264  0.00  0.00     0.090 C 
ATOM     20  H6  2GY d   1      -6.469  45.274  26.326  0.00  0.00     0.085 H 
ATOM     21  O1  2GY d   1      -3.346  44.600  26.727  0.00  0.00    -0.291 OA
ATOM     22  C11 2GY d   1      -4.076  43.354  26.878  0.00  0.00     0.364 C 
ATOM     23  O2  2GY d   1      -3.648  42.258  26.907  0.00  0.00    -0.238 OA
BRANCH  18  24
ATOM     24  C12 2GY d   1      -5.900  45.542  28.317  0.00  0.00    -0.032 A 
ATOM     25  C5  2GY d   1      -7.194  46.245  28.449  0.00  0.00    -0.075 A 
ATOM     26  C7  2GY d   1      -7.603  46.740  29.756  0.00  0.00    -0.082 A 
ATOM     27  H1  2GY d   1      -7.830  46.390  27.584  0.00  0.00     0.084 H 
ATOM     28  C8  2GY d   1      -6.711  46.523  30.900  0.00  0.00    -0.083 A 
ATOM     29  H2  2GY d   1      -8.547  47.258  29.881  0.00  0.00     0.083 H 
ATOM     30  C9  2GY d   1      -5.426  45.830  30.798  0.00  0.00    -0.082 A 
ATOM     31  H3  2GY d   1      -7.019  46.895  31.870  0.00  0.00     0.083 H 
ATOM     32  C10 2GY d   1      -5.007  45.330  29.489  0.00  0.00    -0.075 A 
ATOM     33  H4  2GY d   1      -4.800  45.691  31.672  0.00  0.00     0.083 H 
ATOM     34  H5  2GY d   1      -4.061  44.813  29.374  0.00  0.00     0.084 H 
ENDBRANCH  18  24
BRANCH  19  35
ATOM     35  C15 2GY d   1      -3.749  46.981  26.747  0.00  0.00    -0.045 C 
ATOM     36  H7  2GY d   1      -2.876  47.242  26.130  0.00  0.00     0.031 H 
ATOM     37  H8  2GY d   1      -3.438  46.874  27.797  0.00  0.00     0.031 H 
ATOM     38  H9  2GY d   1      -4.505  47.776  26.668  0.00  0.00     0.031 H 
ENDBRANCH  19  35
BRANCH  19  39
ATOM     39  C16 2GY d   1      -4.058  45.670  24.778  0.00  0.00    -0.045 C 
ATOM     40  H10 2GY d   1      -4.458  44.744  24.340  0.00  0.00     0.031 H 
ATOM     41  H11 2GY d   1      -2.973  45.718  24.606  0.00  0.00     0.031 H 
ATOM     42  H12 2GY d   1      -4.543  46.538  24.307  0.00  0.00     0.031 H 
ENDBRANCH  19  39
ENDBRANCH   1  17
BRANCH   4  43
ATOM     43  C1  2GY d   1      -9.411  40.074  27.295  0.00  0.00    -0.035 A 
ATOM     44  C23 2GY d   1     -10.627  40.179  28.058  0.00  0.00    -0.058 A 
ATOM     45  C24 2GY d   1     -11.493  39.057  28.188  0.00  0.00     0.058 A 
ATOM     46  H23 2GY d   1     -10.884  41.117  28.536  0.00  0.00     0.086 H 
ATOM     47  C25 2GY d   1     -10.989  37.892  27.494  0.00  0.00     0.135 A 
ATOM     48  N3  2GY d   1      -9.807  37.854  26.766  0.00  0.00    -0.242 NA
ATOM     49  C26 2GY d   1      -8.970  38.896  26.616  0.00  0.00     0.011 A 
ATOM     50  H24 2GY d   1      -8.054  38.847  26.039  0.00  0.00     0.115 H 
BRANCH  45  51
ATOM     51  C6  2GY d   1     -12.817  39.198  28.899  0.00  0.00     0.162 A 
ATOM     52  N1  2GY d   1     -13.295  40.387  29.585  0.00  0.00    -0.241 NA
ATOM     53  C2  2GY d   1     -14.590  40.487  30.133  0.00  0.00     0.006 A 
ATOM     54  C3  2GY d   1     -15.546  39.413  30.061  0.00  0.00    -0.049 A 
ATOM     55  H25 2GY d   1     -14.877  41.408  30.628  0.00  0.00     0.114 H 
ATOM     56  C4  2GY d   1     -15.060  38.227  29.381  0.00  0.00     0.006 A 
ATOM     57  H26 2GY d   1     -16.544  39.484  30.479  0.00  0.00     0.087 H 
ATOM     58  N5  2GY d   1     -13.771  38.138  28.839  0.00  0.00    -0.241 NA
ATOM     59  H27 2GY d   1     -15.722  37.374  29.288  0.00  0.00     0.114 H 
ENDBRANCH  45  51
BRANCH  47  60
ATOM     60  N4  2GY d   1     -11.635  36.702  27.535  0.00  0.00    -0.383 N 
ATOM     61  H28 2GY d   1     -11.251  35.890  27.030  0.00  0.00     0.157 HD
ATOM     62  H29 2GY d   1     -12.510  36.609  28.071  0.00  0.00     0.157 HD
ENDBRANCH  47  60
ENDBRANCH   4  43
TORSDOF 7
