REMARK  9 active torsions:
REMARK  status: ('A' for Active; 'I' for Inactive)
REMARK    1  A    between atoms: C01_1  and  C02_2 
REMARK    2  A    between atoms: C03_3  and  C22_22 
REMARK    3  A    between atoms: C06_6  and  C07_7 
REMARK    4  A    between atoms: C07_7  and  C08_8 
REMARK    5  A    between atoms: C11_11  and  C14_14 
REMARK    6  A    between atoms: C14_14  and  C15_15 
REMARK    7  A    between atoms: C14_14  and  C16_16 
REMARK    8  A    between atoms: C22_22  and  C23_23 
REMARK    9  A    between atoms: C23_23  and  C24_24 
ROOT
ATOM      1  C02 K09 d   1       6.179   7.797  23.444  0.00  0.00    -0.044 A 
ATOM      2  C03 K09 d   1       5.656   7.034  22.294  0.00  0.00    -0.040 A 
ATOM      3  C04 K09 d   1       4.252   7.572  21.969  0.00  0.00    -0.015 A 
ATOM      4  C05 K09 d   1       3.949   8.629  22.898  0.00  0.00    -0.014 A 
ATOM      5  C06 K09 d   1       5.163   8.793  23.843  0.00  0.00    -0.018 A 
ATOM      6  C17 K09 d   1       2.716   9.282  22.804  0.00  0.00    -0.069 A 
ATOM      7  C18 K09 d   1       1.785   8.916  21.817  0.00  0.00    -0.045 A 
ATOM      8  C19 K09 d   1       2.093   7.870  20.902  0.00  0.00     0.117 A 
ATOM      9  C20 K09 d   1       3.328   7.207  20.990  0.00  0.00    -0.034 A 
ATOM     10  F21 K09 d   1       1.448   7.610  20.214  0.00  0.00    -0.206 F 
ATOM     11  H   K09 d   1       2.476  10.078  23.499  0.00  0.00     0.085 H 
ATOM     12  H   K09 d   1       0.833   9.430  21.753  0.00  0.00     0.088 H 
ATOM     13  H   K09 d   1       3.564   6.409  20.295  0.00  0.00     0.089 H 
ENDROOT
BRANCH   5  14
ATOM     14  C07 K09 d   1       5.329   9.654  24.875  0.00  0.00    -0.062 C 
ATOM     15  H   K09 d   1       6.111   9.419  25.596  0.00  0.00     0.086 H 
BRANCH  14  16
ATOM     16  C08 K09 d   1       4.524  10.917  25.117  0.00  0.00    -0.035 A 
ATOM     17  C09 K09 d   1       4.013  11.153  26.384  0.00  0.00    -0.072 A 
ATOM     18  C10 K09 d   1       3.279  12.302  26.643  0.00  0.00    -0.076 A 
ATOM     19  H   K09 d   1       4.188  10.435  27.177  0.00  0.00     0.084 H 
ATOM     20  C11 K09 d   1       3.064  13.223  25.631  0.00  0.00    -0.055 A 
ATOM     21  H   K09 d   1       2.876  12.478  27.634  0.00  0.00     0.084 H 
ATOM     22  C12 K09 d   1       3.581  12.996  24.365  0.00  0.00    -0.076 A 
ATOM     23  C13 K09 d   1       4.316  11.845  24.107  0.00  0.00    -0.072 A 
ATOM     24  H   K09 d   1       3.412  13.718  23.574  0.00  0.00     0.084 H 
ATOM     25  H   K09 d   1       4.726  11.673  23.118  0.00  0.00     0.084 H 
BRANCH  20  26
ATOM     26  C14 K09 d   1       2.267  14.477  25.916  0.00  0.00    -0.036 C 
ATOM     27  H   K09 d   1       2.402  15.163  25.067  0.00  0.00     0.046 H 
BRANCH  26  28
ATOM     28  C15 K09 d   1       2.781  15.169  27.160  0.00  0.00    -0.069 C 
ATOM     29  H   K09 d   1       2.187  16.076  27.347  0.00  0.00     0.028 H 
ATOM     30  H   K09 d   1       3.836  15.444  27.017  0.00  0.00     0.028 H 
ATOM     31  H   K09 d   1       2.693  14.489  28.020  0.00  0.00     0.028 H 
ENDBRANCH  26  28
BRANCH  26  32
ATOM     32  C16 K09 d   1       0.791  14.173  26.036  0.00  0.00    -0.069 C 
ATOM     33  H   K09 d   1       0.444  13.671  25.120  0.00  0.00     0.028 H 
ATOM     34  H   K09 d   1       0.233  15.111  26.174  0.00  0.00     0.028 H 
ATOM     35  H   K09 d   1       0.621  13.515  26.901  0.00  0.00     0.028 H 
ENDBRANCH  26  32
ENDBRANCH  20  26
ENDBRANCH  14  16
ENDBRANCH   5  14
BRANCH   1  36
ATOM     36  C01 K09 d   1       7.528   7.601  24.098  0.00  0.00    -0.050 C 
ATOM     37  H   K09 d   1       8.068   6.789  23.589  0.00  0.00     0.033 H 
ATOM     38  H   K09 d   1       7.388   7.340  25.157  0.00  0.00     0.033 H 
ATOM     39  H   K09 d   1       8.110   8.531  24.024  0.00  0.00     0.033 H 
ENDBRANCH   1  36
BRANCH   2  40
ATOM     40  C22 K09 d   1       6.369   5.913  21.567  0.00  0.00    -0.033 C 
ATOM     41  H   K09 d   1       7.434   5.928  21.842  0.00  0.00     0.040 H 
ATOM     42  H   K09 d   1       6.268   6.069  20.483  0.00  0.00     0.040 H 
BRANCH  40  43
ATOM     43  C23 K09 d   1       5.788   4.564  21.926  0.00  0.00    -0.001 C 
ATOM     44  H   K09 d   1       6.440   3.776  21.521  0.00  0.00     0.045 H 
ATOM     45  H   K09 d   1       4.787   4.477  21.479  0.00  0.00     0.045 H 
BRANCH  43  46
ATOM     46  C24 K09 d   1       5.674   4.385  23.425  0.00  0.00     0.165 A 
ATOM     47  N25 K09 d   1       6.685   4.110  24.272  0.00  0.00    -0.141 NA
ATOM     48  N26 K09 d   1       6.175   4.035  25.509  0.00  0.00     0.021 NA
ATOM     49  N27 K09 d   1       4.857   4.260  25.446  0.00  0.00    -0.200 N 
ATOM     50  N28 K09 d   1       4.538   4.479  24.155  0.00  0.00    -0.144 NA
ATOM     51  H   K09 d   1       4.203   4.265  26.242  0.00  0.00     0.208 HD
ENDBRANCH  43  46
ENDBRANCH  40  43
ENDBRANCH   2  40
TORSDOF 9
