REMARK WARNING: 32 MAX_TORS EXCEEDED!!!
REMARK  44 active torsions:
REMARK  status: ('A' for Active; 'I' for Inactive)
REMARK    1  A    between atoms: C_1  and  CH3_3 
REMARK       I    between atoms: N_4  and  C_1 
REMARK    2  A    between atoms: CA_5  and  N_4 
REMARK    3  A    between atoms: C_6  and  CA_5 
REMARK    4  A    between atoms: CA_5  and  CB_8 
REMARK       I    between atoms: N_12  and  C_6 
REMARK    5  A    between atoms: CB_8  and  CG_9 
REMARK    6  A    between atoms: CG_9  and  CD1_10 
REMARK    7  A    between atoms: CG_9  and  CD2_11 
REMARK    8  A    between atoms: CA_13  and  N_12 
REMARK    9  A    between atoms: C_14  and  CA_13 
REMARK   10  A    between atoms: CA_13  and  CB_16 
REMARK       I    between atoms: N_19  and  C_14 
REMARK   11  A    between atoms: CB_16  and  OG1_17 
REMARK   12  A    between atoms: CB_16  and  CG2_18 
REMARK   13  A    between atoms: CA_20  and  N_19 
REMARK   14  A    between atoms: C_21  and  CA_20 
REMARK   15  A    between atoms: CA_20  and  CB_23 
REMARK       I    between atoms: NAC_35  and  C_21 
REMARK   16  A    between atoms: CB_23  and  CG_24 
REMARK   17  A    between atoms: CAF_32  and  CAA_33 
REMARK   18  A    between atoms: CAF_32  and  NAC_35 
REMARK   19  A    between atoms: CA_43  and  CB_46 
REMARK   20  A    between atoms: CB_46  and  CG_47 
REMARK   21  A    between atoms: CG_47  and  CD_48 
REMARK   22  A    between atoms: CA_52  and  CB_55 
REMARK   23  A    between atoms: CB_55  and  CG_56 
REMARK   24  A    between atoms: CZ_61  and  OH_62 
REMARK   25  A    between atoms: CA_64  and  CB_67 
REMARK   26  A    between atoms: CB_67  and  CG_68 
REMARK   27  A    between atoms: CA_78  and  CB_81 
REMARK   28  A    between atoms: CA_83  and  CB_86 
REMARK   29  A    between atoms: CB_86  and  CG_87 
REMARK   30  A    between atoms: CG_87  and  CD_88 
REMARK       I    between atoms: CD_88  and  NE2_90 
REMARK   31  A    between atoms: CA_92  and  CB_93 
REMARK   32  A    between atoms: CB_93  and  CG_96 
REMARK   33  A    between atoms: CA_103  and  C_100 
REMARK       I    between atoms: C_100  and  N_109 
REMARK   34  A    between atoms: CA_103  and  CB1_108 
REMARK   35  A    between atoms: N_109  and  CA_110 
REMARK   36  A    between atoms: CA_110  and  C_111 
REMARK   37  A    between atoms: CA_110  and  CB_113 
REMARK       I    between atoms: C_111  and  N_115 
REMARK   38  A    between atoms: CB_113  and  OG_114 
REMARK   39  A    between atoms: N_115  and  CA_116 
REMARK   40  A    between atoms: CA_116  and  C_117 
REMARK   41  A    between atoms: CA_116  and  CB_119 
REMARK       I    between atoms: C_117  and  N_120 
REMARK   42  A    between atoms: N_120  and  CA_121 
REMARK   43  A    between atoms: CA_121  and  C_122 
REMARK   44  A    between atoms: CA_121  and  CB_124 
ROOT
ATOM      1  OAD 0EH d   1       4.939  20.902 -15.416  0.00  0.00    -0.271 OA
ATOM      2  CAE 0EH d   1       4.344  21.966 -15.263  0.00  0.00     0.246 C 
ATOM      3  CAF 0EH d   1       3.672  22.303 -13.939  0.00  0.00     0.110 C 
ATOM      4  CAB 0EH d   1       4.121  21.418 -12.773  0.00  0.00    -0.033 C 
ATOM      5  CAO 0EH d   1       3.614  19.963 -12.817  0.00  0.00    -0.062 C 
ATOM      6  CAP 0EH d   1       4.189  19.167 -11.628  0.00  0.00    -0.065 C 
ATOM      7  CAQ 0EH d   1       3.531  17.781 -11.523  0.00  0.00    -0.065 C 
ATOM      8  CAR 0EH d   1       3.981  16.876 -12.676  0.00  0.00    -0.062 C 
ATOM      9  CAS 0EH d   1       5.488  16.603 -12.583  0.00  0.00    -0.050 C 
ATOM     10  CAT 0EH d   1       5.931  15.660 -13.675  0.00  0.00    -0.107 C 
ATOM     11  H34 0EH d   1       3.760  21.876 -11.840  0.00  0.00     0.037 H 
ATOM     12  H35 0EH d   1       5.221  21.395 -12.768  0.00  0.00     0.037 H 
ATOM     13  H37 0EH d   1       3.935  19.494 -13.759  0.00  0.00     0.033 H 
ATOM     14  H38 0EH d   1       2.515  19.958 -12.761  0.00  0.00     0.033 H 
ATOM     15  H39 0EH d   1       4.003  19.725 -10.698  0.00  0.00     0.033 H 
ATOM     16  H40 0EH d   1       5.272  19.041 -11.770  0.00  0.00     0.033 H 
ATOM     17  H41 0EH d   1       2.438  17.897 -11.561  0.00  0.00     0.033 H 
ATOM     18  H42 0EH d   1       3.817  17.317 -10.568  0.00  0.00     0.033 H 
ATOM     19  H43 0EH d   1       3.761  17.371 -13.633  0.00  0.00     0.033 H 
ATOM     20  H44 0EH d   1       3.436  15.922 -12.623  0.00  0.00     0.033 H 
ATOM     21  H45 0EH d   1       5.713  16.153 -11.605  0.00  0.00     0.038 H 
ATOM     22  H46 0EH d   1       6.033  17.553 -12.684  0.00  0.00     0.038 H 
ATOM     23  H47 0EH d   1       5.544  15.804 -14.683  0.00  0.00     0.076 H 
ATOM     24  N   GLU d   1       4.242  22.880 -16.221  0.00  0.00    -0.346 N 
ATOM     25  CA  GLU d   1       4.761  22.617 -17.560  0.00  0.00     0.090 C 
ATOM     26  C   GLU d   1       6.285  22.549 -17.574  0.00  0.00     0.241 C 
ATOM     27  O   GLU d   1       6.858  21.685 -18.232  0.00  0.00    -0.271 OA
ATOM     28  H48 GLU d   1       3.805  23.758 -16.023  0.00  0.00     0.163 HD
ATOM     29  H49 GLU d   1       4.376  21.640 -17.887  0.00  0.00     0.087 H 
ATOM     30  N   TYR d   1       6.941  23.440 -16.836  0.00  0.00    -0.346 N 
ATOM     31  CA  TYR d   1       8.399  23.378 -16.739  0.00  0.00     0.093 C 
ATOM     32  C   TYR d   1       8.882  22.094 -16.084  0.00  0.00     0.241 C 
ATOM     33  O   TYR d   1       9.840  21.472 -16.552  0.00  0.00    -0.271 OA
ATOM     34  H54 TYR d   1       6.437  24.152 -16.347  0.00  0.00     0.163 HD
ATOM     35  H55 TYR d   1       8.806  23.417 -17.760  0.00  0.00     0.088 H 
ATOM     36  N   TRP d   1       8.234  21.693 -14.995  0.00  0.00    -0.346 N 
ATOM     37  CA  TRP d   1       8.687  20.500 -14.297  0.00  0.00     0.093 C 
ATOM     38  C   TRP d   1       8.431  19.251 -15.131  0.00  0.00     0.241 C 
ATOM     39  O   TRP d   1       9.225  18.312 -15.118  0.00  0.00    -0.271 OA
ATOM     40  H63 TRP d   1       7.444  22.206 -14.659  0.00  0.00     0.163 HD
ATOM     41  H64 TRP d   1       9.770  20.591 -14.127  0.00  0.00     0.088 H 
ATOM     42  N   ALA d   1       7.321  19.243 -15.861  0.00  0.00    -0.346 N 
ATOM     43  CA  ALA d   1       6.995  18.105 -16.713  0.00  0.00     0.086 C 
ATOM     44  C   ALA d   1       8.103  17.886 -17.744  0.00  0.00     0.240 C 
ATOM     45  O   ALA d   1       8.454  16.745 -18.058  0.00  0.00    -0.271 OA
ATOM     46  H73 ALA d   1       6.701  20.027 -15.826  0.00  0.00     0.163 HD
ATOM     47  H74 ALA d   1       6.909  17.205 -16.087  0.00  0.00     0.086 H 
ATOM     48  N   GLN d   1       8.652  18.979 -18.263  0.00  0.00    -0.346 N 
ATOM     49  CA  GLN d   1       9.760  18.901 -19.217  0.00  0.00     0.090 C 
ATOM     50  C   GLN d   1      10.990  18.307 -18.552  0.00  0.00     0.241 C 
ATOM     51  O   GLN d   1      11.710  17.503 -19.145  0.00  0.00    -0.271 OA
ATOM     52  H78 GLN d   1       8.300  19.876 -17.996  0.00  0.00     0.163 HD
ATOM     53  H79 GLN d   1       9.457  18.263 -20.060  0.00  0.00     0.087 H 
ATOM     54  N   2JH d   1      11.234  18.721 -17.316  0.00  0.00    -0.346 N 
ATOM     55  CA  2JH d   1      12.402  18.269 -16.580  0.00  0.00     0.089 C 
ATOM     56  C1  2JH d   1      12.257  16.788 -16.238  0.00  0.00     0.241 C 
ATOM     57  O   2JH d   1      13.209  16.017 -16.368  0.00  0.00    -0.271 OA
ATOM     58  H86 2JH d   1      10.599  19.359 -16.881  0.00  0.00     0.163 HD
ATOM     59  H87 2JH d   1      13.295  18.403 -17.208  0.00  0.00     0.087 H 
ATOM     60  N   MK8 d   1      11.059  16.396 -15.816  0.00  0.00    -0.342 N 
ATOM     61  CA  MK8 d   1      10.776  15.005 -15.478  0.00  0.00     0.110 C 
ATOM     62  CB  MK8 d   1       9.291  15.019 -15.109  0.00  0.00    -0.033 C 
ATOM     63  CD  MK8 d   1       7.218  13.700 -14.530  0.00  0.00    -0.050 C 
ATOM     64  CE  MK8 d   1       6.784  14.652 -13.447  0.00  0.00    -0.107 C 
ATOM     65  CG  MK8 d   1       8.750  13.660 -14.643  0.00  0.00    -0.059 C 
ATOM     66  H97 MK8 d   1      10.330  17.075 -15.727  0.00  0.00     0.163 HD
ATOM     67  H98 MK8 d   1       8.718  15.335 -15.993  0.00  0.00     0.037 H 
ATOM     68  H99 MK8 d   1       9.143  15.747 -14.297  0.00  0.00     0.037 H 
ATOM     69 0H10 MK8 d   1       6.795  14.030 -15.490  0.00  0.00     0.038 H 
ATOM     70 1H10 MK8 d   1       6.848  12.692 -14.293  0.00  0.00     0.038 H 
ATOM     71 2H10 MK8 d   1       7.178  14.516 -12.441  0.00  0.00     0.076 H 
ATOM     72 3H10 MK8 d   1       9.179  13.418 -13.660  0.00  0.00     0.033 H 
ATOM     73 4H10 MK8 d   1       9.039  12.887 -15.370  0.00  0.00     0.033 H 
ENDROOT
BRANCH   3  74
ATOM     74  CAA 0EH d   1       2.158  22.173 -14.090  0.00  0.00    -0.044 C 
ATOM     75  H31 0EH d   1       1.672  22.416 -13.134  0.00  0.00     0.031 H 
ATOM     76  H32 0EH d   1       1.905  21.142 -14.378  0.00  0.00     0.031 H 
ATOM     77  H33 0EH d   1       1.806  22.867 -14.867  0.00  0.00     0.031 H 
ENDBRANCH   3  74
BRANCH   3  78
ATOM     78  NAC 0EH d   1       4.024  23.663 -13.538  0.00  0.00    -0.342 N 
ATOM     79  C   PHE d   1       5.290  24.082 -13.538  0.00  0.00     0.241 C 
ATOM     80  O   PHE d   1       6.235  23.340 -13.818  0.00  0.00    -0.271 OA
ATOM     81  H36 0EH d   1       3.300  24.293 -13.258  0.00  0.00     0.163 HD
BRANCH  79  82
ATOM     82  CA  PHE d   1       5.533  25.546 -13.175  0.00  0.00     0.093 C 
ATOM     83  H23 PHE d   1       6.538  25.827 -13.523  0.00  0.00     0.088 H 
BRANCH  82  84
ATOM     84  N   PHE d   1       4.570  26.418 -13.827  0.00  0.00    -0.346 N 
ATOM     85  C   THR d   1       4.468  26.401 -15.154  0.00  0.00     0.243 C 
ATOM     86  O   THR d   1       5.183  25.690 -15.863  0.00  0.00    -0.271 OA
ATOM     87  H22 PHE d   1       3.990  27.025 -13.284  0.00  0.00     0.163 HD
BRANCH  85  88
ATOM     88  CA  THR d   1       3.419  27.308 -15.777  0.00  0.00     0.113 C 
ATOM     89  H16 THR d   1       3.409  28.277 -15.256  0.00  0.00     0.091 H 
BRANCH  88  90
ATOM     90  N   THR d   1       3.755  27.527 -17.179  0.00  0.00    -0.344 N 
ATOM     91  C   LEU d   1       4.619  28.470 -17.535  0.00  0.00     0.241 C 
ATOM     92  O   LEU d   1       5.096  29.271 -16.735  0.00  0.00    -0.271 OA
ATOM     93  H15 THR d   1       3.328  26.959 -17.883  0.00  0.00     0.163 HD
BRANCH  91  94
ATOM     94  CA  LEU d   1       4.996  28.524 -19.016  0.00  0.00     0.089 C 
ATOM     95  H5  LEU d   1       4.081  28.670 -19.609  0.00  0.00     0.087 H 
BRANCH  94  96
ATOM     96  N   LEU d   1       5.908  29.628 -19.285  0.00  0.00    -0.348 N 
ATOM     97  C   ACE d   1       5.473  30.843 -19.598  0.00  0.00     0.214 C 
ATOM     98  O   ACE d   1       4.278  31.127 -19.639  0.00  0.00    -0.274 OA
ATOM     99  H4  LEU d   1       6.893  29.465 -19.232  0.00  0.00     0.163 HD
BRANCH  97 100
ATOM    100  CH3 ACE d   1       6.533  31.886 -19.906  0.00  0.00    -0.003 C 
ATOM    101  H1  ACE d   1       7.531  31.433 -19.814  0.00  0.00     0.040 H 
ATOM    102  H2  ACE d   1       6.443  32.721 -19.196  0.00  0.00     0.040 H 
ATOM    103  H3  ACE d   1       6.393  32.260 -20.931  0.00  0.00     0.040 H 
ENDBRANCH  97 100
ENDBRANCH  94  96
BRANCH  94 104
ATOM    104  CB  LEU d   1       5.650  27.204 -19.425  0.00  0.00    -0.035 C 
ATOM    105  H6  LEU d   1       4.919  26.398 -19.262  0.00  0.00     0.037 H 
ATOM    106  H7  LEU d   1       6.524  27.043 -18.776  0.00  0.00     0.037 H 
BRANCH 104 107
ATOM    107  CG  LEU d   1       6.121  27.128 -20.880  0.00  0.00    -0.059 C 
ATOM    108  H8  LEU d   1       6.843  27.936 -21.067  0.00  0.00     0.038 H 
BRANCH 107 109
ATOM    109  CD1 LEU d   1       6.803  25.791 -21.139  0.00  0.00    -0.073 C 
ATOM    110  H9  LEU d   1       7.137  25.747 -22.186  0.00  0.00     0.028 H 
ATOM    111  H10 LEU d   1       6.093  24.974 -20.946  0.00  0.00     0.028 H 
ATOM    112  H11 LEU d   1       7.672  25.687 -20.472  0.00  0.00     0.028 H 
ENDBRANCH 107 109
BRANCH 107 113
ATOM    113  CD2 LEU d   1       4.927  27.311 -21.801  0.00  0.00    -0.073 C 
ATOM    114  H12 LEU d   1       4.451  28.282 -21.596  0.00  0.00     0.028 H 
ATOM    115  H13 LEU d   1       4.202  26.503 -21.626  0.00  0.00     0.028 H 
ATOM    116  H14 LEU d   1       5.263  27.281 -22.848  0.00  0.00     0.028 H 
ENDBRANCH 107 113
ENDBRANCH 104 107
ENDBRANCH  94 104
ENDBRANCH  91  94
ENDBRANCH  88  90
BRANCH  88 117
ATOM    117  CB  THR d   1       2.045  26.633 -15.616  0.00  0.00     0.060 C 
ATOM    118  H17 THR d   1       1.798  26.573 -14.546  0.00  0.00     0.086 H 
BRANCH 117 119
ATOM    119  OG1 THR d   1       2.089  25.311 -16.164  0.00  0.00    -0.393 OA
ATOM    120  H18 THR d   1       1.239  24.899 -16.062  0.00  0.00     0.210 HD
ENDBRANCH 117 119
BRANCH 117 121
ATOM    121  CG2 THR d   1       0.967  27.448 -16.333  0.00  0.00    -0.050 C 
ATOM    122  H19 THR d   1      -0.008  26.954 -16.210  0.00  0.00     0.031 H 
ATOM    123  H20 THR d   1       1.210  27.517 -17.404  0.00  0.00     0.031 H 
ATOM    124  H21 THR d   1       0.924  28.459 -15.901  0.00  0.00     0.031 H 
ENDBRANCH 117 121
ENDBRANCH  88 117
ENDBRANCH  85  88
ENDBRANCH  82  84
BRANCH  82 125
ATOM    125  CB  PHE d   1       5.486  25.710 -11.649  0.00  0.00    -0.014 C 
ATOM    126  H24 PHE d   1       4.442  25.612 -11.318  0.00  0.00     0.043 H 
ATOM    127  H25 PHE d   1       5.860  26.712 -11.393  0.00  0.00     0.043 H 
BRANCH 125 128
ATOM    128  CG  PHE d   1       6.314  24.692 -10.925  0.00  0.00    -0.056 A 
ATOM    129  CD1 PHE d   1       7.701  24.788 -10.924  0.00  0.00    -0.077 A 
ATOM    130  CE1 PHE d   1       8.483  23.799 -10.351  0.00  0.00    -0.082 A 
ATOM    131  H26 PHE d   1       8.177  25.649 -11.378  0.00  0.00     0.084 H 
ATOM    132  CZ  PHE d   1       7.884  22.695  -9.767  0.00  0.00    -0.083 A 
ATOM    133  H28 PHE d   1       9.563  23.889 -10.360  0.00  0.00     0.083 H 
ATOM    134  CE2 PHE d   1       6.497  22.591  -9.754  0.00  0.00    -0.082 A 
ATOM    135  H30 PHE d   1       8.493  21.916  -9.322  0.00  0.00     0.083 H 
ATOM    136  CD2 PHE d   1       5.720  23.588 -10.332  0.00  0.00    -0.077 A 
ATOM    137  H29 PHE d   1       6.022  21.732  -9.293  0.00  0.00     0.083 H 
ATOM    138  H27 PHE d   1       4.639  23.502 -10.319  0.00  0.00     0.084 H 
ENDBRANCH 125 128
ENDBRANCH  82 125
ENDBRANCH  79  82
ENDBRANCH   3  78
BRANCH  25 139
ATOM    139  CB  GLU d   1       4.260  23.678 -18.537  0.00  0.00    -0.029 C 
ATOM    140  H50 GLU d   1       4.760  23.533 -19.506  0.00  0.00     0.037 H 
ATOM    141  H51 GLU d   1       4.511  24.673 -18.141  0.00  0.00     0.037 H 
BRANCH 139 142
ATOM    142  CG  GLU d   1       2.752  23.596 -18.743  0.00  0.00     0.018 C 
ATOM    143  H52 GLU d   1       2.264  23.634 -17.758  0.00  0.00     0.049 H 
ATOM    144  H53 GLU d   1       2.519  22.638 -19.231  0.00  0.00     0.049 H 
BRANCH 142 145
ATOM    145  CD  GLU d   1       2.197  24.714 -19.595  0.00  0.00     0.172 C 
ATOM    146  OE1 GLU d   1       2.573  25.885 -19.379  0.00  0.00    -0.648 OA
ATOM    147  OE2 GLU d   1       1.370  24.419 -20.485  0.00  0.00    -0.648 OA
ENDBRANCH 142 145
ENDBRANCH 139 142
ENDBRANCH  25 139
BRANCH  31 148
ATOM    148  CB  TYR d   1       8.946  24.569 -15.955  0.00  0.00    -0.014 C 
ATOM    149  H56 TYR d   1       9.978  24.342 -15.651  0.00  0.00     0.043 H 
ATOM    150  H57 TYR d   1       8.323  24.713 -15.060  0.00  0.00     0.043 H 
BRANCH 148 151
ATOM    151  CG  TYR d   1       8.952  25.849 -16.741  0.00  0.00    -0.056 A 
ATOM    152  CD1 TYR d   1       8.286  26.974 -16.279  0.00  0.00    -0.074 A 
ATOM    153  CE1 TYR d   1       8.291  28.147 -16.998  0.00  0.00    -0.051 A 
ATOM    154  H58 TYR d   1       7.753  26.929 -15.336  0.00  0.00     0.084 H 
ATOM    155  CZ  TYR d   1       8.967  28.207 -18.198  0.00  0.00     0.065 A 
ATOM    156  H60 TYR d   1       7.767  29.019 -16.623  0.00  0.00     0.087 H 
ATOM    157  CE2 TYR d   1       9.636  27.107 -18.678  0.00  0.00    -0.051 A 
ATOM    158  CD2 TYR d   1       9.628  25.936 -17.953  0.00  0.00    -0.074 A 
ATOM    159  H61 TYR d   1      10.167  27.160 -19.622  0.00  0.00     0.087 H 
ATOM    160  H59 TYR d   1      10.157  25.069 -18.333  0.00  0.00     0.084 H 
BRANCH 155 161
ATOM    161  OH  TYR d   1       8.963  29.375 -18.926  0.00  0.00    -0.361 OA
ATOM    162  H62 TYR d   1       8.569  29.216 -19.776  0.00  0.00     0.217 HD
ENDBRANCH 155 161
ENDBRANCH 148 151
ENDBRANCH  31 148
BRANCH  37 163
ATOM    163  CB  TRP d   1       7.994  20.359 -12.944  0.00  0.00    -0.012 C 
ATOM    164  H65 TRP d   1       6.979  19.965 -13.102  0.00  0.00     0.044 H 
ATOM    165  H66 TRP d   1       7.933  21.349 -12.469  0.00  0.00     0.044 H 
BRANCH 163 166
ATOM    166  CG  TRP d   1       8.737  19.433 -12.039  0.00  0.00    -0.028 A 
ATOM    167  CD1 TRP d   1       8.515  18.096 -11.864  0.00  0.00    -0.015 A 
ATOM    168  NE1 TRP d   1       9.435  17.580 -10.980  0.00  0.00    -0.365 N 
ATOM    169  H67 TRP d   1       7.727  17.524 -12.352  0.00  0.00     0.112 H 
ATOM    170  CE2 TRP d   1      10.268  18.587 -10.565  0.00  0.00     0.042 A 
ATOM    171  H68 TRP d   1       9.489  16.596 -10.679  0.00  0.00     0.165 HD
ATOM    172  CD2 TRP d   1       9.859  19.766 -11.213  0.00  0.00    -0.002 A 
ATOM    173  CZ2 TRP d   1      11.341  18.555  -9.677  0.00  0.00    -0.056 A 
ATOM    174  CE3 TRP d   1      10.555  20.954 -10.958  0.00  0.00    -0.070 A 
ATOM    175  CZ3 TRP d   1      11.625  20.920 -10.073  0.00  0.00    -0.082 A 
ATOM    176  H69 TRP d   1      10.265  21.880 -11.441  0.00  0.00     0.084 H 
ATOM    177  CH2 TRP d   1      12.004  19.729  -9.444  0.00  0.00    -0.081 A 
ATOM    178  H71 TRP d   1      12.175  21.831  -9.866  0.00  0.00     0.083 H 
ATOM    179  H72 TRP d   1      12.842  19.737  -8.756  0.00  0.00     0.083 H 
ATOM    180  H70 TRP d   1      11.639  17.634  -9.189  0.00  0.00     0.086 H 
ENDBRANCH 163 166
ENDBRANCH  37 163
BRANCH  43 181
ATOM    181  CB  ALA d   1       5.669  18.343 -17.415  0.00  0.00    -0.049 C 
ATOM    182  H75 ALA d   1       5.433  17.480 -18.054  0.00  0.00     0.030 H 
ATOM    183  H76 ALA d   1       5.739  19.250 -18.034  0.00  0.00     0.030 H 
ATOM    184  H77 ALA d   1       4.875  18.472 -16.665  0.00  0.00     0.030 H 
ENDBRANCH  43 181
BRANCH  61 185
ATOM    185  C   MK8 d   1      11.002  14.104 -16.689  0.00  0.00     0.246 C 
ATOM    186  O   MK8 d   1      11.633  13.051 -16.585  0.00  0.00    -0.271 OA
ATOM    187  N   SER d   1      10.488  14.529 -17.838  0.00  0.00    -0.344 N 
ATOM    188 8H10 SER d   1      10.013  15.409 -17.863  0.00  0.00     0.163 HD
BRANCH 187 189
ATOM    189  CA  SER d   1      10.597  13.748 -19.064  0.00  0.00     0.109 C 
ATOM    190 9H10 SER d   1      10.160  12.755 -18.884  0.00  0.00     0.090 H 
BRANCH 189 191
ATOM    191  C   SER d   1      12.052  13.570 -19.479  0.00  0.00     0.243 C 
ATOM    192  O   SER d   1      12.406  12.574 -20.114  0.00  0.00    -0.271 OA
ATOM    193  N   ALA d   1      12.892  14.538 -19.123  0.00  0.00    -0.346 N 
ATOM    194 3H11 ALA d   1      12.548  15.316 -18.598  0.00  0.00     0.163 HD
BRANCH 193 195
ATOM    195  CA  ALA d   1      14.304  14.487 -19.483  0.00  0.00     0.086 C 
ATOM    196 4H11 ALA d   1      14.389  14.172 -20.534  0.00  0.00     0.086 H 
BRANCH 195 197
ATOM    197  C   ALA d   1      15.040  13.478 -18.610  0.00  0.00     0.240 C 
ATOM    198  O   ALA d   1      15.724  12.590 -19.115  0.00  0.00    -0.271 OA
ATOM    199  N   ALA d   1      14.892  13.616 -17.297  0.00  0.00    -0.345 N 
ATOM    200 8H11 ALA d   1      14.314  14.353 -16.945  0.00  0.00     0.163 HD
BRANCH 199 201
ATOM    201  CA  ALA d   1      15.552  12.719 -16.357  0.00  0.00     0.093 C 
ATOM    202 9H11 ALA d   1      16.615  12.643 -16.629  0.00  0.00     0.089 H 
BRANCH 201 203
ATOM    203  C   ALA d   1      14.930  11.328 -16.420  0.00  0.00     0.196 C 
ATOM    204  O   ALA d   1      15.660  10.375 -16.768  0.00  0.00    -0.646 OA
ATOM    205  OXT ALA d   1      13.722  11.208 -16.125  0.00  0.00    -0.646 OA
ENDBRANCH 201 203
BRANCH 201 206
ATOM    206  CB  ALA d   1      15.446  13.276 -14.943  0.00  0.00    -0.048 C 
ATOM    207 0H12 ALA d   1      15.947  12.593 -14.241  0.00  0.00     0.030 H 
ATOM    208 1H12 ALA d   1      14.386  13.374 -14.666  0.00  0.00     0.030 H 
ATOM    209 2H12 ALA d   1      15.929  14.263 -14.901  0.00  0.00     0.030 H 
ENDBRANCH 201 206
ENDBRANCH 199 201
ENDBRANCH 195 197
BRANCH 195 210
ATOM    210  CB  ALA d   1      14.931  15.867 -19.333  0.00  0.00    -0.049 C 
ATOM    211 5H11 ALA d   1      15.995  15.818 -19.607  0.00  0.00     0.030 H 
ATOM    212 6H11 ALA d   1      14.836  16.201 -18.289  0.00  0.00     0.030 H 
ATOM    213 7H11 ALA d   1      14.415  16.578 -19.995  0.00  0.00     0.030 H 
ENDBRANCH 195 210
ENDBRANCH 193 195
ENDBRANCH 189 191
BRANCH 189 214
ATOM    214  CB  SER d   1       9.823  14.429 -20.196  0.00  0.00     0.044 C 
ATOM    215 0H11 SER d   1      10.013  13.890 -21.136  0.00  0.00     0.077 H 
ATOM    216 1H11 SER d   1      10.169  15.469 -20.293  0.00  0.00     0.077 H 
BRANCH 214 217
ATOM    217  OG  SER d   1       8.430  14.428 -19.935  0.00  0.00    -0.398 OA
ATOM    218 2H11 SER d   1       8.260  14.896 -19.126  0.00  0.00     0.209 HD
ENDBRANCH 214 217
ENDBRANCH 189 214
ENDBRANCH 187 189
ENDBRANCH  61 185
BRANCH  61 219
ATOM    219  CB1 MK8 d   1      11.658  14.555 -14.314  0.00  0.00    -0.044 C 
ATOM    220 5H10 MK8 d   1      11.435  13.506 -14.069  0.00  0.00     0.031 H 
ATOM    221 6H10 MK8 d   1      11.457  15.187 -13.436  0.00  0.00     0.031 H 
ATOM    222 7H10 MK8 d   1      12.716  14.648 -14.599  0.00  0.00     0.031 H 
ENDBRANCH  61 219
BRANCH  49 223
ATOM    223  CB  GLN d   1      10.126  20.289 -19.742  0.00  0.00    -0.030 C 
ATOM    224  H80 GLN d   1      11.031  20.191 -20.359  0.00  0.00     0.037 H 
ATOM    225  H81 GLN d   1      10.340  20.933 -18.877  0.00  0.00     0.037 H 
BRANCH 223 226
ATOM    226  CG  GLN d   1       9.065  20.967 -20.577  0.00  0.00     0.011 C 
ATOM    227  H82 GLN d   1       8.172  21.128 -19.955  0.00  0.00     0.047 H 
ATOM    228  H83 GLN d   1       8.809  20.315 -21.425  0.00  0.00     0.047 H 
BRANCH 226 229
ATOM    229  CD  GLN d   1       9.537  22.306 -21.113  0.00  0.00     0.215 C 
ATOM    230  OE1 GLN d   1       9.041  22.796 -22.128  0.00  0.00    -0.274 OA
ATOM    231  NE2 GLN d   1      10.507  22.906 -20.430  0.00  0.00    -0.370 N 
ATOM    232  H84 GLN d   1      10.860  23.791 -20.735  0.00  0.00     0.159 HD
ATOM    233  H85 GLN d   1      10.884  22.473 -19.611  0.00  0.00     0.159 HD
ENDBRANCH 226 229
ENDBRANCH 223 226
ENDBRANCH  49 223
BRANCH  55 234
ATOM    234  CB  2JH d   1      12.563  19.099 -15.306  0.00  0.00    -0.035 C 
ATOM    235  H88 2JH d   1      11.735  18.835 -14.632  0.00  0.00     0.037 H 
ATOM    236  H89 2JH d   1      12.483  20.159 -15.589  0.00  0.00     0.037 H 
BRANCH 234 237
ATOM    237  CG  2JH d   1      13.865  18.929 -14.523  0.00  0.00    -0.052 A 
ATOM    238  CD1 2JH d   1      14.123  19.779 -13.308  0.00  0.00    -0.062 A 
ATOM    239  CE  2JH d   1      14.284  18.500 -12.428  0.00  0.00    -0.064 A 
ATOM    240  H91 2JH d   1      13.274  20.416 -13.020  0.00  0.00     0.033 H 
ATOM    241  H92 2JH d   1      15.034  20.392 -13.377  0.00  0.00     0.033 H 
ATOM    242  CD2 2JH d   1      13.997  17.659 -13.713  0.00  0.00    -0.062 A 
ATOM    243  H95 2JH d   1      13.531  18.393 -11.633  0.00  0.00     0.033 H 
ATOM    244  H96 2JH d   1      15.289  18.359 -12.003  0.00  0.00     0.033 H 
ATOM    245  H93 2JH d   1      14.833  17.015 -14.023  0.00  0.00     0.033 H 
ATOM    246  H94 2JH d   1      13.074  17.063 -13.661  0.00  0.00     0.033 H 
ATOM    247  H90 2JH d   1      14.681  19.032 -15.254  0.00  0.00     0.040 H 
ENDBRANCH 234 237
ENDBRANCH  55 234
TORSDOF 44
