REMARK  4 active torsions:
REMARK  status: ('A' for Active; 'I' for Inactive)
REMARK    1  A    between atoms: CAB_1  and  OAA_24 
REMARK    2  A    between atoms: CAP_13  and  OAQ_26 
REMARK    3  A    between atoms: NAS_23  and  CBB_28 
REMARK    4  A    between atoms: CBB_28  and  CBC_29 
ROOT
ATOM      1  CAB EJ4 d   1      -6.217 -65.863  71.510  0.00  0.00     0.099 A 
ATOM      2  CAC EJ4 d   1      -6.857 -67.021  71.104  0.00  0.00     0.110 A 
ATOM      3  CAE EJ4 d   1      -7.716 -68.849  69.818  0.00  0.00     0.100 C 
ATOM      4  CAF EJ4 d   1      -6.752 -69.027  68.774  0.00  0.00     0.048 A 
ATOM      5  CAG EJ4 d   1      -5.520 -69.667  68.895  0.00  0.00    -0.017 A 
ATOM      6  CAH EJ4 d   1      -4.856 -69.492  67.725  0.00  0.00    -0.001 A 
ATOM      7  CAI EJ4 d   1      -3.616 -69.870  67.311  0.00  0.00    -0.070 A 
ATOM      8  CAJ EJ4 d   1      -3.153 -69.570  66.021  0.00  0.00    -0.082 A 
ATOM      9  CAK EJ4 d   1      -3.978 -68.800  65.188  0.00  0.00    -0.081 A 
ATOM     10  CAL EJ4 d   1      -5.235 -68.411  65.657  0.00  0.00    -0.056 A 
ATOM     11  CAM EJ4 d   1      -5.631 -68.766  66.903  0.00  0.00     0.043 A 
ATOM     12  CAO EJ4 d   1      -5.089 -70.341  70.088  0.00  0.00    -0.006 C 
ATOM     13  CAP EJ4 d   1      -6.231 -70.597  71.088  0.00  0.00     0.105 C 
ATOM     14  CAR EJ4 d   1      -5.738 -70.835  72.504  0.00  0.00     0.138 C 
ATOM     15  CAT EJ4 d   1      -7.876 -70.215  73.465  0.00  0.00     0.085 C 
ATOM     16  CAU EJ4 d   1      -8.334 -69.694  72.147  0.00  0.00    -0.026 C 
ATOM     17  CAV EJ4 d   1      -7.199 -69.351  71.161  0.00  0.00     0.057 C 
ATOM     18  CAW EJ4 d   1      -6.449 -68.213  71.669  0.00  0.00    -0.001 A 
ATOM     19  CAX EJ4 d   1      -5.466 -68.345  72.585  0.00  0.00    -0.046 A 
ATOM     20  CAY EJ4 d   1      -4.812 -67.172  73.007  0.00  0.00    -0.073 A 
ATOM     21  CAZ EJ4 d   1      -5.181 -65.918  72.460  0.00  0.00    -0.048 A 
ATOM     22  NAN EJ4 d   1      -6.766 -68.514  67.536  0.00  0.00    -0.356 N 
ATOM     23  NAS EJ4 d   1      -6.890 -71.346  73.355  0.00  0.00    -0.063 N 
ATOM     24  OAD EJ4 d   1      -7.844 -67.260  70.154  0.00  0.00    -0.335 OA
ATOM     25  CBA EJ4 d   1      -5.136 -69.639  73.082  0.00  0.00    -0.011 C 
ATOM     26  H1  EJ4 d   1      -8.676 -69.309  69.540  0.00  0.00     0.096 H 
ATOM     27  H2  EJ4 d   1      -2.972 -70.415  67.992  0.00  0.00     0.084 H 
ATOM     28  H3  EJ4 d   1      -2.187 -69.923  65.678  0.00  0.00     0.083 H 
ATOM     29  H4  EJ4 d   1      -3.646 -68.512  64.197  0.00  0.00     0.083 H 
ATOM     30  H5  EJ4 d   1      -5.893 -67.826  65.025  0.00  0.00     0.086 H 
ATOM     31  H6  EJ4 d   1      -4.324 -69.723  70.582  0.00  0.00     0.044 H 
ATOM     32  H7  EJ4 d   1      -4.651 -71.309  69.803  0.00  0.00     0.044 H 
ATOM     33  H8  EJ4 d   1      -4.963 -71.615  72.470  0.00  0.00     0.090 H 
ATOM     34  H9  EJ4 d   1      -8.755 -70.572  74.022  0.00  0.00     0.076 H 
ATOM     35  H10 EJ4 d   1      -7.401 -69.392  74.018  0.00  0.00     0.076 H 
ATOM     36  H11 EJ4 d   1      -8.921 -68.781  72.325  0.00  0.00     0.037 H 
ATOM     37  H12 EJ4 d   1      -8.974 -70.457  71.680  0.00  0.00     0.037 H 
ATOM     38  H13 EJ4 d   1      -4.026 -67.228  73.751  0.00  0.00     0.084 H 
ATOM     39  H14 EJ4 d   1      -4.671 -65.013  72.770  0.00  0.00     0.087 H 
ATOM     40  H15 EJ4 d   1      -7.556 -67.992  67.130  0.00  0.00     0.166 HD
ATOM     41  H16 EJ4 d   1      -7.319 -72.100  72.842  0.00  0.00     0.280 HD
ATOM     42  H19 EJ4 d   1      -4.047 -69.750  72.970  0.00  0.00     0.043 H 
ATOM     43  H20 EJ4 d   1      -5.397 -69.641  74.150  0.00  0.00     0.043 H 
ENDROOT
BRANCH  23  44
ATOM     44  CBB EJ4 d   1      -6.595 -71.876  74.700  0.00  0.00     0.087 C 
ATOM     45  H21 EJ4 d   1      -7.521 -72.265  75.148  0.00  0.00     0.076 H 
ATOM     46  H22 EJ4 d   1      -6.195 -71.067  75.329  0.00  0.00     0.076 H 
BRANCH  44  47
ATOM     47  CBC EJ4 d   1      -5.553 -73.017  74.613  0.00  0.00    -0.031 A 
ATOM     48  CBD EJ4 d   1      -4.070 -72.716  74.922  0.00  0.00    -0.060 A 
ATOM     49  CBE EJ4 d   1      -4.899 -73.452  75.953  0.00  0.00    -0.060 A 
ATOM     50  H24 EJ4 d   1      -3.750 -71.681  75.114  0.00  0.00     0.033 H 
ATOM     51  H25 EJ4 d   1      -3.278 -73.249  74.375  0.00  0.00     0.033 H 
ATOM     52  H26 EJ4 d   1      -4.709 -74.517  76.151  0.00  0.00     0.033 H 
ATOM     53  H27 EJ4 d   1      -5.182 -72.950  76.890  0.00  0.00     0.033 H 
ATOM     54  H23 EJ4 d   1      -5.832 -73.746  73.838  0.00  0.00     0.042 H 
ENDBRANCH  44  47
ENDBRANCH  23  44
BRANCH  13  55
ATOM     55  OAQ EJ4 d   1      -6.965 -71.850  70.661  0.00  0.00    -0.386 OA
ATOM     56  H18 EJ4 d   1      -7.290 -71.739  69.775  0.00  0.00     0.210 HD
ENDBRANCH  13  55
BRANCH   1  57
ATOM     57  OAA EJ4 d   1      -6.615 -64.677  70.925  0.00  0.00    -0.358 OA
ATOM     58  H17 EJ4 d   1      -5.881 -64.293  70.460  0.00  0.00     0.217 HD
ENDBRANCH   1  57
TORSDOF 4
