REMARK  5 active torsions:
REMARK  status: ('A' for Active; 'I' for Inactive)
REMARK    1  A    between atoms: C5_2  and  C3_3 
REMARK       I    between atoms: C5_2  and  N2_12 
REMARK    2  A    between atoms: C2_7  and  N_8 
REMARK       I    between atoms: N_8  and  C1_9 
REMARK    3  A    between atoms: C1_9  and  C_11 
REMARK    4  A    between atoms: N2_12  and  C6_13 
REMARK    5  A    between atoms: C11_14  and  N3_19 
ROOT
ATOM      1  C6  2HV d   1      21.534  32.572   0.402  0.00  0.00     0.061 A 
ATOM      2  C11 2HV d   1      21.270  31.732  -0.702  0.00  0.00     0.057 A 
ATOM      3  C10 2HV d   1      20.812  30.438  -0.476  0.00  0.00    -0.055 A 
ATOM      4  C9  2HV d   1      20.546  30.002   0.809  0.00  0.00    -0.081 A 
ATOM      5  C8  2HV d   1      20.733  30.841   1.878  0.00  0.00    -0.081 A 
ATOM      6  C7  2HV d   1      21.212  32.124   1.688  0.00  0.00    -0.055 A 
ATOM      7  H7  2HV d   1      20.663  29.766  -1.314  0.00  0.00     0.087 H 
ATOM      8  H8  2HV d   1      20.188  28.992   0.972  0.00  0.00     0.083 H 
ATOM      9  H9  2HV d   1      20.503  30.495   2.880  0.00  0.00     0.083 H 
ATOM     10  H10 2HV d   1      21.338  32.785   2.538  0.00  0.00     0.087 H 
ENDROOT
BRANCH   1  11
ATOM     11  N2  2HV d   1      22.291  33.763   0.244  0.00  0.00    -0.320 N 
ATOM     12  C5  2HV d   1      22.624  34.709   1.150  0.00  0.00     0.275 C 
ATOM     13  O1  2HV d   1      22.658  34.543   2.372  0.00  0.00    -0.266 OA
ATOM     14  H6  2HV d   1      22.631  33.927  -0.682  0.00  0.00     0.169 HD
BRANCH  12  15
ATOM     15  C3  2HV d   1      23.008  36.007   0.548  0.00  0.00     0.134 A 
ATOM     16  N1  2HV d   1      23.131  36.135  -0.821  0.00  0.00    -0.218 NA
ATOM     17  C2  2HV d   1      23.431  37.374  -1.118  0.00  0.00     0.173 A 
ATOM     18  S   2HV d   1      23.582  38.452   0.231  0.00  0.00    -0.061 SA
ATOM     19  C4  2HV d   1      23.225  37.134   1.271  0.00  0.00    -0.008 A 
ATOM     20  H1  2HV d   1      23.179  37.194   2.357  0.00  0.00     0.099 H 
BRANCH  17  21
ATOM     21  N   2HV d   1      23.611  37.741  -2.438  0.00  0.00    -0.306 N 
ATOM     22  C1  2HV d   1      23.825  39.009  -2.922  0.00  0.00     0.219 C 
ATOM     23  O   2HV d   1      23.863  40.002  -2.204  0.00  0.00    -0.274 OA
ATOM     24  H2  2HV d   1      23.582  37.004  -3.114  0.00  0.00     0.171 HD
BRANCH  22  25
ATOM     25  C   2HV d   1      24.012  39.098  -4.405  0.00  0.00    -0.002 C 
ATOM     26  H3  2HV d   1      24.176  40.147  -4.692  0.00  0.00     0.040 H 
ATOM     27  H4  2HV d   1      23.114  38.715  -4.912  0.00  0.00     0.040 H 
ATOM     28  H5  2HV d   1      24.884  38.497  -4.701  0.00  0.00     0.040 H 
ENDBRANCH  22  25
ENDBRANCH  17  21
ENDBRANCH  12  15
ENDBRANCH   1  11
BRANCH   2  29
ATOM     29  N3  2HV d   1      21.390  32.185  -2.050  0.00  0.00    -0.379 N 
ATOM     30  C16 2HV d   1      20.933  33.516  -2.466  0.00  0.00    -0.005 C 
ATOM     31  C15 2HV d   1      20.656  33.596  -3.946  0.00  0.00    -0.050 C 
ATOM     32  H11 2HV d   1      21.711  34.251  -2.213  0.00  0.00     0.064 H 
ATOM     33  H12 2HV d   1      20.009  33.758  -1.921  0.00  0.00     0.064 H 
ATOM     34  C14 2HV d   1      21.857  33.144  -4.737  0.00  0.00    -0.062 C 
ATOM     35  H13 2HV d   1      20.418  34.636  -4.213  0.00  0.00     0.035 H 
ATOM     36  H14 2HV d   1      19.799  32.950  -4.189  0.00  0.00     0.035 H 
ATOM     37  C13 2HV d   1      22.276  31.749  -4.320  0.00  0.00    -0.050 C 
ATOM     38  H15 2HV d   1      22.690  33.840  -4.559  0.00  0.00     0.033 H 
ATOM     39  H16 2HV d   1      21.604  33.141  -5.808  0.00  0.00     0.033 H 
ATOM     40  C12 2HV d   1      22.518  31.670  -2.832  0.00  0.00    -0.005 C 
ATOM     41  H17 2HV d   1      23.203  31.480  -4.848  0.00  0.00     0.035 H 
ATOM     42  H18 2HV d   1      21.480  31.040  -4.592  0.00  0.00     0.035 H 
ATOM     43  H19 2HV d   1      22.686  30.618  -2.558  0.00  0.00     0.064 H 
ATOM     44  H20 2HV d   1      23.414  32.260  -2.589  0.00  0.00     0.064 H 
ENDBRANCH   2  29
TORSDOF 5
