REMARK  7 active torsions:
REMARK  status: ('A' for Active; 'I' for Inactive)
REMARK    1  A    between atoms: C1_1  and  C14_14 
REMARK    2  A    between atoms: N3_3  and  C7_7 
REMARK    3  A    between atoms: C5_5  and  N25_25 
REMARK    4  A    between atoms: C6_6  and  O33_33 
REMARK    5  A    between atoms: C12_12  and  N13_13 
REMARK       I    between atoms: N13_13  and  C15_15 
REMARK    6  A    between atoms: C15_15  and  C16_16 
REMARK    7  A    between atoms: C21_21  and  C23_23 
ROOT
ATOM      1  C7  2HX d   1     -16.504  35.137  -2.719  0.00  0.00     0.060 A 
ATOM      2  C8  2HX d   1     -15.539  34.149  -2.950  0.00  0.00    -0.038 A 
ATOM      3  C9  2HX d   1     -15.092  33.367  -1.891  0.00  0.00     0.004 A 
ATOM      4  N10 2HX d   1     -15.581  33.492  -0.648  0.00  0.00    -0.271 NA
ATOM      5  C11 2HX d   1     -16.507  34.452  -0.427  0.00  0.00     0.030 A 
ATOM      6  C12 2HX d   1     -17.023  35.273  -1.435  0.00  0.00     0.079 A 
ATOM      7  H8  2HX d   1     -15.143  33.995  -3.947  0.00  0.00     0.089 H 
ATOM      8  H9  2HX d   1     -14.320  32.629  -2.076  0.00  0.00     0.114 H 
ATOM      9  H10 2HX d   1     -16.869  34.593   0.585  0.00  0.00     0.118 H 
ENDROOT
BRANCH   6  10
ATOM     10  N13 2HX d   1     -17.984  36.268  -1.213  0.00  0.00    -0.318 N 
ATOM     11  C15 2HX d   1     -18.379  36.739   0.019  0.00  0.00     0.274 C 
ATOM     12  O17 2HX d   1     -18.022  36.328   1.106  0.00  0.00    -0.266 OA
ATOM     13  H11 2HX d   1     -18.420  36.670  -2.018  0.00  0.00     0.169 HD
BRANCH  11  14
ATOM     14  C16 2HX d   1     -19.303  37.903  -0.004  0.00  0.00     0.125 A 
ATOM     15  C18 2HX d   1     -19.772  38.496   1.204  0.00  0.00    -0.047 A 
ATOM     16  C19 2HX d   1     -20.596  39.620   1.039  0.00  0.00    -0.041 A 
ATOM     17  H15 2HX d   1     -19.511  38.106   2.181  0.00  0.00     0.087 H 
ATOM     18  C20 2HX d   1     -20.900  40.094  -0.268  0.00  0.00     0.146 A 
ATOM     19  H16 2HX d   1     -21.001  40.127   1.907  0.00  0.00     0.088 H 
ATOM     20  C21 2HX d   1     -20.398  39.438  -1.392  0.00  0.00     0.112 A 
ATOM     21  F24 2HX d   1     -21.704  41.173  -0.434  0.00  0.00    -0.204 F 
ATOM     22  N22 2HX d   1     -19.595  38.334  -1.267  0.00  0.00    -0.239 NA
BRANCH  20  23
ATOM     23  C23 2HX d   1     -20.737  39.874  -2.757  0.00  0.00     0.073 C 
ATOM     24  C26 2HX d   1     -22.108  40.016  -3.192  0.00  0.00     0.132 C 
ATOM     25  C27 2HX d   1     -22.482  40.449  -4.501  0.00  0.00    -0.045 C 
ATOM     26  F32 2HX d   1     -23.065  39.688  -2.289  0.00  0.00    -0.205 F 
ATOM     27  C28 2HX d   1     -21.493  40.804  -5.468  0.00  0.00    -0.077 C 
ATOM     28  H20 2HX d   1     -23.532  40.509  -4.764  0.00  0.00     0.088 H 
ATOM     29  C29 2HX d   1     -20.239  40.561  -4.941  0.00  0.00    -0.045 C 
ATOM     30  H21 2HX d   1     -21.694  41.200  -6.457  0.00  0.00     0.083 H 
ATOM     31  C30 2HX d   1     -19.739  40.217  -3.700  0.00  0.00     0.132 C 
ATOM     32  H22 2HX d   1     -19.456  40.666  -5.683  0.00  0.00     0.088 H 
ATOM     33  F31 2HX d   1     -18.453  40.089  -3.440  0.00  0.00    -0.205 F 
ENDBRANCH  20  23
ENDBRANCH  11  14
ENDBRANCH   6  10
BRANCH   1  34
ATOM     34  N3  2HX d   1     -16.957  35.907  -3.782  0.00  0.00    -0.376 N 
ATOM     35  C2  2HX d   1     -18.396  35.779  -4.120  0.00  0.00     0.001 C 
ATOM     36  C1  2HX d   1     -18.928  37.004  -4.871  0.00  0.00    -0.015 C 
ATOM     37  H2  2HX d   1     -18.533  34.889  -4.752  0.00  0.00     0.065 H 
ATOM     38  H3  2HX d   1     -18.969  35.659  -3.189  0.00  0.00     0.065 H 
ATOM     39  C6  2HX d   1     -17.985  37.337  -6.068  0.00  0.00     0.069 C 
ATOM     40  H1  2HX d   1     -18.929  37.867  -4.189  0.00  0.00     0.045 H 
ATOM     41  C5  2HX d   1     -16.490  37.492  -5.570  0.00  0.00     0.140 C 
ATOM     42  H7  2HX d   1     -18.048  36.524  -6.806  0.00  0.00     0.086 H 
ATOM     43  C4  2HX d   1     -16.024  36.202  -4.874  0.00  0.00     0.024 C 
ATOM     44  H6  2HX d   1     -16.446  38.309  -4.835  0.00  0.00     0.090 H 
ATOM     45  H4  2HX d   1     -16.020  35.371  -5.595  0.00  0.00     0.067 H 
ATOM     46  H5  2HX d   1     -15.011  36.342  -4.470  0.00  0.00     0.067 H 
BRANCH  36  47
ATOM     47  C14 2HX d   1     -20.376  36.732  -5.299  0.00  0.00    -0.069 C 
ATOM     48  H12 2HX d   1     -20.984  36.505  -4.411  0.00  0.00     0.028 H 
ATOM     49  H13 2HX d   1     -20.400  35.875  -5.989  0.00  0.00     0.028 H 
ATOM     50  H14 2HX d   1     -20.782  37.621  -5.804  0.00  0.00     0.028 H 
ENDBRANCH  36  47
BRANCH  39  51
ATOM     51  O33 2HX d   1     -18.350  38.591  -6.696  0.00  0.00    -0.393 OA
ATOM     52  H23 2HX d   1     -19.245  38.538  -7.010  0.00  0.00     0.210 HD
ENDBRANCH  39  51
BRANCH  41  53
ATOM     53  N25 2HX d   1     -15.642  37.859  -6.717  0.00  0.00    -0.071 N 
ATOM     54  H17 2HX d   1     -14.687  37.960  -6.410  0.00  0.00     0.274 HD
ATOM     55  H18 2HX d   1     -15.964  38.731  -7.107  0.00  0.00     0.274 HD
ATOM     56  H19 2HX d   1     -15.695  37.137  -7.418  0.00  0.00     0.274 HD
ENDBRANCH  41  53
ENDBRANCH   1  34
TORSDOF 7
