REMARK  5 active torsions:
REMARK  status: ('A' for Active; 'I' for Inactive)
REMARK    1  A    between atoms: C16_18  and  C17_3 
REMARK    2  A    between atoms: C14_17  and  C20_4 
REMARK       I    between atoms: C02_6  and  N03_7 
REMARK    3  A    between atoms: C11_15  and  C02_6 
REMARK    4  A    between atoms: N03_7  and  C04_8 
REMARK    5  A    between atoms: C08_12  and  C09_13 
ROOT
ATOM      1  O01 2JQ d   1     -33.981  39.497  16.062  0.00  0.00    -0.267 OA
ATOM      2  C02 2JQ d   1     -33.167  38.770  15.540  0.00  0.00     0.258 C 
ATOM      3  N03 2JQ d   1     -33.143  37.369  15.722  0.00  0.00    -0.307 N 
ATOM      4  H   2JQ d   1     -32.414  36.859  15.265  0.00  0.00     0.170 HD
ENDROOT
BRANCH   2   5
ATOM      5  C11 2JQ d   1     -32.085  39.373  14.692  0.00  0.00     0.049 A 
ATOM      6  C12 2JQ d   1     -30.792  39.257  15.136  0.00  0.00    -0.066 A 
ATOM      7  C13 2JQ d   1     -29.777  39.799  14.393  0.00  0.00    -0.067 A 
ATOM      8  H   2JQ d   1     -30.576  38.742  16.065  0.00  0.00     0.085 H 
ATOM      9  C14 2JQ d   1     -30.044  40.466  13.223  0.00  0.00     0.049 A 
ATOM     10  H   2JQ d   1     -28.752  39.700  14.732  0.00  0.00     0.084 H 
ATOM     11  C15 2JQ d   1     -31.340  40.577  12.767  0.00  0.00    -0.051 A 
ATOM     12  C16 2JQ d   1     -32.370  40.034  13.516  0.00  0.00     0.057 A 
ATOM     13  H   2JQ d   1     -31.550  41.084  11.832  0.00  0.00     0.086 H 
BRANCH   9  14
ATOM     14  C20 2JQ d   1     -28.881  41.029  12.433  0.00  0.00     0.417 C 
ATOM     15  F21 2JQ d   1     -27.845  41.329  13.235  0.00  0.00    -0.166 F 
ATOM     16  F22 2JQ d   1     -29.239  42.098  11.701  0.00  0.00    -0.166 F 
ATOM     17  F23 2JQ d   1     -28.496  40.042  11.624  0.00  0.00    -0.166 F 
ENDBRANCH   9  14
BRANCH  12  18
ATOM     18  C17 2JQ d   1     -33.802  40.142  13.042  0.00  0.00     0.210 C 
ATOM     19  O18 2JQ d   1     -34.199  41.206  12.493  0.00  0.00    -0.644 OA
ATOM     20  O19 2JQ d   1     -34.583  39.158  13.180  0.00  0.00    -0.644 OA
ENDBRANCH  12  18
ENDBRANCH   2   5
BRANCH   3  21
ATOM     21  C04 2JQ d   1     -34.067  36.628  16.498  0.00  0.00     0.130 A 
ATOM     22  C05 2JQ d   1     -35.257  37.184  16.951  0.00  0.00    -0.038 A 
ATOM     23  C06 2JQ d   1     -36.156  36.439  17.693  0.00  0.00    -0.077 A 
ATOM     24  H   2JQ d   1     -35.485  38.218  16.719  0.00  0.00     0.089 H 
ATOM     25  C07 2JQ d   1     -35.803  35.123  17.961  0.00  0.00    -0.059 A 
ATOM     26  H   2JQ d   1     -37.089  36.861  18.047  0.00  0.00     0.083 H 
ATOM     27  C08 2JQ d   1     -34.599  34.595  17.500  0.00  0.00     0.033 A 
ATOM     28  H   2JQ d   1     -36.474  34.497  18.538  0.00  0.00     0.086 H 
ATOM     29  N10 2JQ d   1     -33.761  35.349  16.782  0.00  0.00    -0.236 NA
BRANCH  27  30
ATOM     30  C09 2JQ d   1     -34.242  33.161  17.814  0.00  0.00    -0.035 C 
ATOM     31  H   2JQ d   1     -33.263  32.922  17.372  0.00  0.00     0.035 H 
ATOM     32  H   2JQ d   1     -35.007  32.492  17.394  0.00  0.00     0.035 H 
ATOM     33  H   2JQ d   1     -34.195  33.025  18.905  0.00  0.00     0.035 H 
ENDBRANCH  27  30
ENDBRANCH   3  21
TORSDOF 5
