REMARK WARNING: 32 MAX_TORS EXCEEDED!!!
REMARK  49 active torsions:
REMARK  status: ('A' for Active; 'I' for Inactive)
REMARK    1  A    between atoms: N_1  and  CA_2 
REMARK    2  A    between atoms: CA_2  and  C_3 
REMARK    3  A    between atoms: CA_2  and  CB_5 
REMARK       I    between atoms: C_3  and  N_10 
REMARK    4  A    between atoms: CB_5  and  CG_6 
REMARK    5  A    between atoms: CG_6  and  CD_7 
REMARK       I    between atoms: CD_7  and  NE2_9 
REMARK    6  A    between atoms: N_10  and  CA_11 
REMARK    7  A    between atoms: CA_11  and  C_12 
REMARK       I    between atoms: C_12  and  N_14 
REMARK    8  A    between atoms: N_14  and  CA_15 
REMARK    9  A    between atoms: CA_15  and  C_16 
REMARK   10  A    between atoms: CA_15  and  CB_18 
REMARK       I    between atoms: C_16  and  N_22 
REMARK   11  A    between atoms: CB_18  and  CG_19 
REMARK   12  A    between atoms: CG_19  and  CD1_20 
REMARK   13  A    between atoms: CG_19  and  CD2_21 
REMARK   14  A    between atoms: N_22  and  CA_23 
REMARK   15  A    between atoms: CA_23  and  C_24 
REMARK   16  A    between atoms: CA_23  and  CB_26 
REMARK       I    between atoms: C_24  and  N_30 
REMARK   17  A    between atoms: CB_26  and  CG_27 
REMARK   18  A    between atoms: CG_27  and  CD1_28 
REMARK   19  A    between atoms: CG_27  and  CD2_29 
REMARK   20  A    between atoms: N_30  and  CA_31 
REMARK   21  A    between atoms: CA_31  and  C_32 
REMARK   22  A    between atoms: CA_31  and  CB_34 
REMARK       I    between atoms: C_32  and  N_38 
REMARK   23  A    between atoms: CB_34  and  CG_35 
REMARK   24  A    between atoms: N_38  and  CA_39 
REMARK   25  A    between atoms: CA_39  and  C_40 
REMARK   26  A    between atoms: CA_39  and  CB_42 
REMARK       I    between atoms: C_40  and  N_43 
REMARK   27  A    between atoms: N_43  and  CA_44 
REMARK   28  A    between atoms: CA_44  and  C_45 
REMARK   29  A    between atoms: CA_44  and  CB_47 
REMARK       I    between atoms: C_45  and  N_51 
REMARK   30  A    between atoms: CB_47  and  CG_48 
REMARK   31  A    between atoms: CG_48  and  CD1_49 
REMARK   32  A    between atoms: CG_48  and  CD2_50 
REMARK   33  A    between atoms: N_51  and  CA_52 
REMARK   34  A    between atoms: CA_52  and  C_53 
REMARK   35  A    between atoms: CA_52  and  CB_55 
REMARK       I    between atoms: C_53  and  N_59 
REMARK   36  A    between atoms: CB_55  and  CG_56 
REMARK   37  A    between atoms: N_59  and  CA_60 
REMARK   38  A    between atoms: CA_60  and  C_61 
REMARK   39  A    between atoms: CA_60  and  CB_63 
REMARK       I    between atoms: C_61  and  N_67 
REMARK   40  A    between atoms: CB_63  and  CG_64 
REMARK   41  A    between atoms: CG_64  and  CD1_65 
REMARK   42  A    between atoms: CG_64  and  CD2_66 
REMARK   43  A    between atoms: N_67  and  CA_68 
REMARK   44  A    between atoms: CA_68  and  C_69 
REMARK   45  A    between atoms: CA_68  and  CB_71 
REMARK       I    between atoms: C_69  and  N_72 
REMARK   46  A    between atoms: N_72  and  CA_73 
REMARK   47  A    between atoms: CA_73  and  C_74 
REMARK   48  A    between atoms: CA_73  and  CB_76 
REMARK   49  A    between atoms: CB_76  and  OG_77 
ROOT
ATOM      1  CA  ALA d   1      60.292 -10.755  24.169  0.00  0.00     0.086 C 
ATOM      2  H   ALA d   1      59.553 -10.197  24.762  0.00  0.00     0.086 H 
ENDROOT
BRANCH   1   3
ATOM      3  N   ALA d   1      61.563 -10.158  24.345  0.00  0.00    -0.346 N 
ATOM      4  C   ASP d   1      62.053  -9.934  25.565  0.00  0.00     0.241 C 
ATOM      5  O   ASP d   1      61.453 -10.284  26.599  0.00  0.00    -0.271 OA
ATOM      6  H   ALA d   1      62.102  -9.900  23.543  0.00  0.00     0.163 HD
BRANCH   4   7
ATOM      7  CA  ASP d   1      63.406  -9.209  25.640  0.00  0.00     0.098 C 
ATOM      8  H   ASP d   1      63.881  -9.428  26.608  0.00  0.00     0.088 H 
BRANCH   7   9
ATOM      9  N   ASP d   1      64.223  -9.680  24.584  0.00  0.00    -0.346 N 
ATOM     10  C   LEU d   1      64.753 -10.880  24.620  0.00  0.00     0.241 C 
ATOM     11  O   LEU d   1      64.486 -11.685  25.471  0.00  0.00    -0.271 OA
ATOM     12  H   ASP d   1      64.399  -9.088  23.797  0.00  0.00     0.163 HD
BRANCH  10  13
ATOM     13  CA  LEU d   1      65.670 -11.245  23.474  0.00  0.00     0.089 C 
ATOM     14  H   LEU d   1      65.727 -12.342  23.414  0.00  0.00     0.087 H 
BRANCH  13  15
ATOM     15  N   LEU d   1      65.133 -10.771  22.214  0.00  0.00    -0.346 N 
ATOM     16  C   LEU d   1      63.953 -11.179  21.785  0.00  0.00     0.241 C 
ATOM     17  O   LEU d   1      63.218 -11.897  22.435  0.00  0.00    -0.271 OA
ATOM     18  H   LEU d   1      65.663 -10.127  21.663  0.00  0.00     0.163 HD
BRANCH  16  19
ATOM     19  CA  LEU d   1      63.417 -10.624  20.443  0.00  0.00     0.089 C 
ATOM     20  H   LEU d   1      62.325 -10.756  20.450  0.00  0.00     0.087 H 
BRANCH  19  21
ATOM     21  N   LEU d   1      63.660  -9.190  20.343  0.00  0.00    -0.346 N 
ATOM     22  C   GLY d   1      63.032  -8.279  21.109  0.00  0.00     0.236 C 
ATOM     23  O   GLY d   1      62.245  -8.581  21.996  0.00  0.00    -0.272 OA
ATOM     24  H   LEU d   1      64.327  -8.867  19.671  0.00  0.00     0.163 HD
BRANCH  22  25
ATOM     25  CA  GLY d   1      63.330  -6.784  20.837  0.00  0.00     0.069 C 
ATOM     26  H   GLY d   1      62.843  -6.458  19.906  0.00  0.00     0.078 H 
ATOM     27  H   GLY d   1      62.976  -6.163  21.673  0.00  0.00     0.078 H 
BRANCH  25  28
ATOM     28  N   GLY d   1      64.792  -6.691  20.711  0.00  0.00    -0.351 N 
ATOM     29  C   GLN d   1      65.689  -7.160  21.607  0.00  0.00     0.248 C 
ATOM     30  O   GLN d   1      65.513  -7.234  22.842  0.00  0.00    -0.271 OA
ATOM     31  H   GLY d   1      65.153  -6.243  19.893  0.00  0.00     0.163 HD
BRANCH  29  32
ATOM     32  CA  GLN d   1      67.054  -7.568  21.021  0.00  0.00     0.176 C 
ATOM     33  H   GLN d   1      67.739  -7.745  21.863  0.00  0.00     0.099 H 
BRANCH  32  34
ATOM     34  N   GLN d   1      66.987  -8.855  20.229  0.00  0.00    -0.066 N 
ATOM     35  H   GLN d   1      67.902  -9.076  19.869  0.00  0.00     0.275 HD
ATOM     36  H   GLN d   1      66.342  -8.745  19.462  0.00  0.00     0.275 HD
ATOM     37  H   GLN d   1      66.672  -9.602  20.828  0.00  0.00     0.275 HD
ENDBRANCH  32  34
BRANCH  32  38
ATOM     38  CB  GLN d   1      67.610  -6.408  20.211  0.00  0.00    -0.022 C 
ATOM     39  H   GLN d   1      66.949  -6.225  19.351  0.00  0.00     0.037 H 
ATOM     40  H   GLN d   1      68.615  -6.674  19.851  0.00  0.00     0.037 H 
BRANCH  38  41
ATOM     41  CG  GLN d   1      67.705  -5.127  21.044  0.00  0.00     0.011 C 
ATOM     42  H   GLN d   1      67.467  -5.365  22.091  0.00  0.00     0.047 H 
ATOM     43  H   GLN d   1      66.977  -4.397  20.660  0.00  0.00     0.047 H 
BRANCH  41  44
ATOM     44  CD  GLN d   1      69.101  -4.513  20.981  0.00  0.00     0.215 C 
ATOM     45  OE1 GLN d   1      69.810  -4.444  21.992  0.00  0.00    -0.274 OA
ATOM     46  NE2 GLN d   1      69.513  -4.088  19.782  0.00  0.00    -0.370 N 
ATOM     47  H   GLN d   1      70.419  -3.677  19.681  0.00  0.00     0.159 HD
ATOM     48  H   GLN d   1      68.915  -4.181  18.986  0.00  0.00     0.159 HD
ENDBRANCH  41  44
ENDBRANCH  38  41
ENDBRANCH  32  38
ENDBRANCH  29  32
ENDBRANCH  25  28
ENDBRANCH  22  25
ENDBRANCH  19  21
BRANCH  19  49
ATOM     49  CB  LEU d   1      63.946 -11.443  19.254  0.00  0.00    -0.035 C 
ATOM     50  H   LEU d   1      65.008 -11.188  19.124  0.00  0.00     0.037 H 
ATOM     51  H   LEU d   1      63.383 -11.132  18.362  0.00  0.00     0.037 H 
BRANCH  49  52
ATOM     52  CG  LEU d   1      63.848 -12.972  19.350  0.00  0.00    -0.059 C 
ATOM     53  H   LEU d   1      64.387 -13.343  20.234  0.00  0.00     0.038 H 
BRANCH  52  54
ATOM     54  CD1 LEU d   1      62.367 -13.323  19.446  0.00  0.00    -0.073 C 
ATOM     55  H   LEU d   1      62.253 -14.415  19.517  0.00  0.00     0.028 H 
ATOM     56  H   LEU d   1      61.845 -12.957  18.550  0.00  0.00     0.028 H 
ATOM     57  H   LEU d   1      61.935 -12.851  20.341  0.00  0.00     0.028 H 
ENDBRANCH  52  54
BRANCH  52  58
ATOM     58  CD2 LEU d   1      64.456 -13.571  18.066  0.00  0.00    -0.073 C 
ATOM     59  H   LEU d   1      65.523 -13.310  18.010  0.00  0.00     0.028 H 
ATOM     60  H   LEU d   1      63.932 -13.165  17.188  0.00  0.00     0.028 H 
ATOM     61  H   LEU d   1      64.346 -14.665  18.084  0.00  0.00     0.028 H 
ENDBRANCH  52  58
ENDBRANCH  49  52
ENDBRANCH  19  49
ENDBRANCH  16  19
ENDBRANCH  13  15
BRANCH  13  62
ATOM     62  CB  LEU d   1      67.071 -10.724  23.775  0.00  0.00    -0.035 C 
ATOM     63  H   LEU d   1      67.232 -10.773  24.862  0.00  0.00     0.037 H 
ATOM     64  H   LEU d   1      67.129  -9.677  23.443  0.00  0.00     0.037 H 
BRANCH  62  65
ATOM     65  CG  LEU d   1      68.177 -11.502  23.094  0.00  0.00    -0.059 C 
ATOM     66  H   LEU d   1      67.978 -11.488  22.012  0.00  0.00     0.038 H 
BRANCH  65  67
ATOM     67  CD1 LEU d   1      69.525 -10.826  23.331  0.00  0.00    -0.073 C 
ATOM     68  H   LEU d   1      70.317 -11.402  22.831  0.00  0.00     0.028 H 
ATOM     69  H   LEU d   1      69.729 -10.783  24.411  0.00  0.00     0.028 H 
ATOM     70  H   LEU d   1      69.500  -9.805  22.922  0.00  0.00     0.028 H 
ENDBRANCH  65  67
BRANCH  65  71
ATOM     71  CD2 LEU d   1      68.207 -12.954  23.534  0.00  0.00    -0.073 C 
ATOM     72  H   LEU d   1      67.224 -13.413  23.351  0.00  0.00     0.028 H 
ATOM     73  H   LEU d   1      68.442 -13.007  24.607  0.00  0.00     0.028 H 
ATOM     74  H   LEU d   1      68.976 -13.495  22.963  0.00  0.00     0.028 H 
ENDBRANCH  65  71
ENDBRANCH  62  65
ENDBRANCH  13  62
ENDBRANCH  10  13
ENDBRANCH   7   9
BRANCH   7  75
ATOM     75  CB  ASP d   1      63.247  -7.668  25.484  0.00  0.00     0.043 C 
ATOM     76  H   ASP d   1      62.595  -7.468  24.621  0.00  0.00     0.052 H 
ATOM     77  H   ASP d   1      64.239  -7.229  25.303  0.00  0.00     0.052 H 
BRANCH  75  78
ATOM     78  CG  ASP d   1      62.636  -7.004  26.725  0.00  0.00     0.175 C 
ATOM     79  OD1 ASP d   1      62.708  -7.540  27.855  0.00  0.00    -0.648 OA
ATOM     80  OD2 ASP d   1      62.081  -5.907  26.575  0.00  0.00    -0.648 OA
ENDBRANCH  75  78
ENDBRANCH   7  75
ENDBRANCH   4   7
ENDBRANCH   1   3
BRANCH   1  81
ATOM     81  C   ALA d   1      60.342 -12.239  24.657  0.00  0.00     0.240 C 
ATOM     82  O   ALA d   1      59.300 -12.802  24.990  0.00  0.00    -0.271 OA
ATOM     83  N   LEU d   1      61.523 -12.857  24.664  0.00  0.00    -0.346 N 
ATOM     84  H   LEU d   1      62.349 -12.343  24.431  0.00  0.00     0.163 HD
BRANCH  83  85
ATOM     85  CA  LEU d   1      61.629 -14.268  25.005  0.00  0.00     0.089 C 
ATOM     86  H   LEU d   1      60.819 -14.808  24.493  0.00  0.00     0.087 H 
BRANCH  85  87
ATOM     87  C   LEU d   1      61.508 -14.520  26.515  0.00  0.00     0.241 C 
ATOM     88  O   LEU d   1      61.472 -15.684  26.932  0.00  0.00    -0.271 OA
ATOM     89  N   ASP d   1      61.407 -13.469  27.327  0.00  0.00    -0.346 N 
ATOM     90  H   ASP d   1      61.582 -12.549  26.977  0.00  0.00     0.163 HD
BRANCH  89  91
ATOM     91  CA  ASP d   1      61.024 -13.668  28.790  0.00  0.00     0.098 C 
ATOM     92  H   ASP d   1      61.135 -12.712  29.322  0.00  0.00     0.088 H 
BRANCH  91  93
ATOM     93  C   ASP d   1      61.989 -14.702  29.450  0.00  0.00     0.241 C 
ATOM     94  O   ASP d   1      61.603 -15.693  30.054  0.00  0.00    -0.271 OA
ATOM     95  N   LEU d   1      63.280 -14.464  29.244  0.00  0.00    -0.346 N 
ATOM     96  H   LEU d   1      63.562 -13.601  28.824  0.00  0.00     0.163 HD
BRANCH  95  97
ATOM     97  CA  LEU d   1      64.269 -15.422  29.614  0.00  0.00     0.089 C 
ATOM     98  H   LEU d   1      64.059 -16.375  29.106  0.00  0.00     0.087 H 
BRANCH  97  99
ATOM     99  C   LEU d   1      64.272 -15.656  31.138  0.00  0.00     0.241 C 
ATOM    100  O   LEU d   1      64.269 -14.681  31.901  0.00  0.00    -0.271 OA
ATOM    101  N   ALA d   1      64.313 -16.921  31.577  0.00  0.00    -0.346 N 
ATOM    102  H   ALA d   1      64.253 -17.672  30.920  0.00  0.00     0.163 HD
BRANCH 101 103
ATOM    103  CA  ALA d   1      64.449 -17.231  33.052  0.00  0.00     0.086 C 
ATOM    104  H   ALA d   1      63.723 -16.617  33.605  0.00  0.00     0.086 H 
BRANCH 103 105
ATOM    105  C   ALA d   1      65.870 -16.855  33.533  0.00  0.00     0.240 C 
ATOM    106  O   ALA d   1      66.748 -16.496  32.732  0.00  0.00    -0.271 OA
ATOM    107  N   SER d   1      66.157 -16.841  34.809  0.00  0.00    -0.343 N 
ATOM    108  H   SER d   1      65.524 -17.209  35.490  0.00  0.00     0.163 HD
BRANCH 107 109
ATOM    109  CA  SER d   1      67.488 -16.243  35.210  0.00  0.00     0.116 C 
ATOM    110  H   SER d   1      67.537 -15.262  34.715  0.00  0.00     0.093 H 
BRANCH 109 111
ATOM    111  C   SER d   1      68.740 -17.010  34.762  0.00  0.00     0.198 C 
ATOM    112  O   SER d   1      68.712 -18.229  34.771  0.00  0.00    -0.646 OA
ATOM    113  O1  SER d   1      69.775 -16.393  34.393  0.00  0.00    -0.646 OA
ENDBRANCH 109 111
BRANCH 109 114
ATOM    114  CB  SER d   1      67.557 -15.991  36.721  0.00  0.00     0.045 C 
ATOM    115  H   SER d   1      68.607 -15.883  37.031  0.00  0.00     0.077 H 
ATOM    116  H   SER d   1      67.102 -16.836  37.258  0.00  0.00     0.077 H 
BRANCH 114 117
ATOM    117  OG  SER d   1      66.850 -14.804  37.016  0.00  0.00    -0.398 OA
ATOM    118  H   SER d   1      66.887 -14.639  37.951  0.00  0.00     0.209 HD
ENDBRANCH 114 117
ENDBRANCH 109 114
ENDBRANCH 107 109
ENDBRANCH 103 105
BRANCH 103 119
ATOM    119  CB  ALA d   1      64.140 -18.688  33.328  0.00  0.00    -0.049 C 
ATOM    120  H   ALA d   1      64.246 -18.888  34.405  0.00  0.00     0.030 H 
ATOM    121  H   ALA d   1      64.840 -19.324  32.767  0.00  0.00     0.030 H 
ATOM    122  H   ALA d   1      63.110 -18.910  33.013  0.00  0.00     0.030 H 
ENDBRANCH 103 119
ENDBRANCH 101 103
ENDBRANCH  97  99
BRANCH  97 123
ATOM    123  CB  LEU d   1      65.641 -14.895  29.171  0.00  0.00    -0.035 C 
ATOM    124  H   LEU d   1      66.418 -15.596  29.510  0.00  0.00     0.037 H 
ATOM    125  H   LEU d   1      65.809 -13.910  29.632  0.00  0.00     0.037 H 
BRANCH 123 126
ATOM    126  CG  LEU d   1      65.735 -14.750  27.629  0.00  0.00    -0.059 C 
ATOM    127  H   LEU d   1      64.916 -14.118  27.254  0.00  0.00     0.038 H 
BRANCH 126 128
ATOM    128  CD1 LEU d   1      67.070 -14.074  27.318  0.00  0.00    -0.073 C 
ATOM    129  H   LEU d   1      67.175 -13.953  26.230  0.00  0.00     0.028 H 
ATOM    130  H   LEU d   1      67.894 -14.696  27.699  0.00  0.00     0.028 H 
ATOM    131  H   LEU d   1      67.103 -13.087  27.802  0.00  0.00     0.028 H 
ENDBRANCH 126 128
BRANCH 126 132
ATOM    132  CD2 LEU d   1      65.597 -16.172  27.016  0.00  0.00    -0.073 C 
ATOM    133  H   LEU d   1      64.616 -16.592  27.281  0.00  0.00     0.028 H 
ATOM    134  H   LEU d   1      66.392 -16.821  27.412  0.00  0.00     0.028 H 
ATOM    135  H   LEU d   1      65.685 -16.110  25.921  0.00  0.00     0.028 H 
ENDBRANCH 126 132
ENDBRANCH 123 126
ENDBRANCH  97 123
ENDBRANCH  95  97
ENDBRANCH  91  93
BRANCH  91 136
ATOM    136  CB  ASP d   1      59.552 -14.083  28.853  0.00  0.00     0.043 C 
ATOM    137  H   ASP d   1      59.455 -15.101  28.446  0.00  0.00     0.052 H 
ATOM    138  H   ASP d   1      58.963 -13.385  28.240  0.00  0.00     0.052 H 
BRANCH 136 139
ATOM    139  CG  ASP d   1      58.984 -14.070  30.316  0.00  0.00     0.175 C 
ATOM    140  OD1 ASP d   1      59.690 -13.533  31.215  0.00  0.00    -0.648 OA
ATOM    141  OD2 ASP d   1      57.840 -14.574  30.509  0.00  0.00    -0.648 OA
ENDBRANCH 136 139
ENDBRANCH  91 136
ENDBRANCH  89  91
ENDBRANCH  85  87
BRANCH  85 142
ATOM    142  CB  LEU d   1      62.992 -14.829  24.530  0.00  0.00    -0.035 C 
ATOM    143  H   LEU d   1      63.223 -15.760  25.068  0.00  0.00     0.037 H 
ATOM    144  H   LEU d   1      63.787 -14.092  24.715  0.00  0.00     0.037 H 
BRANCH 142 145
ATOM    145  CG  LEU d   1      62.874 -15.112  23.000  0.00  0.00    -0.059 C 
ATOM    146  H   LEU d   1      62.403 -14.263  22.483  0.00  0.00     0.038 H 
BRANCH 145 147
ATOM    147  CD1 LEU d   1      64.233 -15.351  22.434  0.00  0.00    -0.073 C 
ATOM    148  H   LEU d   1      64.151 -15.551  21.355  0.00  0.00     0.028 H 
ATOM    149  H   LEU d   1      64.691 -16.217  22.933  0.00  0.00     0.028 H 
ATOM    150  H   LEU d   1      64.859 -14.461  22.596  0.00  0.00     0.028 H 
ENDBRANCH 145 147
BRANCH 145 151
ATOM    151  CD2 LEU d   1      62.002 -16.356  22.878  0.00  0.00    -0.073 C 
ATOM    152  H   LEU d   1      61.008 -16.150  23.303  0.00  0.00     0.028 H 
ATOM    153  H   LEU d   1      62.470 -17.187  23.426  0.00  0.00     0.028 H 
ATOM    154  H   LEU d   1      61.898 -16.628  21.817  0.00  0.00     0.028 H 
ENDBRANCH 145 151
ENDBRANCH 142 145
ENDBRANCH  85 142
ENDBRANCH  83  85
ENDBRANCH   1  81
BRANCH   1 155
ATOM    155  CB  ALA d   1      59.853 -10.754  22.680  0.00  0.00    -0.049 C 
ATOM    156  H   ALA d   1      58.863 -11.226  22.589  0.00  0.00     0.030 H 
ATOM    157  H   ALA d   1      60.584 -11.318  22.082  0.00  0.00     0.030 H 
ATOM    158  H   ALA d   1      59.800  -9.718  22.314  0.00  0.00     0.030 H 
ENDBRANCH   1 155
TORSDOF 49
