REMARK  32 active torsions:
REMARK  status: ('A' for Active; 'I' for Inactive)
REMARK    1  A    between atoms: N_1  and  CA_2 
REMARK    2  A    between atoms: CA_2  and  C_3 
REMARK    3  A    between atoms: CA_2  and  CB_5 
REMARK       I    between atoms: C_3  and  N_10 
REMARK    4  A    between atoms: CB_5  and  CG_6 
REMARK    5  A    between atoms: CG_6  and  CD_7 
REMARK    6  A    between atoms: N_10  and  CA_11 
REMARK    7  A    between atoms: CA_11  and  C_12 
REMARK    8  A    between atoms: CA_11  and  CB_14 
REMARK       I    between atoms: C_12  and  N_15 
REMARK    9  A    between atoms: CA_16  and  C_17 
REMARK       I    between atoms: C_17  and  N_22 
REMARK   10  A    between atoms: CA_23  and  C_24 
REMARK       I    between atoms: C_24  and  N_29 
REMARK   11  A    between atoms: N_29  and  CA_30 
REMARK   12  A    between atoms: CA_30  and  C_31 
REMARK   13  A    between atoms: CA_30  and  CB_33 
REMARK       I    between atoms: C_31  and  N_35 
REMARK   14  A    between atoms: CB_33  and  OG_34 
REMARK   15  A    between atoms: N_35  and  CA_36 
REMARK   16  A    between atoms: CA_36  and  C_37 
REMARK   17  A    between atoms: CA_36  and  CB_39 
REMARK       I    between atoms: C_37  and  N_47 
REMARK   18  A    between atoms: CB_39  and  CG_40 
REMARK   19  A    between atoms: CZ_45  and  OH_46 
REMARK   20  A    between atoms: N_47  and  CA_48 
REMARK   21  A    between atoms: CA_48  and  C_49 
REMARK   22  A    between atoms: CA_48  and  CB_51 
REMARK       I    between atoms: C_49  and  N_52 
REMARK   23  A    between atoms: N_52  and  CA_53 
REMARK   24  A    between atoms: CA_53  and  C_54 
REMARK   25  A    between atoms: CA_53  and  CB_56 
REMARK       I    between atoms: C_54  and  N_61 
REMARK   26  A    between atoms: CB_56  and  CG_57 
REMARK   27  A    between atoms: CG_57  and  CD_58 
REMARK   28  A    between atoms: N_61  and  CA_62 
REMARK   29  A    between atoms: CA_62  and  C_63 
REMARK   30  A    between atoms: CA_62  and  CB_65 
REMARK   31  A    between atoms: CB_65  and  CG1_66 
REMARK   32  A    between atoms: CB_65  and  CG2_67 
ROOT
ATOM      1  C   SER d   1       8.187  16.466  -8.802  0.00  0.00     0.243 C 
ATOM      2  O   SER d   1       8.985  16.235  -9.721  0.00  0.00    -0.271 OA
ATOM      3  N   TYR d   1       7.099  15.747  -8.593  0.00  0.00    -0.346 N 
ATOM      4  H   TYR d   1       6.444  16.027  -7.891  0.00  0.00     0.163 HD
ENDROOT
BRANCH   1   5
ATOM      5  CA  SER d   1       8.404  17.597  -7.846  0.00  0.00     0.109 C 
ATOM      6  H   SER d   1       8.294  17.214  -6.821  0.00  0.00     0.090 H 
BRANCH   5   7
ATOM      7  N   SER d   1       9.734  18.122  -7.998  0.00  0.00    -0.344 N 
ATOM      8  C   PRO d   1      10.754  17.526  -7.396  0.00  0.00     0.241 C 
ATOM      9  O   PRO d   1      10.613  16.542  -6.682  0.00  0.00    -0.271 OA
ATOM     10  H   SER d   1       9.890  18.936  -8.557  0.00  0.00     0.163 HD
BRANCH   8  11
ATOM     11  CA  PRO d   1      12.127  18.140  -7.595  0.00  0.00     0.091 C 
ATOM     12  N   PRO d   1      12.877  18.024  -6.352  0.00  0.00    -0.337 N 
ATOM     13  C   PRO d   1      12.376  18.559  -5.242  0.00  0.00     0.243 C 
ATOM     14  CD  PRO d   1      14.130  17.275  -6.525  0.00  0.00    -0.001 C 
ATOM     15  O   PRO d   1      11.344  19.242  -5.225  0.00  0.00    -0.271 OA
ATOM     16  CG  PRO d   1      14.317  17.301  -8.014  0.00  0.00    -0.048 C 
ATOM     17  H   PRO d   1      14.032  16.244  -6.154  0.00  0.00     0.064 H 
ATOM     18  H   PRO d   1      14.965  17.772  -6.010  0.00  0.00     0.064 H 
ATOM     19  CB  PRO d   1      12.970  17.343  -8.593  0.00  0.00    -0.036 C 
ATOM     20  H   PRO d   1      14.888  18.193  -8.311  0.00  0.00     0.035 H 
ATOM     21  H   PRO d   1      14.848  16.397  -8.348  0.00  0.00     0.035 H 
ATOM     22  H   PRO d   1      12.987  17.846  -9.571  0.00  0.00     0.036 H 
ATOM     23  H   PRO d   1      12.569  16.325  -8.710  0.00  0.00     0.036 H 
ATOM     24  H   PRO d   1      12.027  19.188  -7.912  0.00  0.00     0.087 H 
BRANCH  13  25
ATOM     25  CA  PRO d   1      13.118  18.247  -3.964  0.00  0.00     0.092 C 
ATOM     26  N   PRO d   1      12.797  19.189  -2.893  0.00  0.00    -0.337 N 
ATOM     27  C   ALA d   1      13.261  20.440  -2.950  0.00  0.00     0.243 C 
ATOM     28  CD  PRO d   1      11.928  18.572  -1.880  0.00  0.00    -0.001 C 
ATOM     29  O   ALA d   1      13.952  20.862  -3.888  0.00  0.00    -0.271 OA
ATOM     30  CG  PRO d   1      11.579  17.243  -2.504  0.00  0.00    -0.048 C 
ATOM     31  H   PRO d   1      11.026  19.178  -1.709  0.00  0.00     0.064 H 
ATOM     32  H   PRO d   1      12.463  18.435  -0.929  0.00  0.00     0.064 H 
ATOM     33  CB  PRO d   1      12.643  16.908  -3.413  0.00  0.00    -0.036 C 
ATOM     34  H   PRO d   1      11.492  16.472  -1.724  0.00  0.00     0.035 H 
ATOM     35  H   PRO d   1      10.627  17.321  -3.050  0.00  0.00     0.035 H 
ATOM     36  H   PRO d   1      13.459  16.395  -2.883  0.00  0.00     0.036 H 
ATOM     37  H   PRO d   1      12.272  16.265  -4.224  0.00  0.00     0.036 H 
ATOM     38  H   PRO d   1      14.200  18.236  -4.161  0.00  0.00     0.087 H 
BRANCH  27  39
ATOM     39  CA  ALA d   1      12.841  21.382  -1.826  0.00  0.00     0.086 C 
ATOM     40  H   ALA d   1      12.831  20.826  -0.877  0.00  0.00     0.086 H 
BRANCH  39  41
ATOM     41  N   ALA d   1      13.796  22.478  -1.718  0.00  0.00    -0.346 N 
ATOM     42  C   GLU d   1      15.049  22.268  -1.312  0.00  0.00     0.248 C 
ATOM     43  O   GLU d   1      15.429  21.194  -0.865  0.00  0.00    -0.271 OA
ATOM     44  H   ALA d   1      13.506  23.406  -1.953  0.00  0.00     0.163 HD
BRANCH  42  45
ATOM     45  CA  GLU d   1      16.053  23.427  -1.431  0.00  0.00     0.176 C 
ATOM     46  H   GLU d   1      16.700  23.218  -2.296  0.00  0.00     0.099 H 
BRANCH  45  47
ATOM     47  N   GLU d   1      15.435  24.725  -1.661  0.00  0.00    -0.066 N 
ATOM     48  H   GLU d   1      16.151  25.431  -1.728  0.00  0.00     0.275 HD
ATOM     49  H   GLU d   1      14.818  24.944  -0.895  0.00  0.00     0.275 HD
ATOM     50  H   GLU d   1      14.908  24.699  -2.520  0.00  0.00     0.275 HD
ENDBRANCH  45  47
BRANCH  45  51
ATOM     51  CB  GLU d   1      16.932  23.457  -0.170  0.00  0.00    -0.021 C 
ATOM     52  H   GLU d   1      17.594  24.333  -0.244  0.00  0.00     0.037 H 
ATOM     53  H   GLU d   1      17.538  22.539  -0.162  0.00  0.00     0.037 H 
BRANCH  51  54
ATOM     54  CG  GLU d   1      16.194  23.541   1.171  0.00  0.00     0.018 C 
ATOM     55  H   GLU d   1      15.482  22.705   1.236  0.00  0.00     0.049 H 
ATOM     56  H   GLU d   1      15.646  24.494   1.214  0.00  0.00     0.049 H 
BRANCH  54  57
ATOM     57  CD  GLU d   1      17.160  23.467   2.378  0.00  0.00     0.172 C 
ATOM     58  OE1 GLU d   1      17.445  22.343   2.877  0.00  0.00    -0.648 OA
ATOM     59  OE2 GLU d   1      17.631  24.536   2.842  0.00  0.00    -0.648 OA
ENDBRANCH  54  57
ENDBRANCH  51  54
ENDBRANCH  45  51
ENDBRANCH  42  45
ENDBRANCH  39  41
BRANCH  39  60
ATOM     60  CB  ALA d   1      11.452  21.905  -2.099  0.00  0.00    -0.049 C 
ATOM     61  H   ALA d   1      10.751  21.061  -2.176  0.00  0.00     0.030 H 
ATOM     62  H   ALA d   1      11.452  22.469  -3.043  0.00  0.00     0.030 H 
ATOM     63  H   ALA d   1      11.141  22.566  -1.277  0.00  0.00     0.030 H 
ENDBRANCH  39  60
ENDBRANCH  27  39
ENDBRANCH  13  25
ENDBRANCH   8  11
ENDBRANCH   5   7
BRANCH   5  64
ATOM     64  CB  SER d   1       7.377  18.680  -8.063  0.00  0.00     0.044 C 
ATOM     65  H   SER d   1       7.588  19.526  -7.393  0.00  0.00     0.077 H 
ATOM     66  H   SER d   1       6.373  18.284  -7.849  0.00  0.00     0.077 H 
BRANCH  64  67
ATOM     67  OG  SER d   1       7.436  19.108  -9.386  0.00  0.00    -0.398 OA
ATOM     68  H   SER d   1       6.790  19.790  -9.526  0.00  0.00     0.209 HD
ENDBRANCH  64  67
ENDBRANCH   5  64
ENDBRANCH   1   5
BRANCH   3  69
ATOM     69  CA  TYR d   1       6.851  14.548  -9.381  0.00  0.00     0.093 C 
ATOM     70  H   TYR d   1       7.695  13.857  -9.238  0.00  0.00     0.088 H 
BRANCH  69  71
ATOM     71  C   TYR d   1       6.745  14.881 -10.860  0.00  0.00     0.241 C 
ATOM     72  O   TYR d   1       7.131  14.086 -11.706  0.00  0.00    -0.271 OA
ATOM     73  N   ALA d   1       6.239  16.063 -11.177  0.00  0.00    -0.346 N 
ATOM     74  H   ALA d   1       5.925  16.679 -10.455  0.00  0.00     0.163 HD
BRANCH  73  75
ATOM     75  CA  ALA d   1       6.136  16.476 -12.590  0.00  0.00     0.086 C 
ATOM     76  H   ALA d   1       5.544  15.713 -13.117  0.00  0.00     0.086 H 
BRANCH  75  77
ATOM     77  C   ALA d   1       7.492  16.588 -13.300  0.00  0.00     0.240 C 
ATOM     78  O   ALA d   1       7.551  16.650 -14.548  0.00  0.00    -0.271 OA
ATOM     79  N   GLU d   1       8.578  16.614 -12.534  0.00  0.00    -0.346 N 
ATOM     80  H   GLU d   1       8.475  16.527 -11.543  0.00  0.00     0.163 HD
BRANCH  79  81
ATOM     81  CA  GLU d   1       9.920  16.766 -13.099  0.00  0.00     0.090 C 
ATOM     82  H   GLU d   1       9.824  17.282 -14.066  0.00  0.00     0.087 H 
BRANCH  81  83
ATOM     83  C   GLU d   1      10.585  15.425 -13.339  0.00  0.00     0.241 C 
ATOM     84  O   GLU d   1      11.730  15.369 -13.805  0.00  0.00    -0.271 OA
ATOM     85  N   VAL d   1       9.852  14.359 -13.042  0.00  0.00    -0.344 N 
ATOM     86  H   VAL d   1       8.933  14.500 -12.673  0.00  0.00     0.163 HD
BRANCH  85  87
ATOM     87  CA  VAL d   1      10.322  12.995 -13.228  0.00  0.00     0.099 C 
ATOM     88  H   VAL d   1      11.422  13.000 -13.246  0.00  0.00     0.090 H 
BRANCH  87  89
ATOM     89  C   VAL d   1       9.807  12.466 -14.555  0.00  0.00     0.197 C 
ATOM     90  O   VAL d   1      10.603  12.208 -15.445  0.00  0.00    -0.646 OA
ATOM     91  O1  VAL d   1       8.572  12.295 -14.736  0.00  0.00    -0.646 OA
ENDBRANCH  87  89
BRANCH  87  92
ATOM     92  CB  VAL d   1       9.850  12.071 -12.077  0.00  0.00    -0.032 C 
ATOM     93  H   VAL d   1       8.751  12.029 -12.100  0.00  0.00     0.042 H 
BRANCH  92  94
ATOM     94  CG1 VAL d   1      10.380  10.673 -12.252  0.00  0.00    -0.071 C 
ATOM     95  H   VAL d   1      10.030  10.041 -11.422  0.00  0.00     0.028 H 
ATOM     96  H   VAL d   1      11.480  10.696 -12.256  0.00  0.00     0.028 H 
ATOM     97  H   VAL d   1      10.018  10.260 -13.205  0.00  0.00     0.028 H 
ENDBRANCH  92  94
BRANCH  92  98
ATOM     98  CG2 VAL d   1      10.283  12.628 -10.720  0.00  0.00    -0.071 C 
ATOM     99  H   VAL d   1       9.892  13.649 -10.601  0.00  0.00     0.028 H 
ATOM    100  H   VAL d   1      11.382  12.648 -10.665  0.00  0.00     0.028 H 
ATOM    101  H   VAL d   1       9.887  11.988  -9.918  0.00  0.00     0.028 H 
ENDBRANCH  92  98
ENDBRANCH  87  92
ENDBRANCH  85  87
ENDBRANCH  81  83
BRANCH  81 102
ATOM    102  CB  GLU d   1      10.806  17.614 -12.184  0.00  0.00    -0.029 C 
ATOM    103  H   GLU d   1      11.822  17.626 -12.604  0.00  0.00     0.037 H 
ATOM    104  H   GLU d   1      10.826  17.142 -11.191  0.00  0.00     0.037 H 
BRANCH 102 105
ATOM    105  CG  GLU d   1      10.344  19.049 -12.018  0.00  0.00     0.018 C 
ATOM    106  H   GLU d   1       9.350  19.047 -11.546  0.00  0.00     0.049 H 
ATOM    107  H   GLU d   1      10.277  19.515 -13.012  0.00  0.00     0.049 H 
BRANCH 105 108
ATOM    108  CD  GLU d   1      11.292  19.875 -11.155  0.00  0.00     0.172 C 
ATOM    109  OE1 GLU d   1      12.383  20.253 -11.644  0.00  0.00    -0.648 OA
ATOM    110  OE2 GLU d   1      10.949  20.150  -9.973  0.00  0.00    -0.648 OA
ENDBRANCH 105 108
ENDBRANCH 102 105
ENDBRANCH  81 102
ENDBRANCH  79  81
ENDBRANCH  75  77
BRANCH  75 111
ATOM    111  CB  ALA d   1       5.416  17.787 -12.691  0.00  0.00    -0.049 C 
ATOM    112  H   ALA d   1       5.345  18.086 -13.747  0.00  0.00     0.030 H 
ATOM    113  H   ALA d   1       5.970  18.554 -12.130  0.00  0.00     0.030 H 
ATOM    114  H   ALA d   1       4.405  17.683 -12.270  0.00  0.00     0.030 H 
ENDBRANCH  75 111
ENDBRANCH  73  75
ENDBRANCH  69  71
BRANCH  69 115
ATOM    115  CB  TYR d   1       5.592  13.871  -8.919  0.00  0.00    -0.014 C 
ATOM    116  H   TYR d   1       4.735  14.515  -9.165  0.00  0.00     0.043 H 
ATOM    117  H   TYR d   1       5.646  13.732  -7.829  0.00  0.00     0.043 H 
BRANCH 115 118
ATOM    118  CG  TYR d   1       5.388  12.533  -9.564  0.00  0.00    -0.056 A 
ATOM    119  CD1 TYR d   1       6.060  11.417  -9.085  0.00  0.00    -0.074 A 
ATOM    120  CE1 TYR d   1       5.883  10.207  -9.647  0.00  0.00    -0.051 A 
ATOM    121  H   TYR d   1       6.738  11.522  -8.245  0.00  0.00     0.084 H 
ATOM    122  CZ  TYR d   1       5.053  10.089 -10.717  0.00  0.00     0.065 A 
ATOM    123  H   TYR d   1       6.396   9.338  -9.252  0.00  0.00     0.087 H 
ATOM    124  CE2 TYR d   1       4.366  11.177 -11.218  0.00  0.00    -0.051 A 
ATOM    125  CD2 TYR d   1       4.552  12.389 -10.649  0.00  0.00    -0.074 A 
ATOM    126  H   TYR d   1       3.687  11.061 -12.055  0.00  0.00     0.087 H 
ATOM    127  H   TYR d   1       4.039  13.255 -11.050  0.00  0.00     0.084 H 
BRANCH 122 128
ATOM    128  OH  TYR d   1       4.899   8.848 -11.273  0.00  0.00    -0.361 OA
ATOM    129  H   TYR d   1       5.442   8.224 -10.806  0.00  0.00     0.217 HD
ENDBRANCH 122 128
ENDBRANCH 115 118
ENDBRANCH  69 115
ENDBRANCH   3  69
TORSDOF 32
