REMARK  3 active torsions:
REMARK  status: ('A' for Active; 'I' for Inactive)
REMARK    1  A    between atoms: C7_7  and  N1_12 
REMARK    2  A    between atoms: N1_12  and  C12_13 
REMARK    3  A    between atoms: N1_12  and  C9_14 
ROOT
ATOM      1  O   2GQ d   1     -23.490 -28.272   3.890  0.00  0.00    -0.265 OA
ATOM      2  C8  2GQ d   1     -24.595 -28.489   4.384  0.00  0.00     0.279 A 
ATOM      3  C3  2GQ d   1     -25.870 -28.453   3.625  0.00  0.00     0.041 A 
ATOM      4  C2  2GQ d   1     -25.895 -28.185   2.252  0.00  0.00    -0.067 A 
ATOM      5  C1  2GQ d   1     -27.101 -28.168   1.557  0.00  0.00    -0.082 A 
ATOM      6  N   2GQ d   1     -24.707 -28.781   5.720  0.00  0.00    -0.196 NA
ATOM      7  C7  2GQ d   1     -25.855 -29.028   6.402  0.00  0.00     0.109 A 
ATOM      8  C6  2GQ d   1     -27.048 -28.970   5.726  0.00  0.00     0.015 A 
ATOM      9  C4  2GQ d   1     -27.088 -28.693   4.303  0.00  0.00    -0.035 A 
ATOM     10  C5  2GQ d   1     -28.284 -28.667   3.576  0.00  0.00    -0.075 A 
ATOM     11  C   2GQ d   1     -28.288 -28.413   2.217  0.00  0.00    -0.082 A 
ATOM     12  H1  2GQ d   1     -24.968 -27.989   1.725  0.00  0.00     0.085 H 
ATOM     13  H2  2GQ d   1     -27.108 -27.961   0.493  0.00  0.00     0.083 H 
ATOM     14  H3  2GQ d   1     -27.646 -28.186   6.214  0.00  0.00     0.051 H 
ATOM     15  H4  2GQ d   1     -27.536 -29.946   5.868  0.00  0.00     0.051 H 
ATOM     16  H5  2GQ d   1     -29.223 -28.849   4.087  0.00  0.00     0.084 H 
ATOM     17  H6  2GQ d   1     -29.224 -28.406   1.670  0.00  0.00     0.083 H 
ENDROOT
BRANCH   7  18
ATOM     18  N1  2GQ d   1     -25.737 -29.335   7.801  0.00  0.00    -0.378 N 
BRANCH  18  19
ATOM     19  C12 2GQ d   1     -24.435 -29.579   8.400  0.00  0.00    -0.018 C 
ATOM     20  H7  2GQ d   1     -24.559 -29.795   9.472  0.00  0.00     0.056 H 
ATOM     21  H8  2GQ d   1     -23.802 -28.688   8.276  0.00  0.00     0.056 H 
ATOM     22  H9  2GQ d   1     -23.959 -30.439   7.905  0.00  0.00     0.056 H 
ENDBRANCH  18  19
BRANCH  18  23
ATOM     23  C9  2GQ d   1     -26.882 -29.394   8.727  0.00  0.00    -0.018 C 
ATOM     24  H10 2GQ d   1     -27.812 -29.196   8.174  0.00  0.00     0.056 H 
ATOM     25  H11 2GQ d   1     -26.756 -28.637   9.515  0.00  0.00     0.056 H 
ATOM     26  H12 2GQ d   1     -26.933 -30.393   9.184  0.00  0.00     0.056 H 
ENDBRANCH  18  23
ENDBRANCH   7  18
TORSDOF 3
