REMARK WARNING: 32 MAX_TORS EXCEEDED!!!
REMARK  54 active torsions:
REMARK  status: ('A' for Active; 'I' for Inactive)
REMARK    1  A    between atoms: CA_2  and  N_1 
REMARK    2  A    between atoms: C_3  and  CA_2 
REMARK    3  A    between atoms: CA_2  and  CB_5 
REMARK       I    between atoms: N_10  and  C_3 
REMARK    4  A    between atoms: CB_5  and  CG_6 
REMARK    5  A    between atoms: CG_6  and  CD_7 
REMARK       I    between atoms: CD_7  and  NE2_9 
REMARK    6  A    between atoms: CA_11  and  N_10 
REMARK    7  A    between atoms: C_12  and  CA_11 
REMARK       I    between atoms: NAC_18  and  C_12 
REMARK    8  A    between atoms: CAG_15  and  CAQ_16 
REMARK       I    between atoms: N_23  and  CAG_15 
REMARK    9  A    between atoms: CAQ_16  and  CAA_17 
REMARK   10  A    between atoms: CAQ_16  and  NAC_18 
REMARK   11  A    between atoms: CAQ_16  and  CAO_19 
REMARK   12  A    between atoms: CAO_19  and  CAM_20 
REMARK   13  A    between atoms: CAM_20  and  CAK_21 
REMARK   14  A    between atoms: CAK_21  and  CAI_22 
REMARK   15  A    between atoms: CA_24  and  N_23 
REMARK   16  A    between atoms: C_25  and  CA_24 
REMARK   17  A    between atoms: CA_24  and  CB_27 
REMARK       I    between atoms: N_31  and  C_25 
REMARK   18  A    between atoms: CB_27  and  CG_28 
REMARK   19  A    between atoms: CG_28  and  CD1_29 
REMARK   20  A    between atoms: CG_28  and  CD2_30 
REMARK   21  A    between atoms: CA_32  and  N_31 
REMARK   22  A    between atoms: C_33  and  CA_32 
REMARK   23  A    between atoms: CA_32  and  CB_35 
REMARK       I    between atoms: N_40  and  C_33 
REMARK   24  A    between atoms: CB_35  and  CG_36 
REMARK   25  A    between atoms: CA_42  and  C_39 
REMARK       I    between atoms: C_39  and  N_48 
REMARK   26  A    between atoms: CA_42  and  N_40 
REMARK   27  A    between atoms: CB_43  and  CA_42 
REMARK   28  A    between atoms: CA_42  and  CB1_47 
REMARK   29  A    between atoms: CG_46  and  CB_43 
REMARK   30  A    between atoms: CD_44  and  CE_45 
REMARK   31  A    between atoms: CD_44  and  CG_46 
REMARK   32  A    between atoms: N_48  and  CA_49 
REMARK   33  A    between atoms: CA_49  and  C_50 
REMARK   34  A    between atoms: CA_49  and  CB_52 
REMARK       I    between atoms: C_50  and  N_56 
REMARK   35  A    between atoms: CB_52  and  CG_53 
REMARK   36  A    between atoms: CG_53  and  CD1_54 
REMARK   37  A    between atoms: CG_53  and  CD2_55 
REMARK   38  A    between atoms: N_56  and  CA_57 
REMARK   39  A    between atoms: CA_57  and  C_58 
REMARK   40  A    between atoms: CA_57  and  CB_60 
REMARK       I    between atoms: C_58  and  N_64 
REMARK   41  A    between atoms: CB_60  and  CG_61 
REMARK   42  A    between atoms: N_64  and  CA_65 
REMARK   43  A    between atoms: CA_65  and  C_66 
REMARK   44  A    between atoms: CA_65  and  CB_68 
REMARK       I    between atoms: C_66  and  N_72 
REMARK   45  A    between atoms: CB_68  and  CG_69 
REMARK   46  A    between atoms: CG_69  and  CD1_70 
REMARK   47  A    between atoms: CG_69  and  CD2_71 
REMARK   48  A    between atoms: N_72  and  CA_73 
REMARK   49  A    between atoms: CA_73  and  C_74 
REMARK   50  A    between atoms: CA_73  and  CB_76 
REMARK       I    between atoms: C_74  and  N_77 
REMARK   51  A    between atoms: N_77  and  CA_78 
REMARK   52  A    between atoms: CA_78  and  C_79 
REMARK   53  A    between atoms: CA_78  and  CB_81 
REMARK   54  A    between atoms: CB_81  and  OG_82 
ROOT
ATOM      1  CA  MK8 d   1      11.153   8.502  15.935  0.00  0.00     0.110 C 
ENDROOT
BRANCH   1   2
ATOM      2  C   MK8 d   1       9.678   8.274  15.348  0.00  0.00     0.246 C 
ATOM      3  O   MK8 d   1       9.244   7.107  15.252  0.00  0.00    -0.271 OA
ATOM      4  N   LEU d   1       9.338   9.333  14.479  0.00  0.00    -0.346 N 
ATOM      5  H   LEU d   1       9.996   9.995  14.121  0.00  0.00     0.163 HD
BRANCH   4   6
ATOM      6  CA  LEU d   1       7.918   9.349  14.165  0.00  0.00     0.089 C 
ATOM      7  H   LEU d   1       7.492   8.544  14.781  0.00  0.00     0.087 H 
BRANCH   6   8
ATOM      8  C   LEU d   1       7.620   8.928  12.707  0.00  0.00     0.241 C 
ATOM      9  O   LEU d   1       6.457   8.937  12.283  0.00  0.00    -0.271 OA
ATOM     10  N   ASP d   1       8.656   8.540  11.939  0.00  0.00    -0.346 N 
ATOM     11  H   ASP d   1       9.592   8.609  12.283  0.00  0.00     0.163 HD
BRANCH  10  12
ATOM     12  CA  ASP d   1       8.397   8.009  10.578  0.00  0.00     0.098 C 
ATOM     13  H   ASP d   1       9.348   7.996  10.025  0.00  0.00     0.088 H 
BRANCH  12  14
ATOM     14  C   ASP d   1       7.394   8.930   9.791  0.00  0.00     0.241 C 
ATOM     15  O   ASP d   1       6.368   8.493   9.218  0.00  0.00    -0.271 OA
ATOM     16  N   LEU d   1       7.717  10.213   9.780  0.00  0.00    -0.346 N 
ATOM     17  H   LEU d   1       8.618  10.483  10.119  0.00  0.00     0.163 HD
BRANCH  16  18
ATOM     18  CA  LEU d   1       6.806  11.259   9.290  0.00  0.00     0.089 C 
ATOM     19  H   LEU d   1       5.826  11.118   9.769  0.00  0.00     0.087 H 
BRANCH  18  20
ATOM     20  C   LEU d   1       6.619  11.158   7.782  0.00  0.00     0.241 C 
ATOM     21  O   LEU d   1       7.615  11.031   7.068  0.00  0.00    -0.271 OA
ATOM     22  N   ALA d   1       5.374  11.215   7.278  0.00  0.00    -0.346 N 
ATOM     23  H   ALA d   1       4.582  11.322   7.879  0.00  0.00     0.163 HD
BRANCH  22  24
ATOM     24  CA  ALA d   1       5.203  11.115   5.796  0.00  0.00     0.086 C 
ATOM     25  H   ALA d   1       5.961  10.408   5.428  0.00  0.00     0.086 H 
BRANCH  24  26
ATOM     26  C   ALA d   1       5.460  12.468   5.116  0.00  0.00     0.240 C 
ATOM     27  O   ALA d   1       5.788  13.455   5.794  0.00  0.00    -0.271 OA
ATOM     28  N   SER d   1       5.305  12.481   3.786  0.00  0.00    -0.343 N 
ATOM     29  H   SER d   1       5.077  11.613   3.346  0.00  0.00     0.163 HD
BRANCH  28  30
ATOM     30  CA  SER d   1       5.442  13.669   2.906  0.00  0.00     0.116 C 
ATOM     31  H   SER d   1       5.002  13.390   1.938  0.00  0.00     0.093 H 
BRANCH  30  32
ATOM     32  C   SER d   1       6.904  14.009   2.640  0.00  0.00     0.198 C 
ATOM     33  O   SER d   1       7.521  13.400   1.771  0.00  0.00    -0.646 OA
ATOM     34  O1  SER d   1       7.476  14.911   3.309  0.00  0.00    -0.646 OA
ENDBRANCH  30  32
BRANCH  30  35
ATOM     35  CB  SER d   1       4.649  14.898   3.406  0.00  0.00     0.045 C 
ATOM     36  H   SER d   1       4.610  14.881   4.505  0.00  0.00     0.077 H 
ATOM     37  H   SER d   1       3.627  14.858   3.002  0.00  0.00     0.077 H 
BRANCH  35  38
ATOM     38  OG  SER d   1       5.277  16.103   2.977  0.00  0.00    -0.398 OA
ATOM     39  H   SER d   1       6.160  16.141   3.326  0.00  0.00     0.209 HD
ENDBRANCH  35  38
ENDBRANCH  30  35
ENDBRANCH  28  30
ENDBRANCH  24  26
BRANCH  24  40
ATOM     40  CB  ALA d   1       3.840  10.564   5.401  0.00  0.00    -0.049 C 
ATOM     41  H   ALA d   1       3.769  10.512   4.304  0.00  0.00     0.030 H 
ATOM     42  H   ALA d   1       3.051  11.225   5.788  0.00  0.00     0.030 H 
ATOM     43  H   ALA d   1       3.715   9.556   5.824  0.00  0.00     0.030 H 
ENDBRANCH  24  40
ENDBRANCH  22  24
ENDBRANCH  18  20
BRANCH  18  44
ATOM     44  CB  LEU d   1       7.347  12.649   9.683  0.00  0.00    -0.035 C 
ATOM     45  H   LEU d   1       6.781  13.421   9.141  0.00  0.00     0.037 H 
ATOM     46  H   LEU d   1       8.410  12.712   9.406  0.00  0.00     0.037 H 
BRANCH  44  47
ATOM     47  CG  LEU d   1       7.208  12.891  11.184  0.00  0.00    -0.059 C 
ATOM     48  H   LEU d   1       7.876  12.184  11.697  0.00  0.00     0.038 H 
BRANCH  47  49
ATOM     49  CD1 LEU d   1       7.691  14.301  11.522  0.00  0.00    -0.073 C 
ATOM     50  H   LEU d   1       7.590  14.474  12.604  0.00  0.00     0.028 H 
ATOM     51  H   LEU d   1       7.084  15.037  10.975  0.00  0.00     0.028 H 
ATOM     52  H   LEU d   1       8.746  14.407  11.231  0.00  0.00     0.028 H 
ENDBRANCH  47  49
BRANCH  47  53
ATOM     53  CD2 LEU d   1       5.777  12.604  11.693  0.00  0.00    -0.073 C 
ATOM     54  H   LEU d   1       5.489  11.578  11.419  0.00  0.00     0.028 H 
ATOM     55  H   LEU d   1       5.075  13.316  11.235  0.00  0.00     0.028 H 
ATOM     56  H   LEU d   1       5.748  12.713  12.787  0.00  0.00     0.028 H 
ENDBRANCH  47  53
ENDBRANCH  44  47
ENDBRANCH  18  44
ENDBRANCH  16  18
ENDBRANCH  12  14
BRANCH  12  57
ATOM     57  CB  ASP d   1       7.885   6.567  10.683  0.00  0.00     0.043 C 
ATOM     58  H   ASP d   1       6.828   6.592  10.985  0.00  0.00     0.052 H 
ATOM     59  H   ASP d   1       8.473   6.041  11.450  0.00  0.00     0.052 H 
BRANCH  57  60
ATOM     60  CG  ASP d   1       8.000   5.777   9.339  0.00  0.00     0.175 C 
ATOM     61  OD1 ASP d   1       8.487   6.346   8.325  0.00  0.00    -0.648 OA
ATOM     62  OD2 ASP d   1       7.623   4.573   9.319  0.00  0.00    -0.648 OA
ENDBRANCH  57  60
ENDBRANCH  12  57
ENDBRANCH  10  12
ENDBRANCH   6   8
BRANCH   6  63
ATOM     63  CB  LEU d   1       7.157  10.616  14.615  0.00  0.00    -0.035 C 
ATOM     64  H   LEU d   1       6.218  10.652  14.043  0.00  0.00     0.037 H 
ATOM     65  H   LEU d   1       7.781  11.482  14.349  0.00  0.00     0.037 H 
BRANCH  63  66
ATOM     66  CG  LEU d   1       6.782  10.763  16.133  0.00  0.00    -0.059 C 
ATOM     67  H   LEU d   1       7.663  10.460  16.717  0.00  0.00     0.038 H 
BRANCH  66  68
ATOM     68  CD1 LEU d   1       6.466  12.223  16.494  0.00  0.00    -0.073 C 
ATOM     69  H   LEU d   1       6.208  12.289  17.561  0.00  0.00     0.028 H 
ATOM     70  H   LEU d   1       5.617  12.575  15.889  0.00  0.00     0.028 H 
ATOM     71  H   LEU d   1       7.346  12.850  16.290  0.00  0.00     0.028 H 
ENDBRANCH  66  68
BRANCH  66  72
ATOM     72  CD2 LEU d   1       5.616   9.837  16.542  0.00  0.00    -0.073 C 
ATOM     73  H   LEU d   1       5.862   8.799  16.275  0.00  0.00     0.028 H 
ATOM     74  H   LEU d   1       4.701  10.144  16.014  0.00  0.00     0.028 H 
ATOM     75  H   LEU d   1       5.455   9.908  17.628  0.00  0.00     0.028 H 
ENDBRANCH  66  72
ENDBRANCH  63  66
ENDBRANCH   6  63
ENDBRANCH   4   6
ENDBRANCH   1   2
BRANCH   1  76
ATOM     76  N   MK8 d   1      11.848   8.881  14.672  0.00  0.00    -0.342 N 
ATOM     77  C   ASP d   1      12.058   8.776  13.042  0.00  0.00     0.242 C 
ATOM     78  O   ASP d   1      11.478   7.719  12.762  0.00  0.00    -0.271 OA
ATOM     79  H   MK8 d   1      12.545   9.535  14.965  0.00  0.00     0.163 HD
BRANCH  77  80
ATOM     80  CA  ASP d   1      12.868   9.497  11.996  0.00  0.00     0.098 C 
ATOM     81  H   ASP d   1      12.656   9.010  11.033  0.00  0.00     0.088 H 
BRANCH  80  82
ATOM     82  N   ASP d   1      12.471  10.905  11.860  0.00  0.00    -0.346 N 
ATOM     83  C   LEU d   1      11.459  11.299  11.071  0.00  0.00     0.241 C 
ATOM     84  O   LEU d   1      10.598  10.535  10.603  0.00  0.00    -0.271 OA
ATOM     85  H   ASP d   1      12.975  11.598  12.376  0.00  0.00     0.163 HD
BRANCH  83  86
ATOM     86  CA  LEU d   1      11.351  12.792  10.821  0.00  0.00     0.089 C 
ATOM     87  H   LEU d   1      10.350  13.006  10.418  0.00  0.00     0.087 H 
BRANCH  86  88
ATOM     88  N   LEU d   1      11.492  13.475  12.115  0.00  0.00    -0.346 N 
ATOM     89  CAG 2JN d   1      10.798  13.271  13.416  0.00  0.00     0.246 C 
ATOM     90  OAE 2JN d   1      10.030  12.373  13.757  0.00  0.00    -0.271 OA
ATOM     91  H   LEU d   1      12.175  14.206  12.123  0.00  0.00     0.163 HD
BRANCH  89  92
ATOM     92  CAQ 2JN d   1      11.130  14.425  14.362  0.00  0.00     0.110 C 
BRANCH  92  93
ATOM     93  CAA 2JN d   1      11.128  15.735  13.573  0.00  0.00    -0.044 C 
ATOM     94  H   2JN d   1      11.366  16.570  14.248  0.00  0.00     0.031 H 
ATOM     95  H   2JN d   1      10.134  15.894  13.129  0.00  0.00     0.031 H 
ATOM     96  H   2JN d   1      11.882  15.683  12.774  0.00  0.00     0.031 H 
ENDBRANCH  92  93
BRANCH  92  97
ATOM     97  NAC 2JN d   1      12.449  14.188  14.965  0.00  0.00    -0.342 N 
ATOM     98  C   GLY d   1      13.288  13.033  15.028  0.00  0.00     0.236 C 
ATOM     99  O   GLY d   1      13.031  11.866  14.878  0.00  0.00    -0.272 OA
ATOM    100  H   2JN d   1      12.834  14.991  15.420  0.00  0.00     0.163 HD
BRANCH  98 101
ATOM    101  CA  GLY d   1      14.678  13.559  15.118  0.00  0.00     0.069 C 
ATOM    102  H   GLY d   1      15.066  13.814  14.121  0.00  0.00     0.078 H 
ATOM    103  H   GLY d   1      14.719  14.447  15.765  0.00  0.00     0.078 H 
BRANCH 101 104
ATOM    104  N   GLY d   1      15.437  12.448  15.706  0.00  0.00    -0.351 N 
ATOM    105  C   GLN d   1      15.437  12.018  17.023  0.00  0.00     0.248 C 
ATOM    106  O   GLN d   1      14.753  12.510  17.898  0.00  0.00    -0.271 OA
ATOM    107  H   GLY d   1      16.026  11.939  15.079  0.00  0.00     0.163 HD
BRANCH 105 108
ATOM    108  CA  GLN d   1      16.362  10.855  17.325  0.00  0.00     0.176 C 
ATOM    109  H   GLN d   1      17.277  10.978  16.727  0.00  0.00     0.099 H 
BRANCH 108 110
ATOM    110  N   GLN d   1      16.738  10.797  18.728  0.00  0.00    -0.066 N 
ATOM    111  H   GLN d   1      17.351  10.011  18.879  0.00  0.00     0.275 HD
ATOM    112  H   GLN d   1      15.910  10.692  19.294  0.00  0.00     0.275 HD
ATOM    113  H   GLN d   1      17.214  11.648  18.984  0.00  0.00     0.275 HD
ENDBRANCH 108 110
BRANCH 108 114
ATOM    114  CB  GLN d   1      15.689   9.559  16.928  0.00  0.00    -0.022 C 
ATOM    115  H   GLN d   1      15.108   9.735  16.011  0.00  0.00     0.037 H 
ATOM    116  H   GLN d   1      15.011   9.256  17.739  0.00  0.00     0.037 H 
BRANCH 114 117
ATOM    117  CG  GLN d   1      16.659   8.431  16.670  0.00  0.00     0.011 C 
ATOM    118  H   GLN d   1      16.086   7.505  16.517  0.00  0.00     0.047 H 
ATOM    119  H   GLN d   1      17.308   8.319  17.551  0.00  0.00     0.047 H 
BRANCH 117 120
ATOM    120  CD  GLN d   1      17.531   8.662  15.457  0.00  0.00     0.215 C 
ATOM    121  OE1 GLN d   1      17.228   9.463  14.585  0.00  0.00    -0.274 OA
ATOM    122  NE2 GLN d   1      18.629   7.946  15.408  0.00  0.00    -0.370 N 
ATOM    123  H   GLN d   1      19.256   8.044  14.635  0.00  0.00     0.159 HD
ATOM    124  H   GLN d   1      18.839   7.302  16.143  0.00  0.00     0.159 HD
ENDBRANCH 117 120
ENDBRANCH 114 117
ENDBRANCH 108 114
ENDBRANCH 105 108
ENDBRANCH 101 104
ENDBRANCH  98 101
ENDBRANCH  92  97
BRANCH  92 125
ATOM    125  CAO 2JN d   1      10.054  14.500  15.447  0.00  0.00    -0.033 C 
ATOM    126  H   2JN d   1       9.064  14.346  14.993  0.00  0.00     0.037 H 
ATOM    127  H   2JN d   1      10.087  15.489  15.928  0.00  0.00     0.037 H 
BRANCH 125 128
ATOM    128  CAM 2JN d   1      10.309  13.414  16.494  0.00  0.00    -0.063 C 
ATOM    129  H   2JN d   1      11.289  12.950  16.310  0.00  0.00     0.033 H 
ATOM    130  H   2JN d   1       9.522  12.648  16.427  0.00  0.00     0.033 H 
BRANCH 128 131
ATOM    131  CAK 2JN d   1      10.295  14.038  17.891  0.00  0.00    -0.068 C 
ATOM    132  H   2JN d   1       9.661  14.937  17.884  0.00  0.00     0.032 H 
ATOM    133  H   2JN d   1      11.320  14.314  18.179  0.00  0.00     0.032 H 
BRANCH 131 134
ATOM    134  CAI 2JN d   1       9.737  13.029  18.896  0.00  0.00    -0.077 C 
ATOM    135  H   2JN d   1       9.727  13.479  19.900  0.00  0.00     0.027 H 
ATOM    136  H   2JN d   1      10.370  12.130  18.903  0.00  0.00     0.027 H 
ATOM    137  H   2JN d   1       8.712  12.753  18.608  0.00  0.00     0.027 H 
ENDBRANCH 131 134
ENDBRANCH 128 131
ENDBRANCH 125 128
ENDBRANCH  92 125
ENDBRANCH  89  92
ENDBRANCH  86  88
BRANCH  86 138
ATOM    138  CB  LEU d   1      12.388  13.299   9.794  0.00  0.00    -0.035 C 
ATOM    139  H   LEU d   1      12.467  12.555   8.988  0.00  0.00     0.037 H 
ATOM    140  H   LEU d   1      13.359  13.393  10.303  0.00  0.00     0.037 H 
BRANCH 138 141
ATOM    141  CG  LEU d   1      12.038  14.675   9.154  0.00  0.00    -0.059 C 
ATOM    142  H   LEU d   1      12.426  15.453   9.828  0.00  0.00     0.038 H 
BRANCH 141 143
ATOM    143  CD1 LEU d   1      12.700  14.870   7.774  0.00  0.00    -0.073 C 
ATOM    144  H   LEU d   1      12.421  15.854   7.369  0.00  0.00     0.028 H 
ATOM    145  H   LEU d   1      12.358  14.081   7.088  0.00  0.00     0.028 H 
ATOM    146  H   LEU d   1      13.793  14.815   7.881  0.00  0.00     0.028 H 
ENDBRANCH 141 143
BRANCH 141 147
ATOM    147  CD2 LEU d   1      10.535  14.890   9.009  0.00  0.00    -0.073 C 
ATOM    148  H   LEU d   1      10.049  14.754   9.986  0.00  0.00     0.028 H 
ATOM    149  H   LEU d   1      10.128  14.161   8.293  0.00  0.00     0.028 H 
ATOM    150  H   LEU d   1      10.344  15.910   8.643  0.00  0.00     0.028 H 
ENDBRANCH 141 147
ENDBRANCH 138 141
ENDBRANCH  86 138
ENDBRANCH  83  86
ENDBRANCH  80  82
BRANCH  80 151
ATOM    151  CB  ASP d   1      14.382   9.350  12.254  0.00  0.00     0.043 C 
ATOM    152  H   ASP d   1      14.600   8.299  12.495  0.00  0.00     0.052 H 
ATOM    153  H   ASP d   1      14.659   9.987  13.107  0.00  0.00     0.052 H 
BRANCH 151 154
ATOM    154  CG  ASP d   1      15.214   9.758  11.046  0.00  0.00     0.175 C 
ATOM    155  OD1 ASP d   1      14.952   9.258   9.936  0.00  0.00    -0.648 OA
ATOM    156  OD2 ASP d   1      16.107  10.611  11.200  0.00  0.00    -0.648 OA
ENDBRANCH 151 154
ENDBRANCH  80 151
ENDBRANCH  77  80
ENDBRANCH   1  76
BRANCH   1 157
ATOM    157  CB  MK8 d   1      11.366   9.756  16.967  0.00  0.00    -0.033 C 
ATOM    158  H   MK8 d   1      10.981  10.680  16.510  0.00  0.00     0.037 H 
ATOM    159  H   MK8 d   1      12.437   9.874  17.188  0.00  0.00     0.037 H 
BRANCH 157 160
ATOM    160  CG  MK8 d   1      10.589   9.462  18.286  0.00  0.00    -0.063 C 
ATOM    161  H   MK8 d   1      10.889   8.481  18.682  0.00  0.00     0.033 H 
ATOM    162  H   MK8 d   1       9.507   9.462  18.087  0.00  0.00     0.033 H 
BRANCH 160 163
ATOM    163  CD  MK8 d   1      10.940  10.598  19.344  0.00  0.00    -0.068 C 
ATOM    164  H   MK8 d   1      10.084  10.749  20.018  0.00  0.00     0.032 H 
ATOM    165  H   MK8 d   1      11.819  10.294  19.931  0.00  0.00     0.032 H 
BRANCH 163 166
ATOM    166  CE  MK8 d   1      11.251  11.927  18.592  0.00  0.00    -0.077 C 
ATOM    167  H   MK8 d   1      11.494  12.713  19.322  0.00  0.00     0.027 H 
ATOM    168  H   MK8 d   1      10.372  12.231  18.005  0.00  0.00     0.027 H 
ATOM    169  H   MK8 d   1      12.107  11.775  17.918  0.00  0.00     0.027 H 
ENDBRANCH 163 166
ENDBRANCH 160 163
ENDBRANCH 157 160
ENDBRANCH   1 157
BRANCH   1 170
ATOM    170  CB1 MK8 d   1      12.103   7.246  16.113  0.00  0.00    -0.044 C 
ATOM    171  H   MK8 d   1      11.829   6.706  17.031  0.00  0.00     0.031 H 
ATOM    172  H   MK8 d   1      13.148   7.583  16.185  0.00  0.00     0.031 H 
ATOM    173  H   MK8 d   1      11.992   6.577  15.247  0.00  0.00     0.031 H 
ENDBRANCH   1 170
TORSDOF 54
