REMARK WARNING: 32 MAX_TORS EXCEEDED!!!
REMARK  57 active torsions:
REMARK  status: ('A' for Active; 'I' for Inactive)
REMARK    1  A    between atoms: CA_2  and  N_1 
REMARK    2  A    between atoms: C_3  and  CA_2 
REMARK    3  A    between atoms: C_3  and  O_4 
REMARK    4  A    between atoms: N_9  and  C_3 
REMARK    5  A    between atoms: C_6  and  O_5 
REMARK    6  A    between atoms: C_6  and  CA_7 
REMARK    7  A    between atoms: N_16  and  C_6 
REMARK    8  A    between atoms: CA_7  and  CB1_8 
REMARK    9  A    between atoms: CA_7  and  N_9 
REMARK   10  A    between atoms: CA_7  and  CB_10 
REMARK   11  A    between atoms: CB_10  and  CG_11 
REMARK   12  A    between atoms: CG_11  and  CD_12 
REMARK   13  A    between atoms: CD_12  and  CE_13 
REMARK   14  A    between atoms: CE_13  and  CF_14 
REMARK   15  A    between atoms: CF_14  and  CH_15 
REMARK   16  A    between atoms: CA_17  and  N_16 
REMARK   17  A    between atoms: C_18  and  CA_17 
REMARK   18  A    between atoms: CA_17  and  CB_20 
REMARK       I    between atoms: N_24  and  C_18 
REMARK   19  A    between atoms: CB_20  and  CG_21 
REMARK   20  A    between atoms: CG_21  and  CD1_22 
REMARK   21  A    between atoms: CG_21  and  CD2_23 
REMARK   22  A    between atoms: CA_25  and  N_24 
REMARK   23  A    between atoms: C_26  and  CA_25 
REMARK   24  A    between atoms: CA_25  and  CB_28 
REMARK       I    between atoms: N_36  and  C_26 
REMARK   25  A    between atoms: CB_28  and  CG_29 
REMARK   26  A    between atoms: CA_34  and  C_33 
REMARK       I    between atoms: C_33  and  N_43 
REMARK   27  A    between atoms: CA_34  and  CB1_35 
REMARK   28  A    between atoms: CA_34  and  N_36 
REMARK   29  A    between atoms: CA_34  and  CB_37 
REMARK   30  A    between atoms: CB_37  and  CG_38 
REMARK   31  A    between atoms: CG_38  and  CD_39 
REMARK   32  A    between atoms: CD_39  and  CE_40 
REMARK   33  A    between atoms: CE_40  and  CF_41 
REMARK   34  A    between atoms: CF_41  and  CH_42 
REMARK   35  A    between atoms: N_43  and  CA_44 
REMARK   36  A    between atoms: CA_44  and  C_45 
REMARK   37  A    between atoms: CA_44  and  CB_47 
REMARK       I    between atoms: C_45  and  N_51 
REMARK   38  A    between atoms: CB_47  and  CG_48 
REMARK   39  A    between atoms: CG_48  and  CD1_49 
REMARK   40  A    between atoms: CG_48  and  CD2_50 
REMARK   41  A    between atoms: N_51  and  CA_52 
REMARK   42  A    between atoms: CA_52  and  C_53 
REMARK   43  A    between atoms: CA_52  and  CB_55 
REMARK       I    between atoms: C_53  and  N_59 
REMARK   44  A    between atoms: CB_55  and  CG_56 
REMARK   45  A    between atoms: N_59  and  CA_60 
REMARK   46  A    between atoms: CA_60  and  C_61 
REMARK   47  A    between atoms: CA_60  and  CB_63 
REMARK       I    between atoms: C_61  and  N_67 
REMARK   48  A    between atoms: CB_63  and  CG_64 
REMARK   49  A    between atoms: CG_64  and  CD1_65 
REMARK   50  A    between atoms: CG_64  and  CD2_66 
REMARK   51  A    between atoms: N_67  and  CA_68 
REMARK   52  A    between atoms: CA_68  and  C_69 
REMARK   53  A    between atoms: CA_68  and  CB_71 
REMARK       I    between atoms: C_69  and  N_72 
REMARK   54  A    between atoms: N_72  and  CA_73 
REMARK   55  A    between atoms: CA_73  and  C_74 
REMARK   56  A    between atoms: CA_73  and  CB_76 
REMARK   57  A    between atoms: CB_76  and  OG_77 
ROOT
ATOM      1  CA  MKD d   1      35.437  -6.007  12.680  0.00  0.00     0.110 C 
ENDROOT
BRANCH   1   2
ATOM      2  C   MKD d   1      36.933  -5.888  12.352  0.00  0.00     0.246 C 
ATOM      3  O   MKD d   1      37.430  -4.826  11.908  0.00  0.00    -0.271 OA
ATOM      4  N   LEU d   1      37.631  -7.315  12.086  0.00  0.00    -0.346 N 
ATOM      5  H   LEU d   1      37.093  -8.152  11.991  0.00  0.00     0.163 HD
BRANCH   4   6
ATOM      6  CA  LEU d   1      39.104  -7.326  11.989  0.00  0.00     0.089 C 
ATOM      7  H   LEU d   1      39.532  -6.564  12.657  0.00  0.00     0.087 H 
BRANCH   6   8
ATOM      8  C   LEU d   1      39.465  -7.006  10.565  0.00  0.00     0.241 C 
ATOM      9  O   LEU d   1      40.624  -6.831  10.226  0.00  0.00    -0.271 OA
ATOM     10  N   ASP d   1      38.445  -6.925   9.718  0.00  0.00    -0.346 N 
ATOM     11  H   ASP d   1      37.513  -7.020  10.067  0.00  0.00     0.163 HD
BRANCH  10  12
ATOM     12  CA  ASP d   1      38.652  -6.698   8.274  0.00  0.00     0.098 C 
ATOM     13  H   ASP d   1      37.712  -6.949   7.761  0.00  0.00     0.088 H 
BRANCH  12  14
ATOM     14  C   ASP d   1      39.754  -7.591   7.695  0.00  0.00     0.241 C 
ATOM     15  O   ASP d   1      40.761  -7.118   7.143  0.00  0.00    -0.271 OA
ATOM     16  N   LEU d   1      39.578  -8.888   7.843  0.00  0.00    -0.346 N 
ATOM     17  H   LEU d   1      38.698  -9.233   8.168  0.00  0.00     0.163 HD
BRANCH  16  18
ATOM     18  CA  LEU d   1      40.679  -9.849   7.531  0.00  0.00     0.089 C 
ATOM     19  H   LEU d   1      41.592  -9.537   8.060  0.00  0.00     0.087 H 
BRANCH  18  20
ATOM     20  C   LEU d   1      40.958  -9.884   6.034  0.00  0.00     0.241 C 
ATOM     21  O   LEU d   1      40.027  -9.818   5.269  0.00  0.00    -0.271 OA
ATOM     22  N   ALA d   1      42.211  -9.906   5.600  0.00  0.00    -0.346 N 
ATOM     23  H   ALA d   1      42.975  -9.781   6.233  0.00  0.00     0.163 HD
BRANCH  22  24
ATOM     24  CA  ALA d   1      42.452 -10.121   4.146  0.00  0.00     0.086 C 
ATOM     25  H   ALA d   1      41.724  -9.490   3.615  0.00  0.00     0.086 H 
BRANCH  24  26
ATOM     26  C   ALA d   1      42.185 -11.606   3.642  0.00  0.00     0.240 C 
ATOM     27  O   ALA d   1      41.654 -12.449   4.393  0.00  0.00    -0.271 OA
ATOM     28  N   SER d   1      42.552 -11.942   2.400  0.00  0.00    -0.343 N 
ATOM     29  H   SER d   1      43.161 -11.330   1.895  0.00  0.00     0.163 HD
BRANCH  28  30
ATOM     30  CA  SER d   1      42.077 -13.219   1.731  0.00  0.00     0.116 C 
ATOM     31  H   SER d   1      42.408 -13.173   0.683  0.00  0.00     0.093 H 
BRANCH  30  32
ATOM     32  C   SER d   1      40.551 -13.348   1.748  0.00  0.00     0.198 C 
ATOM     33  O   SER d   1      39.875 -12.972   0.789  0.00  0.00    -0.646 OA
ATOM     34  O1  SER d   1      39.980 -13.845   2.755  0.00  0.00    -0.646 OA
ENDBRANCH  30  32
BRANCH  30  35
ATOM     35  CB  SER d   1      42.647 -14.509   2.350  0.00  0.00     0.045 C 
ATOM     36  H   SER d   1      42.766 -15.265   1.560  0.00  0.00     0.077 H 
ATOM     37  H   SER d   1      41.947 -14.882   3.111  0.00  0.00     0.077 H 
BRANCH  35  38
ATOM     38  OG  SER d   1      43.891 -14.273   2.949  0.00  0.00    -0.398 OA
ATOM     39  H   SER d   1      43.793 -13.623   3.635  0.00  0.00     0.209 HD
ENDBRANCH  35  38
ENDBRANCH  30  35
ENDBRANCH  28  30
ENDBRANCH  24  26
BRANCH  24  40
ATOM     40  CB  ALA d   1      43.841  -9.601   3.770  0.00  0.00    -0.049 C 
ATOM     41  H   ALA d   1      44.014  -9.762   2.696  0.00  0.00     0.030 H 
ATOM     42  H   ALA d   1      44.604 -10.141   4.349  0.00  0.00     0.030 H 
ATOM     43  H   ALA d   1      43.903  -8.526   3.994  0.00  0.00     0.030 H 
ENDBRANCH  24  40
ENDBRANCH  22  24
ENDBRANCH  18  20
BRANCH  18  44
ATOM     44  CB  LEU d   1      40.269 -11.237   8.001  0.00  0.00    -0.035 C 
ATOM     45  H   LEU d   1      41.011 -11.960   7.632  0.00  0.00     0.037 H 
ATOM     46  H   LEU d   1      39.284 -11.470   7.571  0.00  0.00     0.037 H 
BRANCH  44  47
ATOM     47  CG  LEU d   1      40.174 -11.381   9.545  0.00  0.00    -0.059 C 
ATOM     48  H   LEU d   1      39.432 -10.643   9.883  0.00  0.00     0.038 H 
BRANCH  47  49
ATOM     49  CD1 LEU d   1      39.653 -12.771   9.988  0.00  0.00    -0.073 C 
ATOM     50  H   LEU d   1      39.608 -12.813  11.086  0.00  0.00     0.028 H 
ATOM     51  H   LEU d   1      40.334 -13.552   9.619  0.00  0.00     0.028 H 
ATOM     52  H   LEU d   1      38.648 -12.935   9.573  0.00  0.00     0.028 H 
ENDBRANCH  47  49
BRANCH  47  53
ATOM     53  CD2 LEU d   1      41.472 -11.039  10.228  0.00  0.00    -0.073 C 
ATOM     54  H   LEU d   1      41.813 -10.049   9.892  0.00  0.00     0.028 H 
ATOM     55  H   LEU d   1      42.230 -11.794   9.973  0.00  0.00     0.028 H 
ATOM     56  H   LEU d   1      41.320 -11.024  11.317  0.00  0.00     0.028 H 
ENDBRANCH  47  53
ENDBRANCH  44  47
ENDBRANCH  18  44
ENDBRANCH  16  18
ENDBRANCH  12  14
BRANCH  12  57
ATOM     57  CB  ASP d   1      38.974  -5.215   7.985  0.00  0.00     0.043 C 
ATOM     58  H   ASP d   1      40.054  -5.056   8.121  0.00  0.00     0.052 H 
ATOM     59  H   ASP d   1      38.418  -4.588   8.698  0.00  0.00     0.052 H 
BRANCH  57  60
ATOM     60  CG  ASP d   1      38.585  -4.788   6.536  0.00  0.00     0.175 C 
ATOM     61  OD1 ASP d   1      38.059  -5.672   5.784  0.00  0.00    -0.648 OA
ATOM     62  OD2 ASP d   1      38.768  -3.563   6.178  0.00  0.00    -0.648 OA
ENDBRANCH  57  60
ENDBRANCH  12  57
ENDBRANCH  10  12
ENDBRANCH   6   8
BRANCH   6  63
ATOM     63  CB  LEU d   1      39.613  -8.685  12.396  0.00  0.00    -0.035 C 
ATOM     64  H   LEU d   1      40.500  -8.940  11.798  0.00  0.00     0.037 H 
ATOM     65  H   LEU d   1      38.828  -9.438  12.228  0.00  0.00     0.037 H 
BRANCH  63  66
ATOM     66  CG  LEU d   1      39.985  -8.658  13.874  0.00  0.00    -0.059 C 
ATOM     67  H   LEU d   1      39.112  -8.320  14.451  0.00  0.00     0.038 H 
BRANCH  66  68
ATOM     68  CD1 LEU d   1      40.343 -10.039  14.293  0.00  0.00    -0.073 C 
ATOM     69  H   LEU d   1      40.615 -10.040  15.359  0.00  0.00     0.028 H 
ATOM     70  H   LEU d   1      41.197 -10.393  13.697  0.00  0.00     0.028 H 
ATOM     71  H   LEU d   1      39.482 -10.705  14.134  0.00  0.00     0.028 H 
ENDBRANCH  66  68
BRANCH  66  72
ATOM     72  CD2 LEU d   1      41.141  -7.719  14.161  0.00  0.00    -0.073 C 
ATOM     73  H   LEU d   1      40.871  -6.699  13.849  0.00  0.00     0.028 H 
ATOM     74  H   LEU d   1      42.029  -8.050  13.603  0.00  0.00     0.028 H 
ATOM     75  H   LEU d   1      41.361  -7.727  15.239  0.00  0.00     0.028 H 
ENDBRANCH  66  72
ENDBRANCH  63  66
ENDBRANCH   6  63
ENDBRANCH   4   6
ENDBRANCH   1   2
BRANCH   1  76
ATOM     76  CB1 MKD d   1      34.627  -5.039  11.800  0.00  0.00    -0.044 C 
ATOM     77  H   MKD d   1      33.558  -5.131  12.042  0.00  0.00     0.031 H 
ATOM     78  H   MKD d   1      34.786  -5.287  10.740  0.00  0.00     0.031 H 
ATOM     79  H   MKD d   1      34.958  -4.007  11.989  0.00  0.00     0.031 H 
ENDBRANCH   1  76
BRANCH   1  80
ATOM     80  N   MKD d   1      35.068  -7.426  12.440  0.00  0.00    -0.342 N 
ATOM     81  C   ASP d   1      34.611  -7.826  11.095  0.00  0.00     0.242 C 
ATOM     82  O   ASP d   1      35.427  -7.253  10.374  0.00  0.00    -0.271 OA
ATOM     83  H   MKD d   1      35.128  -8.099  13.177  0.00  0.00     0.163 HD
BRANCH  81  84
ATOM     84  CA  ASP d   1      34.137  -9.239  10.767  0.00  0.00     0.098 C 
ATOM     85  H   ASP d   1      34.642  -9.568   9.847  0.00  0.00     0.088 H 
BRANCH  84  86
ATOM     86  N   ASP d   1      34.481 -10.171  11.835  0.00  0.00    -0.345 N 
ATOM     87  C   LEU d   1      35.744 -10.440  12.147  0.00  0.00     0.249 C 
ATOM     88  O   LEU d   1      36.713  -9.927  11.563  0.00  0.00    -0.271 OA
ATOM     89  H   ASP d   1      33.747 -10.619  12.346  0.00  0.00     0.163 HD
BRANCH  87  90
ATOM     90  CA  LEU d   1      35.969 -11.441  13.293  0.00  0.00     0.181 C 
ATOM     91  H   LEU d   1      36.792 -11.068  13.920  0.00  0.00     0.099 H 
BRANCH  90  92
ATOM     92  N   LEU d   1      34.755 -11.573  14.155  0.00  0.00    -0.034 N 
ATOM     93  H   LEU d   1      33.988 -11.333  13.546  0.00  0.00     0.281 HD
ATOM     94  H   LEU d   1      34.712 -12.555  14.378  0.00  0.00     0.281 HD
BRANCH  92  95
ATOM     95  C   MKD d   1      34.425 -10.862  15.486  0.00  0.00     0.223 C 
ATOM     96  H   MKD d   1      35.297 -10.860  16.156  0.00  0.00     0.133 H 
BRANCH  95  97
ATOM     97  O   MKD d   1      34.082  -9.668  15.315  0.00  0.00    -0.368 OA
ATOM     98  H   MKD d   1      33.308  -9.638  14.765  0.00  0.00     0.212 HD
ENDBRANCH  95  97
BRANCH  95  99
ATOM     99  CA  MKD d   1      33.352 -11.831  16.026  0.00  0.00     0.176 C 
BRANCH  99 100
ATOM    100  CB1 MKD d   1      32.156 -10.966  16.503  0.00  0.00    -0.041 C 
ATOM    101  H   MKD d   1      31.365 -11.620  16.897  0.00  0.00     0.031 H 
ATOM    102  H   MKD d   1      31.763 -10.385  15.656  0.00  0.00     0.031 H 
ATOM    103  H   MKD d   1      32.492 -10.280  17.294  0.00  0.00     0.031 H 
ENDBRANCH  99 100
BRANCH  99 104
ATOM    104  N   MKD d   1      32.915 -12.758  14.994  0.00  0.00    -0.035 N 
ATOM    105  H   MKD d   1      33.679 -12.903  14.353  0.00  0.00     0.281 HD
ATOM    106  H   MKD d   1      32.675 -13.633  15.434  0.00  0.00     0.281 HD
BRANCH 104 107
ATOM    107  C   GLY d   1      31.653 -12.250  14.164  0.00  0.00     0.214 C 
ATOM    108  H   GLY d   1      30.753 -12.054  14.766  0.00  0.00     0.131 H 
BRANCH 107 109
ATOM    109  CA  GLY d   1      31.237 -13.175  13.022  0.00  0.00     0.127 C 
ATOM    110  H   GLY d   1      32.118 -13.420  12.411  0.00  0.00     0.082 H 
ATOM    111  H   GLY d   1      30.811 -14.100  13.438  0.00  0.00     0.082 H 
BRANCH 109 112
ATOM    112  N   GLY d   1      30.203 -12.491  12.158  0.00  0.00    -0.075 N 
ATOM    113  H   GLY d   1      29.933 -13.106  11.407  0.00  0.00     0.274 HD
ATOM    114  H   GLY d   1      30.592 -11.644  11.775  0.00  0.00     0.274 HD
ATOM    115  H   GLY d   1      29.394 -12.267  12.716  0.00  0.00     0.274 HD
ENDBRANCH 109 112
ENDBRANCH 107 109
BRANCH 107 116
ATOM    116  O   GLY d   1      32.364 -11.214  14.000  0.00  0.00    -0.368 OA
ATOM    117  H   GLY d   1      32.568 -10.834  14.847  0.00  0.00     0.212 HD
ENDBRANCH 107 116
ENDBRANCH 104 107
ENDBRANCH  99 104
BRANCH  99 118
ATOM    118  CB  MKD d   1      34.021 -12.662  17.124  0.00  0.00    -0.030 C 
ATOM    119  H   MKD d   1      34.743 -13.353  16.666  0.00  0.00     0.036 H 
ATOM    120  H   MKD d   1      33.253 -13.238  17.662  0.00  0.00     0.036 H 
BRANCH 118 121
ATOM    121  CG  MKD d   1      34.754 -11.749  18.115  0.00  0.00    -0.063 C 
ATOM    122  H   MKD d   1      34.102 -11.595  18.988  0.00  0.00     0.033 H 
ATOM    123  H   MKD d   1      34.940 -10.784  17.621  0.00  0.00     0.033 H 
BRANCH 121 124
ATOM    124  CD  MKD d   1      36.100 -12.302  18.611  0.00  0.00    -0.065 C 
ATOM    125  H   MKD d   1      36.000 -13.381  18.799  0.00  0.00     0.033 H 
ATOM    126  H   MKD d   1      36.379 -11.791  19.544  0.00  0.00     0.033 H 
BRANCH 124 127
ATOM    127  CE  MKD d   1      37.196 -12.074  17.567  0.00  0.00    -0.065 C 
ATOM    128  H   MKD d   1      36.762 -12.197  16.564  0.00  0.00     0.033 H 
ATOM    129  H   MKD d   1      37.990 -12.820  17.717  0.00  0.00     0.033 H 
BRANCH 127 130
ATOM    130  CF  MKD d   1      37.807 -10.675  17.673  0.00  0.00    -0.069 C 
ATOM    131  H   MKD d   1      37.138  -9.958  17.175  0.00  0.00     0.032 H 
ATOM    132  H   MKD d   1      38.784 -10.676  17.168  0.00  0.00     0.032 H 
BRANCH 130 133
ATOM    133  CH  MKD d   1      38.005 -10.235  19.137  0.00  0.00    -0.077 C 
ATOM    134  H   MKD d   1      38.445  -9.227  19.161  0.00  0.00     0.027 H 
ATOM    135  H   MKD d   1      38.679 -10.941  19.644  0.00  0.00     0.027 H 
ATOM    136  H   MKD d   1      37.032 -10.223  19.651  0.00  0.00     0.027 H 
ENDBRANCH 130 133
ENDBRANCH 127 130
ENDBRANCH 124 127
ENDBRANCH 121 124
ENDBRANCH 118 121
ENDBRANCH  99 118
ENDBRANCH  95  99
ENDBRANCH  92  95
ENDBRANCH  90  92
BRANCH  90 137
ATOM    137  CB  LEU d   1      36.380 -12.798  12.712  0.00  0.00    -0.027 C 
ATOM    138  H   LEU d   1      37.055 -12.584  11.870  0.00  0.00     0.037 H 
ATOM    139  H   LEU d   1      35.459 -13.266  12.334  0.00  0.00     0.037 H 
BRANCH 137 140
ATOM    140  CG  LEU d   1      37.088 -13.866  13.580  0.00  0.00    -0.059 C 
ATOM    141  H   LEU d   1      36.344 -14.261  14.287  0.00  0.00     0.038 H 
BRANCH 140 142
ATOM    142  CD1 LEU d   1      37.582 -15.013  12.705  0.00  0.00    -0.073 C 
ATOM    143  H   LEU d   1      38.083 -15.764  13.334  0.00  0.00     0.028 H 
ATOM    144  H   LEU d   1      38.293 -14.626  11.960  0.00  0.00     0.028 H 
ATOM    145  H   LEU d   1      36.727 -15.476  12.191  0.00  0.00     0.028 H 
ENDBRANCH 140 142
BRANCH 140 146
ATOM    146  CD2 LEU d   1      38.251 -13.343  14.382  0.00  0.00    -0.073 C 
ATOM    147  H   LEU d   1      37.913 -12.514  15.020  0.00  0.00     0.028 H 
ATOM    148  H   LEU d   1      39.035 -12.984  13.699  0.00  0.00     0.028 H 
ATOM    149  H   LEU d   1      38.654 -14.149  15.012  0.00  0.00     0.028 H 
ENDBRANCH 140 146
ENDBRANCH 137 140
ENDBRANCH  90 137
ENDBRANCH  87  90
ENDBRANCH  84  86
BRANCH  84 150
ATOM    150  CB  ASP d   1      32.628  -9.242  10.518  0.00  0.00     0.043 C 
ATOM    151  H   ASP d   1      32.112  -9.122  11.482  0.00  0.00     0.052 H 
ATOM    152  H   ASP d   1      32.347 -10.206  10.069  0.00  0.00     0.052 H 
BRANCH 150 153
ATOM    153  CG  ASP d   1      32.188  -8.127   9.590  0.00  0.00     0.175 C 
ATOM    154  OD1 ASP d   1      32.786  -7.986   8.502  0.00  0.00    -0.648 OA
ATOM    155  OD2 ASP d   1      31.244  -7.391   9.948  0.00  0.00    -0.648 OA
ENDBRANCH 150 153
ENDBRANCH  84 150
ENDBRANCH  81  84
ENDBRANCH   1  80
BRANCH   1 156
ATOM    156  CB  MKD d   1      35.157  -5.714  14.178  0.00  0.00    -0.033 C 
ATOM    157  H   MKD d   1      34.171  -6.107  14.467  0.00  0.00     0.037 H 
ATOM    158  H   MKD d   1      35.191  -4.631  14.369  0.00  0.00     0.037 H 
BRANCH 156 159
ATOM    159  CG  MKD d   1      36.253  -6.420  14.949  0.00  0.00    -0.062 C 
ATOM    160  H   MKD d   1      37.171  -5.817  14.886  0.00  0.00     0.033 H 
ATOM    161  H   MKD d   1      36.428  -7.403  14.488  0.00  0.00     0.033 H 
BRANCH 159 162
ATOM    162  CD  MKD d   1      35.911  -6.626  16.411  0.00  0.00    -0.065 C 
ATOM    163  H   MKD d   1      35.181  -7.438  16.544  0.00  0.00     0.033 H 
ATOM    164  H   MKD d   1      35.523  -5.704  16.869  0.00  0.00     0.033 H 
BRANCH 162 165
ATOM    165  CE  MKD d   1      37.298  -7.008  16.989  0.00  0.00    -0.065 C 
ATOM    166  H   MKD d   1      37.774  -6.106  17.402  0.00  0.00     0.033 H 
ATOM    167  H   MKD d   1      37.923  -7.414  16.180  0.00  0.00     0.033 H 
BRANCH 165 168
ATOM    168  CF  MKD d   1      37.179  -8.022  18.060  0.00  0.00    -0.069 C 
ATOM    169  H   MKD d   1      36.398  -8.752  17.800  0.00  0.00     0.032 H 
ATOM    170  H   MKD d   1      36.923  -7.534  19.012  0.00  0.00     0.032 H 
BRANCH 168 171
ATOM    171  CH  MKD d   1      38.516  -8.717  18.180  0.00  0.00    -0.077 C 
ATOM    172  H   MKD d   1      38.463  -9.480  18.970  0.00  0.00     0.027 H 
ATOM    173  H   MKD d   1      39.291  -7.979  18.434  0.00  0.00     0.027 H 
ATOM    174  H   MKD d   1      38.767  -9.197  17.223  0.00  0.00     0.027 H 
ENDBRANCH 168 171
ENDBRANCH 165 168
ENDBRANCH 162 165
ENDBRANCH 159 162
ENDBRANCH 156 159
ENDBRANCH   1 156
TORSDOF 57
