REMARK  7 active torsions:
REMARK  status: ('A' for Active; 'I' for Inactive)
REMARK    1  A    between atoms: C1_1  and  C2_2 
REMARK    2  A    between atoms: C1_1  and  C5_18 
REMARK    3  A    between atoms: O15_24  and  C13_6 
REMARK    4  A    between atoms: C16_8  and  C17_9 
REMARK    5  A    between atoms: C16_8  and  O15_24 
REMARK    6  A    between atoms: C18_10  and  C19_11 
REMARK    7  A    between atoms: C5_18  and  N10_23 
ROOT
ATOM      1  C1  2KS d   1      17.994  33.911  54.607  0.00  0.00     0.011 C 
ATOM      2  C3  2KS d   1      17.120  33.245  55.730  0.00  0.00    -0.050 C 
ATOM      3  C13 2KS d   1      16.240  31.403  54.106  0.00  0.00     0.039 C 
ATOM      4  C4  2KS d   1      17.171  33.718  53.282  0.00  0.00    -0.050 C 
ATOM      5  C8  2KS d   1      16.891  31.717  55.493  0.00  0.00    -0.040 C 
ATOM      6  C9  2KS d   1      16.874  32.221  52.927  0.00  0.00    -0.040 C 
ATOM      7  H   2KS d   1      16.142  33.747  55.758  0.00  0.00     0.034 H 
ATOM      8  H   2KS d   1      17.628  33.378  56.696  0.00  0.00     0.034 H 
ATOM      9  H   2KS d   1      15.170  31.656  54.144  0.00  0.00     0.083 H 
ATOM     10  H   2KS d   1      17.741  34.163  52.453  0.00  0.00     0.034 H 
ATOM     11  H   2KS d   1      16.211  34.244  53.392  0.00  0.00     0.034 H 
ATOM     12  H   2KS d   1      16.230  31.335  56.285  0.00  0.00     0.036 H 
ATOM     13  H   2KS d   1      17.863  31.204  55.548  0.00  0.00     0.036 H 
ATOM     14  H   2KS d   1      16.178  32.198  52.076  0.00  0.00     0.036 H 
ATOM     15  H   2KS d   1      17.820  31.739  52.640  0.00  0.00     0.036 H 
ENDROOT
BRANCH   3  16
ATOM     16  O15 2KS d   1      16.384  29.955  53.957  0.00  0.00    -0.382 OA
BRANCH  16  17
ATOM     17  C16 2KS d   1      15.619  29.411  52.841  0.00  0.00     0.035 C 
ATOM     18  H   2KS d   1      14.608  29.844  52.849  0.00  0.00     0.080 H 
ATOM     19  H   2KS d   1      16.121  29.670  51.897  0.00  0.00     0.080 H 
BRANCH  17  20
ATOM     20  C17 2KS d   1      15.518  27.908  52.955  0.00  0.00    -0.080 C 
ATOM     21  C18 2KS d   1      16.317  27.046  52.297  0.00  0.00    -0.075 C 
ATOM     22  H   2KS d   1      17.093  27.454  51.651  0.00  0.00     0.084 H 
ATOM     23  H   2KS d   1      14.752  27.496  53.610  0.00  0.00     0.080 H 
BRANCH  21  24
ATOM     24  C19 2KS d   1      16.196  25.537  52.407  0.00  0.00    -0.036 A 
ATOM     25  C20 2KS d   1      16.278  24.773  51.220  0.00  0.00    -0.073 A 
ATOM     26  C22 2KS d   1      16.161  23.365  51.265  0.00  0.00    -0.082 A 
ATOM     27  H   2KS d   1      16.432  25.270  50.269  0.00  0.00     0.084 H 
ATOM     28  C24 2KS d   1      15.964  22.708  52.497  0.00  0.00    -0.083 A 
ATOM     29  H   2KS d   1      16.223  22.788  50.349  0.00  0.00     0.083 H 
ATOM     30  C23 2KS d   1      15.860  23.459  53.685  0.00  0.00    -0.082 A 
ATOM     31  H   2KS d   1      15.893  21.627  52.530  0.00  0.00     0.083 H 
ATOM     32  C21 2KS d   1      15.977  24.867  53.639  0.00  0.00    -0.073 A 
ATOM     33  H   2KS d   1      15.691  22.958  54.631  0.00  0.00     0.083 H 
ATOM     34  H   2KS d   1      15.899  25.442  54.555  0.00  0.00     0.084 H 
ENDBRANCH  21  24
ENDBRANCH  17  20
ENDBRANCH  16  17
ENDBRANCH   3  16
BRANCH   1  35
ATOM     35  C2  2KS d   1      18.279  35.418  54.879  0.00  0.00    -0.048 A 
ATOM     36  C6  2KS d   1      18.865  36.215  53.877  0.00  0.00    -0.076 A 
ATOM     37  C11 2KS d   1      19.228  37.562  54.098  0.00  0.00    -0.082 A 
ATOM     38  H   2KS d   1      19.044  35.779  52.901  0.00  0.00     0.084 H 
ATOM     39  C14 2KS d   1      19.003  38.139  55.355  0.00  0.00    -0.083 A 
ATOM     40  H   2KS d   1      19.677  38.145  53.302  0.00  0.00     0.083 H 
ATOM     41  C12 2KS d   1      18.443  37.348  56.366  0.00  0.00    -0.082 A 
ATOM     42  H   2KS d   1      19.257  39.176  55.541  0.00  0.00     0.083 H 
ATOM     43  C7  2KS d   1      18.078  36.025  56.159  0.00  0.00    -0.076 A 
ATOM     44  H   2KS d   1      18.289  37.785  57.346  0.00  0.00     0.083 H 
ATOM     45  H   2KS d   1      17.640  35.451  56.968  0.00  0.00     0.084 H 
ENDBRANCH   1  35
BRANCH   1  46
ATOM     46  C5  2KS d   1      19.415  33.256  54.520  0.00  0.00     0.090 C 
ATOM     47  H   2KS d   1      19.982  33.737  53.709  0.00  0.00     0.076 H 
ATOM     48  H   2KS d   1      19.302  32.184  54.303  0.00  0.00     0.076 H 
BRANCH  46  49
ATOM     49  N10 2KS d   1      20.157  33.413  55.781  0.00  0.00    -0.078 N 
ATOM     50  H   2KS d   1      21.064  32.982  55.693  0.00  0.00     0.274 HD
ATOM     51  H   2KS d   1      19.646  32.970  56.529  0.00  0.00     0.274 HD
ATOM     52  H   2KS d   1      20.269  34.394  55.985  0.00  0.00     0.274 HD
ENDBRANCH  46  49
ENDBRANCH   1  46
TORSDOF 7
