REMARK  4 active torsions:
REMARK  status: ('A' for Active; 'I' for Inactive)
REMARK    1  A    between atoms: C3_2  and  C16_6 
REMARK    2  A    between atoms: C3_2  and  C4_14 
REMARK    3  A    between atoms: C16_6  and  N15_22 
REMARK    4  A    between atoms: N1_13  and  C5_15 
ROOT
ATOM      1  C3  2KV d   1      17.986  33.712  54.787  0.00  0.00     0.011 C 
ATOM      2  C11 2KV d   1      17.112  31.323  55.423  0.00  0.00    -0.045 C 
ATOM      3  C5  2KV d   1      16.605  31.075  53.950  0.00  0.00     0.014 C 
ATOM      4  C8  2KV d   1      17.225  33.546  53.406  0.00  0.00    -0.051 C 
ATOM      5  C9  2KV d   1      17.223  32.823  55.853  0.00  0.00    -0.051 C 
ATOM      6  C10 2KV d   1      17.103  32.095  52.856  0.00  0.00    -0.045 C 
ATOM      7  H   2KV d   1      18.109  30.868  55.520  0.00  0.00     0.036 H 
ATOM      8  H   2KV d   1      16.413  30.824  56.111  0.00  0.00     0.036 H 
ATOM      9  H   2KV d   1      15.533  31.311  54.021  0.00  0.00     0.072 H 
ATOM     10  H   2KV d   1      17.760  34.145  52.654  0.00  0.00     0.034 H 
ATOM     11  H   2KV d   1      16.207  33.942  53.535  0.00  0.00     0.034 H 
ATOM     12  H   2KV d   1      16.208  33.227  55.986  0.00  0.00     0.034 H 
ATOM     13  H   2KV d   1      17.766  32.876  56.808  0.00  0.00     0.034 H 
ATOM     14  H   2KV d   1      16.388  32.093  52.020  0.00  0.00     0.036 H 
ATOM     15  H   2KV d   1      18.090  31.771  52.494  0.00  0.00     0.036 H 
ENDROOT
BRANCH   1  16
ATOM     16  C16 2KV d   1      19.474  33.210  54.725  0.00  0.00     0.090 C 
ATOM     17  H   2KV d   1      19.945  33.647  53.832  0.00  0.00     0.076 H 
ATOM     18  H   2KV d   1      19.461  32.114  54.633  0.00  0.00     0.076 H 
BRANCH  16  19
ATOM     19  N15 2KV d   1      20.298  33.561  55.895  0.00  0.00    -0.078 N 
ATOM     20  H   2KV d   1      21.231  33.201  55.769  0.00  0.00     0.274 HD
ATOM     21  H   2KV d   1      19.892  33.159  56.725  0.00  0.00     0.274 HD
ATOM     22  H   2KV d   1      20.335  34.564  55.991  0.00  0.00     0.274 HD
ENDBRANCH  16  19
ENDBRANCH   1  16
BRANCH   1  23
ATOM     23  C4  2KV d   1      18.135  35.222  55.209  0.00  0.00    -0.046 A 
ATOM     24  C18 2KV d   1      17.805  35.692  56.505  0.00  0.00    -0.076 A 
ATOM     25  C19 2KV d   1      18.019  37.022  56.904  0.00  0.00    -0.081 A 
ATOM     26  H   2KV d   1      17.371  34.998  57.216  0.00  0.00     0.084 H 
ATOM     27  C20 2KV d   1      18.587  37.938  56.004  0.00  0.00    -0.062 A 
ATOM     28  H   2KV d   1      17.746  37.340  57.904  0.00  0.00     0.083 H 
ATOM     29  C12 2KV d   1      18.914  37.492  54.714  0.00  0.00     0.034 A 
ATOM     30  H   2KV d   1      18.769  38.965  56.298  0.00  0.00     0.086 H 
ATOM     31  C7  2KV d   1      18.730  36.162  54.351  0.00  0.00    -0.055 A 
ATOM     32 CL1  2KV d   1      19.652  38.527  53.520  0.00  0.00    -0.084 Cl
ATOM     33  H   2KV d   1      19.058  35.839  53.370  0.00  0.00     0.086 H 
ENDBRANCH   1  23
BRANCH   3  34
ATOM     34  N1  2KV d   1      16.602  29.641  53.541  0.00  0.00    -0.347 N 
ATOM     35  C2  2KV d   1      15.404  29.090  53.147  0.00  0.00     0.220 C 
ATOM     36  C17 2KV d   1      15.266  27.635  52.743  0.00  0.00     0.009 C 
ATOM     37  O6  2KV d   1      14.349  29.719  53.113  0.00  0.00    -0.273 OA
ATOM     38  C22 2KV d   1      16.620  27.014  52.313  0.00  0.00    -0.056 C 
ATOM     39  H   2KV d   1      14.562  27.567  51.901  0.00  0.00     0.047 H 
ATOM     40  H   2KV d   1      14.871  27.066  53.598  0.00  0.00     0.047 H 
ATOM     41  C21 2KV d   1      17.714  27.302  53.382  0.00  0.00    -0.050 C 
ATOM     42  H   2KV d   1      16.929  27.450  51.352  0.00  0.00     0.033 H 
ATOM     43  H   2KV d   1      16.500  25.926  52.201  0.00  0.00     0.033 H 
ATOM     44  C13 2KV d   1      17.849  28.836  53.593  0.00  0.00    -0.002 C 
ATOM     45  H   2KV d   1      17.431  26.826  54.332  0.00  0.00     0.035 H 
ATOM     46  H   2KV d   1      18.676  26.894  53.039  0.00  0.00     0.035 H 
ATOM     47  H   2KV d   1      18.523  29.219  52.813  0.00  0.00     0.064 H 
ATOM     48  H   2KV d   1      18.305  28.995  54.581  0.00  0.00     0.064 H 
ENDBRANCH   3  34
TORSDOF 4
