REMARK  9 active torsions:
REMARK  status: ('A' for Active; 'I' for Inactive)
REMARK    1  A    between atoms: C01_1  and  C02_2 
REMARK    2  A    between atoms: C03_3  and  C21_21 
REMARK    3  A    between atoms: C06_6  and  C07_7 
REMARK    4  A    between atoms: C07_7  and  C08_8 
REMARK    5  A    between atoms: C11_11  and  C14_14 
REMARK    6  A    between atoms: C14_14  and  C15_15 
REMARK    7  A    between atoms: C14_14  and  C16_16 
REMARK    8  A    between atoms: C21_21  and  C22_22 
REMARK    9  A    between atoms: C22_22  and  C23_23 
ROOT
ATOM      1  C02 K08 d   1      48.530  -6.992 113.104  0.00  0.00    -0.044 A 
ATOM      2  C03 K08 d   1      49.399  -6.238 112.184  0.00  0.00    -0.040 A 
ATOM      3  C04 K08 d   1      50.838  -6.753 112.357  0.00  0.00    -0.018 A 
ATOM      4  C05 K08 d   1      50.822  -7.792 113.353  0.00  0.00    -0.015 A 
ATOM      5  C06 K08 d   1      49.360  -7.960 113.841  0.00  0.00    -0.018 A 
ATOM      6  C17 K08 d   1      52.027  -8.424 113.686  0.00  0.00    -0.071 A 
ATOM      7  C18 K08 d   1      53.230  -8.048 113.057  0.00  0.00    -0.082 A 
ATOM      8  C19 K08 d   1      53.227  -7.019 112.072  0.00  0.00    -0.082 A 
ATOM      9  C20 K08 d   1      52.026  -6.379 111.729  0.00  0.00    -0.072 A 
ATOM     10  H   K08 d   1      52.034  -9.209 114.434  0.00  0.00     0.084 H 
ATOM     11  H   K08 d   1      54.158  -8.542 113.323  0.00  0.00     0.083 H 
ATOM     12  H   K08 d   1      54.153  -6.730 111.587  0.00  0.00     0.083 H 
ATOM     13  H   K08 d   1      52.022  -5.597 110.979  0.00  0.00     0.084 H 
ENDROOT
BRANCH   5  14
ATOM     14  C07 K08 d   1      48.832  -8.807 114.759  0.00  0.00    -0.062 C 
ATOM     15  H   K08 d   1      47.807  -8.616 115.075  0.00  0.00     0.086 H 
BRANCH  14  16
ATOM     16  C08 K08 d   1      49.533  -9.991 115.384  0.00  0.00    -0.035 A 
ATOM     17  C09 K08 d   1      49.436 -10.161 116.755  0.00  0.00    -0.072 A 
ATOM     18  C10 K08 d   1      50.057 -11.231 117.365  0.00  0.00    -0.076 A 
ATOM     19  H   K08 d   1      48.871  -9.452 117.350  0.00  0.00     0.084 H 
ATOM     20  C11 K08 d   1      50.771 -12.142 116.606  0.00  0.00    -0.055 A 
ATOM     21  H   K08 d   1      49.986 -11.358 118.439  0.00  0.00     0.084 H 
ATOM     22  C12 K08 d   1      50.852 -11.986 115.231  0.00  0.00    -0.076 A 
ATOM     23  C13 K08 d   1      50.227 -10.915 114.613  0.00  0.00    -0.072 A 
ATOM     24  H   K08 d   1      51.406 -12.704 114.637  0.00  0.00     0.084 H 
ATOM     25  H   K08 d   1      50.279 -10.799 113.537  0.00  0.00     0.084 H 
BRANCH  20  26
ATOM     26  C14 K08 d   1      51.433 -13.319 117.297  0.00  0.00    -0.036 C 
ATOM     27  H   K08 d   1      51.129 -13.268 118.353  0.00  0.00     0.046 H 
BRANCH  26  28
ATOM     28  C15 K08 d   1      52.942 -13.263 117.286  0.00  0.00    -0.069 C 
ATOM     29  H   K08 d   1      53.345 -14.146 117.803  0.00  0.00     0.028 H 
ATOM     30  H   K08 d   1      53.279 -12.351 117.801  0.00  0.00     0.028 H 
ATOM     31  H   K08 d   1      53.301 -13.251 116.246  0.00  0.00     0.028 H 
ENDBRANCH  26  28
BRANCH  26  32
ATOM     32  C16 K08 d   1      50.927 -14.637 116.760  0.00  0.00    -0.069 C 
ATOM     33  H   K08 d   1      49.827 -14.644 116.782  0.00  0.00     0.028 H 
ATOM     34  H   K08 d   1      51.311 -15.458 117.382  0.00  0.00     0.028 H 
ATOM     35  H   K08 d   1      51.274 -14.768 115.724  0.00  0.00     0.028 H 
ENDBRANCH  26  32
ENDBRANCH  20  26
ENDBRANCH  14  16
ENDBRANCH   5  14
BRANCH   1  36
ATOM     36  C01 K08 d   1      47.039  -6.811 113.270  0.00  0.00    -0.050 C 
ATOM     37  H   K08 d   1      46.688  -6.019 112.592  0.00  0.00     0.033 H 
ATOM     38  H   K08 d   1      46.817  -6.529 114.310  0.00  0.00     0.033 H 
ATOM     39  H   K08 d   1      46.526  -7.754 113.029  0.00  0.00     0.033 H 
ENDBRANCH   1  36
BRANCH   2  40
ATOM     40  C21 K08 d   1      48.962  -5.133 111.255  0.00  0.00    -0.033 C 
ATOM     41  H   K08 d   1      47.864  -5.117 111.198  0.00  0.00     0.040 H 
ATOM     42  H   K08 d   1      49.379  -5.313 110.253  0.00  0.00     0.040 H 
BRANCH  40  43
ATOM     43  C22 K08 d   1      49.459  -3.795 111.775  0.00  0.00    -0.001 C 
ATOM     44  H   K08 d   1      49.029  -2.991 111.159  0.00  0.00     0.045 H 
ATOM     45  H   K08 d   1      50.556  -3.768 111.699  0.00  0.00     0.045 H 
BRANCH  43  46
ATOM     46  C23 K08 d   1      49.062  -3.572 113.220  0.00  0.00     0.165 A 
ATOM     47  N24 K08 d   1      49.844  -3.736 114.299  0.00  0.00    -0.141 NA
ATOM     48  N25 K08 d   1      49.112  -3.448 115.387  0.00  0.00     0.021 NA
ATOM     49  N26 K08 d   1      47.887  -3.106 115.007  0.00  0.00    -0.200 N 
ATOM     50  N27 K08 d   1      47.846  -3.181 113.662  0.00  0.00    -0.144 NA
ATOM     51  H   K08 d   1      47.110  -2.833 115.626  0.00  0.00     0.208 HD
ENDBRANCH  43  46
ENDBRANCH  40  43
ENDBRANCH   2  40
TORSDOF 9
