REMARK  2 active torsions:
REMARK  status: ('A' for Active; 'I' for Inactive)
REMARK    1  A    between atoms: C5_5  and  C8_8 
REMARK    2  A    between atoms: C11_11  and  C13_14 
ROOT
ATOM      1  C7  4FC d   1       9.423  -6.631 -10.579  0.00  0.00    -0.071 A 
ATOM      2  C8  4FC d   1       9.743  -5.367 -10.068  0.00  0.00    -0.026 A 
ATOM      3  C9  4FC d   1      10.906  -5.208  -9.314  0.00  0.00    -0.071 A 
ATOM      4  C10 4FC d   1      11.744  -6.296  -9.096  0.00  0.00    -0.066 A 
ATOM      5  C11 4FC d   1      11.442  -7.550  -9.610  0.00  0.00     0.040 A 
ATOM      6  C12 4FC d   1      10.271  -7.714 -10.357  0.00  0.00    -0.066 A 
ATOM      7  H   4FC d   1       8.512  -6.767 -11.150  0.00  0.00     0.084 H 
ATOM      8  H   4FC d   1      11.156  -4.238  -8.899  0.00  0.00     0.084 H 
ATOM      9  H   4FC d   1      12.649  -6.163  -8.514  0.00  0.00     0.085 H 
ATOM     10  H   4FC d   1      10.022  -8.687 -10.765  0.00  0.00     0.085 H 
ENDROOT
BRANCH   2  11
ATOM     11  C5  4FC d   1       8.881  -4.292 -10.269  0.00  0.00    -0.026 A 
ATOM     12  C4  4FC d   1       8.294  -4.056 -11.504  0.00  0.00    -0.069 A 
ATOM     13  C3  4FC d   1       7.424  -2.987 -11.651  0.00  0.00    -0.045 A 
ATOM     14  H   4FC d   1       8.514  -4.702 -12.346  0.00  0.00     0.085 H 
ATOM     15  C2  4FC d   1       7.121  -2.151 -10.581  0.00  0.00     0.116 A 
ATOM     16  H   4FC d   1       6.971  -2.799 -12.618  0.00  0.00     0.088 H 
ATOM     17  C1  4FC d   1       7.694  -2.387  -9.348  0.00  0.00    -0.045 A 
ATOM     18  F1  4FC d   1       6.250  -1.101 -10.751  0.00  0.00    -0.206 F 
ATOM     19  C6  4FC d   1       8.567  -3.456  -9.194  0.00  0.00    -0.069 A 
ATOM     20  H   4FC d   1       7.465  -1.743  -8.507  0.00  0.00     0.088 H 
ATOM     21  H   4FC d   1       9.012  -3.645  -8.224  0.00  0.00     0.085 H 
ENDBRANCH   2  11
BRANCH   5  22
ATOM     22  C13 4FC d   1      12.304  -8.620  -9.357  0.00  0.00     0.209 C 
ATOM     23  O1  4FC d   1      13.434  -8.417  -8.852  0.00  0.00    -0.644 OA
ATOM     24  O2  4FC d   1      11.933  -9.797  -9.591  0.00  0.00    -0.644 OA
ENDBRANCH   5  22
TORSDOF 2
