REMARK  1 active torsions:
REMARK  status: ('A' for Active; 'I' for Inactive)
REMARK    1  A    between atoms: C12_14  and  C13_15 
ROOT
ATOM      1 CL   2J1 d   1     -20.916   1.033 -23.781  0.00  0.00    -0.083 Cl
ATOM      2  C1  2J1 d   1     -22.674   0.828 -24.076  0.00  0.00     0.052 A 
ATOM      3  C2  2J1 d   1     -23.477   0.237 -23.102  0.00  0.00    -0.048 A 
ATOM      4  C3  2J1 d   1     -24.833   0.097 -23.372  0.00  0.00     0.005 A 
ATOM      5  C6  2J1 d   1     -25.942  -0.471 -22.580  0.00  0.00     0.003 A 
ATOM      6  C7  2J1 d   1     -25.958  -1.087 -21.202  0.00  0.00    -0.070 C 
ATOM      7  C8  2J1 d   1     -27.415  -1.133 -20.729  0.00  0.00    -0.082 C 
ATOM      8  C9  2J1 d   1     -28.411  -1.635 -21.785  0.00  0.00    -0.081 C 
ATOM      9  C10 2J1 d   1     -28.517  -0.758 -23.038  0.00  0.00    -0.056 C 
ATOM     10  C5  2J1 d   1     -27.134  -0.312 -23.449  0.00  0.00     0.043 A 
ATOM     11  N   2J1 d   1     -26.771   0.277 -24.610  0.00  0.00    -0.355 N 
ATOM     12  C4  2J1 d   1     -25.448   0.548 -24.649  0.00  0.00     0.045 A 
ATOM     13  C11 2J1 d   1     -24.635   1.136 -25.616  0.00  0.00    -0.038 A 
ATOM     14  C12 2J1 d   1     -23.270   1.289 -25.367  0.00  0.00     0.064 A 
ATOM     15  H   2J1 d   1     -23.057  -0.103 -22.163  0.00  0.00     0.087 H 
ATOM     16  H   2J1 d   1     -25.094  -1.434 -20.647  0.00  0.00     0.084 H 
ATOM     17  H   2J1 d   1     -27.718  -0.836 -19.731  0.00  0.00     0.083 H 
ATOM     18  H   2J1 d   1     -28.994  -2.539 -21.654  0.00  0.00     0.083 H 
ATOM     19  H   2J1 d   1     -29.438  -0.499 -23.548  0.00  0.00     0.086 H 
ATOM     20  H   2J1 d   1     -27.426   0.494 -25.375  0.00  0.00     0.166 HD
ATOM     21  H   2J1 d   1     -25.060   1.472 -26.555  0.00  0.00     0.088 H 
ENDROOT
BRANCH  14  22
ATOM     22  C13 2J1 d   1     -22.396   1.920 -26.409  0.00  0.00     0.211 C 
ATOM     23  O2  2J1 d   1     -21.838   2.982 -26.196  0.00  0.00    -0.644 OA
ATOM     24  O1  2J1 d   1     -22.219   1.321 -27.583  0.00  0.00    -0.644 OA
ENDBRANCH  14  22
TORSDOF 1
