REMARK  5 active torsions:
REMARK  status: ('A' for Active; 'I' for Inactive)
REMARK    1  A    between atoms: C4_4  and  C7_7 
REMARK       I    between atoms: C7_7  and  N9_9 
REMARK    2  A    between atoms: C12_12  and  C15_15 
REMARK    3  A    between atoms: C15_15  and  N16_16 
REMARK    4  A    between atoms: C23_23  and  C25_25 
REMARK       I    between atoms: C25_25  and  N27_27 
REMARK    5  A    between atoms: N27_27  and  C28_28 
ROOT
ATOM      1  C15 2HL d   1      16.120   5.632  -1.082  0.00  0.00     0.004 C 
ATOM      2  H   2HL d   1      17.154   5.938  -1.301  0.00  0.00     0.065 H 
ATOM      3  H   2HL d   1      16.105   5.020  -0.168  0.00  0.00     0.065 H 
ENDROOT
BRANCH   1   4
ATOM      4  C12 2HL d   1      15.647   4.735  -2.247  0.00  0.00    -0.035 C 
ATOM      5  C11 2HL d   1      16.077   5.349  -3.590  0.00  0.00    -0.045 C 
ATOM      6  C10 2HL d   1      15.729   4.361  -4.715  0.00  0.00    -0.002 C 
ATOM      7  H   2HL d   1      15.544   6.297  -3.752  0.00  0.00     0.036 H 
ATOM      8  H   2HL d   1      17.161   5.535  -3.582  0.00  0.00     0.036 H 
ATOM      9  N9  2HL d   1      14.265   4.197  -4.696  0.00  0.00    -0.348 N 
ATOM     10  H   2HL d   1      16.053   4.763  -5.686  0.00  0.00     0.064 H 
ATOM     11  H   2HL d   1      16.221   3.394  -4.536  0.00  0.00     0.064 H 
ATOM     12  C7  2HL d   1      13.535   4.496  -5.799  0.00  0.00     0.253 C 
ATOM     13  C14 2HL d   1      13.635   3.698  -3.452  0.00  0.00    -0.002 C 
ATOM     14  O8  2HL d   1      14.108   4.890  -6.803  0.00  0.00    -0.267 OA
ATOM     15  C13 2HL d   1      14.131   4.453  -2.207  0.00  0.00    -0.045 C 
ATOM     16  H   2HL d   1      13.874   2.630  -3.337  0.00  0.00     0.064 H 
ATOM     17  H   2HL d   1      12.545   3.824  -3.532  0.00  0.00     0.064 H 
ATOM     18  H   2HL d   1      13.596   5.412  -2.141  0.00  0.00     0.036 H 
ATOM     19  H   2HL d   1      13.909   3.847  -1.316  0.00  0.00     0.036 H 
ATOM     20  H   2HL d   1      16.158   3.766  -2.145  0.00  0.00     0.042 H 
BRANCH  12  21
ATOM     21  C4  2HL d   1      12.053   4.346  -5.808  0.00  0.00     0.032 A 
ATOM     22  C3  2HL d   1      11.450   3.318  -6.543  0.00  0.00    -0.068 A 
ATOM     23  C2  2HL d   1      10.070   3.191  -6.539  0.00  0.00    -0.082 A 
ATOM     24  H   2HL d   1      12.059   2.625  -7.112  0.00  0.00     0.085 H 
ATOM     25  C1  2HL d   1       9.301   4.090  -5.825  0.00  0.00    -0.083 A 
ATOM     26  H   2HL d   1       9.596   2.390  -7.094  0.00  0.00     0.083 H 
ATOM     27  C6  2HL d   1       9.876   5.125  -5.094  0.00  0.00    -0.082 A 
ATOM     28  H   2HL d   1       8.222   3.986  -5.835  0.00  0.00     0.083 H 
ATOM     29  C5  2HL d   1      11.251   5.251  -5.089  0.00  0.00    -0.068 A 
ATOM     30  H   2HL d   1       9.256   5.819  -4.539  0.00  0.00     0.083 H 
ATOM     31  H   2HL d   1      11.716   6.053  -4.527  0.00  0.00     0.085 H 
ENDBRANCH  12  21
ENDBRANCH   1   4
BRANCH   1  32
ATOM     32  N16 2HL d   1      15.345   6.857  -0.807  0.00  0.00    -0.339 N 
ATOM     33  C17 2HL d   1      14.387   7.469  -1.565  0.00  0.00     0.067 A 
ATOM     34  N18 2HL d   1      13.933   8.527  -0.958  0.00  0.00    -0.242 NA
ATOM     35  H   2HL d   1      14.050   7.120  -2.540  0.00  0.00     0.143 H 
ATOM     36  C19 2HL d   1      14.561   8.667   0.244  0.00  0.00     0.086 A 
ATOM     37  C20 2HL d   1      15.467   7.605   0.352  0.00  0.00     0.064 A 
ATOM     38  C24 2HL d   1      14.449   9.600   1.274  0.00  0.00    -0.038 A 
ATOM     39  C21 2HL d   1      16.261   7.485   1.484  0.00  0.00    -0.054 A 
ATOM     40  C22 2HL d   1      16.154   8.395   2.499  0.00  0.00    -0.065 A 
ATOM     41  H   2HL d   1      16.968   6.667   1.564  0.00  0.00     0.087 H 
ATOM     42  C23 2HL d   1      15.281   9.485   2.384  0.00  0.00     0.034 A 
ATOM     43  H   2HL d   1      16.748   8.273   3.398  0.00  0.00     0.085 H 
ATOM     44  H   2HL d   1      13.724  10.404   1.211  0.00  0.00     0.088 H 
BRANCH  42  45
ATOM     45  C25 2HL d   1      15.081  10.400   3.519  0.00  0.00     0.256 C 
ATOM     46  O26 2HL d   1      14.547  11.487   3.410  0.00  0.00    -0.267 OA
ATOM     47  N27 2HL d   1      15.407   9.834   4.706  0.00  0.00    -0.322 N 
ATOM     48  H   2HL d   1      15.870   8.950   4.640  0.00  0.00     0.169 HD
BRANCH  47  49
ATOM     49  C28 2HL d   1      15.196  10.294   6.006  0.00  0.00     0.052 A 
ATOM     50  C29 2HL d   1      15.954   9.797   7.072  0.00  0.00    -0.054 A 
ATOM     51  C30 2HL d   1      15.610  10.234   8.342  0.00  0.00    -0.064 A 
ATOM     52  H   2HL d   1      16.771   9.103   6.912  0.00  0.00     0.087 H 
ATOM     53  C31 2HL d   1      14.529  11.081   8.523  0.00  0.00     0.002 A 
ATOM     54  H   2HL d   1      16.191   9.911   9.198  0.00  0.00     0.085 H 
ATOM     55  N32 2HL d   1      13.805  11.498   7.499  0.00  0.00    -0.271 NA
ATOM     56  H   2HL d   1      14.272  11.408   9.524  0.00  0.00     0.114 H 
ATOM     57  C33 2HL d   1      14.093  11.115   6.273  0.00  0.00     0.028 A 
ATOM     58  H   2HL d   1      13.464  11.442   5.453  0.00  0.00     0.118 H 
ENDBRANCH  47  49
ENDBRANCH  42  45
ENDBRANCH   1  32
TORSDOF 5
