REMARK  14 active torsions:
REMARK  status: ('A' for Active; 'I' for Inactive)
REMARK    1  A    between atoms: C6_6  and  N6_7 
REMARK    2  A    between atoms: C1'_11  and  N9_10 
REMARK    3  A    between atoms: C2'_12  and  O2'_13 
REMARK    4  A    between atoms: C3'_14  and  O3'_15 
REMARK    5  A    between atoms: C5'_18  and  C4'_17 
REMARK    6  A    between atoms: O5'_19  and  C5'_18 
REMARK    7  A    between atoms: PA_20  and  O5'_19 
REMARK    8  A    between atoms: O3A_23  and  PA_20 
REMARK    9  A    between atoms: PB_24  and  O3A_23 
REMARK   10  A    between atoms: O5N_27  and  PB_24 
REMARK   11  A    between atoms: C5N_28  and  O5N_27 
REMARK   12  A    between atoms: C4N_35  and  C5N_28 
REMARK   13  A    between atoms: C2N_32  and  O2N_31 
REMARK   14  A    between atoms: C3N_34  and  O3N_33 
ROOT
ATOM      1  C5' A1R d   1      52.306  39.111  21.275  0.00  0.00     0.058 C 
ATOM      2  H   A1R d   1      51.840  40.090  21.090  0.00  0.00     0.079 H 
ATOM      3  H   A1R d   1      52.275  38.511  20.354  0.00  0.00     0.079 H 
ENDROOT
BRANCH   1   4
ATOM      4  C4' A1R d   1      51.536  38.391  22.364  0.00  0.00     0.089 C 
ATOM      5  C3' A1R d   1      51.808  38.897  23.770  0.00  0.00     0.091 C 
ATOM      6  C2' A1R d   1      51.461  37.680  24.603  0.00  0.00     0.105 C 
ATOM      7  H   A1R d   1      52.864  39.174  23.902  0.00  0.00     0.091 H 
ATOM      8  C1' A1R d   1      51.772  36.479  23.725  0.00  0.00     0.139 C 
ATOM      9  H   A1R d   1      52.034  37.663  25.542  0.00  0.00     0.093 H 
ATOM     10  O4' A1R d   1      51.860  36.997  22.387  0.00  0.00    -0.353 OA
ATOM     11  H   A1R d   1      50.937  35.766  23.787  0.00  0.00     0.122 H 
ATOM     12  H   A1R d   1      50.464  38.512  22.148  0.00  0.00     0.090 H 
BRANCH   5  13
ATOM     13  O3' A1R d   1      50.987  40.031  24.053  0.00  0.00    -0.390 OA
ATOM     14  H   A1R d   1      50.079  39.815  23.878  0.00  0.00     0.210 HD
ENDBRANCH   5  13
BRANCH   6  15
ATOM     15  O2' A1R d   1      50.056  37.647  24.857  0.00  0.00    -0.388 OA
ATOM     16  H   A1R d   1      49.817  38.385  25.406  0.00  0.00     0.210 HD
ENDBRANCH   6  15
BRANCH   8  17
ATOM     17  N9  A1R d   1      53.020  35.755  24.112  0.00  0.00    -0.294 N 
ATOM     18  C4  A1R d   1      53.171  34.432  24.043  0.00  0.00     0.167 A 
ATOM     19  N3  A1R d   1      52.328  33.445  23.645  0.00  0.00    -0.222 NA
ATOM     20  C5  A1R d   1      54.438  34.115  24.474  0.00  0.00     0.149 A 
ATOM     21  C2  A1R d   1      52.719  32.163  23.670  0.00  0.00     0.091 A 
ATOM     22  N1  A1R d   1      53.955  31.832  24.077  0.00  0.00    -0.222 NA
ATOM     23  H   A1R d   1      52.031  31.386  23.358  0.00  0.00     0.146 H 
ATOM     24  C6  A1R d   1      54.825  32.780  24.488  0.00  0.00     0.155 A 
ATOM     25  N7  A1R d   1      55.042  35.269  24.796  0.00  0.00    -0.236 NA
ATOM     26  C8  A1R d   1      54.159  36.271  24.562  0.00  0.00     0.071 A 
ATOM     27  H   A1R d   1      54.353  37.331  24.718  0.00  0.00     0.144 H 
BRANCH  24  28
ATOM     28  N6  A1R d   1      56.057  32.405  24.902  0.00  0.00    -0.382 N 
ATOM     29  H   A1R d   1      56.732  33.115  25.218  0.00  0.00     0.157 HD
ATOM     30  H   A1R d   1      56.320  31.409  24.901  0.00  0.00     0.157 HD
ENDBRANCH  24  28
ENDBRANCH   8  17
ENDBRANCH   1   4
BRANCH   1  31
ATOM     31  O5' A1R d   1      53.658  39.303  21.661  0.00  0.00    -0.287 OA
BRANCH  31  32
ATOM     32  PA  A1R d   1      54.508  40.468  20.968  0.00  0.00     0.417 P 
ATOM     33  O1A A1R d   1      55.918  40.063  21.271  0.00  0.00    -0.624 OA
ATOM     34  O2A A1R d   1      53.968  41.825  21.342  0.00  0.00    -0.624 OA
BRANCH  32  35
ATOM     35  O3A A1R d   1      54.149  40.190  19.415  0.00  0.00    -0.180 OA
BRANCH  35  36
ATOM     36  PB  A1R d   1      53.840  41.311  18.300  0.00  0.00     0.417 P 
ATOM     37  O1B A1R d   1      52.654  42.174  18.669  0.00  0.00    -0.624 OA
ATOM     38  O2B A1R d   1      53.847  40.595  16.986  0.00  0.00    -0.624 OA
BRANCH  36  39
ATOM     39  O5N A1R d   1      55.121  42.266  18.369  0.00  0.00    -0.287 OA
BRANCH  39  40
ATOM     40  C5N A1R d   1      56.036  42.307  17.284  0.00  0.00     0.060 C 
ATOM     41  H   A1R d   1      55.560  42.778  16.412  0.00  0.00     0.078 H 
ATOM     42  H   A1R d   1      56.352  41.286  17.023  0.00  0.00     0.078 H 
BRANCH  40  43
ATOM     43  C4N A1R d   1      57.239  43.123  17.717  0.00  0.00     0.149 C 
ATOM     44  N4N A1R d   1      57.671  42.730  19.039  0.00  0.00    -0.064 N 
ATOM     45  C1N A1R d   1      58.995  42.173  19.112  0.00  0.00     0.108 C 
ATOM     46  H   A1R d   1      57.643  43.545  19.631  0.00  0.00     0.277 HD
ATOM     47  H   A1R d   1      57.023  42.040  19.386  0.00  0.00     0.277 HD
ATOM     48  C2N A1R d   1      59.384  42.006  17.647  0.00  0.00     0.085 C 
ATOM     49  H   A1R d   1      58.987  41.203  19.631  0.00  0.00     0.079 H 
ATOM     50  H   A1R d   1      59.684  42.859  19.627  0.00  0.00     0.079 H 
ATOM     51  C3N A1R d   1      58.446  42.881  16.832  0.00  0.00     0.091 C 
ATOM     52  H   A1R d   1      59.240  40.956  17.354  0.00  0.00     0.089 H 
ATOM     53  H   A1R d   1      58.143  42.356  15.914  0.00  0.00     0.090 H 
ATOM     54  H   A1R d   1      56.969  44.189  17.703  0.00  0.00     0.091 H 
BRANCH  48  55
ATOM     55  O2N A1R d   1      60.753  42.347  17.423  0.00  0.00    -0.391 OA
ATOM     56  H   A1R d   1      60.897  43.253  17.670  0.00  0.00     0.210 HD
ENDBRANCH  48  55
BRANCH  51  57
ATOM     57  O3N A1R d   1      59.069  44.119  16.477  0.00  0.00    -0.391 OA
ATOM     58  H   A1R d   1      59.846  43.944  15.960  0.00  0.00     0.210 HD
ENDBRANCH  51  57
ENDBRANCH  40  43
ENDBRANCH  39  40
ENDBRANCH  36  39
ENDBRANCH  35  36
ENDBRANCH  32  35
ENDBRANCH  31  32
ENDBRANCH   1  31
TORSDOF 14
