REMARK  13 active torsions:
REMARK  status: ('A' for Active; 'I' for Inactive)
REMARK    1  A    between atoms: C16_16  and  C15_15 
REMARK    2  A    between atoms: C17_17  and  C26_26 
REMARK    3  A    between atoms: C18_18  and  C25_25 
REMARK    4  A    between atoms: C19_19  and  C27_27 
REMARK    5  A    between atoms: C31_31  and  C20_20 
REMARK    6  A    between atoms: C21_21  and  C30_30 
REMARK    7  A    between atoms: N41_41  and  C24_24 
REMARK    8  A    between atoms: C25_25  and  N39_39 
REMARK       I    between atoms: C26_26  and  N40_40 
REMARK    9  A    between atoms: C35_35  and  C28_28 
REMARK       I    between atoms: C28_28  and  N41_41 
REMARK   10  A    between atoms: C31_31  and  C32_32 
REMARK   11  A    between atoms: C36_36  and  C33_33 
REMARK   12  A    between atoms: C36_36  and  C34_34 
REMARK   13  A    between atoms: C35_35  and  C36_36 
ROOT
ATOM      1  C10 1T5 d   1       1.574  25.683  25.613  0.00  0.00    -0.064 A 
ATOM      2  C11 1T5 d   1       2.416  25.500  27.861  0.00  0.00    -0.046 A 
ATOM      3  C14 1T5 d   1       3.632  24.553  26.016  0.00  0.00    -0.049 A 
ATOM      4  C16 1T5 d   1       1.405  25.898  26.980  0.00  0.00    -0.022 A 
ATOM      5  C21 1T5 d   1       2.677  25.005  25.111  0.00  0.00    -0.033 A 
ATOM      6  C24 1T5 d   1       3.541  24.844  27.373  0.00  0.00     0.036 A 
ATOM      7  H   1T5 d   1       0.825  26.055  24.924  0.00  0.00     0.085 H 
ATOM      8  H   1T5 d   1       2.323  25.703  28.922  0.00  0.00     0.088 H 
ATOM      9  H   1T5 d   1       4.465  23.961  25.656  0.00  0.00     0.087 H 
ENDROOT
BRANCH   5  10
ATOM     10  C30 1T5 d   1       2.925  24.879  23.617  0.00  0.00     0.036 C 
ATOM     11  C29 1T5 d   1       3.389  26.240  23.089  0.00  0.00    -0.028 C 
ATOM     12  C31 1T5 d   1       3.612  26.246  21.551  0.00  0.00     0.015 C 
ATOM     13  H   1T5 d   1       4.336  26.504  23.582  0.00  0.00     0.038 H 
ATOM     14  H   1T5 d   1       2.625  26.992  23.336  0.00  0.00     0.038 H 
ATOM     15  C22 1T5 d   1       2.382  25.657  20.860  0.00  0.00    -0.018 A 
ATOM     16  C13 1T5 d   1       2.144  25.985  19.527  0.00  0.00    -0.060 A 
ATOM     17  C23 1T5 d   1       1.557  24.711  21.498  0.00  0.00     0.036 A 
ATOM     18  C18 1T5 d   1       1.115  25.375  18.811  0.00  0.00     0.008 A 
ATOM     19  H   1T5 d   1       2.768  26.725  19.040  0.00  0.00     0.086 H 
ATOM     20  C6  1T5 d   1       0.328  24.415  19.447  0.00  0.00    -0.067 A 
ATOM     21  C9  1T5 d   1       0.517  24.112  20.784  0.00  0.00    -0.056 A 
ATOM     22  H   1T5 d   1      -0.443  23.899  18.886  0.00  0.00     0.085 H 
ATOM     23  H   1T5 d   1      -0.143  23.409  21.278  0.00  0.00     0.087 H 
ATOM     24  N38 1T5 d   1       1.773  24.350  22.835  0.00  0.00    -0.381 N 
ATOM     25  H   1T5 d   1       1.116  23.700  23.290  0.00  0.00     0.160 HD
ATOM     26  H   1T5 d   1       3.751  24.165  23.482  0.00  0.00     0.080 H 
BRANCH  12  27
ATOM     27  C20 1T5 d   1       3.810  27.741  21.233  0.00  0.00    -0.045 A 
ATOM     28  C7  1T5 d   1       2.738  28.624  21.355  0.00  0.00    -0.076 A 
ATOM     29  C2  1T5 d   1       2.940  29.997  21.357  0.00  0.00    -0.082 A 
ATOM     30  H   1T5 d   1       1.732  28.232  21.450  0.00  0.00     0.084 H 
ATOM     31  C1  1T5 d   1       4.204  30.512  21.205  0.00  0.00    -0.083 A 
ATOM     32  H   1T5 d   1       2.096  30.666  21.479  0.00  0.00     0.083 H 
ATOM     33  C3  1T5 d   1       5.268  29.658  21.017  0.00  0.00    -0.082 A 
ATOM     34  H   1T5 d   1       4.363  31.584  21.233  0.00  0.00     0.083 H 
ATOM     35  C8  1T5 d   1       5.075  28.282  21.025  0.00  0.00    -0.076 A 
ATOM     36  H   1T5 d   1       6.262  30.062  20.862  0.00  0.00     0.083 H 
ATOM     37  H   1T5 d   1       5.920  27.622  20.867  0.00  0.00     0.084 H 
ENDBRANCH  12  27
BRANCH  12  38
ATOM     38  C32 1T5 d   1       4.843  25.414  21.135  0.00  0.00    -0.061 C 
ATOM     39  H   1T5 d   1       4.957  25.450  20.041  0.00  0.00     0.029 H 
ATOM     40  H   1T5 d   1       4.706  24.371  21.455  0.00  0.00     0.029 H 
ATOM     41  H   1T5 d   1       5.744  25.828  21.611  0.00  0.00     0.029 H 
ENDBRANCH  12  38
BRANCH  18  42
ATOM     42  C25 1T5 d   1       1.032  25.661  17.319  0.00  0.00     0.102 C 
ATOM     43  N37 1T5 d   1       0.537  24.747  16.506  0.00  0.00    -0.385 N 
ATOM     44  H   1T5 d   1       0.478  24.935  15.495  0.00  0.00     0.157 HD
ATOM     45  H   1T5 d   1       0.209  23.846  16.883  0.00  0.00     0.157 HD
BRANCH  42  46
ATOM     46  N39 1T5 d   1       1.682  26.789  16.787  0.00  0.00    -0.385 N 
ATOM     47  H   1T5 d   1       2.070  27.505  17.418  0.00  0.00     0.157 HD
ATOM     48  H   1T5 d   1       1.770  26.899  15.767  0.00  0.00     0.157 HD
ENDBRANCH  42  46
ENDBRANCH  18  42
ENDBRANCH   5  10
BRANCH   4  49
ATOM     49  C15 1T5 d   1       0.105  26.404  27.498  0.00  0.00    -0.009 A 
ATOM     50  C4  1T5 d   1       0.113  27.477  28.382  0.00  0.00    -0.070 A 
ATOM     51  C5  1T5 d   1      -1.064  27.928  28.949  0.00  0.00    -0.067 A 
ATOM     52  H   1T5 d   1       1.050  27.964  28.628  0.00  0.00     0.084 H 
ATOM     53  C17 1T5 d   1      -2.269  27.270  28.717  0.00  0.00     0.032 A 
ATOM     54  H   1T5 d   1      -1.049  28.807  29.584  0.00  0.00     0.085 H 
ATOM     55  C12 1T5 d   1      -2.307  26.241  27.782  0.00  0.00    -0.050 A 
ATOM     56  C19 1T5 d   1      -1.133  25.817  27.170  0.00  0.00     0.052 A 
ATOM     57  H   1T5 d   1      -3.251  25.770  27.531  0.00  0.00     0.086 H 
BRANCH  53  58
ATOM     58  C26 1T5 d   1      -3.457  27.664  29.551  0.00  0.00     0.249 C 
ATOM     59  N40 1T5 d   1      -4.576  26.931  29.462  0.00  0.00    -0.366 N 
ATOM     60  H   1T5 d   1      -5.378  27.175  30.007  0.00  0.00     0.159 HD
ATOM     61  H   1T5 d   1      -4.609  26.141  28.850  0.00  0.00     0.159 HD
ATOM     62  O42 1T5 d   1      -3.416  28.701  30.188  0.00  0.00    -0.268 OA
ENDBRANCH  53  58
BRANCH  56  63
ATOM     63  C27 1T5 d   1      -1.289  24.771  26.130  0.00  0.00     0.210 C 
ATOM     64  O43 1T5 d   1      -1.556  25.088  25.010  0.00  0.00    -0.644 OA
ATOM     65  O45 1T5 d   1      -1.147  23.527  26.495  0.00  0.00    -0.644 OA
ENDBRANCH  56  63
ENDBRANCH   4  49
BRANCH   6  66
ATOM     66  N41 1T5 d   1       4.771  24.708  28.065  0.00  0.00    -0.327 N 
ATOM     67  C28 1T5 d   1       5.159  25.250  29.241  0.00  0.00     0.222 C 
ATOM     68  O44 1T5 d   1       4.486  25.272  30.266  0.00  0.00    -0.273 OA
ATOM     69  H   1T5 d   1       5.451  24.126  27.618  0.00  0.00     0.169 HD
BRANCH  67  70
ATOM     70  C35 1T5 d   1       6.504  25.939  29.147  0.00  0.00     0.012 C 
ATOM     71  H   1T5 d   1       6.312  27.020  29.079  0.00  0.00     0.047 H 
ATOM     72  H   1T5 d   1       6.983  25.593  28.219  0.00  0.00     0.047 H 
BRANCH  70  73
ATOM     73  C36 1T5 d   1       7.504  25.729  30.275  0.00  0.00    -0.053 C 
ATOM     74  H   1T5 d   1       8.501  25.954  29.869  0.00  0.00     0.039 H 
BRANCH  73  75
ATOM     75  C33 1T5 d   1       7.535  24.287  30.735  0.00  0.00    -0.073 C 
ATOM     76  H   1T5 d   1       8.268  24.177  31.548  0.00  0.00     0.028 H 
ATOM     77  H   1T5 d   1       7.822  23.640  29.893  0.00  0.00     0.028 H 
ATOM     78  H   1T5 d   1       6.538  23.996  31.098  0.00  0.00     0.028 H 
ENDBRANCH  73  75
BRANCH  73  79
ATOM     79  C34 1T5 d   1       7.260  26.704  31.411  0.00  0.00    -0.073 C 
ATOM     80  H   1T5 d   1       7.248  27.731  31.017  0.00  0.00     0.028 H 
ATOM     81  H   1T5 d   1       8.063  26.607  32.157  0.00  0.00     0.028 H 
ATOM     82  H   1T5 d   1       6.292  26.482  31.884  0.00  0.00     0.028 H 
ENDBRANCH  73  79
ENDBRANCH  70  73
ENDBRANCH  67  70
ENDBRANCH   6  66
TORSDOF 13
