REMARK  8 active torsions:
REMARK  status: ('A' for Active; 'I' for Inactive)
REMARK    1  A    between atoms: C18_2  and  C26_27 
REMARK    2  A    between atoms: C16_4  and  C17_3 
REMARK    3  A    between atoms: C19_6  and  C25_26 
REMARK    4  A    between atoms: C20_7  and  C27_14 
REMARK    5  A    between atoms: C30_30  and  C21_8 
REMARK    6  A    between atoms: C29_29  and  C22_9 
REMARK    7  A    between atoms: C25_26  and  N34_34 
REMARK       I    between atoms: C26_27  and  N35_35 
REMARK    8  A    between atoms: C30_30  and  C31_31 
ROOT
ATOM      1  C15 1T6 d   1      37.586 -15.572  26.877  0.00  0.00    -0.060 A 
ATOM      2  C19 1T6 d   1      36.862 -15.078  27.966  0.00  0.00     0.008 A 
ATOM      3  C23 1T6 d   1      37.928 -16.924  26.790  0.00  0.00    -0.018 A 
ATOM      4  C24 1T6 d   1      37.561 -17.792  27.835  0.00  0.00     0.036 A 
ATOM      5  C12 1T6 d   1      36.811 -17.301  28.906  0.00  0.00    -0.056 A 
ATOM      6  C8  1T6 d   1      36.467 -15.963  28.967  0.00  0.00    -0.067 A 
ATOM      7  C28 1T6 d   1      39.160 -18.882  25.715  0.00  0.00    -0.028 C 
ATOM      8  C29 1T6 d   1      38.244 -19.832  26.508  0.00  0.00     0.036 C 
ATOM      9  C30 1T6 d   1      38.486 -17.505  25.479  0.00  0.00     0.015 C 
ATOM     10  N33 1T6 d   1      37.900 -19.155  27.800  0.00  0.00    -0.381 N 
ATOM     11  H   1T6 d   1      37.887 -14.895  26.086  0.00  0.00     0.086 H 
ATOM     12  H   1T6 d   1      36.496 -17.974  29.695  0.00  0.00     0.087 H 
ATOM     13  H   1T6 d   1      35.883 -15.598  29.804  0.00  0.00     0.085 H 
ATOM     14  H   1T6 d   1      39.390 -19.338  24.741  0.00  0.00     0.038 H 
ATOM     15  H   1T6 d   1      40.092 -18.731  26.279  0.00  0.00     0.038 H 
ATOM     16  H   1T6 d   1      37.325 -20.054  25.946  0.00  0.00     0.080 H 
ATOM     17  H   1T6 d   1      37.912 -19.697  28.676  0.00  0.00     0.160 HD
ENDROOT
BRANCH   8  18
ATOM     18  C22 1T6 d   1      39.041 -21.104  26.727  0.00  0.00    -0.035 A 
ATOM     19  C13 1T6 d   1      40.138 -21.101  27.576  0.00  0.00    -0.064 A 
ATOM     20  C16 1T6 d   1      40.882 -22.254  27.822  0.00  0.00    -0.024 A 
ATOM     21  H   1T6 d   1      40.425 -20.176  28.062  0.00  0.00     0.085 H 
ATOM     22  C5  1T6 d   1      40.509 -23.433  27.183  0.00  0.00    -0.072 A 
ATOM     23  C4  1T6 d   1      39.419 -23.450  26.331  0.00  0.00    -0.082 A 
ATOM     24  H   1T6 d   1      41.075 -24.342  27.354  0.00  0.00     0.084 H 
ATOM     25  C11 1T6 d   1      38.694 -22.287  26.096  0.00  0.00    -0.075 A 
ATOM     26  H   1T6 d   1      39.129 -24.374  25.845  0.00  0.00     0.083 H 
ATOM     27  H   1T6 d   1      37.851 -22.306  25.414  0.00  0.00     0.084 H 
BRANCH  20  28
ATOM     28  C17 1T6 d   1      41.961 -22.241  28.847  0.00  0.00    -0.009 A 
ATOM     29  C20 1T6 d   1      41.700 -21.922  30.189  0.00  0.00     0.052 A 
ATOM     30  C14 1T6 d   1      42.707 -22.014  31.150  0.00  0.00    -0.050 A 
ATOM     31  C18 1T6 d   1      43.989 -22.425  30.789  0.00  0.00     0.032 A 
ATOM     32  H   1T6 d   1      42.491 -21.765  32.183  0.00  0.00     0.086 H 
ATOM     33  C7  1T6 d   1      44.257 -22.695  29.449  0.00  0.00    -0.067 A 
ATOM     34  C6  1T6 d   1      43.259 -22.609  28.492  0.00  0.00    -0.070 A 
ATOM     35  H   1T6 d   1      45.261 -22.976  29.151  0.00  0.00     0.085 H 
ATOM     36  H   1T6 d   1      43.489 -22.830  27.456  0.00  0.00     0.084 H 
BRANCH  29  37
ATOM     37  C27 1T6 d   1      40.351 -21.493  30.640  0.00  0.00     0.210 C 
ATOM     38  O37 1T6 d   1      39.366 -22.231  30.557  0.00  0.00    -0.644 OA
ATOM     39  O38 1T6 d   1      40.309 -20.264  31.018  0.00  0.00    -0.644 OA
ENDBRANCH  29  37
BRANCH  31  40
ATOM     40  C26 1T6 d   1      45.109 -22.551  31.801  0.00  0.00     0.249 C 
ATOM     41  N35 1T6 d   1      44.818 -22.382  33.102  0.00  0.00    -0.366 N 
ATOM     42  H   1T6 d   1      45.539 -22.460  33.790  0.00  0.00     0.159 HD
ATOM     43  H   1T6 d   1      43.880 -22.178  33.382  0.00  0.00     0.159 HD
ATOM     44  O36 1T6 d   1      46.271 -22.737  31.404  0.00  0.00    -0.268 OA
ENDBRANCH  31  40
ENDBRANCH  20  28
ENDBRANCH   8  18
BRANCH   9  45
ATOM     45  C21 1T6 d   1      39.604 -16.632  24.873  0.00  0.00    -0.045 A 
ATOM     46  C9  1T6 d   1      40.616 -16.123  25.688  0.00  0.00    -0.076 A 
ATOM     47  C2  1T6 d   1      41.674 -15.402  25.144  0.00  0.00    -0.082 A 
ATOM     48  H   1T6 d   1      40.577 -16.291  26.758  0.00  0.00     0.084 H 
ATOM     49  C1  1T6 d   1      41.747 -15.184  23.782  0.00  0.00    -0.083 A 
ATOM     50  H   1T6 d   1      42.447 -15.008  25.794  0.00  0.00     0.083 H 
ATOM     51  C3  1T6 d   1      40.761 -15.684  22.960  0.00  0.00    -0.082 A 
ATOM     52  H   1T6 d   1      42.575 -14.623  23.363  0.00  0.00     0.083 H 
ATOM     53  C10 1T6 d   1      39.691 -16.397  23.497  0.00  0.00    -0.076 A 
ATOM     54  H   1T6 d   1      40.818 -15.522  21.890  0.00  0.00     0.083 H 
ATOM     55  H   1T6 d   1      38.916 -16.774  22.840  0.00  0.00     0.084 H 
ENDBRANCH   9  45
BRANCH   9  56
ATOM     56  C31 1T6 d   1      37.346 -17.728  24.460  0.00  0.00    -0.061 C 
ATOM     57  H   1T6 d   1      36.839 -16.772  24.263  0.00  0.00     0.029 H 
ATOM     58  H   1T6 d   1      36.623 -18.449  24.870  0.00  0.00     0.029 H 
ATOM     59  H   1T6 d   1      37.764 -18.122  23.522  0.00  0.00     0.029 H 
ENDBRANCH   9  56
BRANCH   2  60
ATOM     60  C25 1T6 d   1      36.396 -13.607  28.007  0.00  0.00     0.102 C 
ATOM     61  N32 1T6 d   1      36.957 -12.672  27.271  0.00  0.00    -0.385 N 
ATOM     62  H   1T6 d   1      36.618 -11.701  27.326  0.00  0.00     0.157 HD
ATOM     63  H   1T6 d   1      37.735 -12.911  26.640  0.00  0.00     0.157 HD
BRANCH  60  64
ATOM     64  N34 1T6 d   1      35.435 -13.207  28.926  0.00  0.00    -0.385 N 
ATOM     65  H   1T6 d   1      34.970 -13.906  29.523  0.00  0.00     0.157 HD
ATOM     66  H   1T6 d   1      35.187 -12.211  29.011  0.00  0.00     0.157 HD
ENDBRANCH  60  64
ENDBRANCH   2  60
TORSDOF 8
