REMARK  9 active torsions:
REMARK  status: ('A' for Active; 'I' for Inactive)
REMARK    1  A    between atoms: C2_2  and  C1_1 
REMARK    2  A    between atoms: C3_3  and  C2_2 
REMARK    3  A    between atoms: C9_6  and  C7_5 
REMARK    4  A    between atoms: C17_22  and  C15_11 
REMARK    5  A    between atoms: C20_12  and  C21_13 
REMARK    6  A    between atoms: N19_24  and  C20_12 
REMARK    7  A    between atoms: S29_30  and  C30_16 
REMARK    8  A    between atoms: C33_17  and  C36_33 
REMARK    9  A    between atoms: C5_20  and  S29_30 
REMARK       I    between atoms: C17_22  and  N19_24 
ROOT
ATOM      1  C9  2VJ d   1       3.670 -25.448 -29.578  0.00  0.00     0.017 C 
ATOM      2  C11 2VJ d   1       2.633 -24.374 -29.218  0.00  0.00    -0.054 C 
ATOM      3  C12 2VJ d   1       2.946 -23.039 -29.893  0.00  0.00    -0.064 C 
ATOM      4  C13 2VJ d   1       4.369 -22.596 -29.564  0.00  0.00    -0.064 C 
ATOM      5  C14 2VJ d   1       5.369 -23.690 -29.941  0.00  0.00    -0.053 C 
ATOM      6  C15 2VJ d   1       5.064 -24.959 -29.162  0.00  0.00     0.034 C 
ATOM      7  H   2VJ d   1       3.663 -25.664 -30.657  0.00  0.00     0.053 H 
ATOM      8  H   2VJ d   1       2.632 -24.231 -28.127  0.00  0.00     0.034 H 
ATOM      9  H   2VJ d   1       1.639 -24.714 -29.544  0.00  0.00     0.034 H 
ATOM     10  H   2VJ d   1       2.238 -22.277 -29.535  0.00  0.00     0.033 H 
ATOM     11  H   2VJ d   1       2.844 -23.151 -30.983  0.00  0.00     0.033 H 
ATOM     12  H   2VJ d   1       4.445 -22.392 -28.486  0.00  0.00     0.033 H 
ATOM     13  H   2VJ d   1       4.603 -21.681 -30.128  0.00  0.00     0.033 H 
ATOM     14  H   2VJ d   1       6.388 -23.351 -29.702  0.00  0.00     0.034 H 
ATOM     15  H   2VJ d   1       5.295 -23.897 -31.019  0.00  0.00     0.034 H 
ATOM     16  H   2VJ d   1       5.071 -24.749 -28.082  0.00  0.00     0.055 H 
ENDROOT
BRANCH   1  17
ATOM     17  C7  2VJ d   1       3.229 -26.641 -28.803  0.00  0.00     0.132 A 
ATOM     18  N6  2VJ d   1       3.622 -26.756 -27.568  0.00  0.00    -0.226 NA
ATOM     19  C5  2VJ d   1       3.240 -27.785 -26.820  0.00  0.00     0.104 A 
ATOM     20  C4  2VJ d   1       2.396 -28.746 -27.374  0.00  0.00    -0.024 A 
ATOM     21  C3  2VJ d   1       1.972 -28.571 -28.674  0.00  0.00     0.039 A 
ATOM     22  H   2VJ d   1       2.081 -29.608 -26.798  0.00  0.00     0.091 H 
ATOM     23  N8  2VJ d   1       2.411 -27.514 -29.351  0.00  0.00    -0.238 NA
BRANCH  19  24
ATOM     24  S29 2VJ d   1       3.776 -27.954 -25.134  0.00  0.00    -0.032 SA
BRANCH  24  25
ATOM     25  C30 2VJ d   1       4.138 -26.300 -24.604  0.00  0.00     0.173 A 
ATOM     26  N31 2VJ d   1       5.144 -26.026 -23.720  0.00  0.00    -0.328 N 
ATOM     27  C33 2VJ d   1       5.175 -24.634 -23.483  0.00  0.00     0.129 A 
ATOM     28  H   2VJ d   1       5.776 -26.721 -23.296  0.00  0.00     0.168 HD
ATOM     29  C34 2VJ d   1       4.114 -24.130 -24.268  0.00  0.00     0.037 A 
ATOM     30  N35 2VJ d   1       3.523 -25.161 -24.929  0.00  0.00    -0.234 NA
ATOM     31  H   2VJ d   1       3.817 -23.084 -24.333  0.00  0.00     0.118 H 
BRANCH  27  32
ATOM     32  C36 2VJ d   1       6.117 -23.920 -22.618  0.00  0.00     0.228 C 
ATOM     33  O37 2VJ d   1       6.081 -22.693 -22.496  0.00  0.00    -0.643 OA
ATOM     34  O38 2VJ d   1       7.109 -24.555 -21.917  0.00  0.00    -0.643 OA
ENDBRANCH  27  32
ENDBRANCH  24  25
ENDBRANCH  19  24
BRANCH  21  35
ATOM     35  C2  2VJ d   1       1.050 -29.602 -29.281  0.00  0.00    -0.028 C 
ATOM     36  H   2VJ d   1       1.385 -29.796 -30.311  0.00  0.00     0.041 H 
ATOM     37  H   2VJ d   1       1.133 -30.525 -28.689  0.00  0.00     0.041 H 
BRANCH  35  38
ATOM     38  C1  2VJ d   1      -0.430 -29.198 -29.329  0.00  0.00    -0.071 C 
ATOM     39  H   2VJ d   1      -1.017 -30.009 -29.785  0.00  0.00     0.028 H 
ATOM     40  H   2VJ d   1      -0.541 -28.283 -29.929  0.00  0.00     0.028 H 
ATOM     41  H   2VJ d   1      -0.793 -29.013 -28.307  0.00  0.00     0.028 H 
ENDBRANCH  35  38
ENDBRANCH  21  35
ENDBRANCH   1  17
BRANCH   6  42
ATOM     42  C17 2VJ d   1       6.139 -25.994 -29.482  0.00  0.00     0.222 C 
ATOM     43  O18 2VJ d   1       6.193 -26.587 -30.539  0.00  0.00    -0.273 OA
ATOM     44  N19 2VJ d   1       7.034 -26.264 -28.520  0.00  0.00    -0.356 N 
ATOM     45  H   2VJ d   1       6.959 -25.803 -27.636  0.00  0.00     0.162 HD
BRANCH  44  46
ATOM     46  C20 2VJ d   1       8.106 -27.211 -28.741  0.00  0.00     0.019 C 
ATOM     47  H   2VJ d   1       8.530 -27.017 -29.737  0.00  0.00     0.071 H 
ATOM     48  H   2VJ d   1       8.876 -27.038 -27.974  0.00  0.00     0.071 H 
BRANCH  46  49
ATOM     49  C21 2VJ d   1       7.709 -28.649 -28.680  0.00  0.00    -0.039 A 
ATOM     50  C22 2VJ d   1       8.463 -29.547 -29.408  0.00  0.00    -0.074 A 
ATOM     51  C23 2VJ d   1       8.163 -30.889 -29.383  0.00  0.00    -0.060 A 
ATOM     52  H   2VJ d   1       9.297 -29.192 -30.003  0.00  0.00     0.084 H 
ATOM     53  C24 2VJ d   1       7.102 -31.268 -28.592  0.00  0.00     0.055 A 
ATOM     54  H   2VJ d   1       8.733 -31.611 -29.957  0.00  0.00     0.086 H 
ATOM     55  C25 2VJ d   1       6.344 -30.388 -27.844  0.00  0.00     0.056 A 
ATOM     56 CL8  2VJ d   1       6.704 -32.924 -28.498  0.00  0.00    -0.083 Cl
ATOM     57  C26 2VJ d   1       6.659 -29.058 -27.882  0.00  0.00    -0.053 A 
ATOM     58 CL7  2VJ d   1       5.009 -30.988 -26.859  0.00  0.00    -0.083 Cl
ATOM     59  H   2VJ d   1       6.096 -28.339 -27.298  0.00  0.00     0.087 H 
ENDBRANCH  46  49
ENDBRANCH  44  46
ENDBRANCH   6  42
TORSDOF 9
