REMARK  2 active torsions:
REMARK  status: ('A' for Active; 'I' for Inactive)
REMARK    1  A    between atoms: CD1_3  and  CG_2 
REMARK    2  A    between atoms: CR_6  and  O_7 
ROOT
ATOM      1  CH  PBQ d   1       4.154  24.844 -22.701  0.00  0.00     0.046 A 
ATOM      2  CG  PBQ d   1       4.676  23.835 -20.567  0.00  0.00     0.028 A 
ATOM      3  CD2 PBQ d   1       4.569  25.104 -19.982  0.00  0.00    -0.051 A 
ATOM      4  CE2 PBQ d   1       4.236  26.217 -20.754  0.00  0.00     0.013 A 
ATOM      5  CR  PBQ d   1       4.484  23.701 -21.955  0.00  0.00     0.095 A 
ATOM      6  C3  PBQ d   1       4.031  26.094 -22.115  0.00  0.00    -0.047 A 
ATOM      7 BR13 PBQ d   1       4.073  27.887 -20.005  0.00  0.00    -0.051 Br
ATOM      8 BR14 PBQ d   1       3.853  24.776 -24.522  0.00  0.00    -0.048 Br
ATOM      9  H   PBQ d   1       4.747  25.222 -18.919  0.00  0.00     0.087 H 
ATOM     10  H   PBQ d   1       3.778  26.961 -22.715  0.00  0.00     0.087 H 
ENDROOT
BRANCH   2  11
ATOM     11  CD1 PBQ d   1       5.056  22.715 -19.672  0.00  0.00     0.065 A 
ATOM     12  C9  PBQ d   1       4.566  22.426 -18.393  0.00  0.00     0.058 A 
ATOM     13  C8  PBQ d   1       5.255  21.300 -17.935  0.00  0.00     0.064 A 
ATOM     14 BR17 PBQ d   1       3.223  23.348 -17.501  0.00  0.00    -0.047 Br
ATOM     15  C7  PBQ d   1       6.155  20.950 -18.944  0.00  0.00     0.099 A 
ATOM     16 BR18 PBQ d   1       5.049  20.436 -16.305  0.00  0.00    -0.047 Br
ATOM     17  N11 PBQ d   1       6.014  21.817 -19.960  0.00  0.00    -0.347 N 
ATOM     18 BR19 PBQ d   1       7.334  19.527 -18.899  0.00  0.00    -0.030 Br
ATOM     19  H   PBQ d   1       6.560  21.797 -20.833  0.00  0.00     0.166 HD
ENDBRANCH   2  11
BRANCH   5  20
ATOM     20  O   PBQ d   1       4.603  22.472 -22.615  0.00  0.00    -0.358 OA
ATOM     21  H   PBQ d   1       3.972  21.859 -22.257  0.00  0.00     0.217 HD
ENDBRANCH   5  20
TORSDOF 2
