REMARK  2 active torsions:
REMARK  status: ('A' for Active; 'I' for Inactive)
REMARK    1  A    between atoms: CD1_3  and  CG_2 
REMARK    2  A    between atoms: CR_6  and  O_7 
ROOT
ATOM      1  CH  H70 d   1       4.036  24.572 -22.636  0.00  0.00     0.069 A 
ATOM      2  CG  H70 d   1       4.307  23.478 -20.482  0.00  0.00     0.029 A 
ATOM      3  CD2 H70 d   1       4.168  24.739 -19.878  0.00  0.00    -0.047 A 
ATOM      4  CE2 H70 d   1       3.939  25.883 -20.641  0.00  0.00     0.036 A 
ATOM      5  CR  H70 d   1       4.250  23.401 -21.890  0.00  0.00     0.100 A 
ATOM      6  C3  H70 d   1       3.863  25.810 -22.025  0.00  0.00    -0.038 A 
ATOM      7 CL1  H70 d   1       3.758  27.424 -19.873  0.00  0.00    -0.084 Cl
ATOM      8 CL2  H70 d   1       3.966  24.513 -24.383  0.00  0.00    -0.081 Cl
ATOM      9  H   H70 d   1       4.240  24.824 -18.800  0.00  0.00     0.087 H 
ATOM     10  H   H70 d   1       3.673  26.698 -22.617  0.00  0.00     0.088 H 
ENDROOT
BRANCH   2  11
ATOM     11  CD1 H70 d   1       4.616  22.306 -19.577  0.00  0.00     0.065 A 
ATOM     12  C9  H70 d   1       4.138  22.040 -18.361  0.00  0.00     0.058 A 
ATOM     13  C8  H70 d   1       4.847  20.851 -17.921  0.00  0.00     0.064 A 
ATOM     14 BR1  H70 d   1       2.806  22.961 -17.396  0.00  0.00    -0.047 Br
ATOM     15  C7  H70 d   1       5.678  20.554 -18.912  0.00  0.00     0.099 A 
ATOM     16 BR2  H70 d   1       4.629  19.939 -16.284  0.00  0.00    -0.047 Br
ATOM     17  N11 H70 d   1       5.569  21.426 -19.914  0.00  0.00    -0.347 N 
ATOM     18 BR3  H70 d   1       6.861  19.076 -18.901  0.00  0.00    -0.030 Br
ATOM     19  H   H70 d   1       6.116  21.424 -20.787  0.00  0.00     0.166 HD
ENDBRANCH   2  11
BRANCH   5  20
ATOM     20  O   H70 d   1       4.402  22.189 -22.573  0.00  0.00    -0.358 OA
ATOM     21  H   H70 d   1       3.722  21.585 -22.299  0.00  0.00     0.217 HD
ENDBRANCH   5  20
TORSDOF 2
