REMARK  2 active torsions:
REMARK  status: ('A' for Active; 'I' for Inactive)
REMARK    1  A    between atoms: C4_1  and  O2_14 
REMARK    2  A    between atoms: C10_4  and  C3_12 
ROOT
ATOM      1  C4  2JM d   1       4.537  24.831 -21.316  0.00  0.00     0.095 A 
ATOM      2  C5  2JM d   1       4.168  25.947 -21.981  0.00  0.00     0.045 A 
ATOM      3  C6  2JM d   1       3.888  27.075 -21.289  0.00  0.00    -0.063 A 
ATOM      4  C3  2JM d   1       4.590  24.814 -19.932  0.00  0.00     0.026 A 
ATOM      5  C2  2JM d   1       4.301  25.965 -19.218  0.00  0.00    -0.068 A 
ATOM      6 BR8  2JM d   1       4.068  25.753 -23.855  0.00  0.00    -0.048 Br
ATOM      7  C1  2JM d   1       3.948  27.080 -19.911  0.00  0.00    -0.081 A 
ATOM      8  H   2JM d   1       3.615  27.980 -21.820  0.00  0.00     0.085 H 
ATOM      9  H   2JM d   1       4.355  25.977 -18.135  0.00  0.00     0.085 H 
ATOM     10  H   2JM d   1       3.709  27.989 -19.371  0.00  0.00     0.083 H 
ENDROOT
BRANCH   4  11
ATOM     11  C10 2JM d   1       5.047  23.560 -19.289  0.00  0.00     0.065 A 
ATOM     12  C11 2JM d   1       4.496  22.775 -18.291  0.00  0.00     0.058 A 
ATOM     13  C12 2JM d   1       5.338  21.707 -18.059  0.00  0.00     0.064 A 
ATOM     14 BR3  2JM d   1       2.756  23.199 -17.418  0.00  0.00    -0.047 Br
ATOM     15  C13 2JM d   1       6.383  21.848 -18.924  0.00  0.00     0.099 A 
ATOM     16 BR2  2JM d   1       5.138  20.185 -16.787  0.00  0.00    -0.047 Br
ATOM     17 BR1  2JM d   1       7.958  20.614 -19.130  0.00  0.00    -0.030 Br
ATOM     18  N14 2JM d   1       6.226  22.975 -19.652  0.00  0.00    -0.347 N 
ATOM     19  H   2JM d   1       6.883  23.332 -20.360  0.00  0.00     0.166 HD
ENDBRANCH   4  11
BRANCH   1  20
ATOM     20  O2  2JM d   1       4.778  23.777 -22.119  0.00  0.00    -0.358 OA
ATOM     21  H   2JM d   1       4.678  24.042 -23.026  0.00  0.00     0.217 HD
ENDBRANCH   1  20
TORSDOF 2
