REMARK  8 active torsions:
REMARK  status: ('A' for Active; 'I' for Inactive)
REMARK    1  A    between atoms: O2_14  and  C1_1 
REMARK    2  A    between atoms: C3_2  and  O2_14 
REMARK    3  A    between atoms: O6_17  and  C7_3 
REMARK    4  A    between atoms: C9_4  and  C11_5 
REMARK    5  A    between atoms: C17_20  and  C19_10 
REMARK       I    between atoms: C19_10  and  N21_22 
REMARK    6  A    between atoms: N21_22  and  C22_11 
REMARK    7  A    between atoms: C22_11  and  C23_23 
REMARK    8  A    between atoms: C5_16  and  O6_17 
ROOT
ATOM      1  C11 2W5 d   1      21.984  42.700 -34.030  0.00  0.00     0.017 C 
ATOM      2  C13 2W5 d   1      22.571  41.537 -34.887  0.00  0.00    -0.054 C 
ATOM      3  C14 2W5 d   1      22.208  41.824 -36.347  0.00  0.00    -0.064 C 
ATOM      4  C15 2W5 d   1      20.693  41.583 -36.469  0.00  0.00    -0.064 C 
ATOM      5  C16 2W5 d   1      19.946  42.682 -35.718  0.00  0.00    -0.053 C 
ATOM      6  C17 2W5 d   1      20.604  43.162 -34.445  0.00  0.00     0.034 C 
ATOM      7  H   2W5 d   1      22.477  43.505 -34.594  0.00  0.00     0.053 H 
ATOM      8  H   2W5 d   1      22.134  40.578 -34.571  0.00  0.00     0.034 H 
ATOM      9  H   2W5 d   1      23.664  41.498 -34.771  0.00  0.00     0.034 H 
ATOM     10  H   2W5 d   1      22.757  41.146 -37.017  0.00  0.00     0.033 H 
ATOM     11  H   2W5 d   1      22.450  42.866 -36.602  0.00  0.00     0.033 H 
ATOM     12  H   2W5 d   1      20.440  40.604 -36.035  0.00  0.00     0.033 H 
ATOM     13  H   2W5 d   1      20.402  41.600 -37.530  0.00  0.00     0.033 H 
ATOM     14  H   2W5 d   1      18.948  42.298 -35.460  0.00  0.00     0.034 H 
ATOM     15  H   2W5 d   1      19.844  43.545 -36.393  0.00  0.00     0.034 H 
ATOM     16  H   2W5 d   1      20.156  42.330 -33.883  0.00  0.00     0.055 H 
ENDROOT
BRANCH   6  17
ATOM     17  C19 2W5 d   1      19.838  44.175 -33.608  0.00  0.00     0.222 C 
ATOM     18  O20 2W5 d   1      20.136  45.300 -33.859  0.00  0.00    -0.273 OA
ATOM     19  N21 2W5 d   1      18.913  43.819 -32.685  0.00  0.00    -0.356 N 
ATOM     20  H   2W5 d   1      18.700  42.866 -32.470  0.00  0.00     0.162 HD
BRANCH  19  21
ATOM     21  C22 2W5 d   1      18.255  44.941 -32.032  0.00  0.00     0.019 C 
ATOM     22  H   2W5 d   1      17.270  44.609 -31.672  0.00  0.00     0.071 H 
ATOM     23  H   2W5 d   1      18.124  45.748 -32.768  0.00  0.00     0.071 H 
BRANCH  21  24
ATOM     24  C23 2W5 d   1      19.021  45.469 -30.886  0.00  0.00    -0.039 A 
ATOM     25  C24 2W5 d   1      19.839  44.654 -30.110  0.00  0.00    -0.074 A 
ATOM     26  C25 2W5 d   1      20.509  45.229 -29.027  0.00  0.00    -0.060 A 
ATOM     27  H   2W5 d   1      19.953  43.601 -30.340  0.00  0.00     0.084 H 
ATOM     28  C26 2W5 d   1      20.297  46.592 -28.752  0.00  0.00     0.055 A 
ATOM     29  H   2W5 d   1      21.178  44.638 -28.412  0.00  0.00     0.086 H 
ATOM     30 CL7  2W5 d   1      21.026  47.302 -27.372  0.00  0.00    -0.083 Cl
ATOM     31  C28 2W5 d   1      19.466  47.373 -29.524  0.00  0.00     0.056 A 
ATOM     32  C30 2W5 d   1      18.823  46.814 -30.604  0.00  0.00    -0.053 A 
ATOM     33 CL9  2W5 d   1      19.262  49.062 -29.217  0.00  0.00    -0.083 Cl
ATOM     34  H   2W5 d   1      18.171  47.416 -31.227  0.00  0.00     0.087 H 
ENDBRANCH  21  24
ENDBRANCH  19  21
ENDBRANCH   6  17
BRANCH   1  35
ATOM     35  C9  2W5 d   1      22.736  43.005 -32.810  0.00  0.00     0.136 A 
ATOM     36  N8  2W5 d   1      22.079  42.525 -31.755  0.00  0.00    -0.209 NA
ATOM     37  C5  2W5 d   1      22.596  42.566 -30.527  0.00  0.00     0.169 A 
ATOM     38  C4  2W5 d   1      23.863  43.141 -30.392  0.00  0.00     0.019 A 
ATOM     39  C3  2W5 d   1      24.548  43.596 -31.558  0.00  0.00     0.169 A 
ATOM     40  H   2W5 d   1      24.319  43.240 -29.414  0.00  0.00     0.097 H 
ATOM     41  N10 2W5 d   1      23.978  43.530 -32.758  0.00  0.00    -0.209 NA
BRANCH  37  42
ATOM     42  O6  2W5 d   1      21.864  42.089 -29.472  0.00  0.00    -0.339 OA
BRANCH  42  43
ATOM     43  C7  2W5 d   1      21.320  40.794 -29.837  0.00  0.00     0.012 C 
ATOM     44  H   2W5 d   1      20.728  40.396 -29.000  0.00  0.00     0.067 H 
ATOM     45  H   2W5 d   1      22.143  40.102 -30.066  0.00  0.00     0.067 H 
ATOM     46  H   2W5 d   1      20.676  40.903 -30.722  0.00  0.00     0.067 H 
ENDBRANCH  42  43
ENDBRANCH  37  42
BRANCH  39  47
ATOM     47  O2  2W5 d   1      25.784  44.161 -31.363  0.00  0.00    -0.339 OA
BRANCH  47  48
ATOM     48  C1  2W5 d   1      26.611  44.315 -32.505  0.00  0.00     0.012 C 
ATOM     49  H   2W5 d   1      27.564  44.777 -32.208  0.00  0.00     0.067 H 
ATOM     50  H   2W5 d   1      26.105  44.959 -33.240  0.00  0.00     0.067 H 
ATOM     51  H   2W5 d   1      26.805  43.329 -32.953  0.00  0.00     0.067 H 
ENDBRANCH  47  48
ENDBRANCH  39  47
ENDBRANCH   1  35
TORSDOF 8
