REMARK  9 active torsions:
REMARK  status: ('A' for Active; 'I' for Inactive)
REMARK    1  A    between atoms: C2_2  and  C1_1 
REMARK    2  A    between atoms: C3_3  and  C2_2 
REMARK    3  A    between atoms: C7_5  and  C9_6 
REMARK    4  A    between atoms: C15_11  and  C17_22 
REMARK    5  A    between atoms: C20_12  and  C21_13 
REMARK    6  A    between atoms: N19_24  and  C20_12 
REMARK    7  A    between atoms: C34_17  and  C38_35 
REMARK    8  A    between atoms: C35_18  and  O37_34 
REMARK    9  A    between atoms: C29_30  and  C5_20 
REMARK       I    between atoms: C17_22  and  N19_24 
REMARK       I    between atoms: C38_35  and  N40_37 
ROOT
ATOM      1  C9  2W3 d   1     -15.826 -42.949  34.282  0.00  0.00     0.017 C 
ATOM      2  C11 2W3 d   1     -15.326 -41.705  35.055  0.00  0.00    -0.054 C 
ATOM      3  C12 2W3 d   1     -15.824 -41.676  36.513  0.00  0.00    -0.064 C 
ATOM      4  C13 2W3 d   1     -17.345 -41.901  36.675  0.00  0.00    -0.064 C 
ATOM      5  C14 2W3 d   1     -17.754 -43.202  35.972  0.00  0.00    -0.053 C 
ATOM      6  C15 2W3 d   1     -17.362 -43.031  34.491  0.00  0.00     0.034 C 
ATOM      7  H   2W3 d   1     -15.365 -43.850  34.712  0.00  0.00     0.053 H 
ATOM      8  H   2W3 d   1     -15.687 -40.802  34.541  0.00  0.00     0.034 H 
ATOM      9  H   2W3 d   1     -14.226 -41.710  35.058  0.00  0.00     0.034 H 
ATOM     10  H   2W3 d   1     -15.574 -40.694  36.942  0.00  0.00     0.033 H 
ATOM     11  H   2W3 d   1     -15.299 -42.465  37.071  0.00  0.00     0.033 H 
ATOM     12  H   2W3 d   1     -17.889 -41.057  36.227  0.00  0.00     0.033 H 
ATOM     13  H   2W3 d   1     -17.592 -41.970  37.745  0.00  0.00     0.033 H 
ATOM     14  H   2W3 d   1     -18.839 -43.361  36.064  0.00  0.00     0.034 H 
ATOM     15  H   2W3 d   1     -17.220 -44.057  36.412  0.00  0.00     0.034 H 
ATOM     16  H   2W3 d   1     -17.777 -42.073  34.144  0.00  0.00     0.055 H 
ENDROOT
BRANCH   1  17
ATOM     17  C7  2W3 d   1     -15.417 -42.869  32.798  0.00  0.00     0.132 A 
ATOM     18  N6  2W3 d   1     -16.181 -42.238  31.908  0.00  0.00    -0.229 NA
ATOM     19  C5  2W3 d   1     -15.867 -42.150  30.586  0.00  0.00     0.106 A 
ATOM     20  C4  2W3 d   1     -14.654 -42.747  30.153  0.00  0.00    -0.028 A 
ATOM     21  C3  2W3 d   1     -13.880 -43.396  31.141  0.00  0.00     0.038 A 
ATOM     22  H   2W3 d   1     -14.338 -42.707  29.117  0.00  0.00     0.090 H 
ATOM     23  N8  2W3 d   1     -14.276 -43.426  32.415  0.00  0.00    -0.238 NA
BRANCH  19  24
ATOM     24  C29 2W3 d   1     -16.845 -41.392  29.711  0.00  0.00     0.162 A 
ATOM     25  N30 2W3 d   1     -16.419 -40.420  28.839  0.00  0.00    -0.305 N 
ATOM     26  C32 2W3 d   1     -17.313 -39.669  28.096  0.00  0.00     0.267 A 
ATOM     27  H   2W3 d   1     -15.438 -40.251  28.738  0.00  0.00     0.170 HD
ATOM     28  C34 2W3 d   1     -18.728 -39.913  28.234  0.00  0.00     0.152 A 
ATOM     29  O33 2W3 d   1     -16.879 -38.791  27.322  0.00  0.00    -0.267 OA
ATOM     30  C35 2W3 d   1     -19.106 -40.935  29.153  0.00  0.00     0.185 A 
ATOM     31  N36 2W3 d   1     -18.157 -41.614  29.849  0.00  0.00    -0.203 NA
BRANCH  28  32
ATOM     32  C38 2W3 d   1     -19.751 -39.142  27.446  0.00  0.00     0.259 C 
ATOM     33  O39 2W3 d   1     -19.897 -37.925  27.657  0.00  0.00    -0.268 OA
ATOM     34  N40 2W3 d   1     -20.539 -39.744  26.481  0.00  0.00    -0.366 N 
ATOM     35  H   2W3 d   1     -21.210 -39.203  25.974  0.00  0.00     0.159 HD
ATOM     36  H   2W3 d   1     -20.437 -40.720  26.290  0.00  0.00     0.159 HD
ENDBRANCH  28  32
BRANCH  30  37
ATOM     37  O37 2W3 d   1     -20.424 -41.230  29.358  0.00  0.00    -0.344 OA
ATOM     38  H   2W3 d   1     -20.580 -42.142  29.143  0.00  0.00     0.219 HD
ENDBRANCH  30  37
ENDBRANCH  19  24
BRANCH  21  39
ATOM     39  C2  2W3 d   1     -12.570 -44.077  30.795  0.00  0.00    -0.028 C 
ATOM     40  H   2W3 d   1     -12.783 -45.134  30.575  0.00  0.00     0.041 H 
ATOM     41  H   2W3 d   1     -12.159 -43.591  29.898  0.00  0.00     0.041 H 
BRANCH  39  42
ATOM     42  C1  2W3 d   1     -11.489 -44.025  31.908  0.00  0.00    -0.071 C 
ATOM     43  H   2W3 d   1     -10.582 -44.543  31.563  0.00  0.00     0.028 H 
ATOM     44  H   2W3 d   1     -11.871 -44.519  32.814  0.00  0.00     0.028 H 
ATOM     45  H   2W3 d   1     -11.248 -42.976  32.136  0.00  0.00     0.028 H 
ENDBRANCH  39  42
ENDBRANCH  21  39
ENDBRANCH   1  17
BRANCH   6  46
ATOM     46  C17 2W3 d   1     -18.028 -44.122  33.701  0.00  0.00     0.222 C 
ATOM     47  O18 2W3 d   1     -17.648 -45.284  33.765  0.00  0.00    -0.273 OA
ATOM     48  N19 2W3 d   1     -19.055 -43.708  32.938  0.00  0.00    -0.356 N 
ATOM     49  H   2W3 d   1     -19.300 -42.739  32.918  0.00  0.00     0.162 HD
BRANCH  48  50
ATOM     50  C20 2W3 d   1     -19.809 -44.659  32.144  0.00  0.00     0.019 C 
ATOM     51  H   2W3 d   1     -20.135 -45.476  32.804  0.00  0.00     0.071 H 
ATOM     52  H   2W3 d   1     -20.691 -44.144  31.735  0.00  0.00     0.071 H 
BRANCH  50  53
ATOM     53  C21 2W3 d   1     -19.038 -45.260  30.994  0.00  0.00    -0.039 A 
ATOM     54  C22 2W3 d   1     -18.051 -44.608  30.227  0.00  0.00    -0.074 A 
ATOM     55  C23 2W3 d   1     -17.423 -45.298  29.172  0.00  0.00    -0.060 A 
ATOM     56  H   2W3 d   1     -17.777 -43.583  30.448  0.00  0.00     0.084 H 
ATOM     57  C24 2W3 d   1     -17.838 -46.632  28.937  0.00  0.00     0.055 A 
ATOM     58  H   2W3 d   1     -16.656 -44.829  28.567  0.00  0.00     0.086 H 
ATOM     59  C25 2W3 d   1     -18.790 -47.244  29.713  0.00  0.00     0.056 A 
ATOM     60 CL8  2W3 d   1     -17.287 -47.740  27.714  0.00  0.00    -0.083 Cl
ATOM     61  C26 2W3 d   1     -19.404 -46.570  30.741  0.00  0.00    -0.053 A 
ATOM     62 CL7  2W3 d   1     -19.140 -48.907  29.324  0.00  0.00    -0.083 Cl
ATOM     63  H   2W3 d   1     -20.162 -47.056  31.344  0.00  0.00     0.087 H 
ENDBRANCH  50  53
ENDBRANCH  48  50
ENDBRANCH   6  46
TORSDOF 9
