REMARK WARNING: 32 MAX_TORS EXCEEDED!!!
REMARK  69 active torsions:
REMARK  status: ('A' for Active; 'I' for Inactive)
REMARK    1  A    between atoms: C15_5  and  C07_18 
REMARK    2  A    between atoms: N24_24  and  C18_8 
REMARK    3  A    between atoms: C20_10  and  C21_11 
REMARK    4  A    between atoms: C06_17  and  O32_32 
REMARK    5  A    between atoms: C25_25  and  N24_24 
REMARK    6  A    between atoms: N26_26  and  C25_25 
REMARK    7  A    between atoms: C27_27  and  N26_26 
REMARK    8  A    between atoms: C28_28  and  C27_27 
REMARK    9  A    between atoms: C29_29  and  C28_28 
REMARK   10  A    between atoms: C30_30  and  C29_29 
REMARK   11  A    between atoms: C33_33  and  C30_30 
REMARK   12  A    between atoms: C35_35  and  C33_33 
REMARK       I    between atoms: N_37  and  C35_35 
REMARK   13  A    between atoms: CA_38  and  N_37 
REMARK   14  A    between atoms: C_39  and  CA_38 
REMARK   15  A    between atoms: CA_38  and  CB_41 
REMARK       I    between atoms: N_45  and  C_39 
REMARK   16  A    between atoms: CB_41  and  CG_42 
REMARK   17  A    between atoms: CA_46  and  N_45 
REMARK   18  A    between atoms: C_47  and  CA_46 
REMARK   19  A    between atoms: CA_46  and  CB_49 
REMARK       I    between atoms: N_56  and  C_47 
REMARK   20  A    between atoms: CB_49  and  CG_50 
REMARK   21  A    between atoms: CA_57  and  N_56 
REMARK   22  A    between atoms: C_58  and  CA_57 
REMARK   23  A    between atoms: CA_57  and  CB_60 
REMARK       I    between atoms: N_63  and  C_58 
REMARK   24  A    between atoms: CB_60  and  OG1_61 
REMARK   25  A    between atoms: CB_60  and  CG2_62 
REMARK   26  A    between atoms: CA_64  and  N_63 
REMARK   27  A    between atoms: C_65  and  CA_64 
REMARK   28  A    between atoms: CA_64  and  CB_67 
REMARK       I    between atoms: N_68  and  C_65 
REMARK   29  A    between atoms: CA_69  and  N_68 
REMARK   30  A    between atoms: C_70  and  CA_69 
REMARK   31  A    between atoms: CA_69  and  CB_72 
REMARK       I    between atoms: N_76  and  C_70 
REMARK   32  A    between atoms: CB_72  and  CG_73 
REMARK   33  A    between atoms: CA_77  and  N_76 
REMARK   34  A    between atoms: C_78  and  CA_77 
REMARK   35  A    between atoms: CA_77  and  CB_80 
REMARK       I    between atoms: N_84  and  C_78 
REMARK   36  A    between atoms: CB_80  and  CG_81 
REMARK   37  A    between atoms: CA_85  and  N_84 
REMARK   38  A    between atoms: C_86  and  CA_85 
REMARK   39  A    between atoms: CA_85  and  CB_88 
REMARK       I    between atoms: N_92  and  C_86 
REMARK   40  A    between atoms: CB_88  and  CG_89 
REMARK   41  A    between atoms: CG_89  and  CD1_90 
REMARK   42  A    between atoms: CG_89  and  CD2_91 
REMARK   43  A    between atoms: CA_93  and  N_92 
REMARK   44  A    between atoms: C_94  and  CA_93 
REMARK   45  A    between atoms: CA_93  and  CB_96 
REMARK       I    between atoms: N_101  and  C_94 
REMARK   46  A    between atoms: CB_96  and  CG_97 
REMARK   47  A    between atoms: CG_97  and  CD_98 
REMARK   48  A    between atoms: CA_102  and  N_101 
REMARK   49  A    between atoms: C_103  and  CA_102 
REMARK   50  A    between atoms: CA_102  and  CB_105 
REMARK       I    between atoms: N_110  and  C_103 
REMARK   51  A    between atoms: CB_105  and  CG_106 
REMARK   52  A    between atoms: CG_106  and  CD_107 
REMARK   53  A    between atoms: CA_111  and  N_110 
REMARK   54  A    between atoms: C_112  and  CA_111 
REMARK   55  A    between atoms: CA_111  and  CB_114 
REMARK       I    between atoms: N_124  and  C_112 
REMARK   56  A    between atoms: CB_114  and  CG_115 
REMARK   57  A    between atoms: CA_136  and  N_124 
REMARK   58  A    between atoms: CB_132  and  CG_135 
REMARK   59  A    between atoms: CA_136  and  CB_132 
REMARK   60  A    between atoms: C_133  and  CA_136 
REMARK       I    between atoms: C_133  and  N_137 
REMARK   61  A    between atoms: N_137  and  CA_138 
REMARK   62  A    between atoms: CA_138  and  C_139 
REMARK   63  A    between atoms: CA_138  and  CB_141 
REMARK       I    between atoms: C_139  and  N_142 
REMARK   64  A    between atoms: N_142  and  CA_143 
REMARK   65  A    between atoms: CA_143  and  C_144 
REMARK   66  A    between atoms: CA_143  and  CB_146 
REMARK       I    between atoms: C_144  and  N_150 
REMARK   67  A    between atoms: CB_146  and  CG_147 
REMARK   68  A    between atoms: CG_147  and  CD1_148 
REMARK   69  A    between atoms: CG_147  and  CD2_149 
ROOT
ATOM      1  CA  ASP d   1      29.224 -21.576  11.924  0.00  0.00     0.098 C 
ATOM      2  H   ASP d   1      29.537 -22.231  11.098  0.00  0.00     0.088 H 
ENDROOT
BRANCH   1   3
ATOM      3  N   ASP d   1      30.143 -21.756  13.045  0.00  0.00    -0.345 N 
ATOM      4  C   ASP d   1      31.468 -21.498  12.925  0.00  0.00     0.241 C 
ATOM      5  O   ASP d   1      31.974 -21.181  11.841  0.00  0.00    -0.271 OA
ATOM      6  H   ASP d   1      29.786 -22.077  13.922  0.00  0.00     0.163 HD
BRANCH   4   7
ATOM      7  CA  ASP d   1      32.338 -21.533  14.192  0.00  0.00     0.098 C 
ATOM      8  H   ASP d   1      33.155 -20.808  14.061  0.00  0.00     0.088 H 
BRANCH   7   9
ATOM      9  N   ASP d   1      31.562 -21.129  15.365  0.00  0.00    -0.346 N 
ATOM     10  C   ALA d   1      31.150 -19.872  15.498  0.00  0.00     0.240 C 
ATOM     11  O   ALA d   1      31.367 -19.019  14.652  0.00  0.00    -0.271 OA
ATOM     12  H   ASP d   1      31.340 -21.802  16.070  0.00  0.00     0.163 HD
BRANCH  10  13
ATOM     13  CA  ALA d   1      30.337 -19.531  16.742  0.00  0.00     0.086 C 
ATOM     14  H   ALA d   1      29.709 -18.659  16.505  0.00  0.00     0.086 H 
BRANCH  13  15
ATOM     15  N   ALA d   1      29.459 -20.641  17.094  0.00  0.00    -0.346 N 
ATOM     16  C   THR d   1      28.504 -21.039  16.266  0.00  0.00     0.243 C 
ATOM     17  O   THR d   1      28.293 -20.488  15.184  0.00  0.00    -0.271 OA
ATOM     18  H   ALA d   1      29.579 -21.107  17.971  0.00  0.00     0.163 HD
BRANCH  16  19
ATOM     19  CA  THR d   1      27.706 -22.270  16.665  0.00  0.00     0.113 C 
ATOM     20  H   THR d   1      27.358 -22.154  17.702  0.00  0.00     0.091 H 
BRANCH  19  21
ATOM     21  N   THR d   1      26.523 -22.494  15.810  0.00  0.00    -0.344 N 
ATOM     22  C   PHE d   1      25.266 -22.354  16.250  0.00  0.00     0.241 C 
ATOM     23  O   PHE d   1      24.974 -22.085  17.435  0.00  0.00    -0.271 OA
ATOM     24  H   THR d   1      26.667 -22.763  14.858  0.00  0.00     0.163 HD
BRANCH  22  25
ATOM     25  CA  PHE d   1      24.175 -22.538  15.210  0.00  0.00     0.093 C 
ATOM     26  H   PHE d   1      24.378 -23.439  14.612  0.00  0.00     0.088 H 
BRANCH  25  27
ATOM     27  N   PHE d   1      22.939 -22.717  15.952  0.00  0.00    -0.346 N 
ATOM     28  C   ASP d   1      21.865 -23.332  15.441  0.00  0.00     0.241 C 
ATOM     29  O   ASP d   1      21.864 -23.827  14.299  0.00  0.00    -0.271 OA
ATOM     30  H   PHE d   1      22.888 -22.365  16.887  0.00  0.00     0.163 HD
BRANCH  28  31
ATOM     31  CA  ASP d   1      20.599 -23.337  16.300  0.00  0.00     0.098 C 
ATOM     32  H   ASP d   1      20.698 -24.141  17.044  0.00  0.00     0.088 H 
BRANCH  31  33
ATOM     33  N   ASP d   1      20.381 -22.077  17.022  0.00  0.00    -0.347 N 
ATOM     34  C35 2N2 d   1      20.889 -21.949  18.332  0.00  0.00     0.218 C 
ATOM     35  O36 2N2 d   1      21.260 -22.947  18.913  0.00  0.00    -0.274 OA
ATOM     36  H   ASP d   1      19.882 -21.324  16.593  0.00  0.00     0.163 HD
BRANCH  34  37
ATOM     37  C33 2N2 d   1      20.674 -20.611  18.918  0.00  0.00     0.009 C 
ATOM     38  H   2N2 d   1      20.203 -19.954  18.172  0.00  0.00     0.047 H 
ATOM     39  H   2N2 d   1      20.020 -20.695  19.798  0.00  0.00     0.047 H 
BRANCH  37  40
ATOM     40  C30 2N2 d   1      22.032 -20.023  19.339  0.00  0.00    -0.057 C 
ATOM     41  H   2N2 d   1      22.501 -20.703  20.066  0.00  0.00     0.033 H 
ATOM     42  H   2N2 d   1      22.672 -19.941  18.448  0.00  0.00     0.033 H 
BRANCH  40  43
ATOM     43  C29 2N2 d   1      21.901 -18.661  19.967  0.00  0.00    -0.063 C 
ATOM     44  H   2N2 d   1      21.730 -17.918  19.174  0.00  0.00     0.033 H 
ATOM     45  H   2N2 d   1      21.043 -18.667  20.655  0.00  0.00     0.033 H 
BRANCH  43  46
ATOM     46  C28 2N2 d   1      23.150 -18.275  20.741  0.00  0.00    -0.050 C 
ATOM     47  H   2N2 d   1      22.943 -18.328  21.820  0.00  0.00     0.035 H 
ATOM     48  H   2N2 d   1      23.965 -18.969  20.489  0.00  0.00     0.035 H 
BRANCH  46  49
ATOM     49  C27 2N2 d   1      23.562 -16.858  20.375  0.00  0.00    -0.005 C 
ATOM     50  H   2N2 d   1      23.755 -16.806  19.293  0.00  0.00     0.064 H 
ATOM     51  H   2N2 d   1      22.747 -16.166  20.636  0.00  0.00     0.064 H 
BRANCH  49  52
ATOM     52  N26 2N2 d   1      24.770 -16.469  21.096  0.00  0.00    -0.367 N 
ATOM     53  H   2N2 d   1      24.815 -16.514  22.094  0.00  0.00     0.161 HD
BRANCH  52  54
ATOM     54  C25 2N2 d   1      25.878 -16.025  20.330  0.00  0.00     0.172 C 
ATOM     55  S34 2N2 d   1      25.895 -15.893  18.675  0.00  0.00    -0.041 SA
BRANCH  54  56
ATOM     56  N24 2N2 d   1      27.008 -15.628  21.116  0.00  0.00    -0.333 N 
ATOM     57  H   2N2 d   1      27.789 -15.220  20.643  0.00  0.00     0.168 HD
BRANCH  56  58
ATOM     58  C18 2N2 d   1      27.085 -15.779  22.525  0.00  0.00     0.035 A 
ATOM     59  C17 2N2 d   1      27.361 -14.723  23.394  0.00  0.00    -0.056 A 
ATOM     60  C16 2N2 d   1      27.483 -15.041  24.768  0.00  0.00    -0.069 A 
ATOM     61  H   2N2 d   1      27.477 -13.707  23.034  0.00  0.00     0.086 H 
ATOM     62  C15 2N2 d   1      27.346 -16.351  25.236  0.00  0.00    -0.007 A 
ATOM     63  H   2N2 d   1      27.688 -14.247  25.477  0.00  0.00     0.085 H 
ATOM     64  C20 2N2 d   1      27.076 -17.401  24.331  0.00  0.00     0.054 A 
ATOM     65  C19 2N2 d   1      26.977 -17.094  22.981  0.00  0.00    -0.040 A 
ATOM     66  H   2N2 d   1      26.812 -17.892  22.266  0.00  0.00     0.088 H 
BRANCH  62  67
ATOM     67  C07 2N2 d   1      27.500 -16.580  26.768  0.00  0.00     0.001 A 
ATOM     68  C03 2N2 d   1      26.516 -16.023  27.730  0.00  0.00     0.010 A 
ATOM     69  C02 2N2 d   1      25.387 -15.290  27.315  0.00  0.00    -0.067 A 
ATOM     70  C04 2N2 d   1      26.686 -16.238  29.084  0.00  0.00     0.089 A 
ATOM     71  C01 2N2 d   1      24.467 -14.785  28.254  0.00  0.00    -0.050 A 
ATOM     72  H   2N2 d   1      25.224 -15.112  26.258  0.00  0.00     0.085 H 
ATOM     73  C06 2N2 d   1      24.660 -15.020  29.619  0.00  0.00     0.068 A 
ATOM     74  H   2N2 d   1      23.609 -14.214  27.919  0.00  0.00     0.087 H 
ATOM     75  C05 2N2 d   1      25.768 -15.741  30.033  0.00  0.00    -0.018 A 
ATOM     76  H   2N2 d   1      25.930 -15.924  31.089  0.00  0.00     0.092 H 
ATOM     77  O10 2N2 d   1      27.830 -17.001  29.552  0.00  0.00    -0.309 OA
ATOM     78  C09 2N2 d   1      28.818 -17.549  28.623  0.00  0.00     0.091 A 
ATOM     79  C14 2N2 d   1      29.913 -18.281  29.131  0.00  0.00    -0.001 A 
ATOM     80  C08 2N2 d   1      28.664 -17.345  27.262  0.00  0.00     0.010 A 
ATOM     81  C13 2N2 d   1      30.856 -18.799  28.242  0.00  0.00     0.174 A 
ATOM     82  H   2N2 d   1      30.020 -18.439  30.203  0.00  0.00     0.094 H 
ATOM     83  C12 2N2 d   1      30.710 -18.601  26.874  0.00  0.00    -0.034 A 
ATOM     84  O31 2N2 d   1      31.815 -19.439  28.666  0.00  0.00    -0.288 OA
ATOM     85  C11 2N2 d   1      29.626 -17.881  26.383  0.00  0.00    -0.066 A 
ATOM     86  H   2N2 d   1      31.447 -19.011  26.184  0.00  0.00     0.089 H 
ATOM     87  H   2N2 d   1      29.520 -17.730  25.310  0.00  0.00     0.085 H 
BRANCH  73  88
ATOM     88  O32 2N2 d   1      23.765 -14.524  30.543  0.00  0.00    -0.361 OA
ATOM     89  H   2N2 d   1      23.070 -14.059  30.091  0.00  0.00     0.217 HD
ENDBRANCH  73  88
ENDBRANCH  62  67
BRANCH  64  90
ATOM     90  C21 2N2 d   1      26.928 -18.856  24.699  0.00  0.00     0.210 C 
ATOM     91  O22 2N2 d   1      26.309 -19.198  25.736  0.00  0.00    -0.644 OA
ATOM     92  O23 2N2 d   1      27.416 -19.727  23.917  0.00  0.00    -0.644 OA
ENDBRANCH  64  90
ENDBRANCH  56  58
ENDBRANCH  54  56
ENDBRANCH  52  54
ENDBRANCH  49  52
ENDBRANCH  46  49
ENDBRANCH  43  46
ENDBRANCH  40  43
ENDBRANCH  37  40
ENDBRANCH  34  37
ENDBRANCH  31  33
BRANCH  31  93
ATOM     93  CB  ASP d   1      19.369 -23.637  15.404  0.00  0.00     0.043 C 
ATOM     94  H   ASP d   1      18.474 -23.667  16.043  0.00  0.00     0.052 H 
ATOM     95  H   ASP d   1      19.516 -24.619  14.931  0.00  0.00     0.052 H 
BRANCH  93  96
ATOM     96  CG  ASP d   1      19.142 -22.607  14.309  0.00  0.00     0.175 C 
ATOM     97  OD1 ASP d   1      19.730 -21.487  14.363  0.00  0.00    -0.648 OA
ATOM     98  OD2 ASP d   1      18.329 -22.896  13.397  0.00  0.00    -0.648 OA
ENDBRANCH  93  96
ENDBRANCH  31  93
ENDBRANCH  28  31
ENDBRANCH  25  27
BRANCH  25  99
ATOM     99  CB  PHE d   1      24.113 -21.311  14.254  0.00  0.00    -0.014 C 
ATOM    100  H   PHE d   1      23.320 -21.484  13.511  0.00  0.00     0.043 H 
ATOM    101  H   PHE d   1      25.081 -21.216  13.741  0.00  0.00     0.043 H 
BRANCH  99 102
ATOM    102  CG  PHE d   1      23.820 -20.009  14.982  0.00  0.00    -0.056 A 
ATOM    103  CD1 PHE d   1      24.848 -19.260  15.570  0.00  0.00    -0.077 A 
ATOM    104  CE1 PHE d   1      24.575 -18.144  16.250  0.00  0.00    -0.082 A 
ATOM    105  H   PHE d   1      25.876 -19.590  15.472  0.00  0.00     0.084 H 
ATOM    106  CZ  PHE d   1      23.254 -17.701  16.383  0.00  0.00    -0.083 A 
ATOM    107  H   PHE d   1      25.381 -17.578  16.702  0.00  0.00     0.083 H 
ATOM    108  CE2 PHE d   1      22.202 -18.430  15.827  0.00  0.00    -0.082 A 
ATOM    109  H   PHE d   1      23.046 -16.784  16.922  0.00  0.00     0.083 H 
ATOM    110  CD2 PHE d   1      22.493 -19.580  15.139  0.00  0.00    -0.077 A 
ATOM    111  H   PHE d   1      21.177 -18.095  15.937  0.00  0.00     0.083 H 
ATOM    112  H   PHE d   1      21.687 -20.165  14.711  0.00  0.00     0.084 H 
ENDBRANCH  99 102
ENDBRANCH  25  99
ENDBRANCH  22  25
ENDBRANCH  19  21
BRANCH  19 113
ATOM    113  CB  THR d   1      28.679 -23.426  16.588  0.00  0.00     0.060 C 
ATOM    114  H   THR d   1      29.503 -23.253  17.296  0.00  0.00     0.086 H 
BRANCH 113 115
ATOM    115  OG1 THR d   1      29.202 -23.471  15.260  0.00  0.00    -0.393 OA
ATOM    116  H   THR d   1      29.817 -24.191  15.187  0.00  0.00     0.210 HD
ENDBRANCH 113 115
BRANCH 113 117
ATOM    117  CG2 THR d   1      27.998 -24.744  16.946  0.00  0.00    -0.050 C 
ATOM    118  H   THR d   1      28.729 -25.564  16.881  0.00  0.00     0.031 H 
ATOM    119  H   THR d   1      27.172 -24.933  16.244  0.00  0.00     0.031 H 
ATOM    120  H   THR d   1      27.602 -24.686  17.971  0.00  0.00     0.031 H 
ENDBRANCH 113 117
ENDBRANCH  19 113
ENDBRANCH  16  19
ENDBRANCH  13  15
BRANCH  13 121
ATOM    121  CB  ALA d   1      31.232 -19.155  17.934  0.00  0.00    -0.049 C 
ATOM    122  H   ALA d   1      31.887 -18.317  17.651  0.00  0.00     0.030 H 
ATOM    123  H   ALA d   1      31.847 -20.021  18.218  0.00  0.00     0.030 H 
ATOM    124  H   ALA d   1      30.603 -18.857  18.785  0.00  0.00     0.030 H 
ENDBRANCH  13 121
ENDBRANCH  10  13
ENDBRANCH   7   9
BRANCH   7 125
ATOM    125  CB  ASP d   1      32.959 -22.899  14.393  0.00  0.00     0.043 C 
ATOM    126  H   ASP d   1      33.294 -23.280  13.417  0.00  0.00     0.052 H 
ATOM    127  H   ASP d   1      32.196 -23.574  14.808  0.00  0.00     0.052 H 
BRANCH 125 128
ATOM    128  CG  ASP d   1      34.148 -22.871  15.338  0.00  0.00     0.175 C 
ATOM    129  OD1 ASP d   1      34.734 -21.780  15.579  0.00  0.00    -0.648 OA
ATOM    130  OD2 ASP d   1      34.584 -23.962  15.739  0.00  0.00    -0.648 OA
ENDBRANCH 125 128
ENDBRANCH   7 125
ENDBRANCH   4   7
ENDBRANCH   1   3
BRANCH   1 131
ATOM    131  C   ASP d   1      29.291 -20.096  11.462  0.00  0.00     0.241 C 
ATOM    132  O   ASP d   1      29.329 -19.824  10.255  0.00  0.00    -0.271 OA
ATOM    133  N   LEU d   1      29.199 -19.157  12.403  0.00  0.00    -0.346 N 
ATOM    134  H   LEU d   1      29.103 -19.424  13.362  0.00  0.00     0.163 HD
BRANCH 133 135
ATOM    135  CA  LEU d   1      29.237 -17.731  12.044  0.00  0.00     0.089 C 
ATOM    136  H   LEU d   1      28.398 -17.518  11.365  0.00  0.00     0.087 H 
BRANCH 135 137
ATOM    137  C   LEU d   1      30.533 -17.408  11.331  0.00  0.00     0.241 C 
ATOM    138  O   LEU d   1      30.524 -16.655  10.346  0.00  0.00    -0.271 OA
ATOM    139  N   GLU d   1      31.638 -17.922  11.833  0.00  0.00    -0.346 N 
ATOM    140  H   GLU d   1      31.608 -18.464  12.673  0.00  0.00     0.163 HD
BRANCH 139 141
ATOM    141  CA  GLU d   1      32.918 -17.687  11.141  0.00  0.00     0.090 C 
ATOM    142  H   GLU d   1      33.094 -16.602  11.106  0.00  0.00     0.087 H 
BRANCH 141 143
ATOM    143  C   GLU d   1      32.884 -18.218   9.703  0.00  0.00     0.241 C 
ATOM    144  O   GLU d   1      33.414 -17.546   8.770  0.00  0.00    -0.271 OA
ATOM    145  N   GLU d   1      32.303 -19.406   9.492  0.00  0.00    -0.346 N 
ATOM    146  H   GLU d   1      31.938 -19.921  10.268  0.00  0.00     0.163 HD
BRANCH 145 147
ATOM    147  CA  GLU d   1      32.195 -19.959   8.149  0.00  0.00     0.090 C 
ATOM    148  H   GLU d   1      33.203 -20.005   7.710  0.00  0.00     0.087 H 
BRANCH 147 149
ATOM    149  C   GLU d   1      31.309 -19.099   7.229  0.00  0.00     0.241 C 
ATOM    150  O   GLU d   1      31.677 -18.733   6.106  0.00  0.00    -0.271 OA
ATOM    151  N   TRP d   1      30.130 -18.714   7.746  0.00  0.00    -0.346 N 
ATOM    152  H   TRP d   1      29.905 -18.931   8.696  0.00  0.00     0.163 HD
BRANCH 151 153
ATOM    153  CA  TRP d   1      29.186 -17.984   6.924  0.00  0.00     0.093 C 
ATOM    154  H   TRP d   1      29.073 -18.529   5.976  0.00  0.00     0.088 H 
BRANCH 153 155
ATOM    155  C   TRP d   1      29.690 -16.576   6.590  0.00  0.00     0.241 C 
ATOM    156  O   TRP d   1      29.271 -16.059   5.550  0.00  0.00    -0.271 OA
ATOM    157  N   ZCL d   1      30.529 -15.983   7.460  0.00  0.00    -0.346 N 
ATOM    158  H   ZCL d   1      30.755 -16.484   8.295  0.00  0.00     0.163 HD
BRANCH 157 159
ATOM    159  CA  ZCL d   1      31.097 -14.752   7.294  0.00  0.00     0.093 C 
ATOM    160  H   ZCL d   1      30.508 -14.264   6.503  0.00  0.00     0.088 H 
BRANCH 159 161
ATOM    161  CB  ZCL d   1      30.909 -13.888   8.550  0.00  0.00    -0.014 C 
ATOM    162  H   ZCL d   1      31.180 -14.486   9.432  0.00  0.00     0.043 H 
ATOM    163  H   ZCL d   1      31.575 -13.015   8.480  0.00  0.00     0.043 H 
BRANCH 161 164
ATOM    164  CG  ZCL d   1      29.510 -13.407   8.713  0.00  0.00    -0.054 A 
ATOM    165  CD2 ZCL d   1      29.190 -12.060   8.276  0.00  0.00    -0.075 A 
ATOM    166  CE2 ZCL d   1      27.919 -11.625   8.348  0.00  0.00    -0.060 A 
ATOM    167  H   ZCL d   1      29.969 -11.410   7.895  0.00  0.00     0.084 H 
ATOM    168  CZ  ZCL d   1      26.857 -12.498   8.865  0.00  0.00     0.055 A 
ATOM    169  H   ZCL d   1      27.676 -10.620   8.021  0.00  0.00     0.086 H 
ATOM    170 CLZ  ZCL d   1      25.222 -11.956   8.935  0.00  0.00    -0.083 Cl
ATOM    171  CE1 ZCL d   1      27.167 -13.783   9.272  0.00  0.00     0.056 A 
ATOM    172 CLE1 ZCL d   1      25.978 -14.861   9.872  0.00  0.00    -0.083 Cl
ATOM    173  CD1 ZCL d   1      28.541 -14.239   9.194  0.00  0.00    -0.054 A 
ATOM    174  H   ZCL d   1      28.799 -15.241   9.518  0.00  0.00     0.086 H 
ENDBRANCH 161 164
ENDBRANCH 159 161
BRANCH 159 175
ATOM    175  C   ZCL d   1      32.465 -14.750   6.796  0.00  0.00     0.241 C 
ATOM    176  O   ZCL d   1      33.192 -13.747   6.834  0.00  0.00    -0.271 OA
ATOM    177  N   ALA d   1      32.987 -15.882   6.322  0.00  0.00    -0.346 N 
ATOM    178  H   ALA d   1      32.407 -16.693   6.244  0.00  0.00     0.163 HD
BRANCH 177 179
ATOM    179  CA  ALA d   1      34.420 -15.966   5.905  0.00  0.00     0.086 C 
ATOM    180  H   ALA d   1      35.041 -15.796   6.796  0.00  0.00     0.086 H 
BRANCH 179 181
ATOM    181  C   ALA d   1      34.826 -14.950   4.849  0.00  0.00     0.240 C 
ATOM    182  O   ALA d   1      34.109 -14.743   3.862  0.00  0.00    -0.271 OA
ATOM    183  N   LEU d   1      35.988 -14.341   5.038  0.00  0.00    -0.346 N 
ATOM    184  H   LEU d   1      36.502 -14.527   5.876  0.00  0.00     0.163 HD
BRANCH 183 185
ATOM    185  CA  LEU d   1      36.549 -13.394   4.047  0.00  0.00     0.089 C 
ATOM    186  H   LEU d   1      35.714 -12.814   3.627  0.00  0.00     0.087 H 
BRANCH 185 187
ATOM    187  C   LEU d   1      37.249 -14.109   2.917  0.00  0.00     0.238 C 
ATOM    188  O   LEU d   1      37.772 -15.202   3.108  0.00  0.00    -0.271 OA
ATOM    189  N   ALA d   1      37.316 -13.456   1.769  0.00  0.00    -0.368 N 
ATOM    190  H   ALA d   1      37.767 -13.875   0.981  0.00  0.00     0.159 HD
ATOM    191  H   ALA d   1      36.916 -12.543   1.689  0.00  0.00     0.159 HD
ENDBRANCH 185 187
BRANCH 185 192
ATOM    192  CB  LEU d   1      37.541 -12.420   4.693  0.00  0.00    -0.035 C 
ATOM    193  H   LEU d   1      37.999 -11.829   3.886  0.00  0.00     0.037 H 
ATOM    194  H   LEU d   1      38.316 -13.019   5.194  0.00  0.00     0.037 H 
BRANCH 192 195
ATOM    195  CG  LEU d   1      36.984 -11.445   5.715  0.00  0.00    -0.059 C 
ATOM    196  H   LEU d   1      36.704 -11.989   6.629  0.00  0.00     0.038 H 
BRANCH 195 197
ATOM    197  CD1 LEU d   1      38.101 -10.472   6.019  0.00  0.00    -0.073 C 
ATOM    198  H   LEU d   1      37.755  -9.736   6.759  0.00  0.00     0.028 H 
ATOM    199  H   LEU d   1      38.396  -9.953   5.096  0.00  0.00     0.028 H 
ATOM    200  H   LEU d   1      38.965 -11.020   6.424  0.00  0.00     0.028 H 
ENDBRANCH 195 197
BRANCH 195 201
ATOM    201  CD2 LEU d   1      35.766 -10.715   5.192  0.00  0.00    -0.073 C 
ATOM    202  H   LEU d   1      34.968 -11.441   4.978  0.00  0.00     0.028 H 
ATOM    203  H   LEU d   1      36.029 -10.177   4.270  0.00  0.00     0.028 H 
ATOM    204  H   LEU d   1      35.416  -9.997   5.948  0.00  0.00     0.028 H 
ENDBRANCH 195 201
ENDBRANCH 192 195
ENDBRANCH 185 192
ENDBRANCH 183 185
ENDBRANCH 179 181
BRANCH 179 205
ATOM    205  CB  ALA d   1      34.689 -17.317   5.383  0.00  0.00    -0.049 C 
ATOM    206  H   ALA d   1      35.742 -17.387   5.074  0.00  0.00     0.030 H 
ATOM    207  H   ALA d   1      34.039 -17.512   4.517  0.00  0.00     0.030 H 
ATOM    208  H   ALA d   1      34.487 -18.060   6.168  0.00  0.00     0.030 H 
ENDBRANCH 179 205
ENDBRANCH 177 179
ENDBRANCH 159 175
ENDBRANCH 157 159
ENDBRANCH 153 155
BRANCH 153 209
ATOM    209  CB  TRP d   1      27.788 -17.941   7.622  0.00  0.00    -0.012 C 
ATOM    210  H   TRP d   1      27.093 -17.365   6.993  0.00  0.00     0.044 H 
ATOM    211  H   TRP d   1      27.893 -17.448   8.599  0.00  0.00     0.044 H 
BRANCH 209 212
ATOM    212  CG  TRP d   1      27.220 -19.334   7.833  0.00  0.00    -0.028 A 
ATOM    213  CD1 TRP d   1      27.512 -20.447   7.080  0.00  0.00    -0.015 A 
ATOM    214  NE1 TRP d   1      26.854 -21.538   7.589  0.00  0.00    -0.365 N 
ATOM    215  H   TRP d   1      28.167 -20.460   6.210  0.00  0.00     0.112 H 
ATOM    216  CE2 TRP d   1      26.118 -21.142   8.673  0.00  0.00     0.042 A 
ATOM    217  H   TRP d   1      26.905 -22.497   7.217  0.00  0.00     0.165 HD
ATOM    218  CD2 TRP d   1      26.362 -19.757   8.875  0.00  0.00    -0.002 A 
ATOM    219  CZ2 TRP d   1      25.291 -21.905   9.546  0.00  0.00    -0.056 A 
ATOM    220  CE3 TRP d   1      25.723 -19.101   9.942  0.00  0.00    -0.070 A 
ATOM    221  CZ3 TRP d   1      24.903 -19.811  10.759  0.00  0.00    -0.082 A 
ATOM    222  H   TRP d   1      25.883 -18.042  10.110  0.00  0.00     0.084 H 
ATOM    223  CH2 TRP d   1      24.682 -21.204  10.566  0.00  0.00    -0.081 A 
ATOM    224  H   TRP d   1      24.405 -19.305  11.578  0.00  0.00     0.083 H 
ATOM    225  H   TRP d   1      24.015 -21.729  11.241  0.00  0.00     0.083 H 
ATOM    226  H   TRP d   1      25.149 -22.972   9.417  0.00  0.00     0.086 H 
ENDBRANCH 209 212
ENDBRANCH 153 209
ENDBRANCH 151 153
ENDBRANCH 147 149
BRANCH 147 227
ATOM    227  CB  GLU d   1      31.632 -21.376   8.245  0.00  0.00    -0.029 C 
ATOM    228  H   GLU d   1      30.637 -21.331   8.711  0.00  0.00     0.037 H 
ATOM    229  H   GLU d   1      32.303 -21.983   8.870  0.00  0.00     0.037 H 
BRANCH 227 230
ATOM    230  CG  GLU d   1      31.505 -22.033   6.885  0.00  0.00     0.018 C 
ATOM    231  H   GLU d   1      32.514 -22.172   6.469  0.00  0.00     0.049 H 
ATOM    232  H   GLU d   1      30.926 -21.367   6.228  0.00  0.00     0.049 H 
BRANCH 230 233
ATOM    233  CD  GLU d   1      30.811 -23.387   6.933  0.00  0.00     0.172 C 
ATOM    234  OE1 GLU d   1      30.959 -24.110   7.935  0.00  0.00    -0.648 OA
ATOM    235  OE2 GLU d   1      30.106 -23.722   5.943  0.00  0.00    -0.648 OA
ENDBRANCH 230 233
ENDBRANCH 227 230
ENDBRANCH 147 227
ENDBRANCH 145 147
ENDBRANCH 141 143
BRANCH 141 236
ATOM    236  CB  GLU d   1      34.077 -18.345  11.902  0.00  0.00    -0.029 C 
ATOM    237  H   GLU d   1      34.981 -18.279  11.278  0.00  0.00     0.037 H 
ATOM    238  H   GLU d   1      33.824 -19.402  12.070  0.00  0.00     0.037 H 
BRANCH 236 239
ATOM    239  CG  GLU d   1      34.382 -17.703  13.259  0.00  0.00     0.018 C 
ATOM    240  H   GLU d   1      34.971 -18.422  13.848  0.00  0.00     0.049 H 
ATOM    241  H   GLU d   1      33.424 -17.512  13.765  0.00  0.00     0.049 H 
BRANCH 239 242
ATOM    242  CD  GLU d   1      35.160 -16.384  13.212  0.00  0.00     0.172 C 
ATOM    243  OE1 GLU d   1      35.551 -15.891  12.100  0.00  0.00    -0.648 OA
ATOM    244  OE2 GLU d   1      35.412 -15.872  14.320  0.00  0.00    -0.648 OA
ENDBRANCH 239 242
ENDBRANCH 236 239
ENDBRANCH 141 236
ENDBRANCH 139 141
ENDBRANCH 135 137
BRANCH 135 245
ATOM    245  CB  LEU d   1      29.088 -16.844  13.304  0.00  0.00    -0.035 C 
ATOM    246  H   LEU d   1      29.195 -15.793  12.999  0.00  0.00     0.037 H 
ATOM    247  H   LEU d   1      29.894 -17.106  14.006  0.00  0.00     0.037 H 
BRANCH 245 248
ATOM    248  CG  LEU d   1      27.741 -16.997  14.039  0.00  0.00    -0.059 C 
ATOM    249  H   LEU d   1      27.675 -18.010  14.462  0.00  0.00     0.038 H 
BRANCH 248 250
ATOM    250  CD1 LEU d   1      27.743 -15.955  15.183  0.00  0.00    -0.073 C 
ATOM    251  H   LEU d   1      26.798 -16.023  15.742  0.00  0.00     0.028 H 
ATOM    252  H   LEU d   1      27.847 -14.945  14.759  0.00  0.00     0.028 H 
ATOM    253  H   LEU d   1      28.585 -16.156  15.861  0.00  0.00     0.028 H 
ENDBRANCH 248 250
BRANCH 248 254
ATOM    254  CD2 LEU d   1      26.537 -16.778  13.128  0.00  0.00    -0.073 C 
ATOM    255  H   LEU d   1      26.548 -17.524  12.320  0.00  0.00     0.028 H 
ATOM    256  H   LEU d   1      26.584 -15.768  12.695  0.00  0.00     0.028 H 
ATOM    257  H   LEU d   1      25.611 -16.884  13.712  0.00  0.00     0.028 H 
ENDBRANCH 248 254
ENDBRANCH 245 248
ENDBRANCH 135 245
ENDBRANCH 133 135
ENDBRANCH   1 131
BRANCH   1 258
ATOM    258  CB  ASP d   1      27.777 -21.925  12.311  0.00  0.00     0.043 C 
ATOM    259  H   ASP d   1      27.107 -21.565  11.517  0.00  0.00     0.052 H 
ATOM    260  H   ASP d   1      27.535 -21.414  13.255  0.00  0.00     0.052 H 
BRANCH 258 261
ATOM    261  CG  ASP d   1      27.550 -23.406  12.496  0.00  0.00     0.175 C 
ATOM    262  OD1 ASP d   1      28.216 -24.226  11.817  0.00  0.00    -0.648 OA
ATOM    263  OD2 ASP d   1      26.616 -23.746  13.270  0.00  0.00    -0.648 OA
ENDBRANCH 258 261
ENDBRANCH   1 258
TORSDOF 69
