REMARK  9 active torsions:
REMARK  status: ('A' for Active; 'I' for Inactive)
REMARK    1  A    between atoms: S12_2  and  C01_4 
REMARK    2  A    between atoms: S12_2  and  N15_10 
REMARK    3  A    between atoms: N15_10  and  C16_11 
REMARK    4  A    between atoms: N15_10  and  C23_16 
REMARK    5  A    between atoms: C16_11  and  C19_12 
REMARK    6  A    between atoms: C26_21  and  C33_22 
REMARK    7  A    between atoms: C33_22  and  C34_23 
REMARK    8  A    between atoms: C33_22  and  O42_27 
REMARK    9  A    between atoms: C33_22  and  C38_28 
ROOT
ATOM      1  N15 444 d   1      31.742   9.637   3.110  0.00  0.00    -0.164 NA
ENDROOT
BRANCH   1   2
ATOM      2  S12 444 d   1      30.135  10.141   2.997  0.00  0.00     0.248 S 
ATOM      3  O13 444 d   1      29.338   8.986   2.740  0.00  0.00    -0.205 OA
ATOM      4  O14 444 d   1      29.847  10.987   4.107  0.00  0.00    -0.205 OA
BRANCH   2   5
ATOM      5  C01 444 d   1      29.969  11.184   1.572  0.00  0.00     0.075 A 
ATOM      6  C02 444 d   1      29.321  10.717   0.435  0.00  0.00    -0.061 A 
ATOM      7  C03 444 d   1      29.200  11.531  -0.681  0.00  0.00    -0.082 A 
ATOM      8  H1  444 d   1      28.909   9.714   0.420  0.00  0.00     0.085 H 
ATOM      9  C04 444 d   1      29.721  12.816  -0.671  0.00  0.00    -0.083 A 
ATOM     10  H2  444 d   1      28.695  11.161  -1.566  0.00  0.00     0.083 H 
ATOM     11  C05 444 d   1      30.366  13.289   0.461  0.00  0.00    -0.082 A 
ATOM     12  H3  444 d   1      29.624  13.449  -1.546  0.00  0.00     0.083 H 
ATOM     13  C06 444 d   1      30.484  12.476   1.578  0.00  0.00    -0.061 A 
ATOM     14  H4  444 d   1      30.777  14.292   0.473  0.00  0.00     0.083 H 
ATOM     15  H5  444 d   1      30.983  12.851   2.465  0.00  0.00     0.085 H 
ENDBRANCH   2   5
ENDBRANCH   1   2
BRANCH   1  16
ATOM     16  C16 444 d   1      31.986   8.682   2.023  0.00  0.00     0.089 C 
ATOM     17  H6  444 d   1      32.828   9.030   1.407  0.00  0.00     0.071 H 
ATOM     18  H7  444 d   1      31.085   8.595   1.397  0.00  0.00     0.071 H 
BRANCH  16  19
ATOM     19  C19 444 d   1      32.320   7.330   2.628  0.00  0.00     0.400 C 
ATOM     20  F22 444 d   1      33.337   7.521   3.568  0.00  0.00    -0.170 F 
ATOM     21  F21 444 d   1      31.181   6.807   3.246  0.00  0.00    -0.170 F 
ATOM     22  F20 444 d   1      32.737   6.466   1.611  0.00  0.00    -0.170 F 
ENDBRANCH  16  19
ENDBRANCH   1  16
BRANCH   1  23
ATOM     23  C23 444 d   1      32.666  10.692   3.248  0.00  0.00     0.025 A 
ATOM     24  C24 444 d   1      33.593  10.991   2.245  0.00  0.00    -0.061 A 
ATOM     25  C25 444 d   1      34.482  12.046   2.386  0.00  0.00    -0.072 A 
ATOM     26  H8  444 d   1      33.617  10.389   1.344  0.00  0.00     0.086 H 
ATOM     27  C26 444 d   1      34.472  12.828   3.527  0.00  0.00    -0.006 A 
ATOM     28  H9  444 d   1      35.191  12.260   1.595  0.00  0.00     0.084 H 
ATOM     29  C27 444 d   1      33.548  12.537   4.532  0.00  0.00    -0.072 A 
ATOM     30  C28 444 d   1      32.659  11.485   4.393  0.00  0.00    -0.061 A 
ATOM     31  H11 444 d   1      33.526  13.142   5.431  0.00  0.00     0.084 H 
ATOM     32  H10 444 d   1      31.949  11.276   5.185  0.00  0.00     0.086 H 
BRANCH  27  33
ATOM     33  C33 444 d   1      35.461  13.976   3.614  0.00  0.00     0.281 C 
BRANCH  33  34
ATOM     34  C34 444 d   1      34.741  15.330   3.599  0.00  0.00     0.431 C 
ATOM     35  F36 444 d   1      35.723  16.319   3.559  0.00  0.00    -0.167 F 
ATOM     36  F37 444 d   1      33.908  15.459   2.481  0.00  0.00    -0.167 F 
ATOM     37  F35 444 d   1      33.981  15.496   4.761  0.00  0.00    -0.167 F 
ENDBRANCH  33  34
BRANCH  33  38
ATOM     38  O42 444 d   1      36.333  13.933   2.480  0.00  0.00    -0.370 OA
ATOM     39  H12 444 d   1      36.792  13.101   2.466  0.00  0.00     0.211 HD
ENDBRANCH  33  38
BRANCH  33  40
ATOM     40  C38 444 d   1      36.332  13.949   4.869  0.00  0.00     0.431 C 
ATOM     41  F39 444 d   1      36.780  12.649   5.126  0.00  0.00    -0.167 F 
ATOM     42  F40 444 d   1      37.423  14.792   4.646  0.00  0.00    -0.167 F 
ATOM     43  F41 444 d   1      35.602  14.445   5.953  0.00  0.00    -0.167 F 
ENDBRANCH  33  40
ENDBRANCH  27  33
ENDBRANCH   1  23
TORSDOF 9
