REMARK  6 active torsions:
REMARK  status: ('A' for Active; 'I' for Inactive)
REMARK    1  A    between atoms: C8_1  and  C13_11 
REMARK    2  A    between atoms: C7_2  and  O_20 
REMARK    3  A    between atoms: O_20  and  C2_9 
REMARK    4  A    between atoms: N22_28  and  C24_13 
REMARK    5  A    between atoms: C18_14  and  C17_15 
REMARK    6  A    between atoms: C17_15  and  N11_22 
ROOT
ATOM      1  C6  2KW d   1       9.725  10.922  22.072  0.00  0.00     0.099 C 
ATOM      2  C5  2KW d   1      10.105  13.103  21.123  0.00  0.00    -0.042 A 
ATOM      3  C4  2KW d   1      10.043  11.735  20.962  0.00  0.00     0.049 A 
ATOM      4  C3  2KW d   1      10.297  11.160  19.738  0.00  0.00    -0.030 A 
ATOM      5  C2  2KW d   1      10.617  11.972  18.670  0.00  0.00     0.079 A 
ATOM      6  C1  2KW d   1      10.701  13.340  18.805  0.00  0.00    -0.029 A 
ATOM      7  C   2KW d   1      10.422  13.889  20.033  0.00  0.00     0.038 A 
ATOM      8  N   2KW d   1       9.507  10.255  22.994  0.00  0.00    -0.191 NA
ATOM      9 CL   2KW d   1      10.501  15.586  20.173  0.00  0.00    -0.084 Cl
ATOM     10  H   2KW d   1       9.908  13.554  22.089  0.00  0.00     0.088 H 
ATOM     11  H   2KW d   1      10.246  10.084  19.615  0.00  0.00     0.090 H 
ATOM     12  H   2KW d   1      10.980  13.966  17.965  0.00  0.00     0.090 H 
ENDROOT
BRANCH   5  13
ATOM     13  O   2KW d   1      10.923  11.388  17.463  0.00  0.00    -0.304 OA
BRANCH  13  14
ATOM     14  C7  2KW d   1      10.218  11.764  16.335  0.00  0.00     0.159 A 
ATOM     15  C8  2KW d   1      10.906  12.181  15.264  0.00  0.00     0.088 A 
ATOM     16  C9  2KW d   1      10.241  12.556  14.055  0.00  0.00    -0.050 A 
ATOM     17  C10 2KW d   1       8.911  12.457  13.984  0.00  0.00    -0.016 A 
ATOM     18  H   2KW d   1      10.812  12.918  13.202  0.00  0.00     0.086 H 
ATOM     19  N11 2KW d   1       8.157  12.018  15.042  0.00  0.00    -0.315 N 
ATOM     20  H   2KW d   1       8.410  12.733  13.057  0.00  0.00     0.111 H 
ATOM     21  C12 2KW d   1       8.714  11.669  16.265  0.00  0.00     0.282 A 
ATOM     22  O16 2KW d   1       8.045  11.314  17.235  0.00  0.00    -0.265 OA
BRANCH  15  23
ATOM     23  C13 2KW d   1      12.401  12.254  15.326  0.00  0.00     0.420 C 
ATOM     24  F   2KW d   1      12.904  11.034  15.548  0.00  0.00    -0.166 F 
ATOM     25  F14 2KW d   1      12.819  12.988  16.392  0.00  0.00    -0.166 F 
ATOM     26  F15 2KW d   1      13.082  12.630  14.209  0.00  0.00    -0.166 F 
ENDBRANCH  15  23
BRANCH  19  27
ATOM     27  C17 2KW d   1       6.715  11.945  14.863  0.00  0.00     0.059 C 
ATOM     28  H   2KW d   1       6.191  12.045  15.825  0.00  0.00     0.077 H 
ATOM     29  H   2KW d   1       6.362  12.724  14.171  0.00  0.00     0.077 H 
BRANCH  27  30
ATOM     30  C18 2KW d   1       6.517  10.563  14.275  0.00  0.00     0.148 A 
ATOM     31  N19 2KW d   1       6.651  10.292  13.015  0.00  0.00    -0.155 NA
ATOM     32  N20 2KW d   1       6.410   8.958  12.920  0.00  0.00    -0.227 N 
ATOM     33  C21 2KW d   1       6.143   8.398  14.145  0.00  0.00     0.343 A 
ATOM     34  H   2KW d   1       6.425   8.446  12.061  0.00  0.00     0.194 HD
ATOM     35  N22 2KW d   1       6.200   9.447  15.015  0.00  0.00    -0.288 N 
ATOM     36  O23 2KW d   1       5.910   7.220  14.387  0.00  0.00    -0.245 OA
BRANCH  35  37
ATOM     37  C24 2KW d   1       5.939   9.318  16.439  0.00  0.00    -0.008 C 
ATOM     38  H   2KW d   1       6.047  10.300  16.922  0.00  0.00     0.057 H 
ATOM     39  H   2KW d   1       6.657   8.611  16.881  0.00  0.00     0.057 H 
ATOM     40  H   2KW d   1       4.915   8.945  16.592  0.00  0.00     0.057 H 
ENDBRANCH  35  37
ENDBRANCH  27  30
ENDBRANCH  19  27
ENDBRANCH  13  14
ENDBRANCH   5  13
TORSDOF 6
