REMARK  7 active torsions:
REMARK  status: ('A' for Active; 'I' for Inactive)
REMARK    1  A    between atoms: C2_3  and  C1_2 
REMARK    2  A    between atoms: C2_3  and  C4_4 
REMARK    3  A    between atoms: N9_9  and  C2_3 
REMARK       I    between atoms: C4_4  and  N6_6 
REMARK    4  A    between atoms: N6_6  and  C7_7 
REMARK    5  A    between atoms: N6_6  and  C8_8 
REMARK    6  A    between atoms: C10_10  and  N9_9 
REMARK    7  A    between atoms: C16_16  and  C14_14 
ROOT
ATOM      1  C10 704 d   1     -51.188  -4.286   4.252  0.00  0.00     0.167 A 
ATOM      2  C11 704 d   1     -52.541  -4.061   3.985  0.00  0.00     0.179 A 
ATOM      3  C12 704 d   1     -52.925  -3.692   2.709  0.00  0.00     0.045 A 
ATOM      4  N13 704 d   1     -51.985  -3.600   1.762  0.00  0.00    -0.237 NA
ATOM      5  C14 704 d   1     -50.709  -3.856   2.033  0.00  0.00     0.164 A 
ATOM      6  N15 704 d   1     -50.296  -4.177   3.260  0.00  0.00    -0.208 NA
ATOM      7  F27 704 d   1     -53.426  -4.183   4.989  0.00  0.00    -0.201 F 
ATOM      8  H   704 d   1     -53.964  -3.482   2.481  0.00  0.00     0.119 H 
ENDROOT
BRANCH   1   9
ATOM      9  N9  704 d   1     -50.841  -4.585   5.552  0.00  0.00    -0.359 N 
ATOM     10  H   704 d   1     -51.583  -4.807   6.231  0.00  0.00     0.162 HD
BRANCH   9  11
ATOM     11  C2  704 d   1     -49.452  -4.595   5.991  0.00  0.00     0.085 C 
ATOM     12  H   704 d   1     -48.901  -3.751   5.550  0.00  0.00     0.086 H 
BRANCH  11  13
ATOM     13  C1  704 d   1     -49.482  -4.486   7.517  0.00  0.00    -0.049 C 
ATOM     14  H   704 d   1     -49.956  -3.537   7.808  0.00  0.00     0.030 H 
ATOM     15  H   704 d   1     -48.454  -4.516   7.907  0.00  0.00     0.030 H 
ATOM     16  H   704 d   1     -50.057  -5.326   7.933  0.00  0.00     0.030 H 
ENDBRANCH  11  13
BRANCH  11  17
ATOM     17  C4  704 d   1     -48.797  -5.905   5.600  0.00  0.00     0.241 C 
ATOM     18  O5  704 d   1     -49.525  -6.875   5.392  0.00  0.00    -0.271 OA
ATOM     19  N6  704 d   1     -47.435  -6.018   5.495  0.00  0.00    -0.359 N 
BRANCH  19  20
ATOM     20  C7  704 d   1     -46.829  -7.306   5.123  0.00  0.00    -0.017 C 
ATOM     21  H   704 d   1     -45.735  -7.200   5.090  0.00  0.00     0.056 H 
ATOM     22  H   704 d   1     -47.198  -7.612   4.133  0.00  0.00     0.056 H 
ATOM     23  H   704 d   1     -47.102  -8.068   5.868  0.00  0.00     0.056 H 
ENDBRANCH  19  20
BRANCH  19  24
ATOM     24  C8  704 d   1     -46.520  -4.880   5.726  0.00  0.00    -0.017 C 
ATOM     25  H   704 d   1     -47.105  -3.988   5.995  0.00  0.00     0.056 H 
ATOM     26  H   704 d   1     -45.946  -4.679   4.810  0.00  0.00     0.056 H 
ATOM     27  H   704 d   1     -45.829  -5.126   6.546  0.00  0.00     0.056 H 
ENDBRANCH  19  24
ENDBRANCH  11  17
ENDBRANCH   9  11
ENDBRANCH   1   9
BRANCH   5  28
ATOM     28  C16 704 d   1     -49.736  -3.647   0.971  0.00  0.00     0.041 A 
ATOM     29  C17 704 d   1     -49.990  -3.031  -0.211  0.00  0.00    -0.007 A 
ATOM     30  N18 704 d   1     -48.841  -3.003  -0.960  0.00  0.00    -0.349 N 
ATOM     31  H   704 d   1     -50.953  -2.624  -0.516  0.00  0.00     0.112 H 
ATOM     32  C20 704 d   1     -47.801  -3.577  -0.274  0.00  0.00     0.138 A 
ATOM     33  H   704 d   1     -48.769  -2.606  -1.907  0.00  0.00     0.167 HD
ATOM     34  C21 704 d   1     -48.316  -4.008   0.971  0.00  0.00     0.027 A 
ATOM     35  N25 704 d   1     -46.531  -3.766  -0.594  0.00  0.00    -0.241 NA
ATOM     36  C22 704 d   1     -47.479  -4.658   1.864  0.00  0.00    -0.046 A 
ATOM     37  C23 704 d   1     -46.167  -4.841   1.472  0.00  0.00     0.052 A 
ATOM     38  H   704 d   1     -47.837  -5.007   2.826  0.00  0.00     0.087 H 
ATOM     39 CL1  704 d   1     -45.060  -5.546   2.587  0.00  0.00    -0.083 Cl
ATOM     40  C24 704 d   1     -45.708  -4.340   0.261  0.00  0.00     0.025 A 
ATOM     41  H   704 d   1     -44.656  -4.422   0.015  0.00  0.00     0.117 H 
ENDBRANCH   5  28
TORSDOF 7
