REMARK  8 active torsions:
REMARK  status: ('A' for Active; 'I' for Inactive)
REMARK    1  A    between atoms: NBM_14  and  CAB_33 
REMARK       I    between atoms: NBM_14  and  CAY_34 
REMARK    2  A    between atoms: CBL_43  and  NBM_14 
REMARK    3  A    between atoms: NBN_24  and  CBK_31 
REMARK    4  A    between atoms: CBQ_25  and  CAC_29 
REMARK    5  A    between atoms: CBQ_25  and  NBO_42 
REMARK    6  A    between atoms: CBP_26  and  OAV_27 
REMARK    7  A    between atoms: OAV_27  and  CAA_28 
REMARK    8  A    between atoms: CAY_34  and  CAZ_36 
ROOT
ATOM      1  CBQ 2K2 d   1      42.135  28.118 -13.527  0.00  0.00     0.168 C 
ATOM      2  CBP 2K2 d   1      43.061  27.360 -12.544  0.00  0.00     0.105 C 
ATOM      3  OAW 2K2 d   1      42.220  29.533 -13.342  0.00  0.00    -0.333 OA
ATOM      4  CBK 2K2 d   1      42.484  30.059 -12.032  0.00  0.00     0.115 C 
ATOM      5  CAT 2K2 d   1      43.650  29.391 -11.332  0.00  0.00    -0.002 C 
ATOM      6  CBL 2K2 d   1      44.195  28.295 -12.237  0.00  0.00     0.048 C 
ATOM      7  H12 2K2 d   1      43.438  26.436 -13.007  0.00  0.00     0.094 H 
ATOM      8  H19 2K2 d   1      42.799  31.105 -12.161  0.00  0.00     0.118 H 
ATOM      9  H20 2K2 d   1      43.310  28.953 -10.382  0.00  0.00     0.042 H 
ATOM     10  H21 2K2 d   1      44.437  30.133 -11.133  0.00  0.00     0.042 H 
ATOM     11  H30 2K2 d   1      44.546  28.734 -13.183  0.00  0.00     0.077 H 
ENDROOT
BRANCH   6  12
ATOM     12  NBM 2K2 d   1      45.348  27.683 -11.560  0.00  0.00    -0.345 N 
ATOM     13  CAY 2K2 d   1      46.602  28.016 -11.977  0.00  0.00     0.253 C 
ATOM     14  OAE 2K2 d   1      46.805  28.790 -12.919  0.00  0.00    -0.267 OA
BRANCH  12  15
ATOM     15  CAB 2K2 d   1      45.134  26.788 -10.400  0.00  0.00    -0.015 C 
ATOM     16  H22 2K2 d   1      46.106  26.429 -10.030  0.00  0.00     0.056 H 
ATOM     17  H23 2K2 d   1      44.519  25.929 -10.708  0.00  0.00     0.056 H 
ATOM     18  H24 2K2 d   1      44.618  27.340  -9.601  0.00  0.00     0.056 H 
ENDBRANCH  12  15
BRANCH  13  19
ATOM     19  CAZ 2K2 d   1      47.705  27.563 -11.260  0.00  0.00     0.032 A 
ATOM     20  CAM 2K2 d   1      48.594  26.644 -11.805  0.00  0.00    -0.068 A 
ATOM     21  CAG 2K2 d   1      49.708  26.251 -11.064  0.00  0.00    -0.082 A 
ATOM     22  H25 2K2 d   1      48.423  26.237 -12.795  0.00  0.00     0.085 H 
ATOM     23  CAF 2K2 d   1      49.938  26.779  -9.791  0.00  0.00    -0.083 A 
ATOM     24  H26 2K2 d   1      50.402  25.529 -11.479  0.00  0.00     0.083 H 
ATOM     25  CAH 2K2 d   1      49.056  27.713  -9.249  0.00  0.00    -0.082 A 
ATOM     26  H27 2K2 d   1      50.805  26.462  -9.223  0.00  0.00     0.083 H 
ATOM     27  CAN 2K2 d   1      47.949  28.114  -9.993  0.00  0.00    -0.068 A 
ATOM     28  H28 2K2 d   1      49.230  28.122  -8.260  0.00  0.00     0.083 H 
ATOM     29  H29 2K2 d   1      47.271  28.858  -9.590  0.00  0.00     0.085 H 
ENDBRANCH  13  19
ENDBRANCH   6  12
BRANCH   2  30
ATOM     30  OAV 2K2 d   1      42.340  27.037 -11.323  0.00  0.00    -0.384 OA
BRANCH  30  31
ATOM     31  CAA 2K2 d   1      41.797  25.722 -11.244  0.00  0.00     0.005 C 
ATOM     32  H13 2K2 d   1      41.279  25.597 -10.282  0.00  0.00     0.066 H 
ATOM     33  H14 2K2 d   1      42.609  24.985 -11.321  0.00  0.00     0.066 H 
ATOM     34  H15 2K2 d   1      41.084  25.570 -12.068  0.00  0.00     0.066 H 
ENDBRANCH  30  31
ENDBRANCH   2  30
BRANCH   1  35
ATOM     35  CAC 2K2 d   1      42.646  27.887 -14.951  0.00  0.00    -0.028 C 
ATOM     36  H16 2K2 d   1      41.999  28.419 -15.664  0.00  0.00     0.034 H 
ATOM     37  H17 2K2 d   1      42.631  26.810 -15.176  0.00  0.00     0.034 H 
ATOM     38  H18 2K2 d   1      43.675  28.265 -15.037  0.00  0.00     0.034 H 
ENDBRANCH   1  35
BRANCH   1  39
ATOM     39  NBO 2K2 d   1      40.702  27.733 -13.285  0.00  0.00    -0.308 N 
ATOM     40  CBJ 2K2 d   1      39.889  28.332 -12.391  0.00  0.00     0.077 A 
ATOM     41  CBI 2K2 d   1      40.078  29.371 -11.549  0.00  0.00     0.077 A 
ATOM     42  CBG 2K2 d   1      38.702  27.729 -12.430  0.00  0.00     0.015 A 
ATOM     43  CBH 2K2 d   1      39.091  29.812 -10.731  0.00  0.00     0.022 A 
ATOM     44  NBN 2K2 d   1      41.172  30.106 -11.337  0.00  0.00    -0.316 N 
ATOM     45  CBB 2K2 d   1      37.874  29.195 -10.763  0.00  0.00     0.054 A 
ATOM     46  CBC 2K2 d   1      39.612  30.843 -10.032  0.00  0.00     0.004 A 
ATOM     47  CAX 2K2 d   1      36.692  29.374 -10.103  0.00  0.00     0.253 A 
ATOM     48  CBA 2K2 d   1      37.707  28.156 -11.621  0.00  0.00    -0.010 A 
ATOM     49  OAD 2K2 d   1      36.429  30.237  -9.263  0.00  0.00    -0.268 OA
ATOM     50  NAU 2K2 d   1      35.761  28.526 -10.494  0.00  0.00    -0.353 N 
ATOM     51  CAS 2K2 d   1      36.400  27.676 -11.490  0.00  0.00     0.021 A 
ATOM     52  H1  2K2 d   1      34.815  28.477 -10.174  0.00  0.00     0.163 HD
ATOM     53  H2  2K2 d   1      35.869  27.746 -12.451  0.00  0.00     0.071 H 
ATOM     54  H3  2K2 d   1      36.409  26.630 -11.151  0.00  0.00     0.071 H 
ATOM     55  CAO 2K2 d   1      39.107  31.656  -9.095  0.00  0.00    -0.070 A 
ATOM     56  CBE 2K2 d   1      40.893  31.027 -10.421  0.00  0.00     0.048 A 
ATOM     57  CAI 2K2 d   1      39.874  32.676  -8.515  0.00  0.00    -0.082 A 
ATOM     58  H4  2K2 d   1      38.079  31.522  -8.777  0.00  0.00     0.084 H 
ATOM     59  CAK 2K2 d   1      41.184  32.850  -8.917  0.00  0.00    -0.081 A 
ATOM     60  H5  2K2 d   1      39.443  33.322  -7.758  0.00  0.00     0.083 H 
ATOM     61  CAQ 2K2 d   1      41.675  31.995  -9.893  0.00  0.00    -0.056 A 
ATOM     62  H6  2K2 d   1      41.806  33.626  -8.486  0.00  0.00     0.083 H 
ATOM     63  H7  2K2 d   1      42.697  32.104 -10.236  0.00  0.00     0.087 H 
ATOM     64  CBD 2K2 d   1      38.789  26.735 -13.335  0.00  0.00     0.004 A 
ATOM     65  CAP 2K2 d   1      37.888  25.832 -13.743  0.00  0.00    -0.070 A 
ATOM     66  CBF 2K2 d   1      40.023  26.735 -13.861  0.00  0.00     0.049 A 
ATOM     67  CAJ 2K2 d   1      38.198  24.865 -14.691  0.00  0.00    -0.082 A 
ATOM     68  H8  2K2 d   1      36.889  25.856 -13.322  0.00  0.00     0.084 H 
ATOM     69  CAL 2K2 d   1      39.473  24.867 -15.224  0.00  0.00    -0.081 A 
ATOM     70  H9  2K2 d   1      37.463  24.132 -15.003  0.00  0.00     0.083 H 
ATOM     71  CAR 2K2 d   1      40.369  25.835 -14.794  0.00  0.00    -0.056 A 
ATOM     72  H10 2K2 d   1      39.767  24.129 -15.961  0.00  0.00     0.083 H 
ATOM     73  H11 2K2 d   1      41.366  25.865 -15.219  0.00  0.00     0.087 H 
ENDBRANCH   1  39
TORSDOF 8
