REMARK  18 active torsions:
REMARK  status: ('A' for Active; 'I' for Inactive)
REMARK    1  A    between atoms: C12_8  and  C13_1 
REMARK    2  A    between atoms: C18_2  and  O22_26 
REMARK    3  A    between atoms: C19_4  and  O23_27 
REMARK    4  A    between atoms: O23_27  and  C24_7 
REMARK    5  A    between atoms: C24_7  and  C25_28 
REMARK    6  A    between atoms: C24_7  and  C26_29 
REMARK    7  A    between atoms: C12_8  and  N11_22 
REMARK    8  A    between atoms: C14_23  and  C12_8 
REMARK    9  A    between atoms: O22_26  and  C27_10 
REMARK   10  A    between atoms: C27_10  and  C28_30 
REMARK   11  A    between atoms: C3_14  and  N42_42 
REMARK   12  A    between atoms: N11_22  and  C9_20 
REMARK       I    between atoms: N16_25  and  C14_23 
REMARK   13  A    between atoms: C29_31  and  N16_25 
REMARK   14  A    between atoms: C30_32  and  C29_31 
REMARK   15  A    between atoms: C35_35  and  S36_36 
REMARK   16  A    between atoms: S36_36  and  C39_39 
REMARK   17  A    between atoms: C39_39  and  C40_40 
REMARK   18  A    between atoms: C39_39  and  C41_41 
ROOT
ATOM      1  C12 2KF d   1       7.271  37.147  25.623  0.00  0.00     0.113 C 
ATOM      2  H   2KF d   1       7.650  37.748  26.462  0.00  0.00     0.095 H 
ENDROOT
BRANCH   1   3
ATOM      3  C13 2KF d   1       5.816  36.836  25.910  0.00  0.00    -0.024 A 
ATOM      4  C17 2KF d   1       5.109  36.075  25.004  0.00  0.00    -0.039 A 
ATOM      5  C18 2KF d   1       3.745  35.824  25.227  0.00  0.00     0.102 A 
ATOM      6  H   2KF d   1       5.602  35.673  24.126  0.00  0.00     0.088 H 
ATOM      7  C19 2KF d   1       3.091  36.357  26.399  0.00  0.00     0.102 A 
ATOM      8  C20 2KF d   1       3.852  37.138  27.330  0.00  0.00    -0.047 A 
ATOM      9  C21 2KF d   1       5.199  37.362  27.080  0.00  0.00    -0.072 A 
ATOM     10  H   2KF d   1       3.382  37.548  28.217  0.00  0.00     0.087 H 
ATOM     11  H   2KF d   1       5.786  37.943  27.782  0.00  0.00     0.084 H 
BRANCH   5  12
ATOM     12  O22 2KF d   1       3.000  35.052  24.332  0.00  0.00    -0.349 OA
BRANCH  12  13
ATOM     13  C27 2KF d   1       3.729  34.311  23.340  0.00  0.00     0.023 C 
ATOM     14  H   2KF d   1       4.527  33.725  23.819  0.00  0.00     0.074 H 
ATOM     15  H   2KF d   1       4.171  35.000  22.605  0.00  0.00     0.074 H 
BRANCH  13  16
ATOM     16  C28 2KF d   1       2.788  33.423  22.684  0.00  0.00    -0.056 C 
ATOM     17  H   2KF d   1       3.312  32.837  21.915  0.00  0.00     0.030 H 
ATOM     18  H   2KF d   1       1.991  34.017  22.213  0.00  0.00     0.030 H 
ATOM     19  H   2KF d   1       2.347  32.742  23.427  0.00  0.00     0.030 H 
ENDBRANCH  13  16
ENDBRANCH  12  13
ENDBRANCH   5  12
BRANCH   7  20
ATOM     20  O23 2KF d   1       1.737  36.031  26.525  0.00  0.00    -0.344 OA
BRANCH  20  21
ATOM     21  C24 2KF d   1       0.968  36.357  27.711  0.00  0.00     0.038 C 
ATOM     22  H   2KF d   1       1.214  37.378  28.038  0.00  0.00     0.082 H 
BRANCH  21  23
ATOM     23  C25 2KF d   1      -0.454  36.305  27.279  0.00  0.00    -0.052 C 
ATOM     24  H   2KF d   1      -1.105  36.544  28.133  0.00  0.00     0.030 H 
ATOM     25  H   2KF d   1      -0.688  35.296  26.910  0.00  0.00     0.030 H 
ATOM     26  H   2KF d   1      -0.620  37.037  26.475  0.00  0.00     0.030 H 
ENDBRANCH  21  23
BRANCH  21  27
ATOM     27  C26 2KF d   1       1.254  35.416  28.858  0.00  0.00    -0.052 C 
ATOM     28  H   2KF d   1       0.648  35.705  29.729  0.00  0.00     0.030 H 
ATOM     29  H   2KF d   1       2.321  35.470  29.119  0.00  0.00     0.030 H 
ATOM     30  H   2KF d   1       1.001  34.388  28.561  0.00  0.00     0.030 H 
ENDBRANCH  21  27
ENDBRANCH  20  21
ENDBRANCH   7  20
ENDBRANCH   1   3
BRANCH   1  31
ATOM     31  N11 2KF d   1       8.106  35.954  25.519  0.00  0.00    -0.373 N 
ATOM     32  H   2KF d   1       8.406  35.630  24.588  0.00  0.00     0.161 HD
BRANCH  31  33
ATOM     33  C9  2KF d   1       8.505  35.245  26.644  0.00  0.00     0.029 A 
ATOM     34  C8  2KF d   1       9.175  33.968  26.394  0.00  0.00    -0.057 A 
ATOM     35  C7  2KF d   1       9.558  33.174  27.444  0.00  0.00    -0.066 A 
ATOM     36  H   2KF d   1       9.369  33.649  25.376  0.00  0.00     0.086 H 
ATOM     37  C4  2KF d   1       9.340  33.624  28.791  0.00  0.00     0.020 A 
ATOM     38  H   2KF d   1      10.023  32.212  27.259  0.00  0.00     0.085 H 
ATOM     39  C3  2KF d   1       9.773  32.893  29.956  0.00  0.00     0.132 A 
ATOM     40  C5  2KF d   1       8.708  34.902  29.034  0.00  0.00    -0.019 A 
ATOM     41  N2  2KF d   1       9.606  33.379  31.253  0.00  0.00    -0.243 NA
ATOM     42  C1  2KF d   1       9.005  34.603  31.418  0.00  0.00     0.005 A 
ATOM     43  C6  2KF d   1       8.547  35.382  30.367  0.00  0.00    -0.055 A 
ATOM     44  H   2KF d   1       8.882  34.981  32.426  0.00  0.00     0.114 H 
ATOM     45  H   2KF d   1       8.075  36.339  30.555  0.00  0.00     0.087 H 
ATOM     46  C10 2KF d   1       8.279  35.691  27.950  0.00  0.00    -0.047 A 
ATOM     47  H   2KF d   1       7.778  36.636  28.126  0.00  0.00     0.088 H 
BRANCH  39  48
ATOM     48  N42 2KF d   1      10.406  31.666  29.830  0.00  0.00    -0.383 N 
ATOM     49  H   2KF d   1      10.557  31.258  28.896  0.00  0.00     0.157 HD
ATOM     50  H   2KF d   1      10.726  31.163  30.670  0.00  0.00     0.157 HD
ENDBRANCH  39  48
ENDBRANCH  31  33
ENDBRANCH   1  31
BRANCH   1  51
ATOM     51  C14 2KF d   1       7.411  37.961  24.360  0.00  0.00     0.245 C 
ATOM     52  O15 2KF d   1       7.846  37.494  23.288  0.00  0.00    -0.271 OA
ATOM     53  N16 2KF d   1       6.985  39.288  24.512  0.00  0.00    -0.355 N 
ATOM     54  H   2KF d   1       6.740  39.633  25.418  0.00  0.00     0.162 HD
BRANCH  53  55
ATOM     55  C29 2KF d   1       6.898  40.170  23.347  0.00  0.00     0.020 C 
ATOM     56  H   2KF d   1       7.880  40.196  22.853  0.00  0.00     0.071 H 
ATOM     57  H   2KF d   1       6.633  41.181  23.691  0.00  0.00     0.071 H 
BRANCH  55  58
ATOM     58  C30 2KF d   1       5.840  39.706  22.318  0.00  0.00    -0.019 A 
ATOM     59  C31 2KF d   1       4.713  39.029  22.838  0.00  0.00    -0.074 A 
ATOM     60  C32 2KF d   1       3.695  38.567  22.004  0.00  0.00    -0.082 A 
ATOM     61  H   2KF d   1       4.639  38.866  23.907  0.00  0.00     0.084 H 
ATOM     62  C33 2KF d   1       3.784  38.777  20.602  0.00  0.00    -0.082 A 
ATOM     63  H   2KF d   1       2.840  38.050  22.424  0.00  0.00     0.083 H 
ATOM     64  C34 2KF d   1       4.891  39.453  20.073  0.00  0.00    -0.061 A 
ATOM     65  H   2KF d   1       3.000  38.416  19.946  0.00  0.00     0.083 H 
ATOM     66  C35 2KF d   1       5.958  39.945  20.885  0.00  0.00     0.067 A 
ATOM     67  H   2KF d   1       4.940  39.609  19.002  0.00  0.00     0.085 H 
BRANCH  66  68
ATOM     68  S36 2KF d   1       7.195  40.783  20.089  0.00  0.00     0.179 S 
ATOM     69  O37 2KF d   1       6.644  41.390  18.931  0.00  0.00    -0.222 OA
ATOM     70  O38 2KF d   1       7.891  41.650  20.965  0.00  0.00    -0.222 OA
BRANCH  68  71
ATOM     71  C39 2KF d   1       8.326  39.539  19.470  0.00  0.00     0.042 C 
ATOM     72  H   2KF d   1       7.841  39.079  18.596  0.00  0.00     0.063 H 
BRANCH  71  73
ATOM     73  C40 2KF d   1       8.725  38.420  20.408  0.00  0.00    -0.060 C 
ATOM     74  H   2KF d   1       9.418  37.739  19.892  0.00  0.00     0.029 H 
ATOM     75  H   2KF d   1       7.828  37.865  20.719  0.00  0.00     0.029 H 
ATOM     76  H   2KF d   1       9.220  38.843  21.295  0.00  0.00     0.029 H 
ENDBRANCH  71  73
BRANCH  71  77
ATOM     77  C41 2KF d   1       9.615  40.186  19.032  0.00  0.00    -0.060 C 
ATOM     78  H   2KF d   1      10.302  39.415  18.654  0.00  0.00     0.029 H 
ATOM     79  H   2KF d   1      10.076  40.700  19.888  0.00  0.00     0.029 H 
ATOM     80  H   2KF d   1       9.407  40.915  18.235  0.00  0.00     0.029 H 
ENDBRANCH  71  77
ENDBRANCH  68  71
ENDBRANCH  66  68
ENDBRANCH  55  58
ENDBRANCH  53  55
ENDBRANCH   1  51
TORSDOF 18
