REMARK WARNING: 32 MAX_TORS EXCEEDED!!!
REMARK  81 active torsions:
REMARK  status: ('A' for Active; 'I' for Inactive)
REMARK    1  A    between atoms: C_1  and  CH3_3 
REMARK    2  A    between atoms: CA_5  and  N_4 
REMARK    3  A    between atoms: C_6  and  CA_5 
REMARK    4  A    between atoms: CA_5  and  CB_8 
REMARK       I    between atoms: N_12  and  C_6 
REMARK    5  A    between atoms: CB_8  and  CG_9 
REMARK       I    between atoms: CG_9  and  ND2_11 
REMARK    6  A    between atoms: CA_13  and  N_12 
REMARK    7  A    between atoms: C_14  and  CA_13 
REMARK    8  A    between atoms: CA_13  and  CB_16 
REMARK       I    between atoms: N_26  and  C_14 
REMARK    9  A    between atoms: CB_16  and  CG_17 
REMARK   10  A    between atoms: CA_27  and  N_26 
REMARK   11  A    between atoms: C_28  and  CA_27 
REMARK   12  A    between atoms: CA_27  and  CB_30 
REMARK       I    between atoms: N_37  and  C_28 
REMARK   13  A    between atoms: CB_30  and  CG_31 
REMARK   14  A    between atoms: CA_38  and  N_37 
REMARK   15  A    between atoms: C_39  and  CA_38 
REMARK   16  A    between atoms: CA_38  and  CB_41 
REMARK       I    between atoms: N_45  and  C_39 
REMARK   17  A    between atoms: CB_41  and  CG_42 
REMARK       I    between atoms: CG_42  and  ND2_44 
REMARK   18  A    between atoms: CA_46  and  N_45 
REMARK   19  A    between atoms: C_47  and  CA_46 
REMARK   20  A    between atoms: CA_46  and  CB_49 
REMARK       I    between atoms: N_53  and  C_47 
REMARK   21  A    between atoms: CB_49  and  CG1_50 
REMARK   22  A    between atoms: CB_49  and  CG2_51 
REMARK   23  A    between atoms: CG1_50  and  CD1_52 
REMARK   24  A    between atoms: CA_54  and  N_53 
REMARK   25  A    between atoms: C_55  and  CA_54 
REMARK   26  A    between atoms: CA_54  and  CB_57 
REMARK       I    between atoms: N_60  and  C_55 
REMARK   27  A    between atoms: CB_57  and  OG1_58 
REMARK   28  A    between atoms: CB_57  and  CG2_59 
REMARK   29  A    between atoms: CA_61  and  N_60 
REMARK   30  A    between atoms: C_62  and  CA_61 
REMARK   31  A    between atoms: CA_61  and  CB_64 
REMARK       I    between atoms: N_68  and  C_62 
REMARK   32  A    between atoms: CB_64  and  CG_65 
REMARK       I    between atoms: CG_65  and  ND2_67 
REMARK   33  A    between atoms: CA_69  and  N_68 
REMARK   34  A    between atoms: CA_69  and  CB2_72 
REMARK   35  A    between atoms: CA_76  and  CB_79 
REMARK   36  A    between atoms: CB_79  and  CG_80 
REMARK   37  A    between atoms: CG_80  and  CD1_81 
REMARK   38  A    between atoms: CG_80  and  CD2_82 
REMARK   39  A    between atoms: CA_84  and  CB_87 
REMARK   40  A    between atoms: CB_87  and  CG_88 
REMARK   41  A    between atoms: CA_100  and  C_97 
REMARK       I    between atoms: C_97  and  N_106 
REMARK   42  A    between atoms: CA_100  and  CB1_105 
REMARK   43  A    between atoms: N_106  and  CA_107 
REMARK   44  A    between atoms: CA_107  and  C_108 
REMARK   45  A    between atoms: CA_107  and  CB_110 
REMARK       I    between atoms: C_108  and  N_114 
REMARK   46  A    between atoms: CB_110  and  CG1_111 
REMARK   47  A    between atoms: CB_110  and  CG2_112 
REMARK   48  A    between atoms: CG1_111  and  CD1_113 
REMARK   49  A    between atoms: N_114  and  CA_115 
REMARK   50  A    between atoms: CA_115  and  C_116 
REMARK   51  A    between atoms: CA_115  and  CB_118 
REMARK       I    between atoms: C_116  and  N_135 
REMARK   52  A    between atoms: CB_118  and  CG_119 
REMARK   53  A    between atoms: CG_119  and  ND_120 
REMARK       I    between atoms: ND_120  and  CE_121 
REMARK   54  A    between atoms: CE_121  and  CZ_122 
REMARK   55  A    between atoms: CZ_122  and  N1_123 
REMARK       I    between atoms: N1_123  and  C2_124 
REMARK   56  A    between atoms: C2_124  and  C4_126 
REMARK   57  A    between atoms: C4_126  and  C5_127 
REMARK   58  A    between atoms: C4_126  and  N6_128 
REMARK   59  A    between atoms: C5_127  and  O1_131 
REMARK   60  A    between atoms: O1_131  and  P_130 
REMARK   61  A    between atoms: N_135  and  CA_136 
REMARK   62  A    between atoms: CA_136  and  C_137 
REMARK   63  A    between atoms: CA_136  and  CB_139 
REMARK       I    between atoms: C_137  and  N_144 
REMARK   64  A    between atoms: CB_139  and  CG_140 
REMARK   65  A    between atoms: CG_140  and  CD_141 
REMARK   66  A    between atoms: CD_141  and  CE_142 
REMARK   67  A    between atoms: CE_142  and  NZ_143 
REMARK   68  A    between atoms: N_144  and  CA_145 
REMARK   69  A    between atoms: CA_145  and  C_146 
REMARK   70  A    between atoms: CA_145  and  CB_148 
REMARK       I    between atoms: C_146  and  N_153 
REMARK   71  A    between atoms: CB_148  and  CG_149 
REMARK   72  A    between atoms: CG_149  and  CD_150 
REMARK   73  A    between atoms: CD_150  and  CE_151 
REMARK   74  A    between atoms: CE_151  and  NZ_152 
REMARK   75  A    between atoms: N_153  and  CA_154 
REMARK   76  A    between atoms: CA_154  and  C_155 
REMARK   77  A    between atoms: CA_154  and  CB_157 
REMARK   78  A    between atoms: CB_157  and  CG_158 
REMARK   79  A    between atoms: CG_158  and  CD_159 
REMARK   80  A    between atoms: CD_159  and  CE_160 
REMARK   81  A    between atoms: CE_160  and  NZ_161 
ROOT
ATOM      1  N   TRP d   1     -92.922  76.474 -10.873  0.00  0.00    -0.346 N 
ATOM      2  CA  TRP d   1     -93.552  76.841  -9.595  0.00  0.00     0.093 C 
ATOM      3  C   TRP d   1     -94.470  78.054  -9.718  0.00  0.00     0.241 C 
ATOM      4  O   TRP d   1     -95.552  78.107  -9.024  0.00  0.00    -0.271 OA
ATOM      5  H   TRP d   1     -91.933  76.550 -11.003  0.00  0.00     0.163 HD
ATOM      6  H   TRP d   1     -94.158  75.990  -9.252  0.00  0.00     0.088 H 
ATOM      7  CA  DIV d   1     -91.239  78.743 -14.437  0.00  0.00     0.110 C 
ATOM      8  CB1 DIV d   1     -91.560  80.231 -14.375  0.00  0.00    -0.033 C 
ATOM      9  CG1 DIV d   1     -92.732  80.826 -15.184  0.00  0.00    -0.062 C 
ATOM     10  C   DIV d   1     -92.419  77.886 -13.985  0.00  0.00     0.246 C 
ATOM     11  O   DIV d   1     -93.559  78.329 -13.808  0.00  0.00    -0.271 OA
ATOM     12  H   DIV d   1     -90.653  80.760 -14.703  0.00  0.00     0.037 H 
ATOM     13  H   DIV d   1     -91.759  80.464 -13.319  0.00  0.00     0.037 H 
ATOM     14  H   DIV d   1     -93.602  80.159 -15.089  0.00  0.00     0.033 H 
ATOM     15  H   DIV d   1     -92.434  80.893 -16.241  0.00  0.00     0.033 H 
ATOM     16  N   LEU d   1     -92.155  76.478 -13.739  0.00  0.00    -0.346 N 
ATOM     17  CA  LEU d   1     -93.179  75.574 -13.297  0.00  0.00     0.089 C 
ATOM     18  C   LEU d   1     -93.795  75.992 -11.952  0.00  0.00     0.241 C 
ATOM     19  O   LEU d   1     -95.001  75.914 -11.770  0.00  0.00    -0.271 OA
ATOM     20  H   LEU d   1     -91.230  76.127 -13.882  0.00  0.00     0.163 HD
ATOM     21  H   LEU d   1     -93.976  75.567 -14.055  0.00  0.00     0.087 H 
ATOM     22  N   MK8 d   1     -94.030  79.135 -10.647  0.00  0.00    -0.342 N 
ATOM     23  CA  MK8 d   1     -94.702  80.371 -10.907  0.00  0.00     0.110 C 
ATOM     24  CB  MK8 d   1     -93.788  81.191 -11.794  0.00  0.00    -0.033 C 
ATOM     25  CD  MK8 d   1     -94.443  82.318 -13.975  0.00  0.00    -0.065 C 
ATOM     26  CE  MK8 d   1     -93.110  82.162 -14.716  0.00  0.00    -0.065 C 
ATOM     27  CG  MK8 d   1     -94.282  82.483 -12.449  0.00  0.00    -0.062 C 
ATOM     28  H   MK8 d   1     -93.174  78.979 -11.140  0.00  0.00     0.163 HD
ATOM     29  H   MK8 d   1     -93.467  80.528 -12.611  0.00  0.00     0.037 H 
ATOM     30  H   MK8 d   1     -92.917  81.464 -11.180  0.00  0.00     0.037 H 
ATOM     31  H   MK8 d   1     -95.055  81.424 -14.166  0.00  0.00     0.033 H 
ATOM     32  H   MK8 d   1     -94.959  83.206 -14.369  0.00  0.00     0.033 H 
ATOM     33  H   MK8 d   1     -93.148  82.818 -15.598  0.00  0.00     0.033 H 
ATOM     34  H   MK8 d   1     -92.317  82.507 -14.037  0.00  0.00     0.033 H 
ATOM     35  H   MK8 d   1     -93.555  83.285 -12.251  0.00  0.00     0.033 H 
ATOM     36  H   MK8 d   1     -95.255  82.755 -12.014  0.00  0.00     0.033 H 
ENDROOT
BRANCH   7  37
ATOM     37  N   DIV d   1     -90.134  78.475 -13.522  0.00  0.00    -0.342 N 
ATOM     38  C   ASN d   1     -90.245  78.627 -12.199  0.00  0.00     0.241 C 
ATOM     39  O   ASN d   1     -91.262  79.050 -11.656  0.00  0.00    -0.271 OA
ATOM     40  H   DIV d   1     -89.261  78.166 -13.899  0.00  0.00     0.163 HD
BRANCH  38  41
ATOM     41  CA  ASN d   1     -89.033  78.232 -11.357  0.00  0.00     0.097 C 
ATOM     42  H   ASN d   1     -89.360  78.150 -10.310  0.00  0.00     0.088 H 
BRANCH  41  43
ATOM     43  N   ASN d   1     -88.512  76.943 -11.766  0.00  0.00    -0.345 N 
ATOM     44  C   THR d   1     -89.234  75.841 -11.614  0.00  0.00     0.243 C 
ATOM     45  O   THR d   1     -90.318  75.817 -11.018  0.00  0.00    -0.271 OA
ATOM     46  H   ASN d   1     -87.598  76.884 -12.167  0.00  0.00     0.163 HD
BRANCH  44  47
ATOM     47  CA  THR d   1     -88.655  74.589 -12.225  0.00  0.00     0.113 C 
ATOM     48  H   THR d   1     -89.486  74.019 -12.667  0.00  0.00     0.091 H 
BRANCH  47  49
ATOM     49  N   THR d   1     -87.737  74.922 -13.301  0.00  0.00    -0.344 N 
ATOM     50  C   ILE d   1     -88.210  75.374 -14.460  0.00  0.00     0.241 C 
ATOM     51  O   ILE d   1     -89.400  75.664 -14.622  0.00  0.00    -0.271 OA
ATOM     52  H   THR d   1     -86.752  74.812 -13.171  0.00  0.00     0.163 HD
BRANCH  50  53
ATOM     53  CA  ILE d   1     -87.198  75.570 -15.603  0.00  0.00     0.092 C 
ATOM     54  H   ILE d   1     -87.641  76.291 -16.306  0.00  0.00     0.088 H 
BRANCH  53  55
ATOM     55  N   ILE d   1     -85.927  76.125 -15.165  0.00  0.00    -0.346 N 
ATOM     56  C   ASN d   1     -85.825  77.356 -14.682  0.00  0.00     0.241 C 
ATOM     57  O   ASN d   1     -86.799  78.058 -14.414  0.00  0.00    -0.271 OA
ATOM     58  H   ILE d   1     -85.104  75.561 -15.230  0.00  0.00     0.163 HD
BRANCH  56  59
ATOM     59  CA  ASN d   1     -84.414  77.864 -14.440  0.00  0.00     0.097 C 
ATOM     60  H   ASN d   1     -84.349  78.156 -13.382  0.00  0.00     0.088 H 
BRANCH  59  61
ATOM     61  N   ASN d   1     -83.399  76.855 -14.672  0.00  0.00    -0.346 N 
ATOM     62  C   PHE d   1     -82.811  76.254 -13.653  0.00  0.00     0.241 C 
ATOM     63  O   PHE d   1     -83.110  76.500 -12.484  0.00  0.00    -0.271 OA
ATOM     64  H   ASN d   1     -83.143  76.613 -15.608  0.00  0.00     0.163 HD
BRANCH  62  65
ATOM     65  CA  PHE d   1     -81.744  75.224 -14.000  0.00  0.00     0.093 C 
ATOM     66  H   PHE d   1     -82.061  74.263 -13.570  0.00  0.00     0.088 H 
BRANCH  65  67
ATOM     67  N   PHE d   1     -81.602  75.044 -15.431  0.00  0.00    -0.346 N 
ATOM     68  C   TRP d   1     -82.533  74.419 -16.137  0.00  0.00     0.241 C 
ATOM     69  O   TRP d   1     -83.601  74.044 -15.646  0.00  0.00    -0.271 OA
ATOM     70  H   PHE d   1     -80.788  75.397 -15.893  0.00  0.00     0.163 HD
BRANCH  68  71
ATOM     71  CA  TRP d   1     -82.219  74.212 -17.620  0.00  0.00     0.093 C 
ATOM     72  H   TRP d   1     -83.168  74.159 -18.174  0.00  0.00     0.088 H 
BRANCH  71  73
ATOM     73  N   TRP d   1     -81.416  75.313 -18.160  0.00  0.00    -0.346 N 
ATOM     74  C   ASN d   1     -81.761  76.595 -18.045  0.00  0.00     0.241 C 
ATOM     75  O   ASN d   1     -82.796  76.972 -17.486  0.00  0.00    -0.271 OA
ATOM     76  H   TRP d   1     -80.567  75.091 -18.639  0.00  0.00     0.163 HD
BRANCH  74  77
ATOM     77  CA  ASN d   1     -80.798  77.618 -18.666  0.00  0.00     0.096 C 
ATOM     78  H   ASN d   1     -79.939  77.079 -19.091  0.00  0.00     0.088 H 
BRANCH  77  79
ATOM     79  N   ASN d   1     -81.479  78.330 -19.731  0.00  0.00    -0.359 N 
ATOM     80  C   ACE d   1     -81.290  77.996 -20.985  0.00  0.00     0.148 C 
ATOM     81  O   ACE d   1     -80.977  76.706 -21.386  0.00  0.00    -0.178 OA
ATOM     82  H   ASN d   1     -82.098  79.082 -19.507  0.00  0.00     0.162 HD
BRANCH  80  83
ATOM     83  CH3 ACE d   1     -82.170  78.717 -21.951  0.00  0.00    -0.015 C 
ATOM     84  H   ACE d   1     -82.378  79.729 -21.573  0.00  0.00     0.038 H 
ATOM     85  H   ACE d   1     -83.116  78.167 -22.066  0.00  0.00     0.038 H 
ATOM     86  H   ACE d   1     -81.665  78.786 -22.926  0.00  0.00     0.038 H 
ENDBRANCH  80  83
ENDBRANCH  77  79
BRANCH  77  87
ATOM     87  CB  ASN d   1     -80.277  78.613 -17.613  0.00  0.00     0.036 C 
ATOM     88  H   ASN d   1     -81.137  79.130 -17.163  0.00  0.00     0.051 H 
ATOM     89  H   ASN d   1     -79.630  79.347 -18.114  0.00  0.00     0.051 H 
BRANCH  87  90
ATOM     90  CG  ASN d   1     -79.485  77.945 -16.511  0.00  0.00     0.217 C 
ATOM     91  OD1 ASN d   1     -79.220  76.743 -16.555  0.00  0.00    -0.274 OA
ATOM     92  ND2 ASN d   1     -79.112  78.724 -15.502  0.00  0.00    -0.370 N 
ATOM     93  H   ASN d   1     -78.586  78.341 -14.743  0.00  0.00     0.159 HD
ATOM     94  H   ASN d   1     -79.357  79.694 -15.502  0.00  0.00     0.159 HD
ENDBRANCH  87  90
ENDBRANCH  77  87
ENDBRANCH  74  77
ENDBRANCH  71  73
BRANCH  71  95
ATOM     95  CB  TRP d   1     -81.445  72.902 -17.820  0.00  0.00    -0.012 C 
ATOM     96  H   TRP d   1     -80.482  73.010 -17.300  0.00  0.00     0.044 H 
ATOM     97  H   TRP d   1     -81.268  72.790 -18.900  0.00  0.00     0.044 H 
BRANCH  95  98
ATOM     98  CG  TRP d   1     -82.075  71.619 -17.334  0.00  0.00    -0.028 A 
ATOM     99  CD1 TRP d   1     -82.923  70.813 -18.027  0.00  0.00    -0.015 A 
ATOM    100  NE1 TRP d   1     -83.263  69.716 -17.278  0.00  0.00    -0.365 N 
ATOM    101  H   TRP d   1     -83.282  71.011 -19.036  0.00  0.00     0.112 H 
ATOM    102  CE2 TRP d   1     -82.612  69.782 -16.078  0.00  0.00     0.042 A 
ATOM    103  H   TRP d   1     -83.904  68.965 -17.572  0.00  0.00     0.165 HD
ATOM    104  CD2 TRP d   1     -81.849  70.969 -16.075  0.00  0.00    -0.002 A 
ATOM    105  CZ2 TRP d   1     -82.628  68.899 -15.000  0.00  0.00    -0.056 A 
ATOM    106  CE3 TRP d   1     -81.078  71.275 -14.950  0.00  0.00    -0.070 A 
ATOM    107  CZ3 TRP d   1     -81.089  70.397 -13.882  0.00  0.00    -0.082 A 
ATOM    108  H   TRP d   1     -80.484  72.181 -14.916  0.00  0.00     0.084 H 
ATOM    109  CH2 TRP d   1     -81.864  69.221 -13.912  0.00  0.00    -0.081 A 
ATOM    110  H   TRP d   1     -80.490  70.618 -13.006  0.00  0.00     0.083 H 
ATOM    111  H   TRP d   1     -81.855  68.557 -13.055  0.00  0.00     0.083 H 
ATOM    112  H   TRP d   1     -83.222  67.993 -15.023  0.00  0.00     0.086 H 
ENDBRANCH  95  98
ENDBRANCH  71  95
ENDBRANCH  68  71
ENDBRANCH  65  67
BRANCH  65 113
ATOM    113  CB  PHE d   1     -80.392  75.588 -13.391  0.00  0.00    -0.014 C 
ATOM    114  H   PHE d   1     -80.551  75.876 -12.341  0.00  0.00     0.043 H 
ATOM    115  H   PHE d   1     -79.980  76.443 -13.948  0.00  0.00     0.043 H 
BRANCH 113 116
ATOM    116  CG  PHE d   1     -79.391  74.474 -13.428  0.00  0.00    -0.056 A 
ATOM    117  CD1 PHE d   1     -79.285  73.570 -12.370  0.00  0.00    -0.077 A 
ATOM    118  CE1 PHE d   1     -78.342  72.520 -12.402  0.00  0.00    -0.082 A 
ATOM    119  H   PHE d   1     -79.937  73.676 -11.510  0.00  0.00     0.084 H 
ATOM    120  CZ  PHE d   1     -77.505  72.370 -13.507  0.00  0.00    -0.083 A 
ATOM    121  H   PHE d   1     -78.269  71.831 -11.568  0.00  0.00     0.083 H 
ATOM    122  CE2 PHE d   1     -77.598  73.264 -14.559  0.00  0.00    -0.082 A 
ATOM    123  H   PHE d   1     -76.787  71.559 -13.542  0.00  0.00     0.083 H 
ATOM    124  CD2 PHE d   1     -78.546  74.319 -14.518  0.00  0.00    -0.077 A 
ATOM    125  H   PHE d   1     -76.945  73.158 -15.417  0.00  0.00     0.083 H 
ATOM    126  H   PHE d   1     -78.611  75.013 -15.348  0.00  0.00     0.084 H 
ENDBRANCH 113 116
ENDBRANCH  65 113
ENDBRANCH  62  65
ENDBRANCH  59  61
BRANCH  59 127
ATOM    127  CB  ASN d   1     -84.133  79.106 -15.286  0.00  0.00     0.036 C 
ATOM    128  H   ASN d   1     -85.039  79.730 -15.310  0.00  0.00     0.051 H 
ATOM    129  H   ASN d   1     -83.879  78.788 -16.308  0.00  0.00     0.051 H 
BRANCH 127 130
ATOM    130  CG  ASN d   1     -82.986  79.932 -14.733  0.00  0.00     0.217 C 
ATOM    131  OD1 ASN d   1     -82.755  79.943 -13.522  0.00  0.00    -0.274 OA
ATOM    132  ND2 ASN d   1     -82.255  80.620 -15.613  0.00  0.00    -0.370 N 
ATOM    133  H   ASN d   1     -81.488  81.179 -15.297  0.00  0.00     0.159 HD
ATOM    134  H   ASN d   1     -82.474  80.576 -16.588  0.00  0.00     0.159 HD
ENDBRANCH 127 130
ENDBRANCH  59 127
ENDBRANCH  56  59
ENDBRANCH  53  55
BRANCH  53 135
ATOM    135  CB  ILE d   1     -86.977  74.260 -16.360  0.00  0.00    -0.030 C 
ATOM    136  H   ILE d   1     -86.378  73.588 -15.728  0.00  0.00     0.043 H 
BRANCH 135 137
ATOM    137  CG1 ILE d   1     -86.216  74.526 -17.654  0.00  0.00    -0.063 C 
ATOM    138  H   ILE d   1     -85.227  74.938 -17.402  0.00  0.00     0.033 H 
ATOM    139  H   ILE d   1     -86.779  75.261 -18.248  0.00  0.00     0.033 H 
BRANCH 137 140
ATOM    140  CD1 ILE d   1     -86.024  73.284 -18.481  0.00  0.00    -0.076 C 
ATOM    141  H   ILE d   1     -85.471  73.536 -19.398  0.00  0.00     0.027 H 
ATOM    142  H   ILE d   1     -87.006  72.866 -18.748  0.00  0.00     0.027 H 
ATOM    143  H   ILE d   1     -85.454  72.542 -17.902  0.00  0.00     0.027 H 
ENDBRANCH 137 140
ENDBRANCH 135 137
BRANCH 135 144
ATOM    144  CG2 ILE d   1     -88.287  73.584 -16.675  0.00  0.00    -0.071 C 
ATOM    145  H   ILE d   1     -88.835  73.393 -15.741  0.00  0.00     0.028 H 
ATOM    146  H   ILE d   1     -88.094  72.630 -17.188  0.00  0.00     0.028 H 
ATOM    147  H   ILE d   1     -88.889  74.235 -17.326  0.00  0.00     0.028 H 
ENDBRANCH 135 144
ENDBRANCH  53 135
ENDBRANCH  50  53
ENDBRANCH  47  49
BRANCH  47 148
ATOM    148  CB  THR d   1     -88.007  73.694 -11.152  0.00  0.00     0.060 C 
ATOM    149  H   THR d   1     -88.714  73.537 -10.324  0.00  0.00     0.086 H 
BRANCH 148 150
ATOM    150  OG1 THR d   1     -86.828  74.324 -10.667  0.00  0.00    -0.393 OA
ATOM    151  H   THR d   1     -86.426  73.774 -10.005  0.00  0.00     0.210 HD
ENDBRANCH 148 150
BRANCH 148 152
ATOM    152  CG2 THR d   1     -87.635  72.374 -11.759  0.00  0.00    -0.050 C 
ATOM    153  H   THR d   1     -87.172  71.735 -10.992  0.00  0.00     0.031 H 
ATOM    154  H   THR d   1     -86.922  72.536 -12.580  0.00  0.00     0.031 H 
ATOM    155  H   THR d   1     -88.538  71.882 -12.149  0.00  0.00     0.031 H 
ENDBRANCH 148 152
ENDBRANCH  47 148
ENDBRANCH  44  47
ENDBRANCH  41  43
BRANCH  41 156
ATOM    156  CB  ASN d   1     -87.953  79.296 -11.430  0.00  0.00     0.036 C 
ATOM    157  H   ASN d   1     -87.660  79.434 -12.481  0.00  0.00     0.051 H 
ATOM    158  H   ASN d   1     -87.082  78.960 -10.848  0.00  0.00     0.051 H 
BRANCH 156 159
ATOM    159  CG  ASN d   1     -88.426  80.612 -10.881  0.00  0.00     0.217 C 
ATOM    160  OD1 ASN d   1     -88.619  80.754  -9.674  0.00  0.00    -0.274 OA
ATOM    161  ND2 ASN d   1     -88.652  81.578 -11.763  0.00  0.00    -0.370 N 
ATOM    162  H   ASN d   1     -88.968  82.475 -11.453  0.00  0.00     0.159 HD
ATOM    163  H   ASN d   1     -88.506  81.409 -12.738  0.00  0.00     0.159 HD
ENDBRANCH 156 159
ENDBRANCH  41 156
ENDBRANCH  38  41
ENDBRANCH   7  37
BRANCH   7 164
ATOM    164  CB2 DIV d   1     -90.735  78.417 -15.811  0.00  0.00    -0.044 C 
ATOM    165  H   DIV d   1     -91.531  78.602 -16.547  0.00  0.00     0.031 H 
ATOM    166  H   DIV d   1     -90.437  77.359 -15.851  0.00  0.00     0.031 H 
ATOM    167  H   DIV d   1     -89.867  79.052 -16.043  0.00  0.00     0.031 H 
ENDBRANCH   7 164
BRANCH  17 168
ATOM    168  CB  LEU d   1     -92.612  74.149 -13.162  0.00  0.00    -0.035 C 
ATOM    169  H   LEU d   1     -93.357  73.528 -12.642  0.00  0.00     0.037 H 
ATOM    170  H   LEU d   1     -91.692  74.199 -12.561  0.00  0.00     0.037 H 
BRANCH 168 171
ATOM    171  CG  LEU d   1     -92.277  73.479 -14.502  0.00  0.00    -0.059 C 
ATOM    172  H   LEU d   1     -91.554  74.134 -15.011  0.00  0.00     0.038 H 
BRANCH 171 173
ATOM    173  CD1 LEU d   1     -91.609  72.184 -14.313  0.00  0.00    -0.073 C 
ATOM    174  H   LEU d   1     -91.387  71.739 -15.294  0.00  0.00     0.028 H 
ATOM    175  H   LEU d   1     -92.268  71.511 -13.746  0.00  0.00     0.028 H 
ATOM    176  H   LEU d   1     -90.671  72.333 -13.758  0.00  0.00     0.028 H 
ENDBRANCH 171 173
BRANCH 171 177
ATOM    177  CD2 LEU d   1     -93.484  73.386 -15.406  0.00  0.00    -0.073 C 
ATOM    178  H   LEU d   1     -93.941  74.381 -15.510  0.00  0.00     0.028 H 
ATOM    179  H   LEU d   1     -94.216  72.690 -14.970  0.00  0.00     0.028 H 
ATOM    180  H   LEU d   1     -93.174  73.019 -16.396  0.00  0.00     0.028 H 
ENDBRANCH 171 177
ENDBRANCH 168 171
ENDBRANCH  17 168
BRANCH   2 181
ATOM    181  CB  TRP d   1     -92.465  77.108  -8.576  0.00  0.00    -0.012 C 
ATOM    182  H   TRP d   1     -91.740  77.786  -9.049  0.00  0.00     0.044 H 
ATOM    183  H   TRP d   1     -91.980  76.144  -8.362  0.00  0.00     0.044 H 
BRANCH 181 184
ATOM    184  CG  TRP d   1     -92.848  77.732  -7.218  0.00  0.00    -0.028 A 
ATOM    185  CD1 TRP d   1     -93.360  77.108  -6.080  0.00  0.00    -0.015 A 
ATOM    186  NE1 TRP d   1     -93.538  78.042  -5.129  0.00  0.00    -0.365 N 
ATOM    187  H   TRP d   1     -93.578  76.046  -5.979  0.00  0.00     0.112 H 
ATOM    188  CE2 TRP d   1     -93.165  79.251  -5.615  0.00  0.00     0.042 A 
ATOM    189  H   TRP d   1     -93.900  77.866  -4.181  0.00  0.00     0.165 HD
ATOM    190  CD2 TRP d   1     -92.725  79.093  -6.922  0.00  0.00    -0.002 A 
ATOM    191  CZ2 TRP d   1     -93.152  80.534  -5.055  0.00  0.00    -0.056 A 
ATOM    192  CE3 TRP d   1     -92.274  80.188  -7.670  0.00  0.00    -0.070 A 
ATOM    193  CZ3 TRP d   1     -92.257  81.462  -7.109  0.00  0.00    -0.082 A 
ATOM    194  H   TRP d   1     -91.937  80.043  -8.690  0.00  0.00     0.084 H 
ATOM    195  CH2 TRP d   1     -92.699  81.625  -5.798  0.00  0.00    -0.081 A 
ATOM    196  H   TRP d   1     -91.906  82.312  -7.682  0.00  0.00     0.083 H 
ATOM    197  H   TRP d   1     -92.691  82.612  -5.349  0.00  0.00     0.083 H 
ATOM    198  H   TRP d   1     -93.496  80.681  -4.038  0.00  0.00     0.086 H 
ENDBRANCH 181 184
ENDBRANCH   2 181
BRANCH  23 199
ATOM    199  C   MK8 d   1     -96.032  79.909 -11.577  0.00  0.00     0.246 C 
ATOM    200  O   MK8 d   1     -97.063  80.366 -11.169  0.00  0.00    -0.271 OA
ATOM    201  N   ILE d   1     -96.088  78.928 -12.657  0.00  0.00    -0.345 N 
ATOM    202  H   ILE d   1     -95.258  78.513 -13.030  0.00  0.00     0.163 HD
BRANCH 201 203
ATOM    203  CA  ILE d   1     -97.442  78.572 -13.179  0.00  0.00     0.092 C 
ATOM    204  H   ILE d   1     -97.964  79.504 -13.443  0.00  0.00     0.088 H 
BRANCH 203 205
ATOM    205  C   ILE d   1     -98.340  77.834 -12.136  0.00  0.00     0.241 C 
ATOM    206  O   ILE d   1     -99.468  78.178 -11.982  0.00  0.00    -0.271 OA
ATOM    207  N   LYV d   1     -97.801  76.732 -11.399  0.00  0.00    -0.346 N 
ATOM    208  H   LYV d   1     -96.849  76.463 -11.547  0.00  0.00     0.163 HD
BRANCH 207 209
ATOM    209  CA  LYV d   1     -98.606  75.996 -10.441  0.00  0.00     0.091 C 
ATOM    210  H   LYV d   1     -99.489  75.557 -10.928  0.00  0.00     0.087 H 
BRANCH 209 211
ATOM    211  C   LYV d   1     -99.105  76.979  -9.410  0.00  0.00     0.241 C 
ATOM    212  O   LYV d   1    -100.206  76.811  -8.931  0.00  0.00    -0.271 OA
ATOM    213  N   LYS d   1     -98.347  78.195  -8.949  0.00  0.00    -0.346 N 
ATOM    214  H   LYS d   1     -97.444  78.391  -9.332  0.00  0.00     0.163 HD
BRANCH 213 215
ATOM    215  CA  LYS d   1     -98.917  79.089  -7.949  0.00  0.00     0.089 C 
ATOM    216  H   LYS d   1     -99.341  78.462  -7.151  0.00  0.00     0.087 H 
BRANCH 215 217
ATOM    217  C   LYS d   1    -100.035  79.953  -8.552  0.00  0.00     0.241 C 
ATOM    218  O   LYS d   1    -100.991  80.338  -7.833  0.00  0.00    -0.271 OA
ATOM    219  N   LYS d   1    -100.077  80.375  -9.968  0.00  0.00    -0.346 N 
ATOM    220  H   LYS d   1     -99.340  80.082 -10.576  0.00  0.00     0.163 HD
BRANCH 219 221
ATOM    221  CA  LYS d   1    -101.145  81.199 -10.516  0.00  0.00     0.089 C 
ATOM    222  H   LYS d   1    -101.478  81.902  -9.738  0.00  0.00     0.087 H 
BRANCH 221 223
ATOM    223  C   LYS d   1    -102.272  80.203 -10.847  0.00  0.00     0.241 C 
ATOM    224  O   LYS d   1    -103.373  80.632 -11.211  0.00  0.00    -0.271 OA
ATOM    225  N   LYS d   1    -101.965  78.713 -10.692  0.00  0.00    -0.345 N 
ATOM    226  H   LYS d   1    -101.050  78.465 -10.375  0.00  0.00     0.163 HD
BRANCH 225 227
ATOM    227  CA  LYS d   1    -102.913  77.602 -10.973  0.00  0.00     0.096 C 
ATOM    228  H   LYS d   1    -102.523  76.731 -10.425  0.00  0.00     0.089 H 
BRANCH 227 229
ATOM    229  C   LYS d   1    -102.910  77.208 -12.467  0.00  0.00     0.196 C 
ATOM    230  O   LYS d   1    -103.349  77.991 -13.334  0.00  0.00    -0.646 OA
ATOM    231  OXT LYS d   1    -102.449  76.118 -12.849  0.00  0.00    -0.646 OA
ENDBRANCH 227 229
BRANCH 227 232
ATOM    232  CB  LYS d   1    -104.368  77.833 -10.425  0.00  0.00    -0.037 C 
ATOM    233  H   LYS d   1    -104.877  76.859 -10.459  0.00  0.00     0.036 H 
ATOM    234  H   LYS d   1    -104.861  78.528 -11.120  0.00  0.00     0.036 H 
BRANCH 232 235
ATOM    235  CG  LYS d   1    -104.578  78.384  -9.039  0.00  0.00    -0.061 C 
ATOM    236  H   LYS d   1    -103.683  78.969  -8.781  0.00  0.00     0.033 H 
ATOM    237  H   LYS d   1    -104.665  77.526  -8.356  0.00  0.00     0.033 H 
BRANCH 235 238
ATOM    238  CD  LYS d   1    -105.791  79.280  -8.800  0.00  0.00    -0.043 C 
ATOM    239  H   LYS d   1    -106.104  79.669  -9.780  0.00  0.00     0.035 H 
ATOM    240  H   LYS d   1    -105.457  80.114  -8.165  0.00  0.00     0.035 H 
BRANCH 238 241
ATOM    241  CE  LYS d   1    -107.018  78.685  -8.145  0.00  0.00     0.080 C 
ATOM    242  H   LYS d   1    -106.708  78.311  -7.158  0.00  0.00     0.075 H 
ATOM    243  H   LYS d   1    -107.341  77.841  -8.772  0.00  0.00     0.075 H 
BRANCH 241 244
ATOM    244  NZ  LYS d   1    -108.185  79.532  -7.933  0.00  0.00    -0.079 N 
ATOM    245  H   LYS d   1    -108.914  78.995  -7.490  0.00  0.00     0.274 HD
ATOM    246  H   LYS d   1    -108.514  79.878  -8.820  0.00  0.00     0.274 HD
ATOM    247  H   LYS d   1    -107.934  80.308  -7.341  0.00  0.00     0.274 HD
ENDBRANCH 241 244
ENDBRANCH 238 241
ENDBRANCH 235 238
ENDBRANCH 232 235
ENDBRANCH 227 232
ENDBRANCH 225 227
ENDBRANCH 221 223
BRANCH 221 248
ATOM    248  CB  LYS d   1    -100.820  82.002 -11.747  0.00  0.00    -0.038 C 
ATOM    249  H   LYS d   1    -101.477  82.884 -11.733  0.00  0.00     0.036 H 
ATOM    250  H   LYS d   1    -101.071  81.372 -12.613  0.00  0.00     0.036 H 
BRANCH 248 251
ATOM    251  CG  LYS d   1     -99.379  82.521 -11.975  0.00  0.00    -0.061 C 
ATOM    252  H   LYS d   1     -98.984  82.017 -12.869  0.00  0.00     0.033 H 
ATOM    253  H   LYS d   1     -98.781  82.233 -11.098  0.00  0.00     0.033 H 
BRANCH 251 254
ATOM    254  CD  LYS d   1     -99.197  84.038 -12.181  0.00  0.00    -0.043 C 
ATOM    255  H   LYS d   1    -100.195  84.464 -12.364  0.00  0.00     0.035 H 
ATOM    256  H   LYS d   1     -98.571  84.172 -13.076  0.00  0.00     0.035 H 
BRANCH 254 257
ATOM    257  CE  LYS d   1     -98.570  84.835 -11.077  0.00  0.00     0.080 C 
ATOM    258  H   LYS d   1     -98.800  84.329 -10.128  0.00  0.00     0.075 H 
ATOM    259  H   LYS d   1     -99.033  85.833 -11.082  0.00  0.00     0.075 H 
BRANCH 257 260
ATOM    260  NZ  LYS d   1     -97.109  85.021 -11.140  0.00  0.00    -0.079 N 
ATOM    261  H   LYS d   1     -96.806  85.569 -10.350  0.00  0.00     0.274 HD
ATOM    262  H   LYS d   1     -96.868  85.500 -11.993  0.00  0.00     0.274 HD
ATOM    263  H   LYS d   1     -96.654  84.121 -11.119  0.00  0.00     0.274 HD
ENDBRANCH 257 260
ENDBRANCH 254 257
ENDBRANCH 251 254
ENDBRANCH 248 251
ENDBRANCH 221 248
ENDBRANCH 219 221
ENDBRANCH 215 217
BRANCH 215 264
ATOM    264  CB  LYS d   1     -97.915  80.050  -7.321  0.00  0.00    -0.038 C 
ATOM    265  H   LYS d   1     -98.147  81.050  -7.717  0.00  0.00     0.036 H 
ATOM    266  H   LYS d   1     -96.919  79.739  -7.670  0.00  0.00     0.036 H 
BRANCH 264 267
ATOM    267  CG  LYS d   1     -97.824  80.189  -5.825  0.00  0.00    -0.061 C 
ATOM    268  H   LYS d   1     -98.856  80.288  -5.458  0.00  0.00     0.033 H 
ATOM    269  H   LYS d   1     -97.275  81.123  -5.632  0.00  0.00     0.033 H 
BRANCH 267 270
ATOM    270  CD  LYS d   1     -97.143  79.083  -4.941  0.00  0.00    -0.043 C 
ATOM    271  H   LYS d   1     -96.054  79.207  -5.033  0.00  0.00     0.035 H 
ATOM    272  H   LYS d   1     -97.436  78.104  -5.349  0.00  0.00     0.035 H 
BRANCH 270 273
ATOM    273  CE  LYS d   1     -97.492  79.083  -3.412  0.00  0.00     0.080 C 
ATOM    274  H   LYS d   1     -98.276  79.840  -3.261  0.00  0.00     0.075 H 
ATOM    275  H   LYS d   1     -96.582  79.386  -2.874  0.00  0.00     0.075 H 
BRANCH 273 276
ATOM    276  NZ  LYS d   1     -97.965  77.846  -2.791  0.00  0.00    -0.079 N 
ATOM    277  H   LYS d   1     -98.145  78.009  -1.813  0.00  0.00     0.274 HD
ATOM    278  H   LYS d   1     -97.262  77.131  -2.889  0.00  0.00     0.274 HD
ATOM    279  H   LYS d   1     -98.814  77.546  -3.243  0.00  0.00     0.274 HD
ENDBRANCH 273 276
ENDBRANCH 270 273
ENDBRANCH 267 270
ENDBRANCH 264 267
ENDBRANCH 215 264
ENDBRANCH 213 215
ENDBRANCH 209 211
BRANCH 209 280
ATOM    280  CB  LYV d   1     -97.684  74.871 -10.034  0.00  0.00    -0.023 C 
ATOM    281  H   LYV d   1     -96.818  75.338  -9.543  0.00  0.00     0.039 H 
ATOM    282  H   LYV d   1     -97.358  74.381 -10.963  0.00  0.00     0.039 H 
BRANCH 280 283
ATOM    283  CG  LYV d   1     -98.174  73.743  -9.088  0.00  0.00    -0.003 C 
ATOM    284  H   LYV d   1     -99.232  73.965  -8.883  0.00  0.00     0.064 H 
ATOM    285  H   LYV d   1     -97.590  73.856  -8.163  0.00  0.00     0.064 H 
BRANCH 283 286
ATOM    286  ND  LYV d   1     -98.124  72.299  -9.420  0.00  0.00    -0.360 N 
ATOM    287  CE  LYV d   1     -97.753  71.369  -8.350  0.00  0.00     0.235 C 
ATOM    288  O7  LYV d   1     -97.496  71.826  -7.243  0.00  0.00    -0.272 OA
ATOM    289  H   LYV d   1     -98.336  71.972 -10.341  0.00  0.00     0.162 HD
BRANCH 287 290
ATOM    290  CZ  LYV d   1     -97.683  69.860  -8.525  0.00  0.00     0.069 C 
ATOM    291  H   LYV d   1     -96.696  69.598  -8.933  0.00  0.00     0.078 H 
ATOM    292  H   LYV d   1     -98.466  69.551  -9.233  0.00  0.00     0.078 H 
BRANCH 290 293
ATOM    293  N1  LYV d   1     -97.881  69.122  -7.238  0.00  0.00    -0.350 N 
ATOM    294  C2  LYV d   1     -98.441  67.788  -7.009  0.00  0.00     0.250 C 
ATOM    295  OZ1 LYV d   1     -98.506  67.401  -5.822  0.00  0.00    -0.271 OA
ATOM    296  H   LYV d   1     -97.589  69.610  -6.416  0.00  0.00     0.163 HD
BRANCH 294 297
ATOM    297  C4  LYV d   1     -98.911  66.827  -8.063  0.00  0.00     0.196 C 
ATOM    298  H   LYV d   1     -99.608  66.135  -7.567  0.00  0.00     0.102 H 
BRANCH 297 299
ATOM    299  C5  LYV d   1     -97.773  66.007  -8.625  0.00  0.00     0.067 C 
ATOM    300  H   LYV d   1     -96.951  66.703  -8.847  0.00  0.00     0.079 H 
ATOM    301  H   LYV d   1     -98.132  65.553  -9.560  0.00  0.00     0.079 H 
BRANCH 299 302
ATOM    302  O1  LYV d   1     -97.242  64.980  -7.848  0.00  0.00    -0.280 OA
BRANCH 302 303
ATOM    303  P   LYV d   1     -96.063  65.214  -6.752  0.00  0.00     0.422 P 
ATOM    304  O2  LYV d   1     -94.813  64.475  -7.211  0.00  0.00    -0.617 OA
ATOM    305  O3  LYV d   1     -95.722  66.705  -6.604  0.00  0.00    -0.617 OA
ATOM    306  O4  LYV d   1     -96.498  64.659  -5.386  0.00  0.00    -0.617 OA
ENDBRANCH 302 303
ENDBRANCH 299 302
ENDBRANCH 297 299
BRANCH 297 307
ATOM    307  N6  LYV d   1     -99.634  67.447  -9.166  0.00  0.00    -0.064 N 
ATOM    308  H   LYV d   1    -100.396  67.997  -8.801  0.00  0.00     0.275 HD
ATOM    309  H   LYV d   1     -99.998  66.730  -9.774  0.00  0.00     0.275 HD
ATOM    310  H   LYV d   1     -99.008  68.043  -9.685  0.00  0.00     0.275 HD
ENDBRANCH 297 307
ENDBRANCH 294 297
ENDBRANCH 290 293
ENDBRANCH 287 290
ENDBRANCH 283 286
ENDBRANCH 280 283
ENDBRANCH 209 280
ENDBRANCH 207 209
ENDBRANCH 203 205
BRANCH 203 311
ATOM    311  CB  ILE d   1     -97.205  77.753 -14.500  0.00  0.00    -0.030 C 
ATOM    312  H   ILE d   1     -96.533  76.916 -14.257  0.00  0.00     0.043 H 
BRANCH 311 313
ATOM    313  CG1 ILE d   1     -96.585  78.518 -15.551  0.00  0.00    -0.063 C 
ATOM    314  H   ILE d   1     -95.965  79.299 -15.085  0.00  0.00     0.033 H 
ATOM    315  H   ILE d   1     -97.381  78.989 -16.146  0.00  0.00     0.033 H 
BRANCH 313 316
ATOM    316  CD1 ILE d   1     -95.737  77.746 -16.457  0.00  0.00    -0.076 C 
ATOM    317  H   ILE d   1     -95.312  78.415 -17.220  0.00  0.00     0.027 H 
ATOM    318  H   ILE d   1     -96.338  76.966 -16.947  0.00  0.00     0.027 H 
ATOM    319  H   ILE d   1     -94.923  77.276 -15.886  0.00  0.00     0.027 H 
ENDBRANCH 313 316
ENDBRANCH 311 313
BRANCH 311 320
ATOM    320  CG2 ILE d   1     -98.506  77.190 -14.981  0.00  0.00    -0.071 C 
ATOM    321  H   ILE d   1     -98.974  76.607 -14.174  0.00  0.00     0.028 H 
ATOM    322  H   ILE d   1     -98.325  76.537 -15.847  0.00  0.00     0.028 H 
ATOM    323  H   ILE d   1     -99.175  78.012 -15.275  0.00  0.00     0.028 H 
ENDBRANCH 311 320
ENDBRANCH 203 311
ENDBRANCH 201 203
ENDBRANCH  23 199
BRANCH  23 324
ATOM    324  CB1 MK8 d   1     -95.096  81.150  -9.693  0.00  0.00    -0.044 C 
ATOM    325  H   MK8 d   1     -95.602  82.077 -10.001  0.00  0.00     0.031 H 
ATOM    326  H   MK8 d   1     -94.197  81.399  -9.110  0.00  0.00     0.031 H 
ATOM    327  H   MK8 d   1     -95.778  80.547  -9.076  0.00  0.00     0.031 H 
ENDBRANCH  23 324
TORSDOF 81
