REMARK  16 active torsions:
REMARK  status: ('A' for Active; 'I' for Inactive)
REMARK    1  A    between atoms: C51_7  and  C50_8 
REMARK    2  A    between atoms: C50_8  and  N2_9 
REMARK    3  A    between atoms: N2_9  and  C11_10 
REMARK       I    between atoms: N2_9  and  C12_31 
REMARK    4  A    between atoms: C11_10  and  C10_11 
REMARK    5  A    between atoms: C10_11  and  C9_12 
REMARK    6  A    between atoms: C9_12  and  C8_13 
REMARK    7  A    between atoms: C8_13  and  C1_14 
REMARK    8  A    between atoms: C1_14  and  N_15 
REMARK    9  A    between atoms: C1_14  and  C_28 
REMARK       I    between atoms: N_15  and  C2_16 
REMARK       I    between atoms: C2_16  and  N1_18 
REMARK   10  A    between atoms: N1_18  and  C3_19 
REMARK   11  A    between atoms: C3_19  and  C7_20 
REMARK   12  A    between atoms: C3_19  and  C4_23 
REMARK   13  A    between atoms: C4_23  and  C5_24 
REMARK   14  A    between atoms: C5_24  and  C6_25 
REMARK   15  A    between atoms: C12_31  and  C13_33 
REMARK   16  A    between atoms: C13_33  and  C14_34 
ROOT
ATOM      1  C9  J37 d   1     -22.154 -19.693 -43.346  0.00  0.00    -0.061 C 
ATOM      2  H   J37 d   1     -22.397 -19.687 -44.419  0.00  0.00     0.033 H 
ATOM      3  H   J37 d   1     -22.459 -20.654 -42.907  0.00  0.00     0.033 H 
ENDROOT
BRANCH   1   4
ATOM      4  C10 J37 d   1     -22.934 -18.565 -42.656  0.00  0.00    -0.050 C 
ATOM      5  H   J37 d   1     -24.010 -18.792 -42.690  0.00  0.00     0.035 H 
ATOM      6  H   J37 d   1     -22.609 -18.486 -41.608  0.00  0.00     0.035 H 
BRANCH   4   7
ATOM      7  C11 J37 d   1     -22.667 -17.204 -43.387  0.00  0.00    -0.002 C 
ATOM      8  H   J37 d   1     -21.942 -16.640 -42.782  0.00  0.00     0.064 H 
ATOM      9  H   J37 d   1     -22.224 -17.436 -44.367  0.00  0.00     0.064 H 
BRANCH   7  10
ATOM     10  N2  J37 d   1     -23.826 -16.325 -43.622  0.00  0.00    -0.348 N 
ATOM     11  C12 J37 d   1     -25.109 -16.546 -43.281  0.00  0.00     0.219 C 
ATOM     12  O21 J37 d   1     -25.991 -16.154 -44.019  0.00  0.00    -0.273 OA
BRANCH  10  13
ATOM     13  C50 J37 d   1     -23.501 -15.079 -44.332  0.00  0.00     0.021 C 
ATOM     14  H   J37 d   1     -24.213 -14.296 -44.033  0.00  0.00     0.071 H 
ATOM     15  H   J37 d   1     -22.480 -14.767 -44.067  0.00  0.00     0.071 H 
BRANCH  13  16
ATOM     16  C51 J37 d   1     -23.587 -15.288 -45.843  0.00  0.00    -0.040 A 
ATOM     17  C52 J37 d   1     -23.863 -16.513 -46.474  0.00  0.00    -0.074 A 
ATOM     18  C53 J37 d   1     -23.925 -16.600 -47.882  0.00  0.00    -0.066 A 
ATOM     19  H   J37 d   1     -24.030 -17.400 -45.874  0.00  0.00     0.084 H 
ATOM     20  C54 J37 d   1     -23.708 -15.487 -48.701  0.00  0.00     0.011 A 
ATOM     21  H   J37 d   1     -24.147 -17.556 -48.341  0.00  0.00     0.085 H 
ATOM     22 BR   J37 d   1     -23.700 -15.512 -50.633  0.00  0.00    -0.051 Br
ATOM     23  C55 J37 d   1     -23.453 -14.306 -48.060  0.00  0.00    -0.066 A 
ATOM     24  C56 J37 d   1     -23.389 -14.191 -46.681  0.00  0.00    -0.074 A 
ATOM     25  H   J37 d   1     -23.293 -13.417 -48.660  0.00  0.00     0.085 H 
ATOM     26  H   J37 d   1     -23.179 -13.223 -46.242  0.00  0.00     0.084 H 
ENDBRANCH  13  16
ENDBRANCH  10  13
BRANCH  11  27
ATOM     27  C13 J37 d   1     -25.503 -17.242 -41.979  0.00  0.00     0.006 C 
ATOM     28  H   J37 d   1     -24.657 -17.861 -41.647  0.00  0.00     0.046 H 
ATOM     29  H   J37 d   1     -26.372 -17.886 -42.179  0.00  0.00     0.046 H 
BRANCH  27  30
ATOM     30  C14 J37 d   1     -25.845 -16.338 -40.921  0.00  0.00    -0.068 C 
ATOM     31  H   J37 d   1     -26.116 -16.911 -40.022  0.00  0.00     0.028 H 
ATOM     32  H   J37 d   1     -26.699 -15.717 -41.231  0.00  0.00     0.028 H 
ATOM     33  H   J37 d   1     -24.983 -15.692 -40.698  0.00  0.00     0.028 H 
ENDBRANCH  27  30
ENDBRANCH  11  27
ENDBRANCH   7  10
ENDBRANCH   4   7
ENDBRANCH   1   4
BRANCH   1  34
ATOM     34  C8  J37 d   1     -20.680 -19.540 -43.188  0.00  0.00    -0.036 C 
ATOM     35  H   J37 d   1     -20.404 -20.018 -42.237  0.00  0.00     0.036 H 
ATOM     36  H   J37 d   1     -20.469 -18.462 -43.131  0.00  0.00     0.036 H 
BRANCH  34  37
ATOM     37  C1  J37 d   1     -19.763 -20.125 -44.273  0.00  0.00     0.098 C 
ATOM     38  H   J37 d   1     -19.886 -21.212 -44.390  0.00  0.00     0.089 H 
BRANCH  37  39
ATOM     39  N   J37 d   1     -18.485 -19.796 -43.683  0.00  0.00    -0.329 N 
ATOM     40  C2  J37 d   1     -17.855 -20.621 -42.835  0.00  0.00     0.317 C 
ATOM     41  O6  J37 d   1     -18.364 -21.654 -42.399  0.00  0.00    -0.247 OA
ATOM     42  N1  J37 d   1     -16.669 -20.226 -42.433  0.00  0.00    -0.329 N 
ATOM     43  H   J37 d   1     -16.182 -19.554 -42.990  0.00  0.00     0.165 HD
ATOM     44  H   J37 d   1     -18.056 -18.923 -43.916  0.00  0.00     0.165 HD
BRANCH  42  45
ATOM     45  C3  J37 d   1     -16.040 -20.699 -41.253  0.00  0.00     0.098 C 
ATOM     46  H   J37 d   1     -15.809 -21.769 -41.364  0.00  0.00     0.089 H 
BRANCH  45  47
ATOM     47  C7  J37 d   1     -17.013 -20.494 -40.173  0.00  0.00     0.196 C 
ATOM     48  O5  J37 d   1     -17.890 -19.586 -40.196  0.00  0.00    -0.646 OA
ATOM     49  O4  J37 d   1     -16.883 -21.359 -39.197  0.00  0.00    -0.646 OA
ENDBRANCH  45  47
BRANCH  45  50
ATOM     50  C4  J37 d   1     -14.757 -19.951 -40.908  0.00  0.00    -0.028 C 
ATOM     51  H   J37 d   1     -13.969 -20.244 -41.617  0.00  0.00     0.037 H 
ATOM     52  H   J37 d   1     -14.449 -20.219 -39.887  0.00  0.00     0.037 H 
BRANCH  50  53
ATOM     53  C5  J37 d   1     -14.966 -18.409 -40.988  0.00  0.00     0.018 C 
ATOM     54  H   J37 d   1     -15.939 -18.162 -40.537  0.00  0.00     0.049 H 
ATOM     55  H   J37 d   1     -14.965 -18.109 -42.046  0.00  0.00     0.049 H 
BRANCH  53  56
ATOM     56  C6  J37 d   1     -13.882 -17.628 -40.261  0.00  0.00     0.172 C 
ATOM     57  O3  J37 d   1     -13.734 -16.405 -40.423  0.00  0.00    -0.648 OA
ATOM     58  O2  J37 d   1     -13.058 -18.245 -39.435  0.00  0.00    -0.648 OA
ENDBRANCH  53  56
ENDBRANCH  50  53
ENDBRANCH  45  50
ENDBRANCH  42  45
ENDBRANCH  37  39
BRANCH  37  59
ATOM     59  C   J37 d   1     -20.037 -19.444 -45.590  0.00  0.00     0.196 C 
ATOM     60  O1  J37 d   1     -19.568 -18.238 -45.787  0.00  0.00    -0.646 OA
ATOM     61  O   J37 d   1     -20.780 -19.903 -46.428  0.00  0.00    -0.646 OA
ENDBRANCH  37  59
ENDBRANCH  34  37
ENDBRANCH   1  34
TORSDOF 16
