REMARK  18 active torsions:
REMARK  status: ('A' for Active; 'I' for Inactive)
REMARK    1  A    between atoms: C1_1  and  C2_2 
REMARK    2  A    between atoms: N_35  and  C1_1 
REMARK    3  A    between atoms: C1_1  and  C_36 
REMARK    4  A    between atoms: C2_2  and  C3_3 
REMARK    5  A    between atoms: C3_3  and  C4_4 
REMARK       I    between atoms: N1_33  and  C5_5 
REMARK       I    between atoms: C5_5  and  N_35 
REMARK    6  A    between atoms: C8_29  and  C6_6 
REMARK    7  A    between atoms: C6_6  and  C7_30 
REMARK    8  A    between atoms: C6_6  and  N1_33 
REMARK    9  A    between atoms: C21_10  and  C22_11 
REMARK       I    between atoms: N3_12  and  C21_10 
REMARK   10  A    between atoms: C20_13  and  N3_12 
REMARK   11  A    between atoms: C19_14  and  C20_13 
REMARK   12  A    between atoms: O8_15  and  C19_14 
REMARK   13  A    between atoms: C18_16  and  O8_15 
REMARK   14  A    between atoms: C12_23  and  C13_22 
REMARK       I    between atoms: N2_25  and  C12_23 
REMARK   15  A    between atoms: C11_26  and  N2_25 
REMARK   16  A    between atoms: C10_27  and  C11_26 
REMARK   17  A    between atoms: C9_28  and  C10_27 
REMARK   18  A    between atoms: C9_28  and  C8_29 
ROOT
ATOM      1  C10 J21 d   1     -23.159 -18.587 -42.401  0.00  0.00    -0.050 C 
ATOM      2  H   J21 d   1     -24.087 -19.084 -42.083  0.00  0.00     0.035 H 
ATOM      3  H   J21 d   1     -22.597 -18.258 -41.514  0.00  0.00     0.035 H 
ENDROOT
BRANCH   1   4
ATOM      4  C11 J21 d   1     -23.478 -17.382 -43.317  0.00  0.00    -0.004 C 
ATOM      5  H   J21 d   1     -22.537 -17.058 -43.785  0.00  0.00     0.064 H 
ATOM      6  H   J21 d   1     -24.175 -17.727 -44.095  0.00  0.00     0.064 H 
BRANCH   4   7
ATOM      7  N2  J21 d   1     -24.077 -16.216 -42.668  0.00  0.00    -0.357 N 
ATOM      8  C12 J21 d   1     -24.278 -15.033 -43.279  0.00  0.00     0.254 C 
ATOM      9  O7  J21 d   1     -24.008 -14.793 -44.470  0.00  0.00    -0.268 OA
ATOM     10  H   J21 d   1     -24.355 -16.303 -41.711  0.00  0.00     0.162 HD
BRANCH   8  11
ATOM     11  C13 J21 d   1     -24.872 -13.928 -42.466  0.00  0.00     0.065 A 
ATOM     12  C18 J21 d   1     -25.317 -14.156 -41.155  0.00  0.00     0.085 A 
ATOM     13  C17 J21 d   1     -25.826 -13.050 -40.467  0.00  0.00    -0.033 A 
ATOM     14  C16 J21 d   1     -25.873 -11.788 -41.092  0.00  0.00     0.013 A 
ATOM     15  H   J21 d   1     -26.185 -13.164 -39.451  0.00  0.00     0.089 H 
ATOM     16 BR   J21 d   1     -26.655 -10.374 -40.115  0.00  0.00    -0.051 Br
ATOM     17  C15 J21 d   1     -25.403 -11.553 -42.375  0.00  0.00    -0.065 A 
ATOM     18  C14 J21 d   1     -24.911 -12.638 -43.051  0.00  0.00    -0.064 A 
ATOM     19  H   J21 d   1     -25.424 -10.564 -42.819  0.00  0.00     0.085 H 
ATOM     20  H   J21 d   1     -24.541 -12.506 -44.061  0.00  0.00     0.085 H 
BRANCH  12  21
ATOM     21  O8  J21 d   1     -25.271 -15.420 -40.548  0.00  0.00    -0.348 OA
BRANCH  21  22
ATOM     22  C19 J21 d   1     -25.703 -15.651 -39.173  0.00  0.00     0.041 C 
ATOM     23  H   J21 d   1     -25.208 -14.902 -38.538  0.00  0.00     0.077 H 
ATOM     24  H   J21 d   1     -26.792 -15.501 -39.136  0.00  0.00     0.077 H 
BRANCH  22  25
ATOM     25  C20 J21 d   1     -25.403 -17.037 -38.579  0.00  0.00     0.015 C 
ATOM     26  H   J21 d   1     -24.377 -17.006 -38.183  0.00  0.00     0.067 H 
ATOM     27  H   J21 d   1     -26.111 -17.197 -37.752  0.00  0.00     0.067 H 
BRANCH  25  28
ATOM     28  N3  J21 d   1     -25.494 -18.216 -39.468  0.00  0.00    -0.359 N 
ATOM     29  C21 J21 d   1     -25.291 -19.499 -39.032  0.00  0.00     0.213 C 
ATOM     30  O9  J21 d   1     -24.989 -19.774 -37.885  0.00  0.00    -0.274 OA
ATOM     31  H   J21 d   1     -25.714 -18.070 -40.432  0.00  0.00     0.162 HD
BRANCH  29  32
ATOM     32  C22 J21 d   1     -25.469 -20.644 -39.991  0.00  0.00    -0.003 C 
ATOM     33  H   J21 d   1     -25.738 -20.253 -40.983  0.00  0.00     0.040 H 
ATOM     34  H   J21 d   1     -26.269 -21.305 -39.628  0.00  0.00     0.040 H 
ATOM     35  H   J21 d   1     -24.529 -21.211 -40.063  0.00  0.00     0.040 H 
ENDBRANCH  29  32
ENDBRANCH  25  28
ENDBRANCH  22  25
ENDBRANCH  21  22
ENDBRANCH  12  21
ENDBRANCH   8  11
ENDBRANCH   4   7
ENDBRANCH   1   4
BRANCH   1  36
ATOM     36  C9  J21 d   1     -22.308 -19.535 -43.252  0.00  0.00    -0.061 C 
ATOM     37  H   J21 d   1     -22.541 -19.356 -44.312  0.00  0.00     0.033 H 
ATOM     38  H   J21 d   1     -22.570 -20.570 -42.989  0.00  0.00     0.033 H 
BRANCH  36  39
ATOM     39  C8  J21 d   1     -20.813 -19.349 -43.048  0.00  0.00    -0.036 C 
ATOM     40  H   J21 d   1     -20.594 -18.271 -43.078  0.00  0.00     0.036 H 
ATOM     41  H   J21 d   1     -20.549 -19.750 -42.058  0.00  0.00     0.036 H 
BRANCH  39  42
ATOM     42  C6  J21 d   1     -19.942 -20.040 -44.088  0.00  0.00     0.098 C 
ATOM     43  H   J21 d   1     -20.164 -21.117 -44.108  0.00  0.00     0.089 H 
BRANCH  42  44
ATOM     44  C7  J21 d   1     -20.150 -19.471 -45.442  0.00  0.00     0.196 C 
ATOM     45  O6  J21 d   1     -19.687 -18.258 -45.698  0.00  0.00    -0.646 OA
ATOM     46  O5  J21 d   1     -20.708 -20.071 -46.306  0.00  0.00    -0.646 OA
ENDBRANCH  42  44
BRANCH  42  47
ATOM     47  N1  J21 d   1     -18.602 -19.818 -43.686  0.00  0.00    -0.329 N 
ATOM     48  C5  J21 d   1     -17.914 -20.564 -42.833  0.00  0.00     0.317 C 
ATOM     49  O4  J21 d   1     -18.351 -21.625 -42.320  0.00  0.00    -0.247 OA
ATOM     50  N   J21 d   1     -16.700 -20.123 -42.483  0.00  0.00    -0.329 N 
ATOM     51  H   J21 d   1     -16.234 -19.438 -43.043  0.00  0.00     0.165 HD
ATOM     52  H   J21 d   1     -18.133 -19.028 -44.081  0.00  0.00     0.165 HD
BRANCH  50  53
ATOM     53  C1  J21 d   1     -16.055 -20.649 -41.272  0.00  0.00     0.098 C 
ATOM     54  H   J21 d   1     -15.829 -21.715 -41.426  0.00  0.00     0.089 H 
BRANCH  53  55
ATOM     55  C2  J21 d   1     -14.757 -19.910 -40.844  0.00  0.00    -0.028 C 
ATOM     56  H   J21 d   1     -13.966 -20.111 -41.581  0.00  0.00     0.037 H 
ATOM     57  H   J21 d   1     -14.440 -20.276 -39.856  0.00  0.00     0.037 H 
BRANCH  55  58
ATOM     58  C3  J21 d   1     -15.005 -18.393 -40.767  0.00  0.00     0.018 C 
ATOM     59  H   J21 d   1     -15.919 -18.216 -40.181  0.00  0.00     0.049 H 
ATOM     60  H   J21 d   1     -15.144 -18.008 -41.788  0.00  0.00     0.049 H 
BRANCH  58  61
ATOM     61  C4  J21 d   1     -13.853 -17.633 -40.113  0.00  0.00     0.172 C 
ATOM     62  O2  J21 d   1     -13.702 -16.405 -40.320  0.00  0.00    -0.648 OA
ATOM     63  O3  J21 d   1     -12.994 -18.255 -39.316  0.00  0.00    -0.648 OA
ENDBRANCH  58  61
ENDBRANCH  55  58
ENDBRANCH  53  55
BRANCH  53  64
ATOM     64  C   J21 d   1     -17.022 -20.468 -40.124  0.00  0.00     0.196 C 
ATOM     65  O1  J21 d   1     -17.897 -19.549 -40.067  0.00  0.00    -0.646 OA
ATOM     66  O   J21 d   1     -16.891 -21.324 -39.109  0.00  0.00    -0.646 OA
ENDBRANCH  53  64
ENDBRANCH  50  53
ENDBRANCH  42  47
ENDBRANCH  39  42
ENDBRANCH  36  39
ENDBRANCH   1  36
TORSDOF 18
