REMARK  18 active torsions:
REMARK  status: ('A' for Active; 'I' for Inactive)
REMARK       I    between atoms: C12_2  and  N2_3 
REMARK       I    between atoms: C12_2  and  N3_25 
REMARK    1  A    between atoms: N2_3  and  C11_4 
REMARK    2  A    between atoms: C11_4  and  C10_5 
REMARK    3  A    between atoms: C10_5  and  C9_6 
REMARK    4  A    between atoms: C9_6  and  C8_7 
REMARK    5  A    between atoms: C8_7  and  C1_8 
REMARK    6  A    between atoms: C1_8  and  N_9 
REMARK    7  A    between atoms: C1_8  and  C_22 
REMARK       I    between atoms: N_9  and  C2_10 
REMARK       I    between atoms: C2_10  and  N1_12 
REMARK    8  A    between atoms: N1_12  and  C3_13 
REMARK    9  A    between atoms: C3_13  and  C7_14 
REMARK   10  A    between atoms: C3_13  and  C4_17 
REMARK   11  A    between atoms: C4_17  and  C5_18 
REMARK   12  A    between atoms: C5_18  and  C6_19 
REMARK   13  A    between atoms: N3_25  and  C13_26 
REMARK   14  A    between atoms: C18_27  and  O7_32 
REMARK   15  A    between atoms: O7_32  and  C19_33 
REMARK   16  A    between atoms: C19_33  and  C20_34 
REMARK   17  A    between atoms: C20_34  and  N4_35 
REMARK       I    between atoms: N4_35  and  C21_36 
REMARK   18  A    between atoms: C21_36  and  C22_38 
ROOT
ATOM      1  C11 J34 d   1     -26.289 -18.762 -37.983  0.00  0.00    -0.003 C 
ATOM      2  H   J34 d   1     -25.819 -19.624 -37.487  0.00  0.00     0.064 H 
ATOM      3  H   J34 d   1     -26.000 -18.747 -39.044  0.00  0.00     0.064 H 
ENDROOT
BRANCH   1   4
ATOM      4  N2  J34 d   1     -25.813 -17.536 -37.348  0.00  0.00    -0.343 N 
ATOM      5  C12 J34 d   1     -24.810 -17.489 -36.423  0.00  0.00     0.320 C 
ATOM      6  O23 J34 d   1     -24.175 -18.486 -36.078  0.00  0.00    -0.247 OA
ATOM      7  N3  J34 d   1     -24.512 -16.279 -35.912  0.00  0.00    -0.306 N 
ATOM      8  H   J34 d   1     -24.864 -15.492 -36.419  0.00  0.00     0.171 HD
ATOM      9  H   J34 d   1     -26.250 -16.675 -37.608  0.00  0.00     0.164 HD
BRANCH   7  10
ATOM     10  C13 J34 d   1     -23.789 -15.989 -34.788  0.00  0.00     0.069 A 
ATOM     11  C18 J34 d   1     -23.949 -14.726 -34.194  0.00  0.00     0.095 A 
ATOM     12  C17 J34 d   1     -23.242 -14.380 -33.045  0.00  0.00    -0.049 A 
ATOM     13  C16 J34 d   1     -22.341 -15.298 -32.504  0.00  0.00    -0.080 A 
ATOM     14  H   J34 d   1     -23.389 -13.413 -32.578  0.00  0.00     0.087 H 
ATOM     15  C15 J34 d   1     -22.154 -16.560 -33.098  0.00  0.00    -0.081 A 
ATOM     16  H   J34 d   1     -21.778 -15.036 -31.615  0.00  0.00     0.083 H 
ATOM     17  C14 J34 d   1     -22.875 -16.910 -34.238  0.00  0.00    -0.054 A 
ATOM     18  H   J34 d   1     -21.448 -17.261 -32.668  0.00  0.00     0.083 H 
ATOM     19  H   J34 d   1     -22.734 -17.882 -34.697  0.00  0.00     0.087 H 
BRANCH  11  20
ATOM     20  O7  J34 d   1     -24.839 -13.822 -34.707  0.00  0.00    -0.347 OA
BRANCH  20  21
ATOM     21  C19 J34 d   1     -24.477 -12.855 -35.690  0.00  0.00     0.041 C 
ATOM     22  H   J34 d   1     -23.942 -13.350 -36.513  0.00  0.00     0.077 H 
ATOM     23  H   J34 d   1     -23.827 -12.094 -35.235  0.00  0.00     0.077 H 
BRANCH  21  24
ATOM     24  C20 J34 d   1     -25.742 -12.190 -36.230  0.00  0.00     0.015 C 
ATOM     25  H   J34 d   1     -26.134 -11.501 -35.468  0.00  0.00     0.067 H 
ATOM     26  H   J34 d   1     -26.490 -12.968 -36.440  0.00  0.00     0.067 H 
BRANCH  24  27
ATOM     27  N4  J34 d   1     -25.488 -11.445 -37.448  0.00  0.00    -0.359 N 
ATOM     28  C21 J34 d   1     -25.011 -11.935 -38.611  0.00  0.00     0.213 C 
ATOM     29  O22 J34 d   1     -25.404 -12.977 -39.203  0.00  0.00    -0.274 OA
ATOM     30  H   J34 d   1     -25.687 -10.465 -37.423  0.00  0.00     0.162 HD
BRANCH  28  31
ATOM     31  C22 J34 d   1     -23.927 -11.039 -39.160  0.00  0.00    -0.003 C 
ATOM     32  H   J34 d   1     -23.552 -11.455 -40.107  0.00  0.00     0.040 H 
ATOM     33  H   J34 d   1     -23.102 -10.975 -38.435  0.00  0.00     0.040 H 
ATOM     34  H   J34 d   1     -24.337 -10.034 -39.338  0.00  0.00     0.040 H 
ENDBRANCH  28  31
ENDBRANCH  24  27
ENDBRANCH  21  24
ENDBRANCH  20  21
ENDBRANCH  11  20
ENDBRANCH   7  10
ENDBRANCH   1   4
BRANCH   1  35
ATOM     35  C10 J34 d   1     -27.809 -18.905 -37.887  0.00  0.00    -0.050 C 
ATOM     36  H   J34 d   1     -28.136 -19.642 -38.635  0.00  0.00     0.035 H 
ATOM     37  H   J34 d   1     -28.264 -17.929 -38.111  0.00  0.00     0.035 H 
BRANCH  35  38
ATOM     38  C9  J34 d   1     -28.300 -19.361 -36.517  0.00  0.00    -0.061 C 
ATOM     39  H   J34 d   1     -27.879 -18.714 -35.733  0.00  0.00     0.033 H 
ATOM     40  H   J34 d   1     -27.994 -20.402 -36.336  0.00  0.00     0.033 H 
BRANCH  38  41
ATOM     41  C8  J34 d   1     -29.842 -19.257 -36.515  0.00  0.00    -0.036 C 
ATOM     42  H   J34 d   1     -30.185 -19.677 -37.472  0.00  0.00     0.036 H 
ATOM     43  H   J34 d   1     -30.083 -18.184 -36.478  0.00  0.00     0.036 H 
BRANCH  41  44
ATOM     44  C1  J34 d   1     -30.694 -19.941 -35.400  0.00  0.00     0.098 C 
ATOM     45  H   J34 d   1     -30.480 -21.020 -35.378  0.00  0.00     0.089 H 
BRANCH  44  46
ATOM     46  N   J34 d   1     -32.068 -19.679 -35.757  0.00  0.00    -0.329 N 
ATOM     47  C2  J34 d   1     -32.797 -20.470 -36.557  0.00  0.00     0.317 C 
ATOM     48  O6  J34 d   1     -32.317 -21.482 -37.046  0.00  0.00    -0.247 OA
ATOM     49  N1  J34 d   1     -34.068 -20.146 -36.820  0.00  0.00    -0.329 N 
ATOM     50  H   J34 d   1     -34.595 -19.562 -36.202  0.00  0.00     0.165 HD
ATOM     51  H   J34 d   1     -32.502 -18.858 -35.385  0.00  0.00     0.165 HD
BRANCH  49  52
ATOM     52  C3  J34 d   1     -34.654 -20.679 -38.045  0.00  0.00     0.098 C 
ATOM     53  H   J34 d   1     -34.841 -21.755 -37.913  0.00  0.00     0.089 H 
BRANCH  52  54
ATOM     54  C7  J34 d   1     -33.688 -20.461 -39.198  0.00  0.00     0.196 C 
ATOM     55  O5  J34 d   1     -33.846 -21.303 -40.211  0.00  0.00    -0.646 OA
ATOM     56  O4  J34 d   1     -32.800 -19.612 -39.254  0.00  0.00    -0.646 OA
ENDBRANCH  52  54
BRANCH  52  57
ATOM     57  C4  J34 d   1     -35.985 -19.969 -38.411  0.00  0.00    -0.028 C 
ATOM     58  H   J34 d   1     -36.730 -20.154 -37.623  0.00  0.00     0.037 H 
ATOM     59  H   J34 d   1     -36.359 -20.360 -39.369  0.00  0.00     0.037 H 
BRANCH  57  60
ATOM     60  C5  J34 d   1     -35.731 -18.443 -38.537  0.00  0.00     0.018 C 
ATOM     61  H   J34 d   1     -34.821 -18.286 -39.135  0.00  0.00     0.049 H 
ATOM     62  H   J34 d   1     -35.585 -18.026 -37.530  0.00  0.00     0.049 H 
BRANCH  60  63
ATOM     63  C6  J34 d   1     -36.873 -17.717 -39.198  0.00  0.00     0.172 C 
ATOM     64  O3  J34 d   1     -37.714 -18.247 -39.958  0.00  0.00    -0.648 OA
ATOM     65  O2  J34 d   1     -36.981 -16.423 -39.004  0.00  0.00    -0.648 OA
ENDBRANCH  60  63
ENDBRANCH  57  60
ENDBRANCH  52  57
ENDBRANCH  49  52
ENDBRANCH  44  46
BRANCH  44  66
ATOM     66  C   J34 d   1     -30.510 -19.358 -34.016  0.00  0.00     0.196 C 
ATOM     67  O1  J34 d   1     -30.010 -20.014 -33.082  0.00  0.00    -0.646 OA
ATOM     68  O   J34 d   1     -31.063 -18.207 -33.773  0.00  0.00    -0.646 OA
ENDBRANCH  44  66
ENDBRANCH  41  44
ENDBRANCH  38  41
ENDBRANCH  35  38
ENDBRANCH   1  35
TORSDOF 18
