REMARK  18 active torsions:
REMARK  status: ('A' for Active; 'I' for Inactive)
REMARK       I    between atoms: C20_2  and  N4_3 
REMARK    1  A    between atoms: C20_2  and  C21_39 
REMARK    2  A    between atoms: N4_3  and  C19_4 
REMARK    3  A    between atoms: C19_4  and  C18_5 
REMARK    4  A    between atoms: C18_5  and  O8_6 
REMARK    5  A    between atoms: O8_6  and  C17_7 
REMARK    6  A    between atoms: C3_8  and  N_9 
REMARK       I    between atoms: N_9  and  C4_10 
REMARK       I    between atoms: C4_10  and  N1_12 
REMARK    7  A    between atoms: N1_12  and  C5_13 
REMARK    8  A    between atoms: C5_13  and  C6_14 
REMARK    9  A    between atoms: C6_14  and  C7_15 
REMARK   10  A    between atoms: C7_15  and  C8_16 
REMARK   11  A    between atoms: C8_16  and  C9_17 
REMARK   12  A    between atoms: C9_17  and  N2_18 
REMARK   13  A    between atoms: C9_17  and  C10_31 
REMARK       I    between atoms: N2_18  and  C11_19 
REMARK       I    between atoms: C11_19  and  N3_21 
REMARK   14  A    between atoms: N3_21  and  C12_22 
REMARK   15  A    between atoms: C12_22  and  C16_23 
REMARK   16  A    between atoms: C12_22  and  C13_26 
REMARK   17  A    between atoms: C13_26  and  C14_27 
REMARK   18  A    between atoms: C14_27  and  C15_28 
ROOT
ATOM      1  C5  J42 d   1     -24.340 -18.041 -42.878  0.00  0.00    -0.003 C 
ATOM      2  H   J42 d   1     -24.834 -18.973 -43.190  0.00  0.00     0.064 H 
ATOM      3  H   J42 d   1     -24.742 -17.721 -41.905  0.00  0.00     0.064 H 
ENDROOT
BRANCH   1   4
ATOM      4  N1  J42 d   1     -24.665 -17.006 -43.863  0.00  0.00    -0.343 N 
ATOM      5  C4  J42 d   1     -25.852 -16.980 -44.488  0.00  0.00     0.320 C 
ATOM      6  N   J42 d   1     -26.145 -15.983 -45.340  0.00  0.00    -0.306 N 
ATOM      7  O7  J42 d   1     -26.671 -17.861 -44.269  0.00  0.00    -0.247 OA
ATOM      8  H   J42 d   1     -25.483 -15.251 -45.503  0.00  0.00     0.171 HD
ATOM      9  H   J42 d   1     -23.986 -16.303 -44.074  0.00  0.00     0.164 HD
BRANCH   6  10
ATOM     10  C3  J42 d   1     -27.348 -15.973 -45.982  0.00  0.00     0.070 A 
ATOM     11  C17 J42 d   1     -27.656 -14.958 -46.899  0.00  0.00     0.096 A 
ATOM     12  C57 J42 d   1     -28.909 -15.003 -47.554  0.00  0.00    -0.032 A 
ATOM     13  C   J42 d   1     -29.840 -16.033 -47.286  0.00  0.00     0.013 A 
ATOM     14  H   J42 d   1     -29.160 -14.233 -48.275  0.00  0.00     0.089 H 
ATOM     15  C1  J42 d   1     -29.518 -17.039 -46.370  0.00  0.00    -0.064 A 
ATOM     16 BR   J42 d   1     -31.535 -16.083 -48.146  0.00  0.00    -0.051 Br
ATOM     17  C2  J42 d   1     -28.277 -17.004 -45.731  0.00  0.00    -0.053 A 
ATOM     18  H   J42 d   1     -30.222 -17.835 -46.159  0.00  0.00     0.085 H 
ATOM     19  H   J42 d   1     -28.022 -17.787 -45.026  0.00  0.00     0.087 H 
BRANCH  11  20
ATOM     20  O8  J42 d   1     -26.729 -13.951 -47.169  0.00  0.00    -0.347 OA
BRANCH  20  21
ATOM     21  C18 J42 d   1     -26.791 -12.631 -46.608  0.00  0.00     0.041 C 
ATOM     22  H   J42 d   1     -27.217 -11.945 -47.355  0.00  0.00     0.077 H 
ATOM     23  H   J42 d   1     -27.437 -12.651 -45.718  0.00  0.00     0.077 H 
BRANCH  21  24
ATOM     24  C19 J42 d   1     -25.397 -12.127 -46.203  0.00  0.00     0.015 C 
ATOM     25  H   J42 d   1     -24.684 -12.960 -46.288  0.00  0.00     0.067 H 
ATOM     26  H   J42 d   1     -25.102 -11.320 -46.890  0.00  0.00     0.067 H 
BRANCH  24  27
ATOM     27  N4  J42 d   1     -25.356 -11.611 -44.826  0.00  0.00    -0.359 N 
ATOM     28  C20 J42 d   1     -25.048 -12.347 -43.732  0.00  0.00     0.213 C 
ATOM     29  O23 J42 d   1     -24.705 -13.527 -43.772  0.00  0.00    -0.274 OA
ATOM     30  H   J42 d   1     -25.572 -10.644 -44.688  0.00  0.00     0.162 HD
BRANCH  28  31
ATOM     31  C21 J42 d   1     -25.174 -11.637 -42.409  0.00  0.00    -0.003 C 
ATOM     32  H   J42 d   1     -25.489 -10.597 -42.580  0.00  0.00     0.040 H 
ATOM     33  H   J42 d   1     -24.202 -11.646 -41.894  0.00  0.00     0.040 H 
ATOM     34  H   J42 d   1     -25.923 -12.150 -41.788  0.00  0.00     0.040 H 
ENDBRANCH  28  31
ENDBRANCH  24  27
ENDBRANCH  21  24
ENDBRANCH  20  21
ENDBRANCH  11  20
ENDBRANCH   6  10
ENDBRANCH   1   4
BRANCH   1  35
ATOM     35  C6  J42 d   1     -22.849 -18.337 -42.697  0.00  0.00    -0.050 C 
ATOM     36  H   J42 d   1     -22.698 -18.718 -41.676  0.00  0.00     0.035 H 
ATOM     37  H   J42 d   1     -22.296 -17.395 -42.823  0.00  0.00     0.035 H 
BRANCH  35  38
ATOM     38  C7  J42 d   1     -22.268 -19.370 -43.685  0.00  0.00    -0.061 C 
ATOM     39  H   J42 d   1     -22.536 -19.091 -44.715  0.00  0.00     0.033 H 
ATOM     40  H   J42 d   1     -22.672 -20.368 -43.459  0.00  0.00     0.033 H 
BRANCH  38  41
ATOM     41  C8  J42 d   1     -20.740 -19.382 -43.532  0.00  0.00    -0.036 C 
ATOM     42  H   J42 d   1     -20.510 -19.851 -42.564  0.00  0.00     0.036 H 
ATOM     43  H   J42 d   1     -20.402 -18.335 -43.522  0.00  0.00     0.036 H 
BRANCH  41  44
ATOM     44  C9  J42 d   1     -19.929 -20.115 -44.600  0.00  0.00     0.098 C 
ATOM     45  H   J42 d   1     -20.231 -21.172 -44.637  0.00  0.00     0.089 H 
BRANCH  44  46
ATOM     46  N2  J42 d   1     -18.518 -20.008 -44.238  0.00  0.00    -0.329 N 
ATOM     47  C11 J42 d   1     -17.883 -20.710 -43.307  0.00  0.00     0.317 C 
ATOM     48  O6  J42 d   1     -18.387 -21.609 -42.654  0.00  0.00    -0.247 OA
ATOM     49  N3  J42 d   1     -16.658 -20.323 -43.015  0.00  0.00    -0.329 N 
ATOM     50  H   J42 d   1     -16.164 -19.716 -43.637  0.00  0.00     0.165 HD
ATOM     51  H   J42 d   1     -17.975 -19.337 -44.743  0.00  0.00     0.165 HD
BRANCH  49  52
ATOM     52  C12 J42 d   1     -16.033 -20.774 -41.803  0.00  0.00     0.098 C 
ATOM     53  H   J42 d   1     -15.791 -21.842 -41.903  0.00  0.00     0.089 H 
BRANCH  52  54
ATOM     54  C16 J42 d   1     -17.018 -20.574 -40.702  0.00  0.00     0.196 C 
ATOM     55  O5  J42 d   1     -17.852 -19.664 -40.778  0.00  0.00    -0.646 OA
ATOM     56  O4  J42 d   1     -16.914 -21.339 -39.616  0.00  0.00    -0.646 OA
ENDBRANCH  52  54
BRANCH  52  57
ATOM     57  C13 J42 d   1     -14.742 -20.005 -41.445  0.00  0.00    -0.028 C 
ATOM     58  H   J42 d   1     -13.968 -20.249 -42.188  0.00  0.00     0.037 H 
ATOM     59  H   J42 d   1     -14.406 -20.323 -40.447  0.00  0.00     0.037 H 
BRANCH  57  60
ATOM     60  C14 J42 d   1     -14.949 -18.505 -41.433  0.00  0.00     0.018 C 
ATOM     61  H   J42 d   1     -15.917 -18.296 -40.954  0.00  0.00     0.049 H 
ATOM     62  H   J42 d   1     -14.972 -18.153 -42.475  0.00  0.00     0.049 H 
BRANCH  60  63
ATOM     63  C15 J42 d   1     -13.872 -17.722 -40.691  0.00  0.00     0.172 C 
ATOM     64  O3  J42 d   1     -13.051 -18.222 -39.900  0.00  0.00    -0.648 OA
ATOM     65  O2  J42 d   1     -13.825 -16.403 -40.884  0.00  0.00    -0.648 OA
ENDBRANCH  60  63
ENDBRANCH  57  60
ENDBRANCH  52  57
ENDBRANCH  49  52
ENDBRANCH  44  46
BRANCH  44  66
ATOM     66  C10 J42 d   1     -20.136 -19.487 -45.944  0.00  0.00     0.196 C 
ATOM     67  O1  J42 d   1     -19.704 -18.253 -46.107  0.00  0.00    -0.646 OA
ATOM     68  O   J42 d   1     -20.637 -20.067 -46.895  0.00  0.00    -0.646 OA
ENDBRANCH  44  66
ENDBRANCH  41  44
ENDBRANCH  38  41
ENDBRANCH  35  38
ENDBRANCH   1  35
TORSDOF 18
