REMARK  7 active torsions:
REMARK  status: ('A' for Active; 'I' for Inactive)
REMARK    1  A    between atoms: C1_1  and  C2_2 
REMARK    2  A    between atoms: N4_4  and  C14_14 
REMARK    3  A    between atoms: C10_10  and  C11_11 
REMARK    4  A    between atoms: C10_10  and  C12_12 
REMARK    5  A    between atoms: C16_16  and  N17_17 
REMARK    6  A    between atoms: N17_17  and  C18_18 
REMARK    7  A    between atoms: C24_23  and  C25_24 
REMARK       I    between atoms: C25_24  and  N26_25 
ROOT
ATOM      1  C14 2LC d   1     -18.665 -33.138  -7.946  0.00  0.00     0.044 A 
ATOM      2  C15 2LC d   1     -19.324 -32.398  -8.946  0.00  0.00    -0.030 A 
ATOM      3  C16 2LC d   1     -19.298 -30.985  -8.953  0.00  0.00     0.049 A 
ATOM      4  C24 2LC d   1     -18.601 -30.322  -7.889  0.00  0.00     0.096 A 
ATOM      5  C28 2LC d   1     -17.984 -31.086  -6.869  0.00  0.00     0.136 A 
ATOM      6  F29 2LC d   1     -17.331 -30.481  -5.862  0.00  0.00    -0.205 F 
ATOM      7  C30 2LC d   1     -17.994 -32.462  -6.911  0.00  0.00    -0.018 A 
ATOM      8  H   2LC d   1     -19.863 -32.923  -9.727  0.00  0.00     0.090 H 
ATOM      9  H   2LC d   1     -17.482 -33.028  -6.142  0.00  0.00     0.091 H 
ENDROOT
BRANCH   1  10
ATOM     10  N4  2LC d   1     -18.769 -34.544  -7.937  0.00  0.00    -0.324 N 
ATOM     11  C3  2LC d   1     -18.430 -35.389  -8.966  0.00  0.00    -0.008 A 
ATOM     12  C2  2LC d   1     -18.725 -36.666  -8.636  0.00  0.00    -0.030 A 
ATOM     13  H   2LC d   1     -17.988 -35.075  -9.910  0.00  0.00     0.113 H 
ATOM     14  C6  2LC d   1     -19.308 -36.612  -7.289  0.00  0.00     0.040 A 
ATOM     15  C5  2LC d   1     -19.325 -35.258  -6.931  0.00  0.00     0.031 A 
ATOM     16  C7  2LC d   1     -19.856 -37.654  -6.375  0.00  0.00     0.162 C 
ATOM     17  C13 2LC d   1     -19.867 -34.776  -5.587  0.00  0.00    -0.019 C 
ATOM     18  C10 2LC d   1     -20.785 -35.749  -4.848  0.00  0.00    -0.036 C 
ATOM     19  H   2LC d   1     -20.432 -33.849  -5.765  0.00  0.00     0.043 H 
ATOM     20  H   2LC d   1     -19.008 -34.562  -4.934  0.00  0.00     0.043 H 
ATOM     21  C9  2LC d   1     -20.357 -37.234  -4.977  0.00  0.00     0.002 C 
ATOM     22  H   2LC d   1     -19.547 -37.419  -4.256  0.00  0.00     0.046 H 
ATOM     23  H   2LC d   1     -21.224 -37.861  -4.723  0.00  0.00     0.046 H 
ATOM     24  O8  2LC d   1     -19.931 -38.817  -6.703  0.00  0.00    -0.292 OA
BRANCH  12  25
ATOM     25  C1  2LC d   1     -18.465 -37.863  -9.518  0.00  0.00    -0.049 C 
ATOM     26  H   2LC d   1     -18.016 -37.530 -10.465  0.00  0.00     0.033 H 
ATOM     27  H   2LC d   1     -19.414 -38.380  -9.724  0.00  0.00     0.033 H 
ATOM     28  H   2LC d   1     -17.776 -38.552  -9.008  0.00  0.00     0.033 H 
ENDBRANCH  12  25
BRANCH  18  29
ATOM     29  C11 2LC d   1     -22.220 -35.517  -5.323  0.00  0.00    -0.069 C 
ATOM     30  H   2LC d   1     -22.475 -34.453  -5.212  0.00  0.00     0.028 H 
ATOM     31  H   2LC d   1     -22.909 -36.124  -4.718  0.00  0.00     0.028 H 
ATOM     32  H   2LC d   1     -22.308 -35.807  -6.380  0.00  0.00     0.028 H 
ENDBRANCH  18  29
BRANCH  18  33
ATOM     33  C12 2LC d   1     -20.722 -35.316  -3.386  0.00  0.00    -0.069 C 
ATOM     34  H   2LC d   1     -19.702 -35.467  -3.003  0.00  0.00     0.028 H 
ATOM     35  H   2LC d   1     -21.428 -35.917  -2.795  0.00  0.00     0.028 H 
ATOM     36  H   2LC d   1     -20.990 -34.252  -3.307  0.00  0.00     0.028 H 
ENDBRANCH  18  33
ENDBRANCH   1  10
BRANCH   3  37
ATOM     37  N17 2LC d   1     -19.915 -30.207  -9.952  0.00  0.00    -0.382 N 
ATOM     38  H   2LC d   1     -19.836 -29.186  -9.843  0.00  0.00     0.160 HD
BRANCH  37  39
ATOM     39  C18 2LC d   1     -20.658 -30.673 -11.131  0.00  0.00     0.032 C 
ATOM     40  C20 2LC d   1     -22.180 -30.620 -10.858  0.00  0.00    -0.025 C 
ATOM     41  C21 2LC d   1     -22.709 -30.375 -12.292  0.00  0.00     0.021 C 
ATOM     42  H   2LC d   1     -22.444 -29.795 -10.180  0.00  0.00     0.039 H 
ATOM     43  H   2LC d   1     -22.552 -31.568 -10.443  0.00  0.00     0.039 H 
ATOM     44  O22 2LC d   1     -21.783 -29.397 -12.820  0.00  0.00    -0.389 OA
ATOM     45  H   2LC d   1     -23.735 -29.977 -12.272  0.00  0.00     0.074 H 
ATOM     46  H   2LC d   1     -22.686 -31.301 -12.885  0.00  0.00     0.074 H 
ATOM     47  C23 2LC d   1     -20.468 -29.692 -12.303  0.00  0.00     0.038 C 
ATOM     48  H   2LC d   1     -19.849 -30.154 -13.086  0.00  0.00     0.077 H 
ATOM     49  H   2LC d   1     -19.985 -28.769 -11.949  0.00  0.00     0.077 H 
ATOM     50  H   2LC d   1     -20.335 -31.689 -11.403  0.00  0.00     0.075 H 
ENDBRANCH  37  39
ENDBRANCH   3  37
BRANCH   4  51
ATOM     51  C25 2LC d   1     -18.547 -28.848  -7.784  0.00  0.00     0.254 C 
ATOM     52  N26 2LC d   1     -17.435 -28.191  -7.390  0.00  0.00    -0.366 N 
ATOM     53  H   2LC d   1     -17.438 -27.193  -7.332  0.00  0.00     0.159 HD
ATOM     54  H   2LC d   1     -16.608 -28.703  -7.157  0.00  0.00     0.159 HD
ATOM     55  O27 2LC d   1     -19.552 -28.220  -8.032  0.00  0.00    -0.268 OA
ENDBRANCH   4  51
TORSDOF 7
