REMARK WARNING: 32 MAX_TORS EXCEEDED!!!
REMARK  76 active torsions:
REMARK  status: ('A' for Active; 'I' for Inactive)
REMARK    1  A    between atoms: C_1  and  CH3_3 
REMARK       I    between atoms: N_4  and  C_1 
REMARK    2  A    between atoms: CA_5  and  N_4 
REMARK    3  A    between atoms: C_6  and  CA_5 
REMARK    4  A    between atoms: CA_5  and  CB_8 
REMARK       I    between atoms: N_12  and  C_6 
REMARK    5  A    between atoms: CB_8  and  CG_9 
REMARK       I    between atoms: CG_9  and  ND2_11 
REMARK    6  A    between atoms: CA_13  and  N_12 
REMARK    7  A    between atoms: C_14  and  CA_13 
REMARK    8  A    between atoms: CA_13  and  CB_16 
REMARK       I    between atoms: N_26  and  C_14 
REMARK    9  A    between atoms: CB_16  and  CG_17 
REMARK   10  A    between atoms: CA_27  and  N_26 
REMARK   11  A    between atoms: C_28  and  CA_27 
REMARK   12  A    between atoms: CA_27  and  CB_30 
REMARK       I    between atoms: N_37  and  C_28 
REMARK   13  A    between atoms: CB_30  and  CG_31 
REMARK   14  A    between atoms: CA_38  and  N_37 
REMARK   15  A    between atoms: C_39  and  CA_38 
REMARK   16  A    between atoms: CA_38  and  CB_41 
REMARK       I    between atoms: N_45  and  C_39 
REMARK   17  A    between atoms: CB_41  and  CG_42 
REMARK       I    between atoms: CG_42  and  ND2_44 
REMARK   18  A    between atoms: CA_46  and  N_45 
REMARK   19  A    between atoms: C_47  and  CA_46 
REMARK   20  A    between atoms: CA_46  and  CB_49 
REMARK       I    between atoms: N_53  and  C_47 
REMARK   21  A    between atoms: CB_49  and  CG1_50 
REMARK   22  A    between atoms: CB_49  and  CG2_51 
REMARK   23  A    between atoms: CG1_50  and  CD1_52 
REMARK   24  A    between atoms: CA_54  and  N_53 
REMARK   25  A    between atoms: C_55  and  CA_54 
REMARK   26  A    between atoms: CA_54  and  CB_57 
REMARK       I    between atoms: N_60  and  C_55 
REMARK   27  A    between atoms: CB_57  and  OG1_58 
REMARK   28  A    between atoms: CB_57  and  CG2_59 
REMARK   29  A    between atoms: CA_61  and  N_60 
REMARK   30  A    between atoms: C_62  and  CA_61 
REMARK   31  A    between atoms: CA_61  and  CB_64 
REMARK       I    between atoms: N_68  and  C_62 
REMARK   32  A    between atoms: CB_64  and  CG_65 
REMARK       I    between atoms: CG_65  and  ND2_67 
REMARK   33  A    between atoms: CA_69  and  N_68 
REMARK   34  A    between atoms: CA_69  and  CB2_72 
REMARK   35  A    between atoms: CA_76  and  CB_79 
REMARK   36  A    between atoms: CB_79  and  CG_80 
REMARK   37  A    between atoms: CG_80  and  CD1_81 
REMARK   38  A    between atoms: CG_80  and  CD2_82 
REMARK   39  A    between atoms: CA_84  and  CB_87 
REMARK   40  A    between atoms: CB_87  and  CG_88 
REMARK   41  A    between atoms: CA_100  and  C_97 
REMARK       I    between atoms: C_97  and  N_106 
REMARK   42  A    between atoms: CA_100  and  CB1_105 
REMARK   43  A    between atoms: N_106  and  CA_107 
REMARK   44  A    between atoms: CA_107  and  C_108 
REMARK   45  A    between atoms: CA_107  and  CB_110 
REMARK       I    between atoms: C_108  and  N_114 
REMARK   46  A    between atoms: CB_110  and  CG1_111 
REMARK   47  A    between atoms: CB_110  and  CG2_112 
REMARK   48  A    between atoms: CG1_111  and  CD1_113 
REMARK   49  A    between atoms: N_114  and  CA_115 
REMARK   50  A    between atoms: CA_115  and  C_116 
REMARK   51  A    between atoms: CA_115  and  CB_118 
REMARK       I    between atoms: C_116  and  N_123 
REMARK   52  A    between atoms: CB_118  and  CG_119 
REMARK   53  A    between atoms: CG_119  and  CD_120 
REMARK   54  A    between atoms: CD_120  and  CE_121 
REMARK   55  A    between atoms: CE_121  and  NZ_122 
REMARK   56  A    between atoms: N_123  and  CA_124 
REMARK   57  A    between atoms: CA_124  and  C_125 
REMARK   58  A    between atoms: CA_124  and  CB_127 
REMARK       I    between atoms: C_125  and  N_132 
REMARK   59  A    between atoms: CB_127  and  CG_128 
REMARK   60  A    between atoms: CG_128  and  CD_129 
REMARK   61  A    between atoms: CD_129  and  CE_130 
REMARK   62  A    between atoms: CE_130  and  NZ_131 
REMARK   63  A    between atoms: N_132  and  CA_133 
REMARK   64  A    between atoms: CA_133  and  C_134 
REMARK   65  A    between atoms: CA_133  and  CB_136 
REMARK       I    between atoms: C_134  and  N_141 
REMARK   66  A    between atoms: CB_136  and  CG_137 
REMARK   67  A    between atoms: CG_137  and  CD_138 
REMARK   68  A    between atoms: CD_138  and  CE_139 
REMARK   69  A    between atoms: CE_139  and  NZ_140 
REMARK   70  A    between atoms: N_141  and  CA_142 
REMARK   71  A    between atoms: CA_142  and  C_143 
REMARK   72  A    between atoms: CA_142  and  CB_145 
REMARK   73  A    between atoms: CB_145  and  CG_146 
REMARK   74  A    between atoms: CG_146  and  CD_147 
REMARK   75  A    between atoms: CD_147  and  CE_148 
REMARK   76  A    between atoms: CE_148  and  NZ_149 
ROOT
ATOM      1  N   TRP d   1      92.631 -76.229 -10.668  0.00  0.00    -0.346 N 
ATOM      2  CA  TRP d   1      93.164 -76.677  -9.377  0.00  0.00     0.093 C 
ATOM      3  C   TRP d   1      93.979 -77.936  -9.593  0.00  0.00     0.241 C 
ATOM      4  O   TRP d   1      95.051 -78.038  -9.053  0.00  0.00    -0.271 OA
ATOM      5  H   TRP d   1      91.658 -76.016 -10.762  0.00  0.00     0.163 HD
ATOM      6  H   TRP d   1      93.847 -75.892  -9.019  0.00  0.00     0.088 H 
ATOM      7  CA  DIV d   1      90.867 -78.611 -14.593  0.00  0.00     0.110 C 
ATOM      8  CB1 DIV d   1      91.034 -80.055 -14.968  0.00  0.00    -0.033 C 
ATOM      9  CG1 DIV d   1      92.343 -80.825 -14.821  0.00  0.00    -0.062 C 
ATOM     10  C   DIV d   1      92.085 -77.879 -14.014  0.00  0.00     0.246 C 
ATOM     11  O   DIV d   1      93.157 -78.429 -13.792  0.00  0.00    -0.271 OA
ATOM     12  H   DIV d   1      90.767 -80.120 -16.033  0.00  0.00     0.037 H 
ATOM     13  H   DIV d   1      90.294 -80.607 -14.370  0.00  0.00     0.037 H 
ATOM     14  H   DIV d   1      93.003 -80.244 -14.160  0.00  0.00     0.033 H 
ATOM     15  H   DIV d   1      92.800 -80.905 -15.818  0.00  0.00     0.033 H 
ATOM     16  N   LEU d   1      91.905 -76.448 -13.727  0.00  0.00    -0.346 N 
ATOM     17  CA  LEU d   1      92.987 -75.609 -13.170  0.00  0.00     0.089 C 
ATOM     18  C   LEU d   1      93.521 -76.095 -11.812  0.00  0.00     0.241 C 
ATOM     19  O   LEU d   1      94.708 -76.348 -11.710  0.00  0.00    -0.271 OA
ATOM     20  H   LEU d   1      91.018 -76.027 -13.916  0.00  0.00     0.163 HD
ATOM     21  H   LEU d   1      93.829 -75.629 -13.878  0.00  0.00     0.087 H 
ATOM     22  N   MK8 d   1      93.460 -79.026 -10.464  0.00  0.00    -0.342 N 
ATOM     23  CA  MK8 d   1      94.265 -80.266 -10.682  0.00  0.00     0.110 C 
ATOM     24  CB  MK8 d   1      93.453 -81.067 -11.704  0.00  0.00    -0.033 C 
ATOM     25  CD  MK8 d   1      93.479 -82.873 -13.656  0.00  0.00    -0.065 C 
ATOM     26  CE  MK8 d   1      92.229 -82.217 -14.252  0.00  0.00    -0.065 C 
ATOM     27  CG  MK8 d   1      94.231 -82.120 -12.548  0.00  0.00    -0.062 C 
ATOM     28  H   MK8 d   1      92.568 -78.928 -10.905  0.00  0.00     0.163 HD
ATOM     29  H   MK8 d   1      92.998 -80.350 -12.403  0.00  0.00     0.037 H 
ATOM     30  H   MK8 d   1      92.661 -81.599 -11.157  0.00  0.00     0.037 H 
ATOM     31  H   MK8 d   1      94.188 -83.034 -14.481  0.00  0.00     0.033 H 
ATOM     32  H   MK8 d   1      93.172 -83.844 -13.241  0.00  0.00     0.033 H 
ATOM     33  H   MK8 d   1      91.876 -82.871 -15.063  0.00  0.00     0.033 H 
ATOM     34  H   MK8 d   1      91.472 -82.180 -13.455  0.00  0.00     0.033 H 
ATOM     35  H   MK8 d   1      94.618 -82.875 -11.848  0.00  0.00     0.033 H 
ATOM     36  H   MK8 d   1      95.072 -81.596 -13.025  0.00  0.00     0.033 H 
ENDROOT
BRANCH   7  37
ATOM     37  N   DIV d   1      89.812 -78.433 -13.654  0.00  0.00    -0.342 N 
ATOM     38  C   ASN d   1      89.985 -78.636 -12.350  0.00  0.00     0.241 C 
ATOM     39  O   ASN d   1      91.025 -79.088 -11.862  0.00  0.00    -0.271 OA
ATOM     40  H   DIV d   1      88.913 -78.147 -13.984  0.00  0.00     0.163 HD
BRANCH  38  41
ATOM     41  CA  ASN d   1      88.800 -78.276 -11.463  0.00  0.00     0.097 C 
ATOM     42  H   ASN d   1      89.150 -78.204 -10.423  0.00  0.00     0.088 H 
BRANCH  41  43
ATOM     43  N   ASN d   1      88.247 -76.986 -11.855  0.00  0.00    -0.345 N 
ATOM     44  C   THR d   1      88.824 -75.842 -11.504  0.00  0.00     0.243 C 
ATOM     45  O   THR d   1      89.808 -75.785 -10.766  0.00  0.00    -0.271 OA
ATOM     46  H   ASN d   1      87.411 -76.961 -12.403  0.00  0.00     0.163 HD
BRANCH  44  47
ATOM     47  CA  THR d   1      88.196 -74.570 -12.061  0.00  0.00     0.113 C 
ATOM     48  H   THR d   1      89.010 -73.909 -12.393  0.00  0.00     0.091 H 
BRANCH  47  49
ATOM     49  N   THR d   1      87.355 -74.844 -13.222  0.00  0.00    -0.344 N 
ATOM     50  C   ILE d   1      87.845 -75.474 -14.284  0.00  0.00     0.241 C 
ATOM     51  O   ILE d   1      89.005 -75.883 -14.334  0.00  0.00    -0.271 OA
ATOM     52  H   THR d   1      86.398 -74.554 -13.218  0.00  0.00     0.163 HD
BRANCH  50  53
ATOM     53  CA  ILE d   1      86.902 -75.678 -15.470  0.00  0.00     0.092 C 
ATOM     54  H   ILE d   1      87.387 -76.397 -16.147  0.00  0.00     0.088 H 
BRANCH  53  55
ATOM     55  N   ILE d   1      85.591 -76.236 -15.142  0.00  0.00    -0.346 N 
ATOM     56  C   ASN d   1      85.407 -77.147 -14.193  0.00  0.00     0.241 C 
ATOM     57  O   ASN d   1      86.292 -77.514 -13.429  0.00  0.00    -0.271 OA
ATOM     58  H   ILE d   1      84.795 -75.917 -15.656  0.00  0.00     0.163 HD
BRANCH  56  59
ATOM     59  CA  ASN d   1      84.004 -77.725 -14.087  0.00  0.00     0.097 C 
ATOM     60  H   ASN d   1      83.862 -78.068 -13.052  0.00  0.00     0.088 H 
BRANCH  59  61
ATOM     61  N   ASN d   1      82.959 -76.752 -14.374  0.00  0.00    -0.346 N 
ATOM     62  C   PHE d   1      82.426 -76.008 -13.413  0.00  0.00     0.241 C 
ATOM     63  O   PHE d   1      82.799 -76.059 -12.240  0.00  0.00    -0.271 OA
ATOM     64  H   ASN d   1      82.637 -76.642 -15.314  0.00  0.00     0.163 HD
BRANCH  62  65
ATOM     65  CA  PHE d   1      81.319 -75.052 -13.835  0.00  0.00     0.093 C 
ATOM     66  H   PHE d   1      81.579 -74.059 -13.439  0.00  0.00     0.088 H 
BRANCH  65  67
ATOM     67  N   PHE d   1      81.182 -74.918 -15.280  0.00  0.00    -0.346 N 
ATOM     68  C   TRP d   1      82.102 -74.301 -16.012  0.00  0.00     0.241 C 
ATOM     69  O   TRP d   1      83.168 -73.900 -15.544  0.00  0.00    -0.271 OA
ATOM     70  H   PHE d   1      80.375 -75.300 -15.731  0.00  0.00     0.163 HD
BRANCH  68  71
ATOM     71  CA  TRP d   1      81.781 -74.123 -17.495  0.00  0.00     0.093 C 
ATOM     72  H   TRP d   1      82.733 -74.041 -18.039  0.00  0.00     0.088 H 
BRANCH  71  73
ATOM     73  N   TRP d   1      81.041 -75.252 -18.046  0.00  0.00    -0.346 N 
ATOM     74  C   ASN d   1      81.402 -76.512 -17.838  0.00  0.00     0.241 C 
ATOM     75  O   ASN d   1      82.361 -76.829 -17.133  0.00  0.00    -0.271 OA
ATOM     76  H   TRP d   1      80.230 -75.070 -18.602  0.00  0.00     0.163 HD
BRANCH  74  77
ATOM     77  CA  ASN d   1      80.547 -77.570 -18.536  0.00  0.00     0.097 C 
ATOM     78  H   ASN d   1      79.652 -77.066 -18.930  0.00  0.00     0.088 H 
BRANCH  77  79
ATOM     79  N   ASN d   1      81.240 -78.185 -19.663  0.00  0.00    -0.348 N 
ATOM     80  C   ACE d   1      80.886 -77.404 -20.680  0.00  0.00     0.214 C 
ATOM     81  O   ACE d   1      80.505 -76.240 -20.804  0.00  0.00    -0.274 OA
ATOM     82  H   ASN d   1      81.832 -78.991 -19.669  0.00  0.00     0.163 HD
BRANCH  80  83
ATOM     83  CH3 ACE d   1      81.338 -78.235 -21.845  0.00  0.00    -0.003 C 
ATOM     84  H   ACE d   1      81.630 -79.235 -21.491  0.00  0.00     0.040 H 
ATOM     85  H   ACE d   1      82.200 -77.751 -22.328  0.00  0.00     0.040 H 
ATOM     86  H   ACE d   1      80.516 -78.328 -22.570  0.00  0.00     0.040 H 
ENDBRANCH  80  83
ENDBRANCH  77  79
BRANCH  77  87
ATOM     87  CB  ASN d   1      80.086 -78.637 -17.542  0.00  0.00     0.036 C 
ATOM     88  H   ASN d   1      80.974 -79.117 -17.105  0.00  0.00     0.051 H 
ATOM     89  H   ASN d   1      79.492 -79.388 -18.083  0.00  0.00     0.051 H 
BRANCH  87  90
ATOM     90  CG  ASN d   1      79.241 -78.067 -16.420  0.00  0.00     0.217 C 
ATOM     91  OD1 ASN d   1      78.704 -76.965 -16.529  0.00  0.00    -0.274 OA
ATOM     92  ND2 ASN d   1      79.119 -78.819 -15.333  0.00  0.00    -0.370 N 
ATOM     93  H   ASN d   1      78.574 -78.495 -14.560  0.00  0.00     0.159 HD
ATOM     94  H   ASN d   1      79.572 -79.709 -15.287  0.00  0.00     0.159 HD
ENDBRANCH  87  90
ENDBRANCH  77  87
ENDBRANCH  74  77
ENDBRANCH  71  73
BRANCH  71  95
ATOM     95  CB  TRP d   1      80.983 -72.834 -17.716  0.00  0.00    -0.012 C 
ATOM     96  H   TRP d   1      80.042 -72.912 -17.152  0.00  0.00     0.044 H 
ATOM     97  H   TRP d   1      80.761 -72.748 -18.790  0.00  0.00     0.044 H 
BRANCH  95  98
ATOM     98  CG  TRP d   1      81.683 -71.587 -17.284  0.00  0.00    -0.028 A 
ATOM     99  CD1 TRP d   1      82.572 -70.852 -18.010  0.00  0.00    -0.015 A 
ATOM    100  NE1 TRP d   1      82.997 -69.770 -17.278  0.00  0.00    -0.365 N 
ATOM    101  H   TRP d   1      82.898 -71.088 -19.022  0.00  0.00     0.112 H 
ATOM    102  CE2 TRP d   1      82.378 -69.789 -16.057  0.00  0.00     0.042 A 
ATOM    103  H   TRP d   1      83.672 -69.060 -17.596  0.00  0.00     0.165 HD
ATOM    104  CD2 TRP d   1      81.536 -70.926 -16.028  0.00  0.00    -0.002 A 
ATOM    105  CZ2 TRP d   1      82.482 -68.913 -14.981  0.00  0.00    -0.056 A 
ATOM    106  CE3 TRP d   1      80.786 -71.171 -14.878  0.00  0.00    -0.070 A 
ATOM    107  CZ3 TRP d   1      80.890 -70.302 -13.812  0.00  0.00    -0.082 A 
ATOM    108  H   TRP d   1      80.130 -72.032 -14.823  0.00  0.00     0.084 H 
ATOM    109  CH2 TRP d   1      81.732 -69.185 -13.870  0.00  0.00    -0.081 A 
ATOM    110  H   TRP d   1      80.310 -70.487 -12.915  0.00  0.00     0.083 H 
ATOM    111  H   TRP d   1      81.791 -68.521 -13.015  0.00  0.00     0.083 H 
ATOM    112  H   TRP d   1      83.133 -68.047 -15.022  0.00  0.00     0.086 H 
ENDBRANCH  95  98
ENDBRANCH  71  95
ENDBRANCH  68  71
ENDBRANCH  65  67
BRANCH  65 113
ATOM    113  CB  PHE d   1      79.986 -75.469 -13.216  0.00  0.00    -0.014 C 
ATOM    114  H   PHE d   1      80.171 -75.816 -12.189  0.00  0.00     0.043 H 
ATOM    115  H   PHE d   1      79.568 -76.294 -13.811  0.00  0.00     0.043 H 
BRANCH 113 116
ATOM    116  CG  PHE d   1      78.980 -74.359 -13.169  0.00  0.00    -0.056 A 
ATOM    117  CD1 PHE d   1      78.915 -73.508 -12.078  0.00  0.00    -0.077 A 
ATOM    118  CE1 PHE d   1      77.999 -72.476 -12.040  0.00  0.00    -0.082 A 
ATOM    119  H   PHE d   1      79.592 -73.654 -11.244  0.00  0.00     0.084 H 
ATOM    120  CZ  PHE d   1      77.138 -72.278 -13.100  0.00  0.00    -0.083 A 
ATOM    121  H   PHE d   1      77.956 -71.821 -11.177  0.00  0.00     0.083 H 
ATOM    122  CE2 PHE d   1      77.196 -73.116 -14.198  0.00  0.00    -0.082 A 
ATOM    123  H   PHE d   1      76.418 -71.468 -13.072  0.00  0.00     0.083 H 
ATOM    124  CD2 PHE d   1      78.118 -74.148 -14.230  0.00  0.00    -0.077 A 
ATOM    125  H   PHE d   1      76.521 -72.965 -15.032  0.00  0.00     0.083 H 
ATOM    126  H   PHE d   1      78.165 -74.798 -15.096  0.00  0.00     0.084 H 
ENDBRANCH 113 116
ENDBRANCH  65 113
ENDBRANCH  62  65
ENDBRANCH  59  61
BRANCH  59 127
ATOM    127  CB  ASN d   1      83.876 -78.934 -15.013  0.00  0.00     0.036 C 
ATOM    128  H   ASN d   1      84.784 -79.547 -14.919  0.00  0.00     0.051 H 
ATOM    129  H   ASN d   1      83.781 -78.576 -16.049  0.00  0.00     0.051 H 
BRANCH 127 130
ATOM    130  CG  ASN d   1      82.670 -79.797 -14.684  0.00  0.00     0.217 C 
ATOM    131  OD1 ASN d   1      81.822 -80.047 -15.539  0.00  0.00    -0.274 OA
ATOM    132  ND2 ASN d   1      82.592 -80.261 -13.441  0.00  0.00    -0.370 N 
ATOM    133  H   ASN d   1      81.819 -80.834 -13.169  0.00  0.00     0.159 HD
ATOM    134  H   ASN d   1      83.306 -80.037 -12.778  0.00  0.00     0.159 HD
ENDBRANCH 127 130
ENDBRANCH  59 127
ENDBRANCH  56  59
ENDBRANCH  53  55
BRANCH  53 135
ATOM    135  CB  ILE d   1      86.764 -74.343 -16.220  0.00  0.00    -0.030 C 
ATOM    136  H   ILE d   1      86.273 -73.617 -15.555  0.00  0.00     0.043 H 
BRANCH 135 137
ATOM    137  CG1 ILE d   1      85.893 -74.521 -17.464  0.00  0.00    -0.063 C 
ATOM    138  H   ILE d   1      84.901 -74.875 -17.147  0.00  0.00     0.033 H 
ATOM    139  H   ILE d   1      86.362 -75.276 -18.112  0.00  0.00     0.033 H 
BRANCH 137 140
ATOM    140  CD1 ILE d   1      85.715 -73.254 -18.259  0.00  0.00    -0.076 C 
ATOM    141  H   ILE d   1      85.081 -73.457 -19.135  0.00  0.00     0.027 H 
ATOM    142  H   ILE d   1      86.698 -72.890 -18.594  0.00  0.00     0.027 H 
ATOM    143  H   ILE d   1      85.237 -72.490 -17.629  0.00  0.00     0.027 H 
ENDBRANCH 137 140
ENDBRANCH 135 137
BRANCH 135 144
ATOM    144  CG2 ILE d   1      88.138 -73.803 -16.589  0.00  0.00    -0.071 C 
ATOM    145  H   ILE d   1      88.742 -73.685 -15.678  0.00  0.00     0.028 H 
ATOM    146  H   ILE d   1      88.028 -72.827 -17.085  0.00  0.00     0.028 H 
ATOM    147  H   ILE d   1      88.637 -74.507 -17.271  0.00  0.00     0.028 H 
ENDBRANCH 135 144
ENDBRANCH  53 135
ENDBRANCH  50  53
ENDBRANCH  47  49
BRANCH  47 148
ATOM    148  CB  THR d   1      87.423 -73.844 -10.946  0.00  0.00     0.060 C 
ATOM    149  H   THR d   1      87.924 -74.024  -9.983  0.00  0.00     0.086 H 
BRANCH 148 150
ATOM    150  OG1 THR d   1      86.084 -74.349 -10.889  0.00  0.00    -0.393 OA
ATOM    151  H   THR d   1      85.654 -74.199 -11.723  0.00  0.00     0.210 HD
ENDBRANCH 148 150
BRANCH 148 152
ATOM    152  CG2 THR d   1      87.377 -72.348 -11.215  0.00  0.00    -0.050 C 
ATOM    153  H   THR d   1      86.821 -71.847 -10.409  0.00  0.00     0.031 H 
ATOM    154  H   THR d   1      86.874 -72.163 -12.176  0.00  0.00     0.031 H 
ATOM    155  H   THR d   1      88.402 -71.951 -11.255  0.00  0.00     0.031 H 
ENDBRANCH 148 152
ENDBRANCH  47 148
ENDBRANCH  44  47
ENDBRANCH  41  43
BRANCH  41 156
ATOM    156  CB  ASN d   1      87.730 -79.365 -11.541  0.00  0.00     0.036 C 
ATOM    157  H   ASN d   1      87.571 -79.629 -12.597  0.00  0.00     0.051 H 
ATOM    158  H   ASN d   1      86.794 -78.972 -11.117  0.00  0.00     0.051 H 
BRANCH 156 159
ATOM    159  CG  ASN d   1      88.119 -80.615 -10.782  0.00  0.00     0.217 C 
ATOM    160  OD1 ASN d   1      88.445 -81.643 -11.377  0.00  0.00    -0.274 OA
ATOM    161  ND2 ASN d   1      88.105 -80.529  -9.455  0.00  0.00    -0.370 N 
ATOM    162  H   ASN d   1      88.353 -81.323  -8.900  0.00  0.00     0.159 HD
ATOM    163  H   ASN d   1      87.847 -79.670  -9.012  0.00  0.00     0.159 HD
ENDBRANCH 156 159
ENDBRANCH  41 156
ENDBRANCH  38  41
ENDBRANCH   7  37
BRANCH   7 164
ATOM    164  CB2 DIV d   1      90.484 -77.885 -15.824  0.00  0.00    -0.044 C 
ATOM    165  H   DIV d   1      91.277 -77.998 -16.578  0.00  0.00     0.031 H 
ATOM    166  H   DIV d   1      90.347 -76.818 -15.593  0.00  0.00     0.031 H 
ATOM    167  H   DIV d   1      89.543 -78.299 -16.216  0.00  0.00     0.031 H 
ENDBRANCH   7 164
BRANCH  17 168
ATOM    168  CB  LEU d   1      92.474 -74.197 -13.077  0.00  0.00    -0.035 C 
ATOM    169  H   LEU d   1      93.340 -73.547 -12.886  0.00  0.00     0.037 H 
ATOM    170  H   LEU d   1      91.787 -74.155 -12.219  0.00  0.00     0.037 H 
BRANCH 168 171
ATOM    171  CG  LEU d   1      91.735 -73.624 -14.275  0.00  0.00    -0.059 C 
ATOM    172  H   LEU d   1      90.794 -74.191 -14.324  0.00  0.00     0.038 H 
BRANCH 171 173
ATOM    173  CD1 LEU d   1      91.303 -72.153 -14.083  0.00  0.00    -0.073 C 
ATOM    174  H   LEU d   1      90.776 -71.805 -14.984  0.00  0.00     0.028 H 
ATOM    175  H   LEU d   1      92.193 -71.529 -13.914  0.00  0.00     0.028 H 
ATOM    176  H   LEU d   1      90.632 -72.078 -13.214  0.00  0.00     0.028 H 
ENDBRANCH 171 173
BRANCH 171 177
ATOM    177  CD2 LEU d   1      92.412 -73.889 -15.592  0.00  0.00    -0.073 C 
ATOM    178  H   LEU d   1      92.689 -74.952 -15.655  0.00  0.00     0.028 H 
ATOM    179  H   LEU d   1      93.317 -73.269 -15.670  0.00  0.00     0.028 H 
ATOM    180  H   LEU d   1      91.725 -73.640 -16.414  0.00  0.00     0.028 H 
ENDBRANCH 171 177
ENDBRANCH 168 171
ENDBRANCH  17 168
BRANCH   2 181
ATOM    181  CB  TRP d   1      92.106 -76.875  -8.279  0.00  0.00    -0.012 C 
ATOM    182  H   TRP d   1      91.354 -77.575  -8.672  0.00  0.00     0.044 H 
ATOM    183  H   TRP d   1      91.637 -75.897  -8.097  0.00  0.00     0.044 H 
BRANCH 181 184
ATOM    184  CG  TRP d   1      92.566 -77.417  -6.925  0.00  0.00    -0.028 A 
ATOM    185  CD1 TRP d   1      93.130 -76.697  -5.876  0.00  0.00    -0.015 A 
ATOM    186  NE1 TRP d   1      93.391 -77.550  -4.876  0.00  0.00    -0.365 N 
ATOM    187  H   TRP d   1      93.325 -75.626  -5.869  0.00  0.00     0.112 H 
ATOM    188  CE2 TRP d   1      93.025 -78.793  -5.224  0.00  0.00     0.042 A 
ATOM    189  H   TRP d   1      93.811 -77.290  -3.972  0.00  0.00     0.165 HD
ATOM    190  CD2 TRP d   1      92.502 -78.750  -6.509  0.00  0.00    -0.002 A 
ATOM    191  CZ2 TRP d   1      93.090 -80.002  -4.545  0.00  0.00    -0.056 A 
ATOM    192  CE3 TRP d   1      92.042 -79.910  -7.120  0.00  0.00    -0.070 A 
ATOM    193  CZ3 TRP d   1      92.108 -81.121  -6.440  0.00  0.00    -0.082 A 
ATOM    194  H   TRP d   1      91.633 -79.871  -8.123  0.00  0.00     0.084 H 
ATOM    195  CH2 TRP d   1      92.632 -81.164  -5.152  0.00  0.00    -0.081 A 
ATOM    196  H   TRP d   1      91.752 -82.029  -6.912  0.00  0.00     0.083 H 
ATOM    197  H   TRP d   1      92.683 -82.107  -4.621  0.00  0.00     0.083 H 
ATOM    198  H   TRP d   1      93.498 -80.039  -3.541  0.00  0.00     0.086 H 
ENDBRANCH 181 184
ENDBRANCH   2 181
BRANCH  23 199
ATOM    199  C   MK8 d   1      95.674 -79.944 -11.224  0.00  0.00     0.246 C 
ATOM    200  O   MK8 d   1      96.654 -80.534 -10.794  0.00  0.00    -0.271 OA
ATOM    201  N   ILE d   1      95.810 -78.908 -12.287  0.00  0.00    -0.345 N 
ATOM    202  H   ILE d   1      94.996 -78.440 -12.631  0.00  0.00     0.163 HD
BRANCH 201 203
ATOM    203  CA  ILE d   1      97.128 -78.570 -12.832  0.00  0.00     0.092 C 
ATOM    204  H   ILE d   1      97.637 -79.489 -13.158  0.00  0.00     0.088 H 
BRANCH 203 205
ATOM    205  C   ILE d   1      97.965 -77.961 -11.709  0.00  0.00     0.241 C 
ATOM    206  O   ILE d   1      98.991 -78.510 -11.342  0.00  0.00    -0.271 OA
ATOM    207  N   LYS d   1      97.537 -76.716 -11.082  0.00  0.00    -0.346 N 
ATOM    208  H   LYS d   1      96.698 -76.272 -11.395  0.00  0.00     0.163 HD
BRANCH 207 209
ATOM    209  CA  LYS d   1      98.313 -76.106 -10.004  0.00  0.00     0.089 C 
ATOM    210  H   LYS d   1      99.174 -75.594 -10.459  0.00  0.00     0.087 H 
BRANCH 209 211
ATOM    211  C   LYS d   1      98.841 -77.096  -8.975  0.00  0.00     0.241 C 
ATOM    212  O   LYS d   1      99.972 -76.956  -8.546  0.00  0.00    -0.271 OA
ATOM    213  N   LYS d   1      98.044 -78.104  -8.636  0.00  0.00    -0.346 N 
ATOM    214  H   LYS d   1      97.115 -78.136  -9.005  0.00  0.00     0.163 HD
BRANCH 213 215
ATOM    215  CA  LYS d   1      98.488 -79.165  -7.740  0.00  0.00     0.089 C 
ATOM    216  H   LYS d   1      98.967 -78.701  -6.865  0.00  0.00     0.087 H 
BRANCH 215 217
ATOM    217  C   LYS d   1      99.512 -80.069  -8.427  0.00  0.00     0.241 C 
ATOM    218  O   LYS d   1     100.639 -80.214  -7.954  0.00  0.00    -0.271 OA
ATOM    219  N   LYS d   1      99.120 -80.610  -9.576  0.00  0.00    -0.346 N 
ATOM    220  H   LYS d   1      98.178 -80.467  -9.881  0.00  0.00     0.163 HD
BRANCH 219 221
ATOM    221  CA  LYS d   1     100.015 -81.403 -10.405  0.00  0.00     0.089 C 
ATOM    222  H   LYS d   1     100.093 -82.406  -9.959  0.00  0.00     0.087 H 
BRANCH 221 223
ATOM    223  C   LYS d   1     101.416 -80.800 -10.464  0.00  0.00     0.241 C 
ATOM    224  O   LYS d   1     102.397 -81.483 -10.171  0.00  0.00    -0.271 OA
ATOM    225  N   LYS d   1     101.518 -79.527 -10.844  0.00  0.00    -0.345 N 
ATOM    226  H   LYS d   1     100.696 -78.999 -11.057  0.00  0.00     0.163 HD
BRANCH 225 227
ATOM    227  CA  LYS d   1     102.849 -78.900 -10.949  0.00  0.00     0.096 C 
ATOM    228  H   LYS d   1     103.335 -79.013  -9.969  0.00  0.00     0.089 H 
BRANCH 227 229
ATOM    229  C   LYS d   1     102.763 -77.423 -11.274  0.00  0.00     0.196 C 
ATOM    230  O   LYS d   1     102.338 -77.039 -12.403  0.00  0.00    -0.646 OA
ATOM    231  OXT LYS d   1     103.118 -76.572 -10.415  0.00  0.00    -0.646 OA
ENDBRANCH 227 229
BRANCH 227 232
ATOM    232  CB  LYS d   1     103.755 -79.529 -12.001  0.00  0.00    -0.037 C 
ATOM    233  H   LYS d   1     103.971 -78.751 -12.748  0.00  0.00     0.036 H 
ATOM    234  H   LYS d   1     103.186 -80.343 -12.473  0.00  0.00     0.036 H 
BRANCH 232 235
ATOM    235  CG  LYS d   1     105.090 -80.112 -11.565  0.00  0.00    -0.061 C 
ATOM    236  H   LYS d   1     105.353 -79.647 -10.604  0.00  0.00     0.033 H 
ATOM    237  H   LYS d   1     105.835 -79.832 -12.324  0.00  0.00     0.033 H 
BRANCH 235 238
ATOM    238  CD  LYS d   1     105.177 -81.627 -11.378  0.00  0.00    -0.043 C 
ATOM    239  H   LYS d   1     104.147 -82.010 -11.338  0.00  0.00     0.035 H 
ATOM    240  H   LYS d   1     105.673 -81.809 -10.413  0.00  0.00     0.035 H 
BRANCH 238 241
ATOM    241  CE  LYS d   1     105.915 -82.433 -12.420  0.00  0.00     0.080 C 
ATOM    242  H   LYS d   1     106.889 -82.712 -11.992  0.00  0.00     0.075 H 
ATOM    243  H   LYS d   1     106.072 -81.780 -13.291  0.00  0.00     0.075 H 
BRANCH 241 244
ATOM    244  NZ  LYS d   1     105.282 -83.656 -12.899  0.00  0.00    -0.079 N 
ATOM    245  H   LYS d   1     105.875 -84.094 -13.586  0.00  0.00     0.274 HD
ATOM    246  H   LYS d   1     104.392 -83.433 -13.317  0.00  0.00     0.274 HD
ATOM    247  H   LYS d   1     105.141 -84.287 -12.125  0.00  0.00     0.274 HD
ENDBRANCH 241 244
ENDBRANCH 238 241
ENDBRANCH 235 238
ENDBRANCH 232 235
ENDBRANCH 227 232
ENDBRANCH 225 227
ENDBRANCH 221 223
BRANCH 221 248
ATOM    248  CB  LYS d   1      99.446 -81.547 -11.819  0.00  0.00    -0.038 C 
ATOM    249  H   LYS d   1     100.252 -81.339 -12.539  0.00  0.00     0.036 H 
ATOM    250  H   LYS d   1      98.642 -80.807 -11.945  0.00  0.00     0.036 H 
BRANCH 248 251
ATOM    251  CG  LYS d   1      98.879 -82.925 -12.122  0.00  0.00    -0.061 C 
ATOM    252  H   LYS d   1      99.091 -83.177 -13.171  0.00  0.00     0.033 H 
ATOM    253  H   LYS d   1      97.791 -82.908 -11.962  0.00  0.00     0.033 H 
BRANCH 251 254
ATOM    254  CD  LYS d   1      99.495 -83.985 -11.224  0.00  0.00    -0.043 C 
ATOM    255  H   LYS d   1      98.693 -84.610 -10.805  0.00  0.00     0.035 H 
ATOM    256  H   LYS d   1     100.039 -83.490 -10.406  0.00  0.00     0.035 H 
BRANCH 254 257
ATOM    257  CE  LYS d   1     100.460 -84.870 -11.996  0.00  0.00     0.080 C 
ATOM    258  H   LYS d   1     101.303 -85.134 -11.340  0.00  0.00     0.075 H 
ATOM    259  H   LYS d   1     100.834 -84.313 -12.867  0.00  0.00     0.075 H 
BRANCH 257 260
ATOM    260  NZ  LYS d   1      99.809 -86.122 -12.469  0.00  0.00    -0.079 N 
ATOM    261  H   LYS d   1     100.480 -86.679 -12.975  0.00  0.00     0.274 HD
ATOM    262  H   LYS d   1      99.038 -85.891 -13.076  0.00  0.00     0.274 HD
ATOM    263  H   LYS d   1      99.468 -86.644 -11.677  0.00  0.00     0.274 HD
ENDBRANCH 257 260
ENDBRANCH 254 257
ENDBRANCH 251 254
ENDBRANCH 248 251
ENDBRANCH 221 248
ENDBRANCH 219 221
ENDBRANCH 215 217
BRANCH 215 264
ATOM    264  CB  LYS d   1      97.296 -79.993  -7.257  0.00  0.00    -0.038 C 
ATOM    265  H   LYS d   1      96.597 -80.114  -8.097  0.00  0.00     0.036 H 
ATOM    266  H   LYS d   1      96.800 -79.443  -6.444  0.00  0.00     0.036 H 
BRANCH 264 267
ATOM    267  CG  LYS d   1      97.667 -81.374  -6.742  0.00  0.00    -0.061 C 
ATOM    268  H   LYS d   1      97.262 -81.499  -5.727  0.00  0.00     0.033 H 
ATOM    269  H   LYS d   1      98.763 -81.463  -6.713  0.00  0.00     0.033 H 
BRANCH 267 270
ATOM    270  CD  LYS d   1      97.105 -82.467  -7.637  0.00  0.00    -0.043 C 
ATOM    271  H   LYS d   1      97.434 -82.288  -8.671  0.00  0.00     0.035 H 
ATOM    272  H   LYS d   1      96.006 -82.438  -7.591  0.00  0.00     0.035 H 
BRANCH 270 273
ATOM    273  CE  LYS d   1      97.583 -83.841  -7.197  0.00  0.00     0.080 C 
ATOM    274  H   LYS d   1      96.838 -84.275  -6.513  0.00  0.00     0.075 H 
ATOM    275  H   LYS d   1      98.543 -83.732  -6.672  0.00  0.00     0.075 H 
BRANCH 273 276
ATOM    276  NZ  LYS d   1      97.768 -84.761  -8.353  0.00  0.00    -0.079 N 
ATOM    277  H   LYS d   1      98.084 -85.659  -8.021  0.00  0.00     0.274 HD
ATOM    278  H   LYS d   1      98.454 -84.375  -8.983  0.00  0.00     0.274 HD
ATOM    279  H   LYS d   1      96.891 -84.872  -8.838  0.00  0.00     0.274 HD
ENDBRANCH 273 276
ENDBRANCH 270 273
ENDBRANCH 267 270
ENDBRANCH 264 267
ENDBRANCH 215 264
ENDBRANCH 213 215
ENDBRANCH 209 211
BRANCH 209 280
ATOM    280  CB  LYS d   1      97.452 -75.077  -9.268  0.00  0.00    -0.038 C 
ATOM    281  H   LYS d   1      97.470 -75.341  -8.200  0.00  0.00     0.036 H 
ATOM    282  H   LYS d   1      96.426 -75.176  -9.653  0.00  0.00     0.036 H 
BRANCH 280 283
ATOM    283  CG  LYS d   1      97.836 -73.591  -9.375  0.00  0.00    -0.061 C 
ATOM    284  H   LYS d   1      97.419 -73.207 -10.318  0.00  0.00     0.033 H 
ATOM    285  H   LYS d   1      98.934 -73.533  -9.409  0.00  0.00     0.033 H 
BRANCH 283 286
ATOM    286  CD  LYS d   1      97.359 -72.668  -8.248  0.00  0.00    -0.043 C 
ATOM    287  H   LYS d   1      97.403 -73.246  -7.314  0.00  0.00     0.035 H 
ATOM    288  H   LYS d   1      96.314 -72.402  -8.466  0.00  0.00     0.035 H 
BRANCH 286 289
ATOM    289  CE  LYS d   1      98.116 -71.363  -8.007  0.00  0.00     0.080 C 
ATOM    290  H   LYS d   1      98.843 -71.250  -8.825  0.00  0.00     0.075 H 
ATOM    291  H   LYS d   1      98.652 -71.467  -7.052  0.00  0.00     0.075 H 
BRANCH 289 292
ATOM    292  NZ  LYS d   1      97.353 -70.142  -7.940  0.00  0.00    -0.079 N 
ATOM    293  H   LYS d   1      97.975 -69.365  -7.778  0.00  0.00     0.274 HD
ATOM    294  H   LYS d   1      96.688 -70.203  -7.185  0.00  0.00     0.274 HD
ATOM    295  H   LYS d   1      96.863 -70.004  -8.810  0.00  0.00     0.274 HD
ENDBRANCH 289 292
ENDBRANCH 286 289
ENDBRANCH 283 286
ENDBRANCH 280 283
ENDBRANCH 209 280
ENDBRANCH 207 209
ENDBRANCH 203 205
BRANCH 203 296
ATOM    296  CB  ILE d   1      96.875 -77.697 -14.100  0.00  0.00    -0.030 C 
ATOM    297  H   ILE d   1      96.108 -76.959 -13.823  0.00  0.00     0.043 H 
BRANCH 296 298
ATOM    298  CG1 ILE d   1      96.349 -78.457 -15.334  0.00  0.00    -0.063 C 
ATOM    299  H   ILE d   1      96.159 -79.496 -15.026  0.00  0.00     0.033 H 
ATOM    300  H   ILE d   1      97.142 -78.440 -16.096  0.00  0.00     0.033 H 
BRANCH 298 301
ATOM    301  CD1 ILE d   1      95.064 -77.927 -15.992  0.00  0.00    -0.076 C 
ATOM    302  H   ILE d   1      94.806 -78.560 -16.854  0.00  0.00     0.027 H 
ATOM    303  H   ILE d   1      95.225 -76.893 -16.331  0.00  0.00     0.027 H 
ATOM    304  H   ILE d   1      94.242 -77.949 -15.261  0.00  0.00     0.027 H 
ENDBRANCH 298 301
ENDBRANCH 296 298
BRANCH 296 305
ATOM    305  CG2 ILE d   1      98.123 -76.943 -14.509  0.00  0.00    -0.071 C 
ATOM    306  H   ILE d   1      98.518 -76.391 -13.643  0.00  0.00     0.028 H 
ATOM    307  H   ILE d   1      97.876 -76.235 -15.314  0.00  0.00     0.028 H 
ATOM    308  H   ILE d   1      98.881 -77.655 -14.867  0.00  0.00     0.028 H 
ENDBRANCH 296 305
ENDBRANCH 203 296
ENDBRANCH 201 203
ENDBRANCH  23 199
BRANCH  23 309
ATOM    309  CB1 MK8 d   1      94.304 -81.007  -9.362  0.00  0.00    -0.044 C 
ATOM    310  H   MK8 d   1      94.889 -81.931  -9.477  0.00  0.00     0.031 H 
ATOM    311  H   MK8 d   1      93.279 -81.259  -9.052  0.00  0.00     0.031 H 
ATOM    312  H   MK8 d   1      94.772 -80.370  -8.597  0.00  0.00     0.031 H 
ENDBRANCH  23 309
TORSDOF 76
