REMARK  13 active torsions:
REMARK  status: ('A' for Active; 'I' for Inactive)
REMARK    1  A    between atoms: C01_1  and  C02_2 
REMARK    2  A    between atoms: C02_2  and  C03_3 
REMARK    3  A    between atoms: C03_3  and  N04_4 
REMARK    4  A    between atoms: N04_4  and  C05_5 
REMARK    5  A    between atoms: N04_4  and  C12_12 
REMARK    6  A    between atoms: C05_5  and  C06_6 
REMARK    7  A    between atoms: C12_12  and  C13_13 
REMARK    8  A    between atoms: C16_16  and  N17_17 
REMARK       I    between atoms: N17_17  and  C18_18 
REMARK    9  A    between atoms: C18_18  and  C20_20 
REMARK   10  A    between atoms: C20_20  and  C21_21 
REMARK   11  A    between atoms: C24_24  and  S27_27 
REMARK   12  A    between atoms: S27_27  and  C30_30 
REMARK   13  A    between atoms: C30_30  and  C31_31 
ROOT
ATOM      1  C13 NBH d   1      23.261  -4.562  -6.656  0.00  0.00    -0.032 A 
ATOM      2  C14 NBH d   1      22.288  -4.265  -7.603  0.00  0.00    -0.073 A 
ATOM      3  C15 NBH d   1      22.581  -4.344  -8.975  0.00  0.00    -0.057 A 
ATOM      4  C16 NBH d   1      23.860  -4.733  -9.407  0.00  0.00     0.034 A 
ATOM      5  C32 NBH d   1      24.834  -5.040  -8.431  0.00  0.00    -0.057 A 
ATOM      6  C33 NBH d   1      24.547  -4.964  -7.079  0.00  0.00    -0.073 A 
ATOM      7  H18 NBH d   1      21.296  -3.970  -7.281  0.00  0.00     0.084 H 
ATOM      8  H19 NBH d   1      21.816  -4.103  -9.704  0.00  0.00     0.086 H 
ATOM      9  H32 NBH d   1      25.826  -5.341  -8.747  0.00  0.00     0.086 H 
ATOM     10  H33 NBH d   1      25.307  -5.212  -6.347  0.00  0.00     0.084 H 
ENDROOT
BRANCH   1  11
ATOM     11  C12 NBH d   1      22.954  -4.495  -5.153  0.00  0.00     0.107 C 
ATOM     12  H16 NBH d   1      23.903  -4.621  -4.611  0.00  0.00     0.083 H 
ATOM     13  H17 NBH d   1      22.539  -3.499  -4.939  0.00  0.00     0.083 H 
BRANCH  11  14
ATOM     14  N04 NBH d   1      21.990  -5.513  -4.629  0.00  0.00    -0.063 N 
ATOM     15  H8  NBH d   1      21.213  -5.494  -5.271  0.00  0.00     0.280 HD
BRANCH  14  16
ATOM     16  C03 NBH d   1      22.498  -6.875  -4.678  0.00  0.00     0.084 C 
ATOM     17  H6  NBH d   1      23.290  -6.901  -5.441  0.00  0.00     0.076 H 
ATOM     18  H7  NBH d   1      22.932  -7.098  -3.692  0.00  0.00     0.076 H 
BRANCH  16  19
ATOM     19  C02 NBH d   1      21.463  -8.056  -5.022  0.00  0.00    -0.046 C 
ATOM     20  H4  NBH d   1      21.947  -9.006  -4.751  0.00  0.00     0.034 H 
ATOM     21  H5  NBH d   1      20.573  -7.905  -4.393  0.00  0.00     0.034 H 
BRANCH  19  22
ATOM     22  C01 NBH d   1      20.989  -8.184  -6.450  0.00  0.00    -0.075 C 
ATOM     23  H1  NBH d   1      20.291  -9.030  -6.530  0.00  0.00     0.027 H 
ATOM     24  H2  NBH d   1      21.853  -8.358  -7.109  0.00  0.00     0.027 H 
ATOM     25  H3  NBH d   1      20.478  -7.258  -6.751  0.00  0.00     0.027 H 
ENDBRANCH  19  22
ENDBRANCH  16  19
ENDBRANCH  14  16
BRANCH  14  26
ATOM     26  C05 NBH d   1      21.416  -5.174  -3.309  0.00  0.00     0.107 C 
ATOM     27  H9  NBH d   1      22.244  -4.832  -2.671  0.00  0.00     0.083 H 
ATOM     28  H10 NBH d   1      20.988  -6.098  -2.892  0.00  0.00     0.083 H 
BRANCH  26  29
ATOM     29  C06 NBH d   1      20.356  -4.132  -3.253  0.00  0.00    -0.033 A 
ATOM     30  C07 NBH d   1      20.338  -3.215  -2.171  0.00  0.00    -0.075 A 
ATOM     31  C08 NBH d   1      19.335  -2.214  -2.096  0.00  0.00    -0.082 A 
ATOM     32  H11 NBH d   1      21.095  -3.279  -1.397  0.00  0.00     0.084 H 
ATOM     33  C09 NBH d   1      18.373  -2.124  -3.066  0.00  0.00    -0.083 A 
ATOM     34  H12 NBH d   1      19.331  -1.517  -1.266  0.00  0.00     0.083 H 
ATOM     35  C10 NBH d   1      18.382  -3.039  -4.153  0.00  0.00    -0.082 A 
ATOM     36  H13 NBH d   1      17.608  -1.358  -3.005  0.00  0.00     0.083 H 
ATOM     37  C11 NBH d   1      19.388  -4.042  -4.235  0.00  0.00    -0.075 A 
ATOM     38  H14 NBH d   1      17.621  -2.973  -4.922  0.00  0.00     0.083 H 
ATOM     39  H15 NBH d   1      19.395  -4.736  -5.068  0.00  0.00     0.084 H 
ENDBRANCH  26  29
ENDBRANCH  14  26
ENDBRANCH  11  14
ENDBRANCH   1  11
BRANCH   4  40
ATOM     40  N17 NBH d   1      24.272  -4.851 -10.765  0.00  0.00    -0.327 N 
ATOM     41  C18 NBH d   1      23.411  -4.887 -11.914  0.00  0.00     0.226 C 
ATOM     42  O19 NBH d   1      22.216  -4.838 -11.833  0.00  0.00    -0.273 OA
ATOM     43  H20 NBH d   1      25.255  -4.915 -10.935  0.00  0.00     0.169 HD
BRANCH  41  44
ATOM     44  C20 NBH d   1      24.038  -5.065 -13.277  0.00  0.00     0.033 C 
ATOM     45  H21 NBH d   1      25.122  -4.891 -13.210  0.00  0.00     0.054 H 
ATOM     46  H22 NBH d   1      23.594  -4.349 -13.984  0.00  0.00     0.054 H 
BRANCH  44  47
ATOM     47  C21 NBH d   1      23.777  -6.489 -13.759  0.00  0.00    -0.049 A 
ATOM     48  C22 NBH d   1      24.405  -7.551 -13.069  0.00  0.00    -0.075 A 
ATOM     49  C23 NBH d   1      24.166  -8.894 -13.456  0.00  0.00    -0.062 A 
ATOM     50  H23 NBH d   1      25.072  -7.338 -12.241  0.00  0.00     0.084 H 
ATOM     51  C24 NBH d   1      23.292  -9.173 -14.535  0.00  0.00     0.059 A 
ATOM     52  H24 NBH d   1      24.651  -9.706 -12.927  0.00  0.00     0.085 H 
ATOM     53  C25 NBH d   1      22.641  -8.111 -15.211  0.00  0.00    -0.062 A 
ATOM     54  C26 NBH d   1      22.869  -6.765 -14.828  0.00  0.00    -0.075 A 
ATOM     55  H25 NBH d   1      21.963  -8.330 -16.028  0.00  0.00     0.085 H 
ATOM     56  H26 NBH d   1      22.361  -5.955 -15.339  0.00  0.00     0.084 H 
BRANCH  51  57
ATOM     57  S27 NBH d   1      22.982 -10.840 -15.004  0.00  0.00     0.175 S 
ATOM     58  O28 NBH d   1      22.939 -10.965 -16.435  0.00  0.00    -0.223 OA
ATOM     59  O29 NBH d   1      24.030 -11.758 -14.597  0.00  0.00    -0.223 OA
BRANCH  57  60
ATOM     60  C30 NBH d   1      21.377 -11.307 -14.257  0.00  0.00     0.030 C 
ATOM     61  H27 NBH d   1      21.257 -12.393 -14.382  0.00  0.00     0.056 H 
ATOM     62  H28 NBH d   1      20.587 -10.784 -14.816  0.00  0.00     0.056 H 
BRANCH  60  63
ATOM     63  C31 NBH d   1      21.174 -10.983 -12.743  0.00  0.00    -0.064 C 
ATOM     64  H29 NBH d   1      20.174 -11.315 -12.428  0.00  0.00     0.028 H 
ATOM     65  H30 NBH d   1      21.267  -9.899 -12.584  0.00  0.00     0.028 H 
ATOM     66  H31 NBH d   1      21.938 -11.508 -12.150  0.00  0.00     0.028 H 
ENDBRANCH  60  63
ENDBRANCH  57  60
ENDBRANCH  51  57
ENDBRANCH  44  47
ENDBRANCH  41  44
ENDBRANCH   4  40
TORSDOF 13
