REMARK  10 active torsions:
REMARK  status: ('A' for Active; 'I' for Inactive)
REMARK    1  A    between atoms: C02_2  and  C11_11 
REMARK    2  A    between atoms: C04_4  and  C12_12 
REMARK    3  A    between atoms: C08_8  and  C13_13 
REMARK       I    between atoms: C11_11  and  N15_15 
REMARK    4  A    between atoms: N15_15  and  C16_16 
REMARK    5  A    between atoms: C16_16  and  C17_17 
REMARK    6  A    between atoms: C16_16  and  C19_19 
REMARK    7  A    between atoms: C17_17  and  C18_18 
REMARK    8  A    between atoms: C19_19  and  O21_21 
REMARK    9  A    between atoms: O21_21  and  C22_22 
REMARK   10  A    between atoms: C32_32  and  O36_36 
ROOT
ATOM      1  N01 2KD d   1      -3.817  32.405  12.368  0.00  0.00    -0.243 NA
ATOM      2  C02 2KD d   1      -4.555  31.292  12.430  0.00  0.00     0.126 A 
ATOM      3  C03 2KD d   1      -5.763  31.288  13.129  0.00  0.00    -0.032 A 
ATOM      4  C04 2KD d   1      -6.202  32.449  13.775  0.00  0.00     0.055 A 
ATOM      5  C05 2KD d   1      -5.408  33.615  13.687  0.00  0.00     0.011 A 
ATOM      6  C06 2KD d   1      -4.205  33.548  12.952  0.00  0.00     0.069 A 
ATOM      7  C07 2KD d   1      -5.764  34.842  14.270  0.00  0.00    -0.059 A 
ATOM      8  C08 2KD d   1      -4.942  35.990  14.138  0.00  0.00    -0.025 A 
ATOM      9  C09 2KD d   1      -3.737  35.879  13.420  0.00  0.00    -0.070 A 
ATOM     10  C10 2KD d   1      -3.383  34.677  12.834  0.00  0.00    -0.053 A 
ATOM     11  H1  2KD d   1      -6.361  30.385  13.171  0.00  0.00     0.089 H 
ATOM     12  H2  2KD d   1      -6.687  34.913  14.833  0.00  0.00     0.086 H 
ATOM     13  H3  2KD d   1      -3.083  36.739  13.326  0.00  0.00     0.084 H 
ATOM     14  H4  2KD d   1      -2.457  34.607  12.275  0.00  0.00     0.087 H 
ENDROOT
BRANCH   2  15
ATOM     15  C11 2KD d   1      -4.022  30.054  11.779  0.00  0.00     0.271 C 
ATOM     16  O14 2KD d   1      -4.814  29.196  11.404  0.00  0.00    -0.266 OA
ATOM     17  N15 2KD d   1      -2.687  29.953  11.638  0.00  0.00    -0.342 N 
ATOM     18  H5  2KD d   1      -2.110  30.702  11.964  0.00  0.00     0.163 HD
BRANCH  17  19
ATOM     19  C16 2KD d   1      -2.056  28.800  11.032  0.00  0.00     0.100 C 
ATOM     20  H6  2KD d   1      -2.577  27.887  11.356  0.00  0.00     0.088 H 
BRANCH  19  21
ATOM     21  C17 2KD d   1      -2.132  28.905   9.472  0.00  0.00    -0.013 C 
ATOM     22  H7  2KD d   1      -3.176  29.080   9.171  0.00  0.00     0.043 H 
ATOM     23  H8  2KD d   1      -1.776  27.964   9.028  0.00  0.00     0.043 H 
BRANCH  21  24
ATOM     24  C18 2KD d   1      -1.249  30.078   8.961  0.00  0.00    -0.056 A 
ATOM     25  C30 2KD d   1      -1.730  31.405   9.022  0.00  0.00    -0.074 A 
ATOM     26  C31 2KD d   1      -0.919  32.474   8.580  0.00  0.00    -0.051 A 
ATOM     27  H16 2KD d   1      -2.723  31.603   9.409  0.00  0.00     0.084 H 
ATOM     28  C32 2KD d   1       0.330  32.219   7.986  0.00  0.00     0.065 A 
ATOM     29  H17 2KD d   1      -1.261  33.496   8.699  0.00  0.00     0.087 H 
ATOM     30  C33 2KD d   1       0.763  30.888   7.828  0.00  0.00    -0.051 A 
ATOM     31  C34 2KD d   1       0.014  29.829   8.371  0.00  0.00    -0.074 A 
ATOM     32  H18 2KD d   1       1.678  30.679   7.285  0.00  0.00     0.087 H 
ATOM     33  H19 2KD d   1       0.405  28.818   8.338  0.00  0.00     0.084 H 
BRANCH  28  34
ATOM     34  O36 2KD d   1       1.137  33.299   7.591  0.00  0.00    -0.361 OA
ATOM     35  H20 2KD d   1       0.684  34.114   7.772  0.00  0.00     0.217 HD
ENDBRANCH  28  34
ENDBRANCH  21  24
ENDBRANCH  19  21
BRANCH  19  36
ATOM     36  C19 2KD d   1      -0.616  28.739  11.483  0.00  0.00     0.281 C 
ATOM     37  O20 2KD d   1      -0.165  29.572  12.261  0.00  0.00    -0.263 OA
BRANCH  36  38
ATOM     38  O21 2KD d   1       0.094  27.715  10.990  0.00  0.00    -0.325 OA
BRANCH  38  39
ATOM     39  C22 2KD d   1       1.469  27.656  11.439  0.00  0.00     0.013 C 
ATOM     40  H9  2KD d   1       1.967  26.787  10.983  0.00  0.00     0.067 H 
ATOM     41  H10 2KD d   1       1.493  27.559  12.534  0.00  0.00     0.067 H 
ATOM     42  H11 2KD d   1       1.992  28.576  11.140  0.00  0.00     0.067 H 
ENDBRANCH  38  39
ENDBRANCH  36  38
ENDBRANCH  19  36
ENDBRANCH  17  19
ENDBRANCH   2  15
BRANCH   4  43
ATOM     43  C12 2KD d   1      -7.526  32.392  14.509  0.00  0.00     0.210 C 
ATOM     44  O23 2KD d   1      -8.539  31.956  13.900  0.00  0.00    -0.644 OA
ATOM     45  O24 2KD d   1      -7.605  32.801  15.699  0.00  0.00    -0.644 OA
ENDBRANCH   4  43
BRANCH   8  46
ATOM     46  C13 2KD d   1      -5.315  37.296  14.744  0.00  0.00    -0.024 A 
ATOM     47  C25 2KD d   1      -5.913  37.347  16.013  0.00  0.00    -0.051 A 
ATOM     48  C26 2KD d   1      -6.253  38.583  16.592  0.00  0.00     0.034 A 
ATOM     49  H12 2KD d   1      -6.114  36.427  16.550  0.00  0.00     0.087 H 
ATOM     50  C27 2KD d   1      -5.990  39.781  15.907  0.00  0.00    -0.062 A 
ATOM     51 CL   2KD d   1      -6.979  38.625  18.180  0.00  0.00    -0.084 Cl
ATOM     52  C28 2KD d   1      -5.390  39.736  14.653  0.00  0.00    -0.081 A 
ATOM     53  H13 2KD d   1      -6.253  40.734  16.353  0.00  0.00     0.086 H 
ATOM     54  C29 2KD d   1      -5.053  38.501  14.074  0.00  0.00    -0.072 A 
ATOM     55  H14 2KD d   1      -5.182  40.657  14.120  0.00  0.00     0.083 H 
ATOM     56  H15 2KD d   1      -4.584  38.479  13.097  0.00  0.00     0.084 H 
ENDBRANCH   8  46
TORSDOF 10
