REMARK  8 active torsions:
REMARK  status: ('A' for Active; 'I' for Inactive)
REMARK    1  A    between atoms: CAV_9  and  NAR_10 
REMARK    2  A    between atoms: NAR_10  and  CAY_11 
REMARK    3  A    between atoms: CAZ_14  and  OAU_15 
REMARK    4  A    between atoms: OAU_15  and  CAA_16 
REMARK    5  A    between atoms: CAX_18  and  NAQ_19 
REMARK    6  A    between atoms: NAQ_19  and  CAK_20 
REMARK    7  A    between atoms: CAK_20  and  CAL_21 
REMARK    8  A    between atoms: CAL_21  and  CAW_22 
ROOT
ATOM      1  CAY NJD d   1     -19.031  -1.992  13.068  0.00  0.00     0.746 A 
ATOM      2  NAN NJD d   1     -19.160  -3.305  12.967  0.00  0.00     0.130 NA
ATOM      3  NAP NJD d   1     -18.110  -1.390  12.308  0.00  0.00    -0.017 NA
ATOM      4  CAZ NJD d   1     -17.343  -2.061  11.451  0.00  0.00     0.302 A 
ATOM      5  NAO NJD d   1     -17.468  -3.401  11.358  0.00  0.00    -0.018 NA
ATOM      6  CAX NJD d   1     -18.355  -4.024  12.140  0.00  0.00     0.741 A 
ENDROOT
BRANCH   6   7
ATOM      7  NAQ NJD d   1     -18.553  -5.351  12.082  0.00  0.00    -0.222 N 
ATOM      8  H   NJD d   1     -17.800  -6.048  12.177  0.00  0.00     0.177 HD
BRANCH   7   9
ATOM      9  CAK NJD d   1     -19.986  -5.701  11.865  0.00  0.00     0.013 C 
ATOM     10  H   NJD d   1     -20.265  -5.497  10.821  0.00  0.00     0.065 H 
ATOM     11  H   NJD d   1     -20.621  -5.105  12.538  0.00  0.00     0.065 H 
BRANCH   9  12
ATOM     12  CAL NJD d   1     -20.155  -7.092  12.147  0.00  0.00    -0.024 C 
ATOM     13  H   NJD d   1     -19.233  -7.460  12.620  0.00  0.00     0.042 H 
ATOM     14  H   NJD d   1     -20.314  -7.618  11.194  0.00  0.00     0.042 H 
BRANCH  12  15
ATOM     15  CAW NJD d   1     -21.301  -7.412  13.051  0.00  0.00    -0.029 A 
ATOM     16  CBD NJD d   1     -21.333  -8.654  13.518  0.00  0.00    -0.002 A 
ATOM     17  CAF NJD d   1     -20.469  -9.667  13.321  0.00  0.00    -0.070 A 
ATOM     18  CBC NJD d   1     -22.415  -8.707  14.299  0.00  0.00     0.042 A 
ATOM     19  CAC NJD d   1     -20.695 -10.899  13.955  0.00  0.00    -0.082 A 
ATOM     20  H   NJD d   1     -19.606  -9.533  12.678  0.00  0.00     0.084 H 
ATOM     21  CAB NJD d   1     -21.841 -10.973  14.780  0.00  0.00    -0.081 A 
ATOM     22  H   NJD d   1     -20.030 -11.744  13.820  0.00  0.00     0.083 H 
ATOM     23  CAE NJD d   1     -22.682  -9.853  14.930  0.00  0.00    -0.056 A 
ATOM     24  H   NJD d   1     -22.073 -11.896  15.299  0.00  0.00     0.083 H 
ATOM     25  H   NJD d   1     -23.557  -9.922  15.566  0.00  0.00     0.086 H 
ATOM     26  NAS NJD d   1     -23.035  -7.488  14.262  0.00  0.00    -0.365 N 
ATOM     27  CAI NJD d   1     -22.328  -6.683  13.465  0.00  0.00    -0.015 A 
ATOM     28  H   NJD d   1     -23.899  -7.235  14.763  0.00  0.00     0.165 HD
ATOM     29  H   NJD d   1     -22.548  -5.648  13.209  0.00  0.00     0.112 H 
ENDBRANCH  12  15
ENDBRANCH   9  12
ENDBRANCH   7   9
ENDBRANCH   6   7
BRANCH   1  30
ATOM     30  NAR NJD d   1     -19.748  -1.230  13.906  0.00  0.00    -0.188 N 
ATOM     31  H   NJD d   1     -19.592  -0.212  13.876  0.00  0.00     0.184 HD
BRANCH  30  32
ATOM     32  CAV NJD d   1     -20.672  -1.702  14.799  0.00  0.00     0.050 A 
ATOM     33  CAJ NJD d   1     -20.956  -3.075  15.093  0.00  0.00    -0.043 A 
ATOM     34  CBA NJD d   1     -21.939  -3.367  15.977  0.00  0.00     0.013 A 
ATOM     35  H   NJD d   1     -20.392  -3.868  14.615  0.00  0.00     0.088 H 
ATOM     36  CAH NJD d   1     -22.412  -4.530  16.426  0.00  0.00     0.008 A 
ATOM     37  CBB NJD d   1     -22.640  -2.386  16.602  0.00  0.00     0.088 A 
ATOM     38  NAM NJD d   1     -23.414  -4.296  17.282  0.00  0.00    -0.288 N 
ATOM     39  H   NJD d   1     -22.042  -5.514  16.142  0.00  0.00     0.115 H 
ATOM     40  NAT NJD d   1     -23.534  -2.937  17.385  0.00  0.00    -0.175 NA
ATOM     41  H   NJD d   1     -23.984  -5.002  17.769  0.00  0.00     0.188 HD
ATOM     42  CAG NJD d   1     -22.399  -1.106  16.366  0.00  0.00    -0.051 A 
ATOM     43  CAD NJD d   1     -21.413  -0.723  15.470  0.00  0.00    -0.054 A 
ATOM     44  H   NJD d   1     -22.980  -0.348  16.880  0.00  0.00     0.087 H 
ATOM     45  H   NJD d   1     -21.217   0.328  15.290  0.00  0.00     0.087 H 
ENDBRANCH  30  32
ENDBRANCH   1  30
BRANCH   4  46
ATOM     46  OAU NJD d   1     -16.419  -1.380  10.712  0.00  0.00    -0.323 OA
BRANCH  46  47
ATOM     47  CAA NJD d   1     -16.842  -0.008  10.504  0.00  0.00     0.013 C 
ATOM     48  H   NJD d   1     -16.085   0.523   9.908  0.00  0.00     0.067 H 
ATOM     49  H   NJD d   1     -16.958   0.491  11.477  0.00  0.00     0.067 H 
ATOM     50  H   NJD d   1     -17.803   0.002   9.970  0.00  0.00     0.067 H 
ENDBRANCH  46  47
ENDBRANCH   4  46
TORSDOF 8
