REMARK  5 active torsions:
REMARK  status: ('A' for Active; 'I' for Inactive)
REMARK       I    between atoms: N16_16  and  C8_5 
REMARK    1  A    between atoms: C10_6  and  C11_11 
REMARK    2  A    between atoms: N14_14  and  C9_10 
REMARK       I    between atoms: C11_11  and  N14_14 
REMARK    3  A    between atoms: N15_15  and  C12_12 
REMARK    4  A    between atoms: O22_22  and  N15_15 
REMARK    5  A    between atoms: O22_22  and  S23_23 
ROOT
ATOM      1  C4  MK7 d   1       3.610  13.774  19.452  0.00  0.00    -0.032 C 
ATOM      2  C7  MK7 d   1       5.122  11.979  20.210  0.00  0.00     0.027 C 
ATOM      3  C8  MK7 d   1       5.499  10.647  18.185  0.00  0.00     0.171 C 
ATOM      4  C10 MK7 d   1       5.612  13.029  17.986  0.00  0.00     0.091 C 
ATOM      5  C1  MK7 d   1       4.303  13.817  18.093  0.00  0.00    -0.036 C 
ATOM      6  C12 MK7 d   1       3.683  12.432  20.165  0.00  0.00     0.147 C 
ATOM      7  N16 MK7 d   1       5.593  11.845  18.836  0.00  0.00    -0.344 N 
ATOM      8  O18 MK7 d   1       5.516  10.515  16.961  0.00  0.00    -0.284 OA
ATOM      9  H1  MK7 d   1       2.549  14.025  19.303  0.00  0.00     0.036 H 
ATOM     10  H2  MK7 d   1       4.078  14.531  20.099  0.00  0.00     0.036 H 
ATOM     11  H7  MK7 d   1       5.193  11.010  20.726  0.00  0.00     0.067 H 
ATOM     12  H8  MK7 d   1       5.732  12.723  20.743  0.00  0.00     0.067 H 
ATOM     13  H9  MK7 d   1       5.402   9.747  18.791  0.00  0.00     0.180 H 
ATOM     14  H10 MK7 d   1       5.742  12.727  16.936  0.00  0.00     0.087 H 
ATOM     15  H11 MK7 d   1       4.523  14.869  17.860  0.00  0.00     0.036 H 
ATOM     16  H12 MK7 d   1       3.604  13.414  17.345  0.00  0.00     0.036 H 
ATOM     17  H18 MK7 d   1       3.263  12.534  21.177  0.00  0.00     0.091 H 
ENDROOT
BRANCH   4  18
ATOM     18  C11 MK7 d   1       6.826  13.822  18.431  0.00  0.00     0.240 C 
ATOM     19  N14 MK7 d   1       7.180  14.820  17.551  0.00  0.00    -0.355 N 
ATOM     20  H21 MK7 d   1       6.639  14.962  16.722  0.00  0.00     0.162 HD
ATOM     21  O19 MK7 d   1       7.450  13.577  19.456  0.00  0.00    -0.271 OA
BRANCH  19  22
ATOM     22  C9  MK7 d   1       8.330  15.669  17.811  0.00  0.00     0.015 C 
ATOM     23  C2  MK7 d   1       8.267  16.968  17.036  0.00  0.00    -0.024 C 
ATOM     24  C5  MK7 d   1       9.446  17.856  17.398  0.00  0.00     0.083 C 
ATOM     25  H13 MK7 d   1       8.295  16.749  15.958  0.00  0.00     0.038 H 
ATOM     26  H14 MK7 d   1       7.330  17.491  17.280  0.00  0.00     0.038 H 
ATOM     27  N13 MK7 d   1      10.699  17.155  17.134  0.00  0.00    -0.075 N 
ATOM     28  H3  MK7 d   1       9.392  18.116  18.465  0.00  0.00     0.075 H 
ATOM     29  H4  MK7 d   1       9.409  18.775  16.794  0.00  0.00     0.075 H 
ATOM     30  C6  MK7 d   1      10.760  15.927  17.920  0.00  0.00     0.083 C 
ATOM     31  H19 MK7 d   1      11.473  17.750  17.384  0.00  0.00     0.277 HD
ATOM     32  H20 MK7 d   1      10.754  16.927  16.154  0.00  0.00     0.277 HD
ATOM     33  C3  MK7 d   1       9.645  14.986  17.494  0.00  0.00    -0.024 C 
ATOM     34  H5  MK7 d   1      11.732  15.438  17.758  0.00  0.00     0.075 H 
ATOM     35  H6  MK7 d   1      10.645  16.170  18.987  0.00  0.00     0.075 H 
ATOM     36  H15 MK7 d   1       9.720  14.039  18.048  0.00  0.00     0.038 H 
ATOM     37  H16 MK7 d   1       9.714  14.786  16.415  0.00  0.00     0.038 H 
ATOM     38  H17 MK7 d   1       8.322  15.910  18.884  0.00  0.00     0.072 H 
ENDBRANCH  19  22
ENDBRANCH   4  18
BRANCH   6  39
ATOM     39  N15 MK7 d   1       3.016  11.353  19.443  0.00  0.00     0.061 N 
ATOM     40  H22 MK7 d   1       3.214  10.476  19.899  0.00  0.00     0.316 HD
ATOM     41  H23 MK7 d   1       3.361  11.325  18.496  0.00  0.00     0.316 HD
BRANCH  39  42
ATOM     42  O22 MK7 d   1       1.585  11.566  19.422  0.00  0.00    -0.054 OA
BRANCH  42  43
ATOM     43  S23 MK7 d   1       0.985  10.895  18.040  0.00  0.00     0.279 S 
ATOM     44  O17 MK7 d   1       1.749   9.465  17.916  0.00  0.00    -0.571 OA
ATOM     45  O20 MK7 d   1      -0.444  10.703  18.214  0.00  0.00    -0.571 OA
ATOM     46  O21 MK7 d   1       1.499  11.701  16.944  0.00  0.00    -0.571 OA
ENDBRANCH  42  43
ENDBRANCH  39  42
ENDBRANCH   6  39
TORSDOF 5
