REMARK  13 active torsions:
REMARK  status: ('A' for Active; 'I' for Inactive)
REMARK    1  A    between atoms: C21_1  and  O2_2 
REMARK    2  A    between atoms: O2_2  and  C16_3 
REMARK    3  A    between atoms: C18_6  and  O1_7 
REMARK    4  A    between atoms: O1_7  and  C20_8 
REMARK    5  A    between atoms: C14_10  and  C13_11 
REMARK    6  A    between atoms: C13_11  and  C12_12 
REMARK    7  A    between atoms: C12_12  and  C11_13 
REMARK    8  A    between atoms: C9_17  and  N4_18 
REMARK    9  A    between atoms: N4_18  and  C8_19 
REMARK   10  A    between atoms: C5_24  and  N1_25 
REMARK   11  A    between atoms: N1_25  and  C4_26 
REMARK   12  A    between atoms: C4_26  and  C3_27 
REMARK   13  A    between atoms: C1_31  and  C_32 
ROOT
ATOM      1  C11 2K5 d   1      89.408   2.744  11.409  0.00  0.00     0.032 A 
ATOM      2  C10 2K5 d   1      88.658   3.289  10.349  0.00  0.00    -0.014 A 
ATOM      3  N5  2K5 d   1      89.502   1.405  11.267  0.00  0.00    -0.280 N 
ATOM      4  N6  2K5 d   1      88.783   1.133  10.158  0.00  0.00    -0.156 NA
ATOM      5  C9  2K5 d   1      88.277   2.222   9.572  0.00  0.00     0.151 A 
ATOM      6  H14 2K5 d   1      88.427   4.340  10.180  0.00  0.00     0.092 H 
ATOM      7  H15 2K5 d   1      90.008   0.741  11.869  0.00  0.00     0.189 HD
ENDROOT
BRANCH   1   8
ATOM      8  C12 2K5 d   1      90.044   3.441  12.542  0.00  0.00    -0.021 C 
ATOM      9  H12 2K5 d   1      90.787   2.765  12.991  0.00  0.00     0.042 H 
ATOM     10  H13 2K5 d   1      90.550   4.338  12.156  0.00  0.00     0.042 H 
BRANCH   8  11
ATOM     11  C13 2K5 d   1      89.040   3.883  13.660  0.00  0.00    -0.036 C 
ATOM     12  H10 2K5 d   1      88.733   4.926  13.497  0.00  0.00     0.040 H 
ATOM     13  H11 2K5 d   1      88.153   3.233  13.646  0.00  0.00     0.040 H 
BRANCH  11  14
ATOM     14  C14 2K5 d   1      89.753   3.756  14.990  0.00  0.00    -0.052 A 
ATOM     15  C15 2K5 d   1      89.317   2.822  15.948  0.00  0.00    -0.045 A 
ATOM     16  C16 2K5 d   1      90.030   2.704  17.166  0.00  0.00     0.071 A 
ATOM     17  H4  2K5 d   1      88.448   2.202  15.757  0.00  0.00     0.088 H 
ATOM     18  C17 2K5 d   1      91.194   3.476  17.412  0.00  0.00    -0.019 A 
ATOM     19  C18 2K5 d   1      91.605   4.394  16.432  0.00  0.00     0.071 A 
ATOM     20  H5  2K5 d   1      91.753   3.360  18.334  0.00  0.00     0.092 H 
ATOM     21  C19 2K5 d   1      90.905   4.535  15.226  0.00  0.00    -0.045 A 
ATOM     22  H9  2K5 d   1      91.248   5.240  14.477  0.00  0.00     0.088 H 
BRANCH  16  23
ATOM     23  O2  2K5 d   1      89.555   1.753  18.052  0.00  0.00    -0.356 OA
BRANCH  23  24
ATOM     24  C21 2K5 d   1      89.826   1.894  19.454  0.00  0.00     0.010 C 
ATOM     25  H1  2K5 d   1      89.375   1.053  20.001  0.00  0.00     0.066 H 
ATOM     26  H2  2K5 d   1      89.397   2.840  19.817  0.00  0.00     0.066 H 
ATOM     27  H3  2K5 d   1      90.914   1.897  19.619  0.00  0.00     0.066 H 
ENDBRANCH  23  24
ENDBRANCH  16  23
BRANCH  19  28
ATOM     28  O1  2K5 d   1      92.730   5.198  16.562  0.00  0.00    -0.356 OA
BRANCH  28  29
ATOM     29  C20 2K5 d   1      93.244   5.505  17.864  0.00  0.00     0.010 C 
ATOM     30  H6  2K5 d   1      94.131   6.149  17.766  0.00  0.00     0.066 H 
ATOM     31  H7  2K5 d   1      93.522   4.573  18.378  0.00  0.00     0.066 H 
ATOM     32  H8  2K5 d   1      92.473   6.029  18.448  0.00  0.00     0.066 H 
ENDBRANCH  28  29
ENDBRANCH  19  28
ENDBRANCH  11  14
ENDBRANCH   8  11
ENDBRANCH   1   8
BRANCH   5  33
ATOM     33  N4  2K5 d   1      87.472   2.205   8.434  0.00  0.00    -0.324 N 
ATOM     34  H16 2K5 d   1      87.643   1.422   7.787  0.00  0.00     0.169 HD
BRANCH  33  35
ATOM     35  C8  2K5 d   1      86.470   3.090   8.041  0.00  0.00     0.149 A 
ATOM     36  C7  2K5 d   1      85.466   2.747   7.133  0.00  0.00    -0.020 A 
ATOM     37  C6  2K5 d   1      84.526   3.733   6.849  0.00  0.00     0.025 A 
ATOM     38  H17 2K5 d   1      85.421   1.766   6.674  0.00  0.00     0.091 H 
ATOM     39  N2  2K5 d   1      84.531   4.987   7.418  0.00  0.00    -0.075 NA
ATOM     40  H18 2K5 d   1      83.743   3.500   6.137  0.00  0.00     0.115 H 
ATOM     41  C5  2K5 d   1      85.516   5.221   8.296  0.00  0.00     0.724 A 
ATOM     42  N3  2K5 d   1      86.491   4.349   8.647  0.00  0.00    -0.045 NA
BRANCH  41  43
ATOM     43  N1  2K5 d   1      85.538   6.435   8.883  0.00  0.00    -0.216 N 
ATOM     44  H19 2K5 d   1      84.834   7.121   8.576  0.00  0.00     0.178 HD
BRANCH  43  45
ATOM     45  C4  2K5 d   1      86.479   6.859   9.920  0.00  0.00     0.055 C 
ATOM     46  H20 2K5 d   1      86.460   7.957   9.981  0.00  0.00     0.075 H 
ATOM     47  H21 2K5 d   1      87.487   6.524   9.635  0.00  0.00     0.075 H 
BRANCH  45  48
ATOM     48  C3  2K5 d   1      86.160   6.306  11.263  0.00  0.00     0.099 A 
ATOM     49  C2  2K5 d   1      85.468   5.231  11.662  0.00  0.00    -0.025 A 
ATOM     50  C1  2K5 d   1      85.529   5.246  13.059  0.00  0.00     0.060 A 
ATOM     51  H22 2K5 d   1      84.964   4.500  11.032  0.00  0.00     0.090 H 
ATOM     52  N   2K5 d   1      86.214   6.255  13.496  0.00  0.00    -0.133 NA
ATOM     53  O   2K5 d   1      86.645   6.973  12.360  0.00  0.00    -0.216 OA
BRANCH  50  54
ATOM     54  C   2K5 d   1      84.909   4.283  14.024  0.00  0.00    -0.033 C 
ATOM     55  H23 2K5 d   1      85.153   4.587  15.053  0.00  0.00     0.035 H 
ATOM     56  H24 2K5 d   1      85.302   3.273  13.837  0.00  0.00     0.035 H 
ATOM     57  H25 2K5 d   1      83.817   4.282  13.891  0.00  0.00     0.035 H 
ENDBRANCH  50  54
ENDBRANCH  45  48
ENDBRANCH  43  45
ENDBRANCH  41  43
ENDBRANCH  33  35
ENDBRANCH   5  33
TORSDOF 13
