REMARK  13 active torsions:
REMARK  status: ('A' for Active; 'I' for Inactive)
REMARK    1  A    between atoms: C1_1  and  C_32 
REMARK    2  A    between atoms: C4_29  and  C3_3 
REMARK    3  A    between atoms: C8_6  and  N4_23 
REMARK    4  A    between atoms: N4_23  and  C9_7 
REMARK    5  A    between atoms: C11_9  and  C12_10 
REMARK    6  A    between atoms: C12_10  and  C13_11 
REMARK    7  A    between atoms: C13_11  and  C14_12 
REMARK    8  A    between atoms: O1_21  and  C20_16 
REMARK    9  A    between atoms: O2_18  and  C21_17 
REMARK   10  A    between atoms: C17_19  and  O2_18 
REMARK   11  A    between atoms: C18_20  and  O1_21 
REMARK   12  A    between atoms: N1_28  and  C5_27 
REMARK   13  A    between atoms: N1_28  and  C4_29 
ROOT
ATOM      1  N6  2K7 d   1      88.416  -1.003   9.973  0.00  0.00    -0.262 N 
ATOM      2  C9  2K7 d   1      87.631   0.018   9.638  0.00  0.00     0.125 A 
ATOM      3  C10 2K7 d   1      87.750   1.107  10.546  0.00  0.00    -0.014 A 
ATOM      4  C11 2K7 d   1      88.694   0.701  11.454  0.00  0.00     0.058 A 
ATOM      5  N5  2K7 d   1      89.052  -0.558  11.124  0.00  0.00    -0.178 NA
ATOM      6  H2  2K7 d   1      88.526  -1.908   9.493  0.00  0.00     0.191 HD
ATOM      7  H4  2K7 d   1      87.211   2.053  10.525  0.00  0.00     0.092 H 
ENDROOT
BRANCH   2   8
ATOM      8  N4  2K7 d   1      86.800  -0.122   8.493  0.00  0.00    -0.325 N 
ATOM      9  H18 2K7 d   1      86.881  -1.016   7.988  0.00  0.00     0.169 HD
BRANCH   8  10
ATOM     10  C8  2K7 d   1      85.880   0.802   7.958  0.00  0.00     0.149 A 
ATOM     11  C7  2K7 d   1      85.123   0.498   6.797  0.00  0.00    -0.020 A 
ATOM     12  C6  2K7 d   1      84.216   1.468   6.379  0.00  0.00     0.025 A 
ATOM     13  H3  2K7 d   1      85.244  -0.438   6.265  0.00  0.00     0.091 H 
ATOM     14  N2  2K7 d   1      84.062   2.659   7.039  0.00  0.00    -0.075 NA
ATOM     15  H19 2K7 d   1      83.611   1.274   5.501  0.00  0.00     0.115 H 
ATOM     16  C5  2K7 d   1      84.813   2.855   8.140  0.00  0.00     0.724 A 
ATOM     17  N3  2K7 d   1      85.749   1.986   8.613  0.00  0.00    -0.045 NA
BRANCH  16  18
ATOM     18  N1  2K7 d   1      84.627   4.023   8.803  0.00  0.00    -0.216 N 
ATOM     19  H20 2K7 d   1      83.873   4.643   8.476  0.00  0.00     0.178 HD
BRANCH  18  20
ATOM     20  C4  2K7 d   1      85.427   4.471   9.960  0.00  0.00     0.055 C 
ATOM     21  H21 2K7 d   1      86.480   4.217   9.769  0.00  0.00     0.075 H 
ATOM     22  H22 2K7 d   1      85.323   5.562  10.049  0.00  0.00     0.075 H 
BRANCH  20  23
ATOM     23  C3  2K7 d   1      85.029   3.861  11.249  0.00  0.00     0.099 A 
ATOM     24  C2  2K7 d   1      84.004   3.075  11.587  0.00  0.00    -0.025 A 
ATOM     25  C1  2K7 d   1      84.159   2.818  12.957  0.00  0.00     0.060 A 
ATOM     26  H1  2K7 d   1      83.212   2.709  10.935  0.00  0.00     0.090 H 
ATOM     27  N   2K7 d   1      85.213   3.402  13.437  0.00  0.00    -0.133 NA
ATOM     28  O   2K7 d   1      85.804   4.093  12.353  0.00  0.00    -0.216 OA
BRANCH  25  29
ATOM     29  C   2K7 d   1      83.279   1.998  13.852  0.00  0.00    -0.033 C 
ATOM     30  H23 2K7 d   1      83.689   2.002  14.873  0.00  0.00     0.035 H 
ATOM     31  H24 2K7 d   1      83.237   0.964  13.478  0.00  0.00     0.035 H 
ATOM     32  H25 2K7 d   1      82.266   2.426  13.862  0.00  0.00     0.035 H 
ENDBRANCH  25  29
ENDBRANCH  20  23
ENDBRANCH  18  20
ENDBRANCH  16  18
ENDBRANCH   8  10
ENDBRANCH   2   8
BRANCH   4  33
ATOM     33  C12 2K7 d   1      89.146   1.378  12.682  0.00  0.00    -0.019 C 
ATOM     34  H5  2K7 d   1      89.274   2.449  12.465  0.00  0.00     0.042 H 
ATOM     35  H6  2K7 d   1      90.112   0.947  12.985  0.00  0.00     0.042 H 
BRANCH  33  36
ATOM     36  C13 2K7 d   1      88.142   1.228  13.867  0.00  0.00    -0.036 C 
ATOM     37  H7  2K7 d   1      88.023   0.160  14.102  0.00  0.00     0.040 H 
ATOM     38  H8  2K7 d   1      87.170   1.649  13.569  0.00  0.00     0.040 H 
BRANCH  36  39
ATOM     39  C14 2K7 d   1      88.627   1.942  15.084  0.00  0.00    -0.055 A 
ATOM     40  C15 2K7 d   1      89.391   1.255  16.045  0.00  0.00    -0.074 A 
ATOM     41  C16 2K7 d   1      89.865   1.896  17.186  0.00  0.00    -0.048 A 
ATOM     42  H9  2K7 d   1      89.615   0.205  15.894  0.00  0.00     0.084 H 
ATOM     43  C17 2K7 d   1      89.568   3.252  17.369  0.00  0.00     0.101 A 
ATOM     44  H10 2K7 d   1      90.453   1.356  17.919  0.00  0.00     0.087 H 
ATOM     45  C18 2K7 d   1      88.801   3.962  16.386  0.00  0.00     0.102 A 
ATOM     46  C19 2K7 d   1      88.340   3.298  15.251  0.00  0.00    -0.042 A 
ATOM     47  H11 2K7 d   1      87.763   3.830  14.504  0.00  0.00     0.088 H 
BRANCH  43  48
ATOM     48  O2  2K7 d   1      90.040   4.002  18.415  0.00  0.00    -0.353 OA
BRANCH  48  49
ATOM     49  C21 2K7 d   1      91.424   4.381  18.367  0.00  0.00     0.010 C 
ATOM     50  H15 2K7 d   1      91.673   4.975  19.259  0.00  0.00     0.066 H 
ATOM     51  H16 2K7 d   1      91.609   4.981  17.464  0.00  0.00     0.066 H 
ATOM     52  H17 2K7 d   1      92.051   3.478  18.342  0.00  0.00     0.066 H 
ENDBRANCH  48  49
ENDBRANCH  43  48
BRANCH  45  53
ATOM     53  O1  2K7 d   1      88.588   5.316  16.652  0.00  0.00    -0.353 OA
BRANCH  53  54
ATOM     54  C20 2K7 d   1      87.287   5.860  16.388  0.00  0.00     0.010 C 
ATOM     55  H12 2K7 d   1      87.277   6.929  16.646  0.00  0.00     0.066 H 
ATOM     56  H13 2K7 d   1      86.538   5.330  16.994  0.00  0.00     0.066 H 
ATOM     57  H14 2K7 d   1      87.048   5.739  15.321  0.00  0.00     0.066 H 
ENDBRANCH  53  54
ENDBRANCH  45  53
ENDBRANCH  36  39
ENDBRANCH  33  36
ENDBRANCH   4  33
TORSDOF 13
