REMARK  9 active torsions:
REMARK  status: ('A' for Active; 'I' for Inactive)
REMARK    1  A    between atoms: C1_1  and  C2_2 
REMARK    2  A    between atoms: C4_4  and  C5_5 
REMARK    3  A    between atoms: C5_5  and  N6_6 
REMARK    4  A    between atoms: N6_6  and  C7_7 
REMARK    5  A    between atoms: C11_11  and  N12_12 
REMARK    6  A    between atoms: N12_12  and  C13_13 
REMARK    7  A    between atoms: C15_15  and  C16_16 
REMARK    8  A    between atoms: C16_16  and  C17_17 
REMARK    9  A    between atoms: C17_17  and  C18_18 
ROOT
ATOM      1  N12 2M2 d   1      86.743   0.312   8.582  0.00  0.00    -0.325 N 
ATOM      2  H10 2M2 d   1      86.871  -0.430   7.880  0.00  0.00     0.169 HD
ENDROOT
BRANCH   1   3
ATOM      3  C11 2M2 d   1      85.836   1.309   8.306  0.00  0.00     0.149 A 
ATOM      4  C10 2M2 d   1      85.048   1.178   7.149  0.00  0.00    -0.020 A 
ATOM      5  C9  2M2 d   1      84.171   2.209   6.842  0.00  0.00     0.025 A 
ATOM      6  H9  2M2 d   1      85.123   0.300   6.517  0.00  0.00     0.091 H 
ATOM      7  N8  2M2 d   1      84.110   3.285   7.649  0.00  0.00    -0.075 NA
ATOM      8  H8  2M2 d   1      83.542   2.148   5.962  0.00  0.00     0.115 H 
ATOM      9  C7  2M2 d   1      84.885   3.378   8.735  0.00  0.00     0.724 A 
ATOM     10  N27 2M2 d   1      85.746   2.404   9.066  0.00  0.00    -0.045 NA
BRANCH   9  11
ATOM     11  N6  2M2 d   1      84.771   4.502   9.520  0.00  0.00    -0.216 N 
ATOM     12  H7  2M2 d   1      83.953   5.117   9.404  0.00  0.00     0.178 HD
BRANCH  11  13
ATOM     13  C5  2M2 d   1      85.789   4.843  10.519  0.00  0.00     0.055 C 
ATOM     14  H5  2M2 d   1      86.773   4.466  10.204  0.00  0.00     0.075 H 
ATOM     15  H6  2M2 d   1      85.840   5.933  10.655  0.00  0.00     0.075 H 
BRANCH  13  16
ATOM     16  C4  2M2 d   1      85.362   4.181  11.791  0.00  0.00     0.099 A 
ATOM     17  C3  2M2 d   1      84.245   3.416  12.026  0.00  0.00    -0.025 A 
ATOM     18  C2  2M2 d   1      84.315   3.060  13.411  0.00  0.00     0.060 A 
ATOM     19  H4  2M2 d   1      83.471   3.139  11.311  0.00  0.00     0.090 H 
ATOM     20  N29 2M2 d   1      85.405   3.617  13.844  0.00  0.00    -0.133 NA
ATOM     21  O28 2M2 d   1      86.005   4.255  12.969  0.00  0.00    -0.216 OA
BRANCH  18  22
ATOM     22  C1  2M2 d   1      83.367   2.193  14.234  0.00  0.00    -0.033 C 
ATOM     23  H1  2M2 d   1      82.531   1.861  13.601  0.00  0.00     0.035 H 
ATOM     24  H2  2M2 d   1      82.977   2.777  15.080  0.00  0.00     0.035 H 
ATOM     25  H3  2M2 d   1      83.910   1.315  14.614  0.00  0.00     0.035 H 
ENDBRANCH  18  22
ENDBRANCH  13  16
ENDBRANCH  11  13
ENDBRANCH   9  11
ENDBRANCH   1   3
BRANCH   1  26
ATOM     26  C13 2M2 d   1      87.493   0.242   9.739  0.00  0.00     0.125 A 
ATOM     27  C14 2M2 d   1      87.610   1.148  10.786  0.00  0.00    -0.014 A 
ATOM     28  C15 2M2 d   1      88.446   0.588  11.719  0.00  0.00     0.058 A 
ATOM     29  H11 2M2 d   1      87.128   2.122  10.854  0.00  0.00     0.092 H 
ATOM     30  N24 2M2 d   1      88.818  -0.601  11.241  0.00  0.00    -0.178 NA
ATOM     31  N26 2M2 d   1      88.203  -0.799   9.984  0.00  0.00    -0.262 N 
ATOM     32  H21 2M2 d   1      88.305  -1.625   9.377  0.00  0.00     0.191 HD
BRANCH  28  33
ATOM     33  C16 2M2 d   1      88.871   1.100  13.074  0.00  0.00    -0.019 C 
ATOM     34  H12 2M2 d   1      89.490   0.338  13.570  0.00  0.00     0.042 H 
ATOM     35  H13 2M2 d   1      87.976   1.299  13.682  0.00  0.00     0.042 H 
BRANCH  33  36
ATOM     36  C17 2M2 d   1      89.668   2.371  12.937  0.00  0.00    -0.036 C 
ATOM     37  H14 2M2 d   1      88.986   3.192  12.672  0.00  0.00     0.040 H 
ATOM     38  H15 2M2 d   1      90.413   2.240  12.138  0.00  0.00     0.040 H 
BRANCH  36  39
ATOM     39  C18 2M2 d   1      90.381   2.722  14.217  0.00  0.00    -0.058 A 
ATOM     40  C19 2M2 d   1      91.736   3.069  14.162  0.00  0.00    -0.077 A 
ATOM     41  C20 2M2 d   1      92.413   3.424  15.338  0.00  0.00    -0.082 A 
ATOM     42  H16 2M2 d   1      92.260   3.063  13.213  0.00  0.00     0.084 H 
ATOM     43  C21 2M2 d   1      91.710   3.439  16.554  0.00  0.00    -0.083 A 
ATOM     44  H17 2M2 d   1      93.465   3.683  15.309  0.00  0.00     0.083 H 
ATOM     45  C22 2M2 d   1      90.358   3.109  16.593  0.00  0.00    -0.082 A 
ATOM     46  H18 2M2 d   1      92.224   3.710  17.469  0.00  0.00     0.083 H 
ATOM     47  C23 2M2 d   1      89.694   2.751  15.422  0.00  0.00    -0.077 A 
ATOM     48  H19 2M2 d   1      89.822   3.131  17.535  0.00  0.00     0.083 H 
ATOM     49  H20 2M2 d   1      88.641   2.495  15.452  0.00  0.00     0.084 H 
ENDBRANCH  36  39
ENDBRANCH  33  36
ENDBRANCH  28  33
ENDBRANCH   1  26
TORSDOF 9
