REMARK  10 active torsions:
REMARK  status: ('A' for Active; 'I' for Inactive)
REMARK    1  A    between atoms: C1_1  and  C40_39 
REMARK    2  A    between atoms: C7_7  and  C11_11 
REMARK    3  A    between atoms: C21_21  and  O23_23 
REMARK    4  A    between atoms: O23_23  and  C24_24 
REMARK    5  A    between atoms: C25_25  and  C28_28 
REMARK       I    between atoms: C28_28  and  N30_29 
REMARK    6  A    between atoms: N34_33  and  C39_38 
REMARK       I    between atoms: C40_39  and  N42_41 
REMARK    7  A    between atoms: N42_41  and  S43_42 
REMARK    8  A    between atoms: S43_42  and  N44_43 
REMARK    9  A    between atoms: N44_43  and  C47_46 
REMARK   10  A    between atoms: N44_43  and  C48_47 
ROOT
ATOM      1  C1  2N7 d   1      36.422   8.839  43.876  0.00  0.00     0.035 A 
ATOM      2  C2  2N7 d   1      35.549   9.730  44.498  0.00  0.00    -0.067 A 
ATOM      3  C3  2N7 d   1      35.587   9.928  45.867  0.00  0.00    -0.069 A 
ATOM      4  C4  2N7 d   1      37.312   8.100  44.657  0.00  0.00    -0.041 A 
ATOM      5  C5  2N7 d   1      37.335   8.295  46.035  0.00  0.00     0.046 A 
ATOM      6  C6  2N7 d   1      36.471   9.204  46.664  0.00  0.00    -0.000 A 
ATOM      7  C7  2N7 d   1      36.741   9.138  48.087  0.00  0.00    -0.014 A 
ATOM      8  C8  2N7 d   1      37.769   8.219  48.278  0.00  0.00     0.053 A 
ATOM      9  N9  2N7 d   1      38.136   7.699  46.995  0.00  0.00    -0.344 N 
ATOM     10  C10 2N7 d   1      39.149   6.692  46.755  0.00  0.00     0.016 C 
ATOM     11  C17 2N7 d   1      38.580   6.322  49.700  0.00  0.00    -0.037 A 
ATOM     12  C18 2N7 d   1      38.401   7.701  49.509  0.00  0.00    -0.002 A 
ATOM     13  C19 2N7 d   1      38.825   8.597  50.493  0.00  0.00    -0.068 A 
ATOM     14  C20 2N7 d   1      39.421   8.139  51.655  0.00  0.00    -0.050 A 
ATOM     15  C21 2N7 d   1      39.598   6.771  51.846  0.00  0.00     0.068 A 
ATOM     16  C22 2N7 d   1      39.164   5.865  50.882  0.00  0.00    -0.043 A 
ATOM     17  C25 2N7 d   1      38.550   5.393  47.217  0.00  0.00     0.066 A 
ATOM     18  C26 2N7 d   1      38.254   5.252  48.718  0.00  0.00    -0.009 A 
ATOM     19  C27 2N7 d   1      39.392   4.507  48.095  0.00  0.00    -0.039 A 
ATOM     20  H   2N7 d   1      34.829  10.277  43.900  0.00  0.00     0.085 H 
ATOM     21  H   2N7 d   1      34.923  10.653  46.323  0.00  0.00     0.085 H 
ATOM     22  H   2N7 d   1      37.979   7.381  44.195  0.00  0.00     0.088 H 
ATOM     23  H   2N7 d   1      40.059   6.920  47.329  0.00  0.00     0.066 H 
ATOM     24  H   2N7 d   1      39.394   6.642  45.684  0.00  0.00     0.066 H 
ATOM     25  H   2N7 d   1      38.686   9.662  50.345  0.00  0.00     0.085 H 
ATOM     26  H   2N7 d   1      39.748   8.842  52.413  0.00  0.00     0.087 H 
ATOM     27  H   2N7 d   1      39.280   4.801  51.050  0.00  0.00     0.088 H 
ATOM     28  H   2N7 d   1      37.344   4.724  49.040  0.00  0.00     0.049 H 
ATOM     29  H   2N7 d   1      40.427   4.796  48.330  0.00  0.00     0.036 H 
ATOM     30  H   2N7 d   1      39.333   3.414  47.984  0.00  0.00     0.036 H 
ENDROOT
BRANCH  17  31
ATOM     31  C28 2N7 d   1      37.589   4.730  46.194  0.00  0.00     0.231 C 
ATOM     32  N30 2N7 d   1      36.236   4.797  46.315  0.00  0.00    -0.339 N 
ATOM     33  C32 2N7 d   1      35.216   4.154  45.462  0.00  0.00     0.038 C 
ATOM     34  C36 2N7 d   1      35.356   5.623  47.181  0.00  0.00     0.038 C 
ATOM     35  C33 2N7 d   1      34.338   3.237  46.294  0.00  0.00     0.102 C 
ATOM     36  C37 2N7 d   1      34.458   5.372  44.938  0.00  0.00    -0.043 C 
ATOM     37  H   2N7 d   1      35.672   3.582  44.640  0.00  0.00     0.075 H 
ATOM     38  N34 2N7 d   1      33.646   3.919  47.390  0.00  0.00    -0.071 N 
ATOM     39  H   2N7 d   1      34.970   2.445  46.722  0.00  0.00     0.079 H 
ATOM     40  H   2N7 d   1      33.583   2.786  45.634  0.00  0.00     0.079 H 
ATOM     41  C35 2N7 d   1      34.562   4.771  48.148  0.00  0.00     0.102 C 
ATOM     42  H   2N7 d   1      32.934   4.508  46.988  0.00  0.00     0.279 HD
ATOM     43  H   2N7 d   1      35.248   4.144  48.736  0.00  0.00     0.079 H 
ATOM     44  H   2N7 d   1      33.987   5.420  48.825  0.00  0.00     0.079 H 
ATOM     45  C38 2N7 d   1      34.415   6.298  46.159  0.00  0.00    -0.043 C 
ATOM     46  H   2N7 d   1      33.444   5.098  44.613  0.00  0.00     0.036 H 
ATOM     47  H   2N7 d   1      34.996   5.844  44.102  0.00  0.00     0.036 H 
ATOM     48  H   2N7 d   1      34.778   7.303  45.899  0.00  0.00     0.036 H 
ATOM     49  H   2N7 d   1      33.392   6.370  46.558  0.00  0.00     0.036 H 
ATOM     50  H   2N7 d   1      35.939   6.369  47.741  0.00  0.00     0.075 H 
ATOM     51  O31 2N7 d   1      38.105   4.235  45.205  0.00  0.00    -0.272 OA
BRANCH  38  52
ATOM     52  C39 2N7 d   1      32.990   2.954  48.275  0.00  0.00     0.067 C 
ATOM     53  H   2N7 d   1      32.306   2.324  47.688  0.00  0.00     0.068 H 
ATOM     54  H   2N7 d   1      32.420   3.493  49.047  0.00  0.00     0.068 H 
ATOM     55  H   2N7 d   1      33.751   2.321  48.755  0.00  0.00     0.068 H 
ENDBRANCH  38  52
ENDBRANCH  17  31
BRANCH   7  56
ATOM     56  C11 2N7 d   1      36.018   9.864  49.166  0.00  0.00    -0.025 C 
ATOM     57  C12 2N7 d   1      34.516   9.580  49.115  0.00  0.00    -0.058 C 
ATOM     58  C13 2N7 d   1      33.772  10.363  50.189  0.00  0.00    -0.064 C 
ATOM     59  H   2N7 d   1      34.348   8.505  49.274  0.00  0.00     0.034 H 
ATOM     60  H   2N7 d   1      34.129   9.870  48.127  0.00  0.00     0.034 H 
ATOM     61  C14 2N7 d   1      34.017  11.856  50.057  0.00  0.00    -0.065 C 
ATOM     62  H   2N7 d   1      34.118  10.030  51.179  0.00  0.00     0.033 H 
ATOM     63  H   2N7 d   1      32.694  10.168  50.092  0.00  0.00     0.033 H 
ATOM     64  C15 2N7 d   1      35.492  12.147  50.133  0.00  0.00    -0.064 C 
ATOM     65  H   2N7 d   1      33.500  12.383  50.872  0.00  0.00     0.033 H 
ATOM     66  H   2N7 d   1      33.627  12.205  49.089  0.00  0.00     0.033 H 
ATOM     67  C16 2N7 d   1      36.260  11.378  49.060  0.00  0.00    -0.058 C 
ATOM     68  H   2N7 d   1      35.866  11.851  51.124  0.00  0.00     0.033 H 
ATOM     69  H   2N7 d   1      35.654  13.225  49.987  0.00  0.00     0.033 H 
ATOM     70  H   2N7 d   1      35.931  11.723  48.069  0.00  0.00     0.034 H 
ATOM     71  H   2N7 d   1      37.335  11.577  49.179  0.00  0.00     0.034 H 
ATOM     72  H   2N7 d   1      36.405   9.515  50.135  0.00  0.00     0.047 H 
ENDBRANCH   7  56
BRANCH  15  73
ATOM     73  O23 2N7 d   1      40.254   6.420  52.998  0.00  0.00    -0.356 OA
BRANCH  73  74
ATOM     74  C24 2N7 d   1      40.467   5.031  53.265  0.00  0.00     0.010 C 
ATOM     75  H   2N7 d   1      41.002   4.919  54.219  0.00  0.00     0.066 H 
ATOM     76  H   2N7 d   1      41.066   4.590  52.455  0.00  0.00     0.066 H 
ATOM     77  H   2N7 d   1      39.497   4.516  53.326  0.00  0.00     0.066 H 
ENDBRANCH  73  74
ENDBRANCH  15  73
BRANCH   1  78
ATOM     78  C40 2N7 d   1      36.327   8.685  42.388  0.00  0.00     0.266 C 
ATOM     79  O41 2N7 d   1      35.410   9.197  41.744  0.00  0.00    -0.267 OA
ATOM     80  N42 2N7 d   1      37.284   7.889  41.770  0.00  0.00    -0.233 N 
ATOM     81  H   2N7 d   1      37.976   7.498  42.377  0.00  0.00     0.183 HD
BRANCH  80  82
ATOM     82  S43 2N7 d   1      37.441   7.489  40.129  0.00  0.00     0.323 S 
ATOM     83  O45 2N7 d   1      38.678   6.795  39.980  0.00  0.00    -0.182 OA
ATOM     84  O46 2N7 d   1      37.232   8.698  39.404  0.00  0.00    -0.182 OA
BRANCH  82  85
ATOM     85  N44 2N7 d   1      36.189   6.431  39.881  0.00  0.00    -0.303 N 
BRANCH  85  86
ATOM     86  C47 2N7 d   1      35.077   6.847  39.019  0.00  0.00    -0.008 C 
ATOM     87  H   2N7 d   1      34.336   6.036  38.960  0.00  0.00     0.057 H 
ATOM     88  H   2N7 d   1      35.458   7.070  38.011  0.00  0.00     0.057 H 
ATOM     89  H   2N7 d   1      34.603   7.746  39.440  0.00  0.00     0.057 H 
ENDBRANCH  85  86
BRANCH  85  90
ATOM     90  C48 2N7 d   1      35.823   5.493  40.951  0.00  0.00    -0.008 C 
ATOM     91  H   2N7 d   1      34.979   4.870  40.620  0.00  0.00     0.057 H 
ATOM     92  H   2N7 d   1      35.532   6.057  41.849  0.00  0.00     0.057 H 
ATOM     93  H   2N7 d   1      36.684   4.849  41.185  0.00  0.00     0.057 H 
ENDBRANCH  85  90
ENDBRANCH  82  85
ENDBRANCH  80  82
ENDBRANCH   1  78
TORSDOF 10
