REMARK WARNING: 32 MAX_TORS EXCEEDED!!!
REMARK  34 active torsions:
REMARK  status: ('A' for Active; 'I' for Inactive)
REMARK    1  A    between atoms: CA_2  and  N_1 
REMARK    2  A    between atoms: C_3  and  CA_2 
REMARK    3  A    between atoms: CA_2  and  CB_5 
REMARK       I    between atoms: N_12  and  C_3 
REMARK    4  A    between atoms: CB_5  and  CG_6 
REMARK    5  A    between atoms: CG_6  and  CD_7 
REMARK    6  A    between atoms: CD_7  and  NE_8 
REMARK       I    between atoms: NE_8  and  CZ_9 
REMARK       I    between atoms: CZ_9  and  NH1_10 
REMARK    7  A    between atoms: CA_13  and  N_12 
REMARK    8  A    between atoms: C_14  and  CA_13 
REMARK    9  A    between atoms: CA_13  and  CB_16 
REMARK       I    between atoms: N_26  and  C_14 
REMARK   10  A    between atoms: CB_16  and  CG_17 
REMARK   11  A    between atoms: C_28  and  CA_27 
REMARK       I    between atoms: N_33  and  C_28 
REMARK   12  A    between atoms: CA_34  and  N_33 
REMARK   13  A    between atoms: C_35  and  CA_34 
REMARK   14  A    between atoms: CA_34  and  CB_37 
REMARK       I    between atoms: N_40  and  C_35 
REMARK   15  A    between atoms: CB_37  and  OG1_38 
REMARK   16  A    between atoms: CB_37  and  CG2_39 
REMARK   17  A    between atoms: CA_41  and  N_40 
REMARK   18  A    between atoms: C_42  and  CA_41 
REMARK   19  A    between atoms: CA_41  and  CB_44 
REMARK       I    between atoms: N_55  and  C_42 
REMARK   20  A    between atoms: CB_44  and  OG_45 
REMARK   21  A    between atoms: CH_47  and  CH3_48 
REMARK       I    between atoms: NZ_49  and  CH_47 
REMARK   22  A    between atoms: CE_50  and  NZ_49 
REMARK   23  A    between atoms: CD_51  and  CE_50 
REMARK   24  A    between atoms: CG_52  and  CD_51 
REMARK   25  A    between atoms: CB_53  and  CG_52 
REMARK   26  A    between atoms: CA_54  and  CB_53 
REMARK   27  A    between atoms: CA_54  and  N_55 
REMARK   28  A    between atoms: CA_54  and  C_56 
REMARK       I    between atoms: C_56  and  N_58 
REMARK   29  A    between atoms: N_58  and  CA_59 
REMARK   30  A    between atoms: CA_59  and  C_60 
REMARK   31  A    between atoms: CA_59  and  CB_62 
REMARK   32  A    between atoms: CB_62  and  CG1_63 
REMARK   33  A    between atoms: CB_62  and  CG2_64 
REMARK   34  A    between atoms: CG1_63  and  CD1_65 
ROOT
ATOM      1  CA  THR d   1      14.888  22.538  19.413  0.00  0.00     0.113 C 
ATOM      2  H   THR d   1      14.227  22.663  18.542  0.00  0.00     0.091 H 
ENDROOT
BRANCH   1   3
ATOM      3  N   THR d   1      15.686  23.735  19.601  0.00  0.00    -0.344 N 
ATOM      4  C   PRO d   1      15.681  24.706  18.700  0.00  0.00     0.241 C 
ATOM      5  O   PRO d   1      15.117  24.656  17.662  0.00  0.00    -0.271 OA
ATOM      6  H   THR d   1      16.248  23.828  20.423  0.00  0.00     0.163 HD
BRANCH   4   7
ATOM      7  CA  PRO d   1      16.453  25.982  19.096  0.00  0.00     0.091 C 
ATOM      8  N   PRO d   1      16.855  26.714  17.912  0.00  0.00    -0.337 N 
ATOM      9  C   TRP d   1      17.878  26.369  17.223  0.00  0.00     0.243 C 
ATOM     10  CD  PRO d   1      16.064  27.942  17.746  0.00  0.00    -0.001 C 
ATOM     11  O   TRP d   1      18.597  25.422  17.532  0.00  0.00    -0.271 OA
ATOM     12  CG  PRO d   1      14.915  27.723  18.688  0.00  0.00    -0.048 C 
ATOM     13  H   PRO d   1      15.712  28.050  16.709  0.00  0.00     0.064 H 
ATOM     14  H   PRO d   1      16.646  28.831  18.030  0.00  0.00     0.064 H 
ATOM     15  CB  PRO d   1      15.531  26.967  19.783  0.00  0.00    -0.036 C 
ATOM     16  H   PRO d   1      14.509  28.680  19.047  0.00  0.00     0.035 H 
ATOM     17  H   PRO d   1      14.114  27.142  18.207  0.00  0.00     0.035 H 
ATOM     18  H   PRO d   1      16.101  27.636  20.444  0.00  0.00     0.036 H 
ATOM     19  H   PRO d   1      14.765  26.438  20.369  0.00  0.00     0.036 H 
ATOM     20  H   PRO d   1      17.315  25.722  19.728  0.00  0.00     0.087 H 
BRANCH   9  21
ATOM     21  CA  TRP d   1      18.151  27.171  15.959  0.00  0.00     0.093 C 
ATOM     22  H   TRP d   1      17.827  28.212  16.105  0.00  0.00     0.088 H 
BRANCH  21  23
ATOM     23  N   TRP d   1      19.583  27.157  15.673  0.00  0.00    -0.346 N 
ATOM     24  C   ARG d   1      20.392  28.133  16.085  0.00  0.00     0.249 C 
ATOM     25  O   ARG d   1      19.981  29.178  16.596  0.00  0.00    -0.271 OA
ATOM     26  H   TRP d   1      19.967  26.394  15.153  0.00  0.00     0.163 HD
BRANCH  24  27
ATOM     27  CA  ARG d   1      21.888  27.899  15.891  0.00  0.00     0.176 C 
ATOM     28  H   ARG d   1      22.430  28.534  16.607  0.00  0.00     0.099 H 
BRANCH  27  29
ATOM     29  N   ARG d   1      22.240  26.508  16.156  0.00  0.00    -0.067 N 
ATOM     30  H   ARG d   1      23.231  26.381  16.021  0.00  0.00     0.275 HD
ATOM     31  H   ARG d   1      21.735  25.907  15.524  0.00  0.00     0.275 HD
ATOM     32  H   ARG d   1      21.998  26.275  17.106  0.00  0.00     0.275 HD
ENDBRANCH  27  29
BRANCH  27  33
ATOM     33  CB  ARG d   1      22.317  28.292  14.479  0.00  0.00    -0.029 C 
ATOM     34  H   ARG d   1      21.591  27.869  13.769  0.00  0.00     0.036 H 
ATOM     35  H   ARG d   1      23.311  27.860  14.289  0.00  0.00     0.036 H 
BRANCH  33  36
ATOM     36  CG  ARG d   1      22.397  29.786  14.240  0.00  0.00    -0.047 C 
ATOM     37  H   ARG d   1      22.948  30.257  15.067  0.00  0.00     0.035 H 
ATOM     38  H   ARG d   1      21.379  30.201  14.195  0.00  0.00     0.035 H 
BRANCH  36  39
ATOM     39  CD  ARG d   1      23.112  30.073  12.936  0.00  0.00     0.009 C 
ATOM     40  H   ARG d   1      22.600  29.534  12.125  0.00  0.00     0.064 H 
ATOM     41  H   ARG d   1      24.150  29.717  13.015  0.00  0.00     0.064 H 
BRANCH  39  42
ATOM     42  NE  ARG d   1      23.127  31.495  12.618  0.00  0.00    -0.227 N 
ATOM     43  CZ  ARG d   1      22.158  32.119  11.961  0.00  0.00     0.665 C 
ATOM     44  NH1 ARG d   1      21.092  31.444  11.555  0.00  0.00    -0.235 N 
ATOM     45  NH2 ARG d   1      22.253  33.417  11.709  0.00  0.00    -0.235 N 
ATOM     46  H   ARG d   1      20.339  31.928  11.045  0.00  0.00     0.174 HD
ATOM     47  H   ARG d   1      21.016  30.435  11.750  0.00  0.00     0.174 HD
ATOM     48  H   ARG d   1      23.081  33.944  12.024  0.00  0.00     0.174 HD
ATOM     49  H   ARG d   1      21.499  33.899  11.199  0.00  0.00     0.174 HD
ATOM     50  H   ARG d   1      23.940  32.050  12.922  0.00  0.00     0.177 HD
ENDBRANCH  39  42
ENDBRANCH  36  39
ENDBRANCH  33  36
ENDBRANCH  27  33
ENDBRANCH  24  27
ENDBRANCH  21  23
BRANCH  21  51
ATOM     51  CB  TRP d   1      17.344  26.549  14.823  0.00  0.00    -0.012 C 
ATOM     52  H   TRP d   1      16.277  26.701  15.043  0.00  0.00     0.044 H 
ATOM     53  H   TRP d   1      17.564  25.471  14.802  0.00  0.00     0.044 H 
BRANCH  51  54
ATOM     54  CG  TRP d   1      17.617  27.102  13.460  0.00  0.00    -0.028 A 
ATOM     55  CD1 TRP d   1      18.140  28.326  13.148  0.00  0.00    -0.015 A 
ATOM     56  NE1 TRP d   1      18.244  28.454  11.779  0.00  0.00    -0.365 N 
ATOM     57  H   TRP d   1      18.431  29.086  13.872  0.00  0.00     0.112 H 
ATOM     58  CE2 TRP d   1      17.788  27.302  11.188  0.00  0.00     0.042 A 
ATOM     59  H   TRP d   1      18.605  29.280  11.281  0.00  0.00     0.165 HD
ATOM     60  CD2 TRP d   1      17.382  26.432  12.220  0.00  0.00    -0.002 A 
ATOM     61  CZ2 TRP d   1      17.693  26.955   9.838  0.00  0.00    -0.056 A 
ATOM     62  CE3 TRP d   1      16.877  25.173  11.881  0.00  0.00    -0.070 A 
ATOM     63  CZ3 TRP d   1      16.785  24.829  10.540  0.00  0.00    -0.082 A 
ATOM     64  H   TRP d   1      16.563  24.478  12.652  0.00  0.00     0.084 H 
ATOM     65  CH2 TRP d   1      17.192  25.716   9.536  0.00  0.00    -0.081 A 
ATOM     66  H   TRP d   1      16.391  23.857  10.265  0.00  0.00     0.083 H 
ATOM     67  H   TRP d   1      17.109  25.416   8.498  0.00  0.00     0.083 H 
ATOM     68  H   TRP d   1      18.004  27.641   9.058  0.00  0.00     0.086 H 
ENDBRANCH  51  54
ENDBRANCH  21  51
ENDBRANCH   9  21
ENDBRANCH   4   7
ENDBRANCH   1   3
BRANCH   1  69
ATOM     69  C   THR d   1      14.064  22.336  20.667  0.00  0.00     0.243 C 
ATOM     70  O   THR d   1      14.566  22.506  21.778  0.00  0.00    -0.271 OA
ATOM     71  N   SER d   1      12.795  21.978  20.497  0.00  0.00    -0.344 N 
ATOM     72  H   SER d   1      12.423  21.919  19.571  0.00  0.00     0.163 HD
BRANCH  71  73
ATOM     73  CA  SER d   1      11.936  21.670  21.630  0.00  0.00     0.109 C 
ATOM     74  H   SER d   1      12.541  21.653  22.549  0.00  0.00     0.090 H 
BRANCH  73  75
ATOM     75  C   SER d   1      11.308  20.306  21.406  0.00  0.00     0.243 C 
ATOM     76  O   SER d   1      10.852  19.994  20.303  0.00  0.00    -0.271 OA
ATOM     77  N   ALY d   1      11.297  19.499  22.463  0.00  0.00    -0.346 N 
ATOM     78  H   ALY d   1      11.765  19.791  23.297  0.00  0.00     0.163 HD
BRANCH  77  79
ATOM     79  CA  ALY d   1      10.628  18.206  22.451  0.00  0.00     0.089 C 
ATOM     80  H   ALY d   1      10.595  17.821  21.421  0.00  0.00     0.087 H 
BRANCH  79  81
ATOM     81  CB  ALY d   1      11.375  17.204  23.332  0.00  0.00    -0.038 C 
ATOM     82  H   ALY d   1      11.213  17.481  24.384  0.00  0.00     0.036 H 
ATOM     83  H   ALY d   1      10.957  16.203  23.148  0.00  0.00     0.036 H 
BRANCH  81  84
ATOM     84  CG  ALY d   1      12.873  17.150  23.078  0.00  0.00    -0.061 C 
ATOM     85  H   ALY d   1      13.048  16.927  22.015  0.00  0.00     0.033 H 
ATOM     86  H   ALY d   1      13.314  18.127  23.325  0.00  0.00     0.033 H 
BRANCH  84  87
ATOM     87  CD  ALY d   1      13.538  16.078  23.925  0.00  0.00    -0.050 C 
ATOM     88  H   ALY d   1      12.765  15.399  24.315  0.00  0.00     0.035 H 
ATOM     89  H   ALY d   1      14.241  15.511  23.298  0.00  0.00     0.035 H 
BRANCH  87  90
ATOM     90  CE  ALY d   1      14.297  16.688  25.093  0.00  0.00    -0.005 C 
ATOM     91  H   ALY d   1      14.715  15.877  25.708  0.00  0.00     0.064 H 
ATOM     92  H   ALY d   1      15.115  17.309  24.700  0.00  0.00     0.064 H 
BRANCH  90  93
ATOM     93  NZ  ALY d   1      13.417  17.534  25.946  0.00  0.00    -0.361 N 
ATOM     94  CH  ALY d   1      14.646  18.410  26.831  0.00  0.00     0.213 C 
ATOM     95  OH  ALY d   1      14.230  19.337  27.527  0.00  0.00    -0.274 OA
ATOM     96  H   ALY d   1      12.420  17.586  25.998  0.00  0.00     0.162 HD
BRANCH  94  97
ATOM     97  CH3 ALY d   1      16.157  18.243  26.621  0.00  0.00    -0.003 C 
ATOM     98  H   ALY d   1      16.343  17.370  25.978  0.00  0.00     0.040 H 
ATOM     99  H   ALY d   1      16.648  18.093  27.594  0.00  0.00     0.040 H 
ATOM    100  H   ALY d   1      16.562  19.146  26.141  0.00  0.00     0.040 H 
ENDBRANCH  94  97
ENDBRANCH  90  93
ENDBRANCH  87  90
ENDBRANCH  84  87
ENDBRANCH  81  84
ENDBRANCH  79  81
BRANCH  79 101
ATOM    101  C   ALY d   1       9.210  18.405  22.963  0.00  0.00     0.241 C 
ATOM    102  O   ALY d   1       9.003  18.942  24.052  0.00  0.00    -0.271 OA
ATOM    103  N   ILE d   1       8.233  17.983  22.170  0.00  0.00    -0.344 N 
ATOM    104  H   ILE d   1       8.462  17.465  21.346  0.00  0.00     0.163 HD
BRANCH 103 105
ATOM    105  CA  ILE d   1       6.834  18.257  22.474  0.00  0.00     0.099 C 
ATOM    106  H   ILE d   1       6.770  18.530  23.538  0.00  0.00     0.090 H 
BRANCH 105 107
ATOM    107  C   ILE d   1       5.957  17.044  22.240  0.00  0.00     0.197 C 
ATOM    108  O   ILE d   1       6.417  16.013  21.725  0.00  0.00    -0.646 OA
ATOM    109  OXT ILE d   1       4.772  17.113  22.559  0.00  0.00    -0.646 OA
ENDBRANCH 105 107
BRANCH 105 110
ATOM    110  CB  ILE d   1       6.281  19.435  21.635  0.00  0.00    -0.029 C 
ATOM    111  H   ILE d   1       5.225  19.580  21.908  0.00  0.00     0.043 H 
BRANCH 110 112
ATOM    112  CG1 ILE d   1       6.346  19.132  20.140  0.00  0.00    -0.063 C 
ATOM    113  H   ILE d   1       5.806  18.193  19.947  0.00  0.00     0.033 H 
ATOM    114  H   ILE d   1       7.401  19.015  19.850  0.00  0.00     0.033 H 
BRANCH 112 115
ATOM    115  CD1 ILE d   1       5.724  20.238  19.287  0.00  0.00    -0.076 C 
ATOM    116  H   ILE d   1       5.799  19.967  18.224  0.00  0.00     0.027 H 
ATOM    117  H   ILE d   1       6.260  21.182  19.463  0.00  0.00     0.027 H 
ATOM    118  H   ILE d   1       4.666  20.361  19.560  0.00  0.00     0.027 H 
ENDBRANCH 112 115
ENDBRANCH 110 112
BRANCH 110 119
ATOM    119  CG2 ILE d   1       7.036  20.725  21.951  0.00  0.00    -0.070 C 
ATOM    120  H   ILE d   1       6.979  20.928  23.031  0.00  0.00     0.028 H 
ATOM    121  H   ILE d   1       6.583  21.560  21.397  0.00  0.00     0.028 H 
ATOM    122  H   ILE d   1       8.089  20.616  21.654  0.00  0.00     0.028 H 
ENDBRANCH 110 119
ENDBRANCH 105 110
ENDBRANCH 103 105
ENDBRANCH  79 101
ENDBRANCH  77  79
ENDBRANCH  73  75
BRANCH  73 123
ATOM    123  CB  SER d   1      10.825  22.709  21.780  0.00  0.00     0.044 C 
ATOM    124  H   SER d   1      10.170  22.414  22.613  0.00  0.00     0.077 H 
ATOM    125  H   SER d   1      10.241  22.744  20.849  0.00  0.00     0.077 H 
BRANCH 123 126
ATOM    126  OG  SER d   1      11.350  24.003  22.043  0.00  0.00    -0.398 OA
ATOM    127  H   SER d   1      11.913  24.267  21.325  0.00  0.00     0.209 HD
ENDBRANCH 123 126
ENDBRANCH  73 123
ENDBRANCH  71  73
ENDBRANCH   1  69
BRANCH   1 128
ATOM    128  CB  THR d   1      15.785  21.320  19.201  0.00  0.00     0.060 C 
ATOM    129  H   THR d   1      16.480  21.228  20.049  0.00  0.00     0.086 H 
BRANCH 128 130
ATOM    130  OG1 THR d   1      16.522  21.501  17.991  0.00  0.00    -0.393 OA
ATOM    131  H   THR d   1      17.053  22.286  18.059  0.00  0.00     0.210 HD
ENDBRANCH 128 130
BRANCH 128 132
ATOM    132  CG2 THR d   1      14.959  20.042  19.087  0.00  0.00    -0.050 C 
ATOM    133  H   THR d   1      15.630  19.184  18.935  0.00  0.00     0.031 H 
ATOM    134  H   THR d   1      14.271  20.125  18.233  0.00  0.00     0.031 H 
ATOM    135  H   THR d   1      14.380  19.896  20.011  0.00  0.00     0.031 H 
ENDBRANCH 128 132
ENDBRANCH   1 128
TORSDOF 34
