REMARK  29 active torsions:
REMARK  status: ('A' for Active; 'I' for Inactive)
REMARK    1  A    between atoms: CA_2  and  N_1 
REMARK    2  A    between atoms: C_3  and  CA_2 
REMARK    3  A    between atoms: CA_2  and  CB_5 
REMARK       I    between atoms: N_15  and  C_3 
REMARK    4  A    between atoms: CB_5  and  CG_6 
REMARK    5  A    between atoms: C_17  and  CA_16 
REMARK       I    between atoms: N_31  and  C_17 
REMARK    6  A    between atoms: CH_23  and  CH3_24 
REMARK       I    between atoms: NZ_25  and  CH_23 
REMARK    7  A    between atoms: CE_26  and  NZ_25 
REMARK    8  A    between atoms: CD_27  and  CE_26 
REMARK    9  A    between atoms: CG_28  and  CD_27 
REMARK   10  A    between atoms: CB_29  and  CG_28 
REMARK   11  A    between atoms: CA_30  and  CB_29 
REMARK   12  A    between atoms: CA_30  and  N_31 
REMARK   13  A    between atoms: CA_30  and  C_32 
REMARK       I    between atoms: C_32  and  N_34 
REMARK   14  A    between atoms: N_34  and  CA_35 
REMARK   15  A    between atoms: CA_35  and  C_36 
REMARK   16  A    between atoms: CA_35  and  CB_38 
REMARK       I    between atoms: C_36  and  N_40 
REMARK   17  A    between atoms: CB_38  and  OG_39 
REMARK   18  A    between atoms: N_40  and  CA_41 
REMARK   19  A    between atoms: CA_41  and  C_42 
REMARK   20  A    between atoms: CA_41  and  CB_44 
REMARK       I    between atoms: C_42  and  N_48 
REMARK   21  A    between atoms: CB_44  and  CG1_45 
REMARK   22  A    between atoms: CB_44  and  CG2_46 
REMARK   23  A    between atoms: CG1_45  and  CD1_47 
REMARK   24  A    between atoms: N_48  and  CA_49 
REMARK   25  A    between atoms: CA_49  and  C_50 
REMARK   26  A    between atoms: CA_49  and  CB_52 
REMARK   27  A    between atoms: CB_52  and  CG1_53 
REMARK   28  A    between atoms: CB_52  and  CG2_54 
REMARK   29  A    between atoms: CG1_53  and  CD1_55 
ROOT
ATOM      1  CA  ALY d   1      15.030  22.581  19.262  0.00  0.00     0.089 C 
ATOM      2  H   ALY d   1      14.430  22.558  18.340  0.00  0.00     0.087 H 
ENDROOT
BRANCH   1   3
ATOM      3  CB  ALY d   1      16.063  21.459  19.236  0.00  0.00    -0.038 C 
ATOM      4  H   ALY d   1      16.644  21.553  18.307  0.00  0.00     0.036 H 
ATOM      5  H   ALY d   1      16.730  21.591  20.101  0.00  0.00     0.036 H 
BRANCH   3   6
ATOM      6  CG  ALY d   1      15.496  20.057  19.293  0.00  0.00    -0.061 C 
ATOM      7  H   ALY d   1      14.750  19.998  20.099  0.00  0.00     0.033 H 
ATOM      8  H   ALY d   1      15.017  19.818  18.332  0.00  0.00     0.033 H 
BRANCH   6   9
ATOM      9  CD  ALY d   1      16.611  19.057  19.563  0.00  0.00    -0.050 C 
ATOM     10  H   ALY d   1      17.526  19.394  19.053  0.00  0.00     0.035 H 
ATOM     11  H   ALY d   1      16.793  19.007  20.647  0.00  0.00     0.035 H 
BRANCH   9  12
ATOM     12  CE  ALY d   1      16.245  17.675  19.059  0.00  0.00    -0.005 C 
ATOM     13  H   ALY d   1      16.030  17.026  19.921  0.00  0.00     0.064 H 
ATOM     14  H   ALY d   1      15.349  17.751  18.425  0.00  0.00     0.064 H 
BRANCH  12  15
ATOM     15  NZ  ALY d   1      17.352  17.073  18.263  0.00  0.00    -0.361 N 
ATOM     16  CH  ALY d   1      17.491  17.400  16.844  0.00  0.00     0.213 C 
ATOM     17  OH  ALY d   1      18.158  16.662  16.119  0.00  0.00    -0.274 OA
ATOM     18  H   ALY d   1      17.999  16.447  18.698  0.00  0.00     0.162 HD
BRANCH  16  19
ATOM     19  CH3 ALY d   1      17.067  18.783  16.324  0.00  0.00    -0.003 C 
ATOM     20  H   ALY d   1      16.482  19.302  17.098  0.00  0.00     0.040 H 
ATOM     21  H   ALY d   1      16.453  18.662  15.419  0.00  0.00     0.040 H 
ATOM     22  H   ALY d   1      17.962  19.375  16.083  0.00  0.00     0.040 H 
ENDBRANCH  16  19
ENDBRANCH  12  15
ENDBRANCH   9  12
ENDBRANCH   6   9
ENDBRANCH   3   6
ENDBRANCH   1   3
BRANCH   1  23
ATOM     23  N   ALY d   1      15.712  23.854  19.397  0.00  0.00    -0.346 N 
ATOM     24  C   PRO d   1      15.698  24.778  18.448  0.00  0.00     0.241 C 
ATOM     25  O   PRO d   1      15.178  24.616  17.345  0.00  0.00    -0.271 OA
ATOM     26  H   ALY d   1      16.213  24.042  20.241  0.00  0.00     0.163 HD
BRANCH  24  27
ATOM     27  CA  PRO d   1      16.391  26.094  18.787  0.00  0.00     0.091 C 
ATOM     28  N   PRO d   1      16.946  26.716  17.586  0.00  0.00    -0.337 N 
ATOM     29  C   TRP d   1      18.043  26.251  16.978  0.00  0.00     0.251 C 
ATOM     30  CD  PRO d   1      16.182  27.909  17.180  0.00  0.00    -0.001 C 
ATOM     31  O   TRP d   1      18.707  25.313  17.421  0.00  0.00    -0.271 OA
ATOM     32  CG  PRO d   1      14.951  27.837  18.041  0.00  0.00    -0.048 C 
ATOM     33  H   PRO d   1      15.920  27.865  16.113  0.00  0.00     0.064 H 
ATOM     34  H   PRO d   1      16.751  28.829  17.381  0.00  0.00     0.064 H 
ATOM     35  CB  PRO d   1      15.371  27.125  19.271  0.00  0.00    -0.036 C 
ATOM     36  H   PRO d   1      14.593  28.848  18.285  0.00  0.00     0.035 H 
ATOM     37  H   PRO d   1      14.154  27.280  17.527  0.00  0.00     0.035 H 
ATOM     38  H   PRO d   1      15.832  27.823  19.986  0.00  0.00     0.036 H 
ATOM     39  H   PRO d   1      14.512  26.629  19.746  0.00  0.00     0.036 H 
ATOM     40  H   PRO d   1      17.172  25.919  19.542  0.00  0.00     0.087 H 
BRANCH  29  41
ATOM     41  CA  TRP d   1      18.441  26.940  15.681  0.00  0.00     0.179 C 
ATOM     42  H   TRP d   1      18.201  28.011  15.762  0.00  0.00     0.099 H 
BRANCH  41  43
ATOM     43  N   TRP d   1      19.869  26.811  15.417  0.00  0.00    -0.066 N 
ATOM     44  H   TRP d   1      20.094  27.278  14.553  0.00  0.00     0.275 HD
ATOM     45  H   TRP d   1      20.110  25.835  15.344  0.00  0.00     0.275 HD
ATOM     46  H   TRP d   1      20.389  27.231  16.171  0.00  0.00     0.275 HD
ENDBRANCH  41  43
BRANCH  41  47
ATOM     47  CB  TRP d   1      17.623  26.336  14.544  0.00  0.00    -0.004 C 
ATOM     48  H   TRP d   1      16.557  26.445  14.792  0.00  0.00     0.044 H 
ATOM     49  H   TRP d   1      17.874  25.268  14.470  0.00  0.00     0.044 H 
BRANCH  47  50
ATOM     50  CG  TRP d   1      17.858  26.962  13.216  0.00  0.00    -0.028 A 
ATOM     51  CD1 TRP d   1      18.341  28.215  12.966  0.00  0.00    -0.015 A 
ATOM     52  NE1 TRP d   1      18.422  28.426  11.609  0.00  0.00    -0.365 N 
ATOM     53  H   TRP d   1      18.621  28.940  13.729  0.00  0.00     0.112 H 
ATOM     54  CE2 TRP d   1      17.989  27.300  10.958  0.00  0.00     0.042 A 
ATOM     55  H   TRP d   1      18.754  29.289  11.156  0.00  0.00     0.165 HD
ATOM     56  CD2 TRP d   1      17.626  26.357  11.941  0.00  0.00    -0.002 A 
ATOM     57  CZ2 TRP d   1      17.885  27.033   9.594  0.00  0.00    -0.056 A 
ATOM     58  CE3 TRP d   1      17.146  25.107  11.534  0.00  0.00    -0.070 A 
ATOM     59  CZ3 TRP d   1      17.044  24.842  10.181  0.00  0.00    -0.082 A 
ATOM     60  H   TRP d   1      16.860  24.360  12.266  0.00  0.00     0.084 H 
ATOM     61  CH2 TRP d   1      17.412  25.801   9.226  0.00  0.00    -0.081 A 
ATOM     62  H   TRP d   1      16.674  23.878   9.853  0.00  0.00     0.083 H 
ATOM     63  H   TRP d   1      17.320  25.562   8.173  0.00  0.00     0.083 H 
ATOM     64  H   TRP d   1      18.168  27.772   8.853  0.00  0.00     0.086 H 
ENDBRANCH  47  50
ENDBRANCH  41  47
ENDBRANCH  29  41
ENDBRANCH  24  27
ENDBRANCH   1  23
BRANCH   1  65
ATOM     65  C   ALY d   1      14.137  22.444  20.478  0.00  0.00     0.241 C 
ATOM     66  O   ALY d   1      14.580  22.694  21.600  0.00  0.00    -0.271 OA
ATOM     67  N   SER d   1      12.876  22.074  20.266  0.00  0.00    -0.344 N 
ATOM     68  H   SER d   1      12.545  21.976  19.328  0.00  0.00     0.163 HD
BRANCH  67  69
ATOM     69  CA  SER d   1      11.971  21.810  21.373  0.00  0.00     0.109 C 
ATOM     70  H   SER d   1      12.544  21.840  22.312  0.00  0.00     0.090 H 
BRANCH  69  71
ATOM     71  C   SER d   1      11.360  20.426  21.205  0.00  0.00     0.243 C 
ATOM     72  O   SER d   1      10.907  20.066  20.114  0.00  0.00    -0.271 OA
ATOM     73  N   ILE d   1      11.351  19.665  22.298  0.00  0.00    -0.346 N 
ATOM     74  H   ILE d   1      11.802  20.008  23.122  0.00  0.00     0.163 HD
BRANCH  73  75
ATOM     75  CA  ILE d   1      10.717  18.361  22.348  0.00  0.00     0.092 C 
ATOM     76  H   ILE d   1      10.734  17.887  21.356  0.00  0.00     0.088 H 
BRANCH  75  77
ATOM     77  C   ILE d   1       9.290  18.583  22.813  0.00  0.00     0.241 C 
ATOM     78  O   ILE d   1       9.063  19.175  23.877  0.00  0.00    -0.271 OA
ATOM     79  N   ILE d   1       8.325  18.115  22.021  0.00  0.00    -0.344 N 
ATOM     80  H   ILE d   1       8.572  17.554  21.231  0.00  0.00     0.163 HD
BRANCH  79  81
ATOM     81  CA  ILE d   1       6.914  18.402  22.280  0.00  0.00     0.099 C 
ATOM     82  H   ILE d   1       6.830  18.670  23.344  0.00  0.00     0.090 H 
BRANCH  81  83
ATOM     83  C   ILE d   1       6.003  17.207  22.028  0.00  0.00     0.197 C 
ATOM     84  O   ILE d   1       6.441  16.164  21.506  0.00  0.00    -0.646 OA
ATOM     85  OXT ILE d   1       4.817  17.299  22.351  0.00  0.00    -0.646 OA
ENDBRANCH  81  83
BRANCH  81  86
ATOM     86  CB  ILE d   1       6.395  19.604  21.441  0.00  0.00    -0.029 C 
ATOM     87  H   ILE d   1       5.345  19.780  21.718  0.00  0.00     0.043 H 
BRANCH  86  88
ATOM     88  CG1 ILE d   1       6.439  19.284  19.945  0.00  0.00    -0.063 C 
ATOM     89  H   ILE d   1       5.881  18.352  19.772  0.00  0.00     0.033 H 
ATOM     90  H   ILE d   1       7.489  19.142  19.650  0.00  0.00     0.033 H 
BRANCH  88  91
ATOM     91  CD1 ILE d   1       5.832  20.384  19.065  0.00  0.00    -0.076 C 
ATOM     92  H   ILE d   1       5.898  20.086  18.008  0.00  0.00     0.027 H 
ATOM     93  H   ILE d   1       6.386  21.322  19.217  0.00  0.00     0.027 H 
ATOM     94  H   ILE d   1       4.777  20.532  19.339  0.00  0.00     0.027 H 
ENDBRANCH  88  91
ENDBRANCH  86  88
BRANCH  86  95
ATOM     95  CG2 ILE d   1       7.181  20.880  21.752  0.00  0.00    -0.070 C 
ATOM     96  H   ILE d   1       7.133  21.086  22.831  0.00  0.00     0.028 H 
ATOM     97  H   ILE d   1       6.744  21.724  21.198  0.00  0.00     0.028 H 
ATOM     98  H   ILE d   1       8.230  20.747  21.450  0.00  0.00     0.028 H 
ENDBRANCH  86  95
ENDBRANCH  81  86
ENDBRANCH  79  81
ENDBRANCH  75  77
BRANCH  75  99
ATOM     99  CB  ILE d   1      11.436  17.469  23.372  0.00  0.00    -0.030 C 
ATOM    100  H   ILE d   1      11.368  17.953  24.357  0.00  0.00     0.043 H 
BRANCH  99 101
ATOM    101  CG1 ILE d   1      12.921  17.320  23.020  0.00  0.00    -0.063 C 
ATOM    102  H   ILE d   1      13.312  18.307  22.733  0.00  0.00     0.033 H 
ATOM    103  H   ILE d   1      13.010  16.629  22.169  0.00  0.00     0.033 H 
BRANCH 101 104
ATOM    104  CD1 ILE d   1      13.768  16.780  24.173  0.00  0.00    -0.076 C 
ATOM    105  H   ILE d   1      14.817  16.699  23.851  0.00  0.00     0.027 H 
ATOM    106  H   ILE d   1      13.397  15.787  24.467  0.00  0.00     0.027 H 
ATOM    107  H   ILE d   1      13.699  17.465  25.031  0.00  0.00     0.027 H 
ENDBRANCH 101 104
ENDBRANCH  99 101
BRANCH  99 108
ATOM    108  CG2 ILE d   1      10.752  16.120  23.462  0.00  0.00    -0.071 C 
ATOM    109  H   ILE d   1       9.691  16.263  23.715  0.00  0.00     0.028 H 
ATOM    110  H   ILE d   1      11.237  15.514  24.242  0.00  0.00     0.028 H 
ATOM    111  H   ILE d   1      10.831  15.603  22.494  0.00  0.00     0.028 H 
ENDBRANCH  99 108
ENDBRANCH  75  99
ENDBRANCH  73  75
ENDBRANCH  69  71
BRANCH  69 112
ATOM    112  CB  SER d   1      10.855  22.854  21.447  0.00  0.00     0.044 C 
ATOM    113  H   SER d   1      10.134  22.549  22.220  0.00  0.00     0.077 H 
ATOM    114  H   SER d   1      10.348  22.901  20.472  0.00  0.00     0.077 H 
BRANCH 112 115
ATOM    115  OG  SER d   1      11.351  24.144  21.768  0.00  0.00    -0.398 OA
ATOM    116  H   SER d   1      11.970  24.419  21.102  0.00  0.00     0.209 HD
ENDBRANCH 112 115
ENDBRANCH  69 112
ENDBRANCH  67  69
ENDBRANCH   1  65
TORSDOF 29
