REMARK WARNING: 32 MAX_TORS EXCEEDED!!!
REMARK  50 active torsions:
REMARK  status: ('A' for Active; 'I' for Inactive)
REMARK    1  A    between atoms: CA_2  and  N_1 
REMARK    2  A    between atoms: C_3  and  CA_2 
REMARK    3  A    between atoms: CA_2  and  CB_5 
REMARK       I    between atoms: N_6  and  C_3 
REMARK    4  A    between atoms: CA_7  and  N_6 
REMARK    5  A    between atoms: C_8  and  CA_7 
REMARK    6  A    between atoms: CA_7  and  CB_10 
REMARK       I    between atoms: N_14  and  C_8 
REMARK    7  A    between atoms: CB_10  and  CG_11 
REMARK       I    between atoms: CG_11  and  ND2_13 
REMARK    8  A    between atoms: CA_15  and  N_14 
REMARK    9  A    between atoms: C_16  and  CA_15 
REMARK   10  A    between atoms: CA_15  and  CB_18 
REMARK       I    between atoms: N_20  and  C_16 
REMARK   11  A    between atoms: CB_18  and  OG_19 
REMARK   12  A    between atoms: CA_21  and  N_20 
REMARK   13  A    between atoms: C_22  and  CA_21 
REMARK   14  A    between atoms: CA_21  and  CB_24 
REMARK       I    between atoms: N_31  and  C_22 
REMARK   15  A    between atoms: CB_24  and  CG_25 
REMARK   16  A    between atoms: CG_25  and  CD_26 
REMARK   17  A    between atoms: CD_26  and  NE_27 
REMARK       I    between atoms: NE_27  and  CZ_28 
REMARK       I    between atoms: CZ_28  and  NH1_29 
REMARK   18  A    between atoms: CA_32  and  N_31 
REMARK   19  A    between atoms: C_33  and  CA_32 
REMARK   20  A    between atoms: CA_32  and  CB_35 
REMARK       I    between atoms: N_54  and  C_33 
REMARK   21  A    between atoms: CB_35  and  CG_36 
REMARK   22  A    between atoms: CH_46  and  CH3_47 
REMARK       I    between atoms: NZ_48  and  CH_46 
REMARK   23  A    between atoms: CE_49  and  NZ_48 
REMARK   24  A    between atoms: CD_50  and  CE_49 
REMARK   25  A    between atoms: CG_51  and  CD_50 
REMARK   26  A    between atoms: CB_52  and  CG_51 
REMARK   27  A    between atoms: CA_53  and  CB_52 
REMARK   28  A    between atoms: CA_53  and  N_54 
REMARK   29  A    between atoms: CA_53  and  C_55 
REMARK       I    between atoms: C_55  and  N_57 
REMARK   30  A    between atoms: N_57  and  CA_58 
REMARK   31  A    between atoms: CA_58  and  C_59 
REMARK   32  A    between atoms: CA_58  and  CB_61 
REMARK       I    between atoms: C_59  and  N_64 
REMARK   33  A    between atoms: CB_61  and  OG1_62 
REMARK   34  A    between atoms: CB_61  and  CG2_63 
REMARK   35  A    between atoms: N_64  and  CA_65 
REMARK   36  A    between atoms: CA_65  and  C_66 
REMARK   37  A    between atoms: CA_65  and  CB_68 
REMARK       I    between atoms: C_66  and  N_70 
REMARK   38  A    between atoms: CB_68  and  OG_69 
REMARK   39  A    between atoms: N_70  and  CA_71 
REMARK   40  A    between atoms: CA_71  and  C_72 
REMARK   41  A    between atoms: CA_71  and  CB_74 
REMARK       I    between atoms: C_72  and  N_78 
REMARK   42  A    between atoms: CB_74  and  CG1_75 
REMARK   43  A    between atoms: CB_74  and  CG2_76 
REMARK   44  A    between atoms: CG1_75  and  CD1_77 
REMARK   45  A    between atoms: N_78  and  CA_79 
REMARK   46  A    between atoms: CA_79  and  C_80 
REMARK   47  A    between atoms: CA_79  and  CB_82 
REMARK   48  A    between atoms: CB_82  and  CG1_83 
REMARK   49  A    between atoms: CB_82  and  CG2_84 
REMARK   50  A    between atoms: CG1_83  and  CD1_85 
ROOT
ATOM      1  CA  ALY d   1      33.883  21.207  30.121  0.00  0.00     0.089 C 
ATOM      2  H   ALY d   1      34.661  21.363  29.359  0.00  0.00     0.087 H 
ENDROOT
BRANCH   1   3
ATOM      3  CB  ALY d   1      32.859  20.207  29.607  0.00  0.00    -0.038 C 
ATOM      4  H   ALY d   1      33.293  19.199  29.680  0.00  0.00     0.036 H 
ATOM      5  H   ALY d   1      31.965  20.268  30.245  0.00  0.00     0.036 H 
BRANCH   3   6
ATOM      6  CG  ALY d   1      32.447  20.437  28.202  0.00  0.00    -0.061 C 
ATOM      7  H   ALY d   1      31.739  21.278  28.162  0.00  0.00     0.033 H 
ATOM      8  H   ALY d   1      33.334  20.675  27.596  0.00  0.00     0.033 H 
BRANCH   6   9
ATOM      9  CD  ALY d   1      31.782  19.195  27.653  0.00  0.00    -0.050 C 
ATOM     10  H   ALY d   1      32.495  18.357  27.674  0.00  0.00     0.035 H 
ATOM     11  H   ALY d   1      30.905  18.946  28.268  0.00  0.00     0.035 H 
BRANCH   9  12
ATOM     12  CE  ALY d   1      31.346  19.447  26.236  0.00  0.00    -0.005 C 
ATOM     13  H   ALY d   1      30.910  18.530  25.812  0.00  0.00     0.064 H 
ATOM     14  H   ALY d   1      30.598  20.253  26.215  0.00  0.00     0.064 H 
BRANCH  12  15
ATOM     15  NZ  ALY d   1      32.542  19.849  25.444  0.00  0.00    -0.361 N 
ATOM     16  CH  ALY d   1      32.465  20.974  24.538  0.00  0.00     0.213 C 
ATOM     17  OH  ALY d   1      33.435  21.330  23.847  0.00  0.00    -0.274 OA
ATOM     18  H   ALY d   1      33.398  19.341  25.539  0.00  0.00     0.162 HD
BRANCH  16  19
ATOM     19  CH3 ALY d   1      31.096  21.604  24.345  0.00  0.00    -0.003 C 
ATOM     20  H   ALY d   1      30.382  21.152  25.049  0.00  0.00     0.040 H 
ATOM     21  H   ALY d   1      30.754  21.430  23.314  0.00  0.00     0.040 H 
ATOM     22  H   ALY d   1      31.161  22.686  24.532  0.00  0.00     0.040 H 
ENDBRANCH  16  19
ENDBRANCH  12  15
ENDBRANCH   9  12
ENDBRANCH   6   9
ENDBRANCH   3   6
ENDBRANCH   1   3
BRANCH   1  23
ATOM     23  N   ALY d   1      34.489  20.664  31.316  0.00  0.00    -0.346 N 
ATOM     24  C   TRP d   1      35.495  21.261  31.934  0.00  0.00     0.241 C 
ATOM     25  O   TRP d   1      36.031  22.292  31.524  0.00  0.00    -0.271 OA
ATOM     26  H   ALY d   1      34.135  19.806  31.689  0.00  0.00     0.163 HD
BRANCH  24  27
ATOM     27  CA  TRP d   1      35.940  20.601  33.221  0.00  0.00     0.093 C 
ATOM     28  H   TRP d   1      35.620  19.549  33.224  0.00  0.00     0.088 H 
BRANCH  27  29
ATOM     29  N   TRP d   1      37.394  20.643  33.333  0.00  0.00    -0.346 N 
ATOM     30  C   ARG d   1      38.159  19.757  32.675  0.00  0.00     0.241 C 
ATOM     31  O   ARG d   1      37.716  18.825  32.070  0.00  0.00    -0.271 OA
ATOM     32  H   TRP d   1      37.826  21.339  33.906  0.00  0.00     0.163 HD
BRANCH  30  33
ATOM     33  CA  ARG d   1      39.673  19.876  32.793  0.00  0.00     0.089 C 
ATOM     34  H   ARG d   1      40.159  19.348  31.959  0.00  0.00     0.087 H 
BRANCH  33  35
ATOM     35  N   ARG d   1      40.058  21.268  32.769  0.00  0.00    -0.346 N 
ATOM     36  C   SER d   1      39.835  22.043  31.721  0.00  0.00     0.243 C 
ATOM     37  O   SER d   1      39.541  21.585  30.643  0.00  0.00    -0.271 OA
ATOM     38  H   ARG d   1      40.508  21.659  33.572  0.00  0.00     0.163 HD
BRANCH  36  39
ATOM     39  CA  SER d   1      39.915  23.565  31.904  0.00  0.00     0.109 C 
ATOM     40  H   SER d   1      38.875  23.922  31.931  0.00  0.00     0.090 H 
BRANCH  39  41
ATOM     41  N   SER d   1      40.543  24.049  33.113  0.00  0.00    -0.344 N 
ATOM     42  C   ASN d   1      41.829  23.904  33.049  0.00  0.00     0.241 C 
ATOM     43  O   ASN d   1      42.276  23.341  32.072  0.00  0.00    -0.271 OA
ATOM     44  H   SER d   1      40.053  24.442  33.891  0.00  0.00     0.163 HD
BRANCH  42  45
ATOM     45  CA  ASN d   1      42.726  24.432  34.186  0.00  0.00     0.097 C 
ATOM     46  H   ASN d   1      43.743  24.275  33.799  0.00  0.00     0.088 H 
BRANCH  45  47
ATOM     47  N   ASN d   1      42.699  25.854  34.555  0.00  0.00    -0.346 N 
ATOM     48  C   ALA d   1      43.016  26.802  33.691  0.00  0.00     0.248 C 
ATOM     49  O   ALA d   1      43.324  26.564  32.586  0.00  0.00    -0.271 OA
ATOM     50  H   ASN d   1      42.434  26.111  35.484  0.00  0.00     0.163 HD
BRANCH  48  51
ATOM     51  CA  ALA d   1      42.910  28.229  34.152  0.00  0.00     0.172 C 
ATOM     52  H   ALA d   1      43.392  28.337  35.135  0.00  0.00     0.098 H 
BRANCH  51  53
ATOM     53  N   ALA d   1      43.561  29.105  33.197  0.00  0.00    -0.067 N 
ATOM     54  H   ALA d   1      43.486  30.060  33.512  0.00  0.00     0.275 HD
ATOM     55  H   ALA d   1      43.115  29.012  32.298  0.00  0.00     0.275 HD
ATOM     56  H   ALA d   1      44.534  28.852  33.118  0.00  0.00     0.275 HD
ENDBRANCH  51  53
BRANCH  51  57
ATOM     57  CB  ALA d   1      41.472  28.586  34.258  0.00  0.00    -0.042 C 
ATOM     58  H   ALA d   1      40.981  27.920  34.983  0.00  0.00     0.030 H 
ATOM     59  H   ALA d   1      40.993  28.474  33.274  0.00  0.00     0.030 H 
ATOM     60  H   ALA d   1      41.377  29.629  34.595  0.00  0.00     0.030 H 
ENDBRANCH  51  57
ENDBRANCH  48  51
ENDBRANCH  45  47
BRANCH  45  61
ATOM     61  CB  ASN d   1      42.638  23.589  35.463  0.00  0.00     0.036 C 
ATOM     62  H   ASN d   1      42.140  24.186  36.241  0.00  0.00     0.051 H 
ATOM     63  H   ASN d   1      43.659  23.342  35.788  0.00  0.00     0.051 H 
BRANCH  61  64
ATOM     64  CG  ASN d   1      41.880  22.319  35.286  0.00  0.00     0.217 C 
ATOM     65  OD1 ASN d   1      40.832  22.298  34.670  0.00  0.00    -0.274 OA
ATOM     66  ND2 ASN d   1      42.385  21.274  35.856  0.00  0.00    -0.370 N 
ATOM     67  H   ASN d   1      41.925  20.390  35.776  0.00  0.00     0.159 HD
ATOM     68  H   ASN d   1      43.235  21.350  36.377  0.00  0.00     0.159 HD
ENDBRANCH  61  64
ENDBRANCH  45  61
ENDBRANCH  42  45
ENDBRANCH  39  41
BRANCH  39  69
ATOM     69  CB  SER d   1      40.608  24.225  30.680  0.00  0.00     0.044 C 
ATOM     70  H   SER d   1      41.237  25.048  31.050  0.00  0.00     0.077 H 
ATOM     71  H   SER d   1      39.824  24.629  30.023  0.00  0.00     0.077 H 
BRANCH  69  72
ATOM     72  OG  SER d   1      41.443  23.346  29.889  0.00  0.00    -0.398 OA
ATOM     73  H   SER d   1      42.137  22.995  30.434  0.00  0.00     0.209 HD
ENDBRANCH  69  72
ENDBRANCH  39  69
ENDBRANCH  36  39
ENDBRANCH  33  35
BRANCH  33  74
ATOM     74  CB  ARG d   1      40.072  19.240  34.111  0.00  0.00    -0.036 C 
ATOM     75  H   ARG d   1      39.238  18.597  34.429  0.00  0.00     0.036 H 
ATOM     76  H   ARG d   1      40.206  20.054  34.839  0.00  0.00     0.036 H 
BRANCH  74  77
ATOM     77  CG  ARG d   1      41.308  18.409  34.145  0.00  0.00    -0.048 C 
ATOM     78  H   ARG d   1      42.097  18.912  34.722  0.00  0.00     0.035 H 
ATOM     79  H   ARG d   1      41.669  18.211  33.125  0.00  0.00     0.035 H 
BRANCH  77  80
ATOM     80  CD  ARG d   1      40.892  17.124  34.821  0.00  0.00     0.009 C 
ATOM     81  H   ARG d   1      41.421  16.290  34.337  0.00  0.00     0.064 H 
ATOM     82  H   ARG d   1      39.807  16.997  34.689  0.00  0.00     0.064 H 
BRANCH  80  83
ATOM     83  NE  ARG d   1      41.186  17.092  36.234  0.00  0.00    -0.227 N 
ATOM     84  CZ  ARG d   1      40.289  17.337  37.176  0.00  0.00     0.665 C 
ATOM     85  NH1 ARG d   1      39.089  17.585  36.813  0.00  0.00    -0.235 N 
ATOM     86  NH2 ARG d   1      40.580  17.280  38.461  0.00  0.00    -0.235 N 
ATOM     87  H   ARG d   1      38.367  17.780  37.521  0.00  0.00     0.174 HD
ATOM     88  H   ARG d   1      38.844  17.590  35.812  0.00  0.00     0.174 HD
ATOM     89  H   ARG d   1      41.545  17.081  38.762  0.00  0.00     0.174 HD
ATOM     90  H   ARG d   1      39.843  17.435  39.163  0.00  0.00     0.174 HD
ATOM     91  H   ARG d   1      42.148  16.866  36.526  0.00  0.00     0.177 HD
ENDBRANCH  80  83
ENDBRANCH  77  80
ENDBRANCH  74  77
ENDBRANCH  33  74
ENDBRANCH  30  33
ENDBRANCH  27  29
BRANCH  27  92
ATOM     92  CB  TRP d   1      35.253  21.335  34.365  0.00  0.00    -0.012 C 
ATOM     93  H   TRP d   1      34.169  21.309  34.177  0.00  0.00     0.044 H 
ATOM     94  H   TRP d   1      35.602  22.378  34.351  0.00  0.00     0.044 H 
BRANCH  92  95
ATOM     95  CG  TRP d   1      35.488  20.798  35.728  0.00  0.00    -0.028 A 
ATOM     96  CD1 TRP d   1      36.109  19.630  36.071  0.00  0.00    -0.015 A 
ATOM     97  NE1 TRP d   1      36.131  19.497  37.437  0.00  0.00    -0.365 N 
ATOM     98  H   TRP d   1      36.525  18.912  35.366  0.00  0.00     0.112 H 
ATOM     99  CE2 TRP d   1      35.521  20.589  38.001  0.00  0.00     0.042 A 
ATOM    100  H   TRP d   1      36.539  18.706  37.955  0.00  0.00     0.165 HD
ATOM    101  CD2 TRP d   1      35.102  21.426  36.949  0.00  0.00    -0.002 A 
ATOM    102  CZ2 TRP d   1      35.299  20.910  39.341  0.00  0.00    -0.056 A 
ATOM    103  CE3 TRP d   1      34.443  22.622  37.257  0.00  0.00    -0.070 A 
ATOM    104  CZ3 TRP d   1      34.226  22.939  38.583  0.00  0.00    -0.082 A 
ATOM    105  H   TRP d   1      34.109  23.287  36.469  0.00  0.00     0.084 H 
ATOM    106  CH2 TRP d   1      34.654  22.086  39.610  0.00  0.00    -0.081 A 
ATOM    107  H   TRP d   1      33.717  23.862  38.834  0.00  0.00     0.083 H 
ATOM    108  H   TRP d   1      34.469  22.365  40.641  0.00  0.00     0.083 H 
ATOM    109  H   TRP d   1      35.625  20.252  40.139  0.00  0.00     0.086 H 
ENDBRANCH  92  95
ENDBRANCH  27  92
ENDBRANCH  24  27
ENDBRANCH   1  23
BRANCH   1 110
ATOM    110  C   ALY d   1      33.193  22.546  30.411  0.00  0.00     0.241 C 
ATOM    111  O   ALY d   1      32.634  22.735  31.491  0.00  0.00    -0.271 OA
ATOM    112  N   THR d   1      33.272  23.457  29.458  0.00  0.00    -0.344 N 
ATOM    113  H   THR d   1      33.844  23.259  28.662  0.00  0.00     0.163 HD
BRANCH 112 114
ATOM    114  CA  THR d   1      32.557  24.762  29.504  0.00  0.00     0.113 C 
ATOM    115  H   THR d   1      31.835  24.731  30.333  0.00  0.00     0.091 H 
BRANCH 114 116
ATOM    116  C   THR d   1      31.806  25.023  28.228  0.00  0.00     0.243 C 
ATOM    117  O   THR d   1      32.310  24.835  27.209  0.00  0.00    -0.271 OA
ATOM    118  N   SER d   1      30.550  25.459  28.380  0.00  0.00    -0.344 N 
ATOM    119  H   SER d   1      30.180  25.539  29.305  0.00  0.00     0.163 HD
BRANCH 118 120
ATOM    120  CA  SER d   1      29.716  25.815  27.276  0.00  0.00     0.109 C 
ATOM    121  H   SER d   1      30.338  25.818  26.369  0.00  0.00     0.090 H 
BRANCH 120 122
ATOM    122  C   SER d   1      29.101  27.215  27.466  0.00  0.00     0.243 C 
ATOM    123  O   SER d   1      28.704  27.569  28.517  0.00  0.00    -0.271 OA
ATOM    124  N   ILE d   1      29.092  27.955  26.379  0.00  0.00    -0.346 N 
ATOM    125  H   ILE d   1      29.560  27.611  25.565  0.00  0.00     0.163 HD
BRANCH 124 126
ATOM    126  CA  ILE d   1      28.428  29.261  26.304  0.00  0.00     0.092 C 
ATOM    127  H   ILE d   1      28.405  29.737  27.296  0.00  0.00     0.088 H 
BRANCH 126 128
ATOM    128  C   ILE d   1      27.013  29.025  25.786  0.00  0.00     0.241 C 
ATOM    129  O   ILE d   1      26.829  28.436  24.753  0.00  0.00    -0.271 OA
ATOM    130  N   ILE d   1      26.022  29.463  26.546  0.00  0.00    -0.344 N 
ATOM    131  H   ILE d   1      26.238  30.013  27.353  0.00  0.00     0.163 HD
BRANCH 130 132
ATOM    132  CA  ILE d   1      24.628  29.170  26.245  0.00  0.00     0.099 C 
ATOM    133  H   ILE d   1      24.568  28.881  25.185  0.00  0.00     0.090 H 
BRANCH 132 134
ATOM    134  C   ILE d   1      23.729  30.375  26.464  0.00  0.00     0.197 C 
ATOM    135  O   ILE d   1      24.157  31.394  27.011  0.00  0.00    -0.646 OA
ATOM    136  O1  ILE d   1      22.529  30.333  26.081  0.00  0.00    -0.646 OA
ENDBRANCH 132 134
BRANCH 132 137
ATOM    137  CB  ILE d   1      24.099  28.013  27.092  0.00  0.00    -0.029 C 
ATOM    138  H   ILE d   1      23.049  27.837  26.815  0.00  0.00     0.043 H 
BRANCH 137 139
ATOM    139  CG1 ILE d   1      24.149  28.353  28.582  0.00  0.00    -0.063 C 
ATOM    140  H   ILE d   1      23.631  29.311  28.739  0.00  0.00     0.033 H 
ATOM    141  H   ILE d   1      25.203  28.452  28.882  0.00  0.00     0.033 H 
BRANCH 139 142
ATOM    142  CD1 ILE d   1      23.489  27.293  29.468  0.00  0.00    -0.076 C 
ATOM    143  H   ILE d   1      23.561  27.600  30.522  0.00  0.00     0.027 H 
ATOM    144  H   ILE d   1      24.002  26.329  29.331  0.00  0.00     0.027 H 
ATOM    145  H   ILE d   1      22.430  27.188  29.188  0.00  0.00     0.027 H 
ENDBRANCH 139 142
ENDBRANCH 137 139
BRANCH 137 146
ATOM    146  CG2 ILE d   1      24.889  26.740  26.809  0.00  0.00    -0.070 C 
ATOM    147  H   ILE d   1      24.842  26.511  25.734  0.00  0.00     0.028 H 
ATOM    148  H   ILE d   1      24.457  25.906  27.381  0.00  0.00     0.028 H 
ATOM    149  H   ILE d   1      25.938  26.885  27.108  0.00  0.00     0.028 H 
ENDBRANCH 137 146
ENDBRANCH 132 137
ENDBRANCH 130 132
ENDBRANCH 126 128
BRANCH 126 150
ATOM    150  CB  ILE d   1      29.179  30.182  25.277  0.00  0.00    -0.030 C 
ATOM    151  H   ILE d   1      29.122  29.711  24.285  0.00  0.00     0.043 H 
BRANCH 150 152
ATOM    152  CG1 ILE d   1      30.631  30.378  25.639  0.00  0.00    -0.063 C 
ATOM    153  H   ILE d   1      31.003  29.461  26.120  0.00  0.00     0.033 H 
ATOM    154  H   ILE d   1      30.710  31.220  26.343  0.00  0.00     0.033 H 
BRANCH 152 155
ATOM    155  CD1 ILE d   1      31.500  30.678  24.413  0.00  0.00    -0.076 C 
ATOM    156  H   ILE d   1      32.545  30.812  24.728  0.00  0.00     0.027 H 
ATOM    157  H   ILE d   1      31.143  31.598  23.927  0.00  0.00     0.027 H 
ATOM    158  H   ILE d   1      31.436  29.840  23.704  0.00  0.00     0.027 H 
ENDBRANCH 152 155
ENDBRANCH 150 152
BRANCH 150 159
ATOM    159  CG2 ILE d   1      28.543  31.512  25.220  0.00  0.00    -0.071 C 
ATOM    160  H   ILE d   1      27.481  31.399  24.957  0.00  0.00     0.028 H 
ATOM    161  H   ILE d   1      29.046  32.127  24.459  0.00  0.00     0.028 H 
ATOM    162  H   ILE d   1      28.628  32.002  26.201  0.00  0.00     0.028 H 
ENDBRANCH 150 159
ENDBRANCH 126 150
ENDBRANCH 124 126
ENDBRANCH 120 122
BRANCH 120 163
ATOM    163  CB  SER d   1      28.549  24.824  27.074  0.00  0.00     0.044 C 
ATOM    164  H   SER d   1      27.937  25.162  26.225  0.00  0.00     0.077 H 
ATOM    165  H   SER d   1      27.934  24.806  27.986  0.00  0.00     0.077 H 
BRANCH 163 166
ATOM    166  OG  SER d   1      29.016  23.514  26.810  0.00  0.00    -0.398 OA
ATOM    167  H   SER d   1      29.542  23.213  27.542  0.00  0.00     0.209 HD
ENDBRANCH 163 166
ENDBRANCH 120 163
ENDBRANCH 118 120
ENDBRANCH 114 116
BRANCH 114 168
ATOM    168  CB  THR d   1      33.549  25.909  29.758  0.00  0.00     0.060 C 
ATOM    169  H   THR d   1      34.288  25.936  28.943  0.00  0.00     0.086 H 
BRANCH 168 170
ATOM    170  OG1 THR d   1      34.198  25.669  30.978  0.00  0.00    -0.393 OA
ATOM    171  H   THR d   1      34.662  24.841  30.931  0.00  0.00     0.210 HD
ENDBRANCH 168 170
BRANCH 168 172
ATOM    172  CG2 THR d   1      32.849  27.233  29.831  0.00  0.00    -0.050 C 
ATOM    173  H   THR d   1      33.587  28.028  30.013  0.00  0.00     0.031 H 
ATOM    174  H   THR d   1      32.118  27.216  30.652  0.00  0.00     0.031 H 
ATOM    175  H   THR d   1      32.329  27.426  28.881  0.00  0.00     0.031 H 
ENDBRANCH 168 172
ENDBRANCH 114 168
ENDBRANCH 112 114
ENDBRANCH   1 110
TORSDOF 50
