REMARK WARNING: 32 MAX_TORS EXCEEDED!!!
REMARK  47 active torsions:
REMARK  status: ('A' for Active; 'I' for Inactive)
REMARK    1  A    between atoms: CA_2  and  N_1 
REMARK    2  A    between atoms: C_3  and  CA_2 
REMARK    3  A    between atoms: CA_2  and  CB_5 
REMARK       I    between atoms: N_6  and  C_3 
REMARK    4  A    between atoms: CA_7  and  N_6 
REMARK    5  A    between atoms: C_8  and  CA_7 
REMARK    6  A    between atoms: CA_7  and  CB_10 
REMARK       I    between atoms: N_14  and  C_8 
REMARK    7  A    between atoms: CB_10  and  CG_11 
REMARK       I    between atoms: CG_11  and  ND2_13 
REMARK    8  A    between atoms: CA_15  and  N_14 
REMARK    9  A    between atoms: C_16  and  CA_15 
REMARK   10  A    between atoms: CA_15  and  CB_18 
REMARK       I    between atoms: N_20  and  C_16 
REMARK   11  A    between atoms: CB_18  and  OG_19 
REMARK   12  A    between atoms: CA_21  and  N_20 
REMARK   13  A    between atoms: C_22  and  CA_21 
REMARK   14  A    between atoms: CA_21  and  CB_24 
REMARK       I    between atoms: N_40  and  C_22 
REMARK   15  A    between atoms: CB_24  and  CG_25 
REMARK   16  A    between atoms: CG_25  and  CD_26 
REMARK   17  A    between atoms: CD_26  and  NE_27 
REMARK       I    between atoms: NE_27  and  CZ_28 
REMARK       I    between atoms: CZ_28  and  NH1_29 
REMARK   18  A    between atoms: CH_32  and  CH3_33 
REMARK       I    between atoms: NZ_34  and  CH_32 
REMARK   19  A    between atoms: CE_35  and  NZ_34 
REMARK   20  A    between atoms: CD_36  and  CE_35 
REMARK   21  A    between atoms: CG_37  and  CD_36 
REMARK   22  A    between atoms: CB_38  and  CG_37 
REMARK   23  A    between atoms: CA_39  and  CB_38 
REMARK   24  A    between atoms: CA_39  and  N_40 
REMARK   25  A    between atoms: CA_39  and  C_41 
REMARK       I    between atoms: C_41  and  N_43 
REMARK   26  A    between atoms: CA_44  and  C_45 
REMARK       I    between atoms: C_45  and  N_50 
REMARK   27  A    between atoms: N_50  and  CA_51 
REMARK   28  A    between atoms: CA_51  and  C_52 
REMARK   29  A    between atoms: CA_51  and  CB_54 
REMARK       I    between atoms: C_52  and  N_57 
REMARK   30  A    between atoms: CB_54  and  OG1_55 
REMARK   31  A    between atoms: CB_54  and  CG2_56 
REMARK   32  A    between atoms: N_57  and  CA_58 
REMARK   33  A    between atoms: CA_58  and  C_59 
REMARK   34  A    between atoms: CA_58  and  CB_61 
REMARK       I    between atoms: C_59  and  N_63 
REMARK   35  A    between atoms: CB_61  and  OG_62 
REMARK   36  A    between atoms: N_63  and  CA_64 
REMARK   37  A    between atoms: CA_64  and  C_65 
REMARK   38  A    between atoms: CA_64  and  CB_67 
REMARK       I    between atoms: C_65  and  N_71 
REMARK   39  A    between atoms: CB_67  and  CG1_68 
REMARK   40  A    between atoms: CB_67  and  CG2_69 
REMARK   41  A    between atoms: CG1_68  and  CD1_70 
REMARK   42  A    between atoms: N_71  and  CA_72 
REMARK   43  A    between atoms: CA_72  and  C_73 
REMARK   44  A    between atoms: CA_72  and  CB_75 
REMARK   45  A    between atoms: CB_75  and  CG1_76 
REMARK   46  A    between atoms: CB_75  and  CG2_77 
REMARK   47  A    between atoms: CG1_76  and  CD1_78 
ROOT
ATOM      1  CA  ALY d   1      22.044  23.816  19.126  0.00  0.00     0.089 C 
ATOM      2  H   ALY d   1      22.125  24.912  19.084  0.00  0.00     0.087 H 
ENDROOT
BRANCH   1   3
ATOM      3  CB  ALY d   1      21.513  23.325  17.777  0.00  0.00    -0.038 C 
ATOM      4  H   ALY d   1      22.047  22.403  17.506  0.00  0.00     0.036 H 
ATOM      5  H   ALY d   1      20.439  23.109  17.881  0.00  0.00     0.036 H 
BRANCH   3   6
ATOM      6  CG  ALY d   1      21.696  24.337  16.657  0.00  0.00    -0.061 C 
ATOM      7  H   ALY d   1      21.382  25.328  17.018  0.00  0.00     0.033 H 
ATOM      8  H   ALY d   1      22.759  24.369  16.377  0.00  0.00     0.033 H 
BRANCH   6   9
ATOM      9  CD  ALY d   1      20.877  23.979  15.433  0.00  0.00    -0.050 C 
ATOM     10  H   ALY d   1      21.521  24.024  14.542  0.00  0.00     0.035 H 
ATOM     11  H   ALY d   1      20.482  22.959  15.549  0.00  0.00     0.035 H 
BRANCH   9  12
ATOM     12  CE  ALY d   1      19.720  24.945  15.261  0.00  0.00    -0.005 C 
ATOM     13  H   ALY d   1      18.952  24.722  16.016  0.00  0.00     0.064 H 
ATOM     14  H   ALY d   1      20.087  25.972  15.404  0.00  0.00     0.064 H 
BRANCH  12  15
ATOM     15  NZ  ALY d   1      19.114  24.832  13.907  0.00  0.00    -0.361 N 
ATOM     16  CH  ALY d   1      18.759  23.532  13.340  0.00  0.00     0.213 C 
ATOM     17  OH  ALY d   1      17.643  23.056  13.556  0.00  0.00    -0.274 OA
ATOM     18  H   ALY d   1      18.946  25.662  13.374  0.00  0.00     0.162 HD
BRANCH  16  19
ATOM     19  CH3 ALY d   1      19.623  22.948  12.214  0.00  0.00    -0.003 C 
ATOM     20  H   ALY d   1      20.578  23.491  12.166  0.00  0.00     0.040 H 
ATOM     21  H   ALY d   1      19.094  23.051  11.255  0.00  0.00     0.040 H 
ATOM     22  H   ALY d   1      19.816  21.884  12.414  0.00  0.00     0.040 H 
ENDBRANCH  16  19
ENDBRANCH  12  15
ENDBRANCH   9  12
ENDBRANCH   6   9
ENDBRANCH   3   6
ENDBRANCH   1   3
BRANCH   1  23
ATOM     23  N   ALY d   1      23.372  23.278  19.404  0.00  0.00    -0.346 N 
ATOM     24  C   ARG d   1      24.072  23.689  20.460  0.00  0.00     0.241 C 
ATOM     25  O   ARG d   1      23.663  24.547  21.249  0.00  0.00    -0.271 OA
ATOM     26  H   ALY d   1      23.762  22.590  18.792  0.00  0.00     0.163 HD
BRANCH  24  27
ATOM     27  CA  ARG d   1      25.439  23.052  20.661  0.00  0.00     0.089 C 
ATOM     28  H   ARG d   1      25.839  22.759  19.679  0.00  0.00     0.087 H 
BRANCH  27  29
ATOM     29  N   ARG d   1      26.353  24.007  21.270  0.00  0.00    -0.346 N 
ATOM     30  C   SER d   1      26.697  25.127  20.644  0.00  0.00     0.243 C 
ATOM     31  O   SER d   1      26.389  25.363  19.475  0.00  0.00    -0.271 OA
ATOM     32  H   ARG d   1      26.729  23.816  22.177  0.00  0.00     0.163 HD
BRANCH  30  33
ATOM     33  CA  SER d   1      27.513  26.126  21.464  0.00  0.00     0.109 C 
ATOM     34  H   SER d   1      28.146  25.546  22.152  0.00  0.00     0.090 H 
BRANCH  33  35
ATOM     35  N   SER d   1      28.396  26.963  20.659  0.00  0.00    -0.344 N 
ATOM     36  C   ASN d   1      29.689  27.071  20.947  0.00  0.00     0.241 C 
ATOM     37  O   ASN d   1      30.221  26.455  21.871  0.00  0.00    -0.271 OA
ATOM     38  H   SER d   1      28.022  27.463  19.878  0.00  0.00     0.163 HD
BRANCH  36  39
ATOM     39  CA  ASN d   1      30.505  28.024  20.078  0.00  0.00     0.097 C 
ATOM     40  H   ASN d   1      29.844  28.850  19.776  0.00  0.00     0.088 H 
BRANCH  39  41
ATOM     41  N   ASN d   1      31.610  28.597  20.839  0.00  0.00    -0.346 N 
ATOM     42  C   ALA d   1      31.361  29.412  21.862  0.00  0.00     0.248 C 
ATOM     43  O   ALA d   1      30.219  29.780  22.150  0.00  0.00    -0.271 OA
ATOM     44  H   ASN d   1      32.554  28.378  20.592  0.00  0.00     0.163 HD
BRANCH  42  45
ATOM     45  CA  ALA d   1      32.563  29.895  22.676  0.00  0.00     0.172 C 
ATOM     46  H   ALA d   1      33.450  29.873  22.025  0.00  0.00     0.098 H 
BRANCH  45  47
ATOM     47  N   ALA d   1      32.371  31.269  23.144  0.00  0.00    -0.067 N 
ATOM     48  H   ALA d   1      33.177  31.558  23.676  0.00  0.00     0.275 HD
ATOM     49  H   ALA d   1      31.550  31.314  23.727  0.00  0.00     0.275 HD
ATOM     50  H   ALA d   1      32.254  31.881  22.351  0.00  0.00     0.275 HD
ENDBRANCH  45  47
BRANCH  45  51
ATOM     51  CB  ALA d   1      32.810  28.974  23.852  0.00  0.00    -0.042 C 
ATOM     52  H   ALA d   1      32.953  27.946  23.489  0.00  0.00     0.030 H 
ATOM     53  H   ALA d   1      31.945  29.006  24.531  0.00  0.00     0.030 H 
ATOM     54  H   ALA d   1      33.712  29.301  24.391  0.00  0.00     0.030 H 
ENDBRANCH  45  51
ENDBRANCH  42  45
ENDBRANCH  39  41
BRANCH  39  55
ATOM     55  CB  ASN d   1      30.995  27.332  18.795  0.00  0.00     0.036 C 
ATOM     56  H   ASN d   1      31.513  28.075  18.171  0.00  0.00     0.051 H 
ATOM     57  H   ASN d   1      30.122  26.941  18.252  0.00  0.00     0.051 H 
BRANCH  55  58
ATOM     58  CG  ASN d   1      31.942  26.190  19.070  0.00  0.00     0.217 C 
ATOM     59  OD1 ASN d   1      33.024  26.390  19.623  0.00  0.00    -0.274 OA
ATOM     60  ND2 ASN d   1      31.552  24.979  18.661  0.00  0.00    -0.370 N 
ATOM     61  H   ASN d   1      32.140  24.185  18.817  0.00  0.00     0.159 HD
ATOM     62  H   ASN d   1      30.672  24.867  18.199  0.00  0.00     0.159 HD
ENDBRANCH  55  58
ENDBRANCH  39  55
ENDBRANCH  36  39
ENDBRANCH  33  35
BRANCH  33  63
ATOM     63  CB  SER d   1      26.581  27.005  22.302  0.00  0.00     0.044 C 
ATOM     64  H   SER d   1      27.137  27.394  23.168  0.00  0.00     0.077 H 
ATOM     65  H   SER d   1      25.734  26.397  22.653  0.00  0.00     0.077 H 
BRANCH  63  66
ATOM     66  OG  SER d   1      26.085  28.095  21.544  0.00  0.00    -0.398 OA
ATOM     67  H   SER d   1      25.511  28.622  22.087  0.00  0.00     0.209 HD
ENDBRANCH  63  66
ENDBRANCH  33  63
ENDBRANCH  30  33
ENDBRANCH  27  29
BRANCH  27  68
ATOM     68  CB  ARG d   1      25.315  21.802  21.529  0.00  0.00    -0.036 C 
ATOM     69  H   ARG d   1      24.297  21.398  21.423  0.00  0.00     0.036 H 
ATOM     70  H   ARG d   1      25.491  22.082  22.578  0.00  0.00     0.036 H 
BRANCH  68  71
ATOM     71  CG  ARG d   1      26.303  20.730  21.142  0.00  0.00    -0.048 C 
ATOM     72  H   ARG d   1      25.888  19.741  21.385  0.00  0.00     0.035 H 
ATOM     73  H   ARG d   1      27.244  20.879  21.692  0.00  0.00     0.035 H 
BRANCH  71  74
ATOM     74  CD  ARG d   1      26.566  20.820  19.650  0.00  0.00     0.009 C 
ATOM     75  H   ARG d   1      27.430  21.480  19.482  0.00  0.00     0.064 H 
ATOM     76  H   ARG d   1      25.678  21.245  19.159  0.00  0.00     0.064 H 
BRANCH  74  77
ATOM     77  NE  ARG d   1      26.849  19.519  19.061  0.00  0.00    -0.227 N 
ATOM     78  CZ  ARG d   1      27.029  19.313  17.761  0.00  0.00     0.665 C 
ATOM     79  NH1 ARG d   1      26.957  20.329  16.908  0.00  0.00    -0.235 N 
ATOM     80  NH2 ARG d   1      27.283  18.091  17.313  0.00  0.00    -0.235 N 
ATOM     81  H   ARG d   1      27.097  20.166  15.901  0.00  0.00     0.174 HD
ATOM     82  H   ARG d   1      26.761  21.279  17.254  0.00  0.00     0.174 HD
ATOM     83  H   ARG d   1      27.339  17.302  17.973  0.00  0.00     0.174 HD
ATOM     84  H   ARG d   1      27.424  17.931  16.305  0.00  0.00     0.174 HD
ATOM     85  H   ARG d   1      26.914  18.707  19.692  0.00  0.00     0.177 HD
ENDBRANCH  74  77
ENDBRANCH  71  74
ENDBRANCH  68  71
ENDBRANCH  27  68
ENDBRANCH  24  27
ENDBRANCH   1  23
BRANCH   1  86
ATOM     86  C   ALY d   1      21.065  23.455  20.231  0.00  0.00     0.243 C 
ATOM     87  O   ALY d   1      20.971  22.291  20.628  0.00  0.00    -0.271 OA
ATOM     88  N   PRO d   1      20.341  24.461  20.742  0.00  0.00    -0.337 N 
ATOM     89  CA  PRO d   1      19.314  24.210  21.755  0.00  0.00     0.091 C 
ATOM     90  CD  PRO d   1      20.510  25.900  20.469  0.00  0.00    -0.001 C 
ATOM     91  CB  PRO d   1      18.599  25.558  21.865  0.00  0.00    -0.036 C 
ATOM     92  H   PRO d   1      19.764  23.916  22.715  0.00  0.00     0.087 H 
ATOM     93  CG  PRO d   1      19.657  26.554  21.527  0.00  0.00    -0.048 C 
ATOM     94  H   PRO d   1      18.222  25.719  22.886  0.00  0.00     0.036 H 
ATOM     95  H   PRO d   1      17.764  25.617  21.152  0.00  0.00     0.036 H 
ATOM     96  H   PRO d   1      20.261  26.788  22.416  0.00  0.00     0.035 H 
ATOM     97  H   PRO d   1      19.204  27.478  21.137  0.00  0.00     0.035 H 
ATOM     98  H   PRO d   1      20.152  26.155  19.461  0.00  0.00     0.064 H 
ATOM     99  H   PRO d   1      21.563  26.200  20.571  0.00  0.00     0.064 H 
BRANCH  89 100
ATOM    100  C   PRO d   1      18.342  23.130  21.287  0.00  0.00     0.241 C 
ATOM    101  O   PRO d   1      17.845  23.183  20.160  0.00  0.00    -0.271 OA
ATOM    102  N   THR d   1      18.092  22.152  22.151  0.00  0.00    -0.344 N 
ATOM    103  H   THR d   1      18.544  22.169  23.043  0.00  0.00     0.163 HD
BRANCH 102 104
ATOM    104  CA  THR d   1      17.183  21.056  21.846  0.00  0.00     0.113 C 
ATOM    105  H   THR d   1      16.680  21.253  20.888  0.00  0.00     0.091 H 
BRANCH 104 106
ATOM    106  C   THR d   1      16.158  20.963  22.964  0.00  0.00     0.243 C 
ATOM    107  O   THR d   1      16.515  21.018  24.140  0.00  0.00    -0.271 OA
ATOM    108  N   SER d   1      14.888  20.843  22.596  0.00  0.00    -0.344 N 
ATOM    109  H   SER d   1      14.658  20.872  21.623  0.00  0.00     0.163 HD
BRANCH 108 110
ATOM    110  CA  SER d   1      13.822  20.670  23.573  0.00  0.00     0.109 C 
ATOM    111  H   SER d   1      14.265  20.655  24.580  0.00  0.00     0.090 H 
BRANCH 110 112
ATOM    112  C   SER d   1      13.073  19.370  23.337  0.00  0.00     0.243 C 
ATOM    113  O   SER d   1      12.881  18.955  22.192  0.00  0.00    -0.271 OA
ATOM    114  N   ILE d   1      12.633  18.740  24.422  0.00  0.00    -0.346 N 
ATOM    115  H   ILE d   1      12.909  19.066  25.326  0.00  0.00     0.163 HD
BRANCH 114 116
ATOM    116  CA  ILE d   1      11.754  17.581  24.316  0.00  0.00     0.092 C 
ATOM    117  H   ILE d   1      11.877  17.148  23.312  0.00  0.00     0.088 H 
BRANCH 116 118
ATOM    118  C   ILE d   1      10.304  18.024  24.485  0.00  0.00     0.241 C 
ATOM    119  O   ILE d   1       9.996  18.889  25.309  0.00  0.00    -0.271 OA
ATOM    120  N   ILE d   1       9.417  17.433  23.693  0.00  0.00    -0.344 N 
ATOM    121  H   ILE d   1       9.733  16.743  23.042  0.00  0.00     0.163 HD
BRANCH 120 122
ATOM    122  CA  ILE d   1       7.994  17.760  23.743  0.00  0.00     0.099 C 
ATOM    123  H   ILE d   1       7.788  18.220  24.721  0.00  0.00     0.090 H 
BRANCH 122 124
ATOM    124  C   ILE d   1       7.155  16.493  23.624  0.00  0.00     0.197 C 
ATOM    125  O   ILE d   1       7.683  15.422  23.306  0.00  0.00    -0.646 OA
ATOM    126  OXT ILE d   1       5.943  16.520  23.849  0.00  0.00    -0.646 OA
ENDBRANCH 122 124
BRANCH 122 127
ATOM    127  CB  ILE d   1       7.584  18.775  22.644  0.00  0.00    -0.029 C 
ATOM    128  H   ILE d   1       6.497  18.928  22.706  0.00  0.00     0.043 H 
BRANCH 127 129
ATOM    129  CG1 ILE d   1       7.910  18.239  21.248  0.00  0.00    -0.063 C 
ATOM    130  H   ILE d   1       7.331  17.317  21.089  0.00  0.00     0.033 H 
ATOM    131  H   ILE d   1       8.985  18.008  21.210  0.00  0.00     0.033 H 
BRANCH 129 132
ATOM    132  CD1 ILE d   1       7.591  19.200  20.123  0.00  0.00    -0.076 C 
ATOM    133  H   ILE d   1       7.854  18.738  19.160  0.00  0.00     0.027 H 
ATOM    134  H   ILE d   1       8.170  20.126  20.256  0.00  0.00     0.027 H 
ATOM    135  H   ILE d   1       6.516  19.435  20.135  0.00  0.00     0.027 H 
ENDBRANCH 129 132
ENDBRANCH 127 129
BRANCH 127 136
ATOM    136  CG2 ILE d   1       8.268  20.111  22.878  0.00  0.00    -0.070 C 
ATOM    137  H   ILE d   1       8.021  20.478  23.885  0.00  0.00     0.028 H 
ATOM    138  H   ILE d   1       7.921  20.837  22.128  0.00  0.00     0.028 H 
ATOM    139  H   ILE d   1       9.357  19.986  22.790  0.00  0.00     0.028 H 
ENDBRANCH 127 136
ENDBRANCH 122 127
ENDBRANCH 120 122
ENDBRANCH 116 118
BRANCH 116 140
ATOM    140  CB  ILE d   1      12.084  16.496  25.348  0.00  0.00    -0.030 C 
ATOM    141  H   ILE d   1      11.340  15.692  25.251  0.00  0.00     0.043 H 
BRANCH 140 142
ATOM    142  CG1 ILE d   1      11.987  17.062  26.768  0.00  0.00    -0.063 C 
ATOM    143  H   ILE d   1      11.000  17.533  26.888  0.00  0.00     0.033 H 
ATOM    144  H   ILE d   1      12.773  17.821  26.894  0.00  0.00     0.033 H 
BRANCH 142 145
ATOM    145  CD1 ILE d   1      12.154  16.011  27.857  0.00  0.00    -0.076 C 
ATOM    146  H   ILE d   1      12.073  16.490  28.844  0.00  0.00     0.027 H 
ATOM    147  H   ILE d   1      13.142  15.536  27.760  0.00  0.00     0.027 H 
ATOM    148  H   ILE d   1      11.368  15.248  27.754  0.00  0.00     0.027 H 
ENDBRANCH 142 145
ENDBRANCH 140 142
BRANCH 140 149
ATOM    149  CG2 ILE d   1      13.466  15.897  25.076  0.00  0.00    -0.071 C 
ATOM    150  H   ILE d   1      13.499  15.502  24.050  0.00  0.00     0.028 H 
ATOM    151  H   ILE d   1      13.659  15.082  25.789  0.00  0.00     0.028 H 
ATOM    152  H   ILE d   1      14.233  16.677  25.193  0.00  0.00     0.028 H 
ENDBRANCH 140 149
ENDBRANCH 116 140
ENDBRANCH 114 116
ENDBRANCH 110 112
BRANCH 110 153
ATOM    153  CB  SER d   1      12.816  21.819  23.481  0.00  0.00     0.044 C 
ATOM    154  H   SER d   1      12.018  21.655  24.221  0.00  0.00     0.077 H 
ATOM    155  H   SER d   1      12.382  21.834  22.470  0.00  0.00     0.077 H 
BRANCH 153 156
ATOM    156  OG  SER d   1      13.428  23.065  23.735  0.00  0.00    -0.398 OA
ATOM    157  H   SER d   1      14.115  23.215  23.097  0.00  0.00     0.209 HD
ENDBRANCH 153 156
ENDBRANCH 110 153
ENDBRANCH 108 110
ENDBRANCH 104 106
BRANCH 104 158
ATOM    158  CB  THR d   1      17.931  19.709  21.766  0.00  0.00     0.060 C 
ATOM    159  H   THR d   1      18.394  19.500  22.742  0.00  0.00     0.086 H 
BRANCH 158 160
ATOM    160  OG1 THR d   1      18.955  19.778  20.765  0.00  0.00    -0.393 OA
ATOM    161  H   THR d   1      19.411  18.945  20.722  0.00  0.00     0.210 HD
ENDBRANCH 158 160
BRANCH 158 162
ATOM    162  CG2 THR d   1      16.972  18.588  21.426  0.00  0.00    -0.050 C 
ATOM    163  H   THR d   1      17.523  17.637  21.373  0.00  0.00     0.031 H 
ATOM    164  H   THR d   1      16.499  18.792  20.454  0.00  0.00     0.031 H 
ATOM    165  H   THR d   1      16.197  18.520  22.203  0.00  0.00     0.031 H 
ENDBRANCH 158 162
ENDBRANCH 104 158
ENDBRANCH 102 104
ENDBRANCH  89 100
ENDBRANCH   1  86
TORSDOF 47
