REMARK  28 active torsions:
REMARK  status: ('A' for Active; 'I' for Inactive)
REMARK    1  A    between atoms: N_1  and  CA_2 
REMARK    2  A    between atoms: CA_2  and  C_3 
REMARK    3  A    between atoms: CA_2  and  CB_5 
REMARK       I    between atoms: C_3  and  N_15 
REMARK    4  A    between atoms: CB_5  and  CG_6 
REMARK    5  A    between atoms: CA_16  and  C_17 
REMARK       I    between atoms: C_17  and  N_22 
REMARK    6  A    between atoms: N_22  and  CA_23 
REMARK    7  A    between atoms: CA_23  and  C_24 
REMARK    8  A    between atoms: CA_23  and  CB_26 
REMARK       I    between atoms: C_24  and  N_29 
REMARK    9  A    between atoms: CB_26  and  OG1_27 
REMARK   10  A    between atoms: CB_26  and  CG2_28 
REMARK   11  A    between atoms: N_29  and  CA_30 
REMARK   12  A    between atoms: CA_30  and  C_31 
REMARK   13  A    between atoms: CA_30  and  CB_33 
REMARK       I    between atoms: C_31  and  N_35 
REMARK   14  A    between atoms: CB_33  and  OG_34 
REMARK   15  A    between atoms: N_35  and  CA_36 
REMARK   16  A    between atoms: CA_36  and  C_37 
REMARK   17  A    between atoms: CA_36  and  CB_39 
REMARK       I    between atoms: C_37  and  N_53 
REMARK   18  A    between atoms: CB_39  and  CG_40 
REMARK   19  A    between atoms: CG_40  and  CD_41 
REMARK   20  A    between atoms: CD_41  and  CE_42 
REMARK   21  A    between atoms: CE_42  and  NZ_43 
REMARK       I    between atoms: NZ_43  and  C02_45 
REMARK   22  A    between atoms: C02_45  and  C04_46 
REMARK   23  A    between atoms: N_53  and  CA_54 
REMARK   24  A    between atoms: CA_54  and  C_55 
REMARK   25  A    between atoms: CA_54  and  CB_57 
REMARK   26  A    between atoms: CB_57  and  CG1_58 
REMARK   27  A    between atoms: CB_57  and  CG2_59 
REMARK   28  A    between atoms: CG1_58  and  CD1_60 
ROOT
ATOM      1  CA  SER d   1      12.027  21.604  21.667  0.00  0.00     0.109 C 
ATOM      2  H   SER d   1      12.649  21.558  22.573  0.00  0.00     0.090 H 
ENDROOT
BRANCH   1   3
ATOM      3  N   SER d   1      12.867  21.938  20.524  0.00  0.00    -0.344 N 
ATOM      4  C   THR d   1      14.147  22.265  20.683  0.00  0.00     0.243 C 
ATOM      5  O   THR d   1      14.673  22.388  21.786  0.00  0.00    -0.271 OA
ATOM      6  H   SER d   1      12.475  21.921  19.604  0.00  0.00     0.163 HD
BRANCH   4   7
ATOM      7  CA  THR d   1      14.947  22.518  19.427  0.00  0.00     0.113 C 
ATOM      8  H   THR d   1      14.267  22.678  18.578  0.00  0.00     0.091 H 
BRANCH   7   9
ATOM      9  N   THR d   1      15.756  23.715  19.628  0.00  0.00    -0.344 N 
ATOM     10  C   PRO d   1      15.782  24.695  18.736  0.00  0.00     0.241 C 
ATOM     11  O   PRO d   1      15.145  24.666  17.674  0.00  0.00    -0.271 OA
ATOM     12  H   THR d   1      16.305  23.798  20.460  0.00  0.00     0.163 HD
BRANCH  10  13
ATOM     13  CA  PRO d   1      16.646  25.899  19.107  0.00  0.00     0.091 C 
ATOM     14  N   PRO d   1      17.104  26.628  17.922  0.00  0.00    -0.337 N 
ATOM     15  C   TRP d   1      17.976  26.087  17.058  0.00  0.00     0.251 C 
ATOM     16  CD  PRO d   1      16.425  27.927  17.785  0.00  0.00    -0.001 C 
ATOM     17  O   TRP d   1      18.462  24.967  17.217  0.00  0.00    -0.271 OA
ATOM     18  CG  PRO d   1      15.275  27.811  18.753  0.00  0.00    -0.048 C 
ATOM     19  H   PRO d   1      16.063  28.078  16.757  0.00  0.00     0.064 H 
ATOM     20  H   PRO d   1      17.094  28.755  18.063  0.00  0.00     0.064 H 
ATOM     21  CB  PRO d   1      15.792  26.936  19.842  0.00  0.00    -0.036 C 
ATOM     22  H   PRO d   1      14.997  28.800  19.147  0.00  0.00     0.035 H 
ATOM     23  H   PRO d   1      14.402  27.352  18.266  0.00  0.00     0.035 H 
ATOM     24  H   PRO d   1      16.402  27.514  20.552  0.00  0.00     0.036 H 
ATOM     25  H   PRO d   1      14.964  26.451  20.380  0.00  0.00     0.036 H 
ATOM     26  H   PRO d   1      17.497  25.570  19.721  0.00  0.00     0.087 H 
BRANCH  15  27
ATOM     27  CA  TRP d   1      18.318  26.911  15.820  0.00  0.00     0.179 C 
ATOM     28  H   TRP d   1      18.296  27.979  16.081  0.00  0.00     0.099 H 
BRANCH  27  29
ATOM     29  N   TRP d   1      19.648  26.582  15.323  0.00  0.00    -0.066 N 
ATOM     30  H   TRP d   1      19.849  27.139  14.507  0.00  0.00     0.275 HD
ATOM     31  H   TRP d   1      19.684  25.604  15.080  0.00  0.00     0.275 HD
ATOM     32  H   TRP d   1      20.331  26.776  16.038  0.00  0.00     0.275 HD
ENDBRANCH  27  29
BRANCH  27  33
ATOM     33  CB  TRP d   1      17.257  26.632  14.758  0.00  0.00    -0.004 C 
ATOM     34  H   TRP d   1      16.333  27.146  15.059  0.00  0.00     0.044 H 
ATOM     35  H   TRP d   1      17.081  25.547  14.732  0.00  0.00     0.044 H 
BRANCH  33  36
ATOM     36  CG  TRP d   1      17.601  27.077  13.368  0.00  0.00    -0.028 A 
ATOM     37  CD1 TRP d   1      18.197  28.252  12.994  0.00  0.00    -0.015 A 
ATOM     38  NE1 TRP d   1      18.338  28.292  11.624  0.00  0.00    -0.365 N 
ATOM     39  H   TRP d   1      18.513  29.038  13.678  0.00  0.00     0.112 H 
ATOM     40  CE2 TRP d   1      17.835  27.133  11.092  0.00  0.00     0.042 A 
ATOM     41  H   TRP d   1      18.754  29.067  11.087  0.00  0.00     0.165 HD
ATOM     42  CD2 TRP d   1      17.357  26.347  12.162  0.00  0.00    -0.002 A 
ATOM     43  CZ2 TRP d   1      17.755  26.712   9.764  0.00  0.00    -0.056 A 
ATOM     44  CE3 TRP d   1      16.787  25.102  11.883  0.00  0.00    -0.070 A 
ATOM     45  CZ3 TRP d   1      16.711  24.685  10.564  0.00  0.00    -0.082 A 
ATOM     46  H   TRP d   1      16.412  24.474  12.683  0.00  0.00     0.084 H 
ATOM     47  CH2 TRP d   1      17.194  25.489   9.522  0.00  0.00    -0.081 A 
ATOM     48  H   TRP d   1      16.271  23.721  10.334  0.00  0.00     0.083 H 
ATOM     49  H   TRP d   1      17.121  25.133   8.501  0.00  0.00     0.083 H 
ATOM     50  H   TRP d   1      18.124  27.331   8.955  0.00  0.00     0.086 H 
ENDBRANCH  33  36
ENDBRANCH  27  33
ENDBRANCH  15  27
ENDBRANCH  10  13
ENDBRANCH   7   9
BRANCH   7  51
ATOM     51  CB  THR d   1      15.823  21.293  19.147  0.00  0.00     0.060 C 
ATOM     52  H   THR d   1      16.496  21.126  20.001  0.00  0.00     0.086 H 
BRANCH  51  53
ATOM     53  OG1 THR d   1      16.598  21.527  17.963  0.00  0.00    -0.393 OA
ATOM     54  H   THR d   1      17.149  22.290  18.092  0.00  0.00     0.210 HD
ENDBRANCH  51  53
BRANCH  51  55
ATOM     55  CG2 THR d   1      14.956  20.052  18.937  0.00  0.00    -0.050 C 
ATOM     56  H   THR d   1      15.601  19.184  18.738  0.00  0.00     0.031 H 
ATOM     57  H   THR d   1      14.285  20.214  18.081  0.00  0.00     0.031 H 
ATOM     58  H   THR d   1      14.358  19.865  19.841  0.00  0.00     0.031 H 
ENDBRANCH  51  55
ENDBRANCH   7  51
ENDBRANCH   4   7
ENDBRANCH   1   3
BRANCH   1  59
ATOM     59  C   SER d   1      11.387  20.246  21.417  0.00  0.00     0.243 C 
ATOM     60  O   SER d   1      10.949  19.961  20.298  0.00  0.00    -0.271 OA
ATOM     61  N   2KK d   1      11.335  19.405  22.447  0.00  0.00    -0.346 N 
ATOM     62  H   2KK d   1      11.836  19.620  23.285  0.00  0.00     0.163 HD
BRANCH  61  63
ATOM     63  CA  2KK d   1      10.556  18.171  22.369  0.00  0.00     0.089 C 
ATOM     64  H   2KK d   1      10.523  17.821  21.327  0.00  0.00     0.087 H 
BRANCH  63  65
ATOM     65  C   2KK d   1       9.163  18.486  22.855  0.00  0.00     0.241 C 
ATOM     66  O   2KK d   1       9.002  19.145  23.892  0.00  0.00    -0.271 OA
ATOM     67  N   ILE d   1       8.166  18.025  22.103  0.00  0.00    -0.344 N 
ATOM     68  H   ILE d   1       8.380  17.480  21.292  0.00  0.00     0.163 HD
BRANCH  67  69
ATOM     69  CA  ILE d   1       6.772  18.292  22.428  0.00  0.00     0.099 C 
ATOM     70  H   ILE d   1       6.716  18.584  23.487  0.00  0.00     0.090 H 
BRANCH  69  71
ATOM     71  C   ILE d   1       5.918  17.051  22.214  0.00  0.00     0.197 C 
ATOM     72  O   ILE d   1       6.366  16.006  21.710  0.00  0.00    -0.646 OA
ATOM     73  OXT ILE d   1       4.743  17.073  22.567  0.00  0.00    -0.646 OA
ENDBRANCH  69  71
BRANCH  69  74
ATOM     74  CB  ILE d   1       6.190  19.439  21.565  0.00  0.00    -0.029 C 
ATOM     75  H   ILE d   1       5.124  19.556  21.809  0.00  0.00     0.043 H 
BRANCH  74  76
ATOM     76  CG1 ILE d   1       6.315  19.087  20.077  0.00  0.00    -0.063 C 
ATOM     77  H   ILE d   1       5.800  18.131  19.903  0.00  0.00     0.033 H 
ATOM     78  H   ILE d   1       7.383  18.978  19.836  0.00  0.00     0.033 H 
BRANCH  76  79
ATOM     79  CD1 ILE d   1       5.716  20.132  19.140  0.00  0.00    -0.076 C 
ATOM     80  H   ILE d   1       5.846  19.807  18.097  0.00  0.00     0.027 H 
ATOM     81  H   ILE d   1       6.227  21.095  19.290  0.00  0.00     0.027 H 
ATOM     82  H   ILE d   1       4.644  20.248  19.357  0.00  0.00     0.027 H 
ENDBRANCH  76  79
ENDBRANCH  74  76
BRANCH  74  83
ATOM     83  CG2 ILE d   1       6.903  20.755  21.872  0.00  0.00    -0.070 C 
ATOM     84  H   ILE d   1       6.800  20.987  22.942  0.00  0.00     0.028 H 
ATOM     85  H   ILE d   1       6.453  21.563  21.277  0.00  0.00     0.028 H 
ATOM     86  H   ILE d   1       7.969  20.662  21.618  0.00  0.00     0.028 H 
ENDBRANCH  74  83
ENDBRANCH  69  74
ENDBRANCH  67  69
ENDBRANCH  63  65
BRANCH  63  87
ATOM     87  CB  2KK d   1      11.151  17.069  23.254  0.00  0.00    -0.038 C 
ATOM     88  H   2KK d   1      10.512  16.178  23.173  0.00  0.00     0.036 H 
ATOM     89  H   2KK d   1      11.153  17.425  24.295  0.00  0.00     0.036 H 
BRANCH  87  90
ATOM     90  CG  2KK d   1      12.562  16.676  22.884  0.00  0.00    -0.061 C 
ATOM     91  H   2KK d   1      13.268  17.393  23.329  0.00  0.00     0.033 H 
ATOM     92  H   2KK d   1      12.668  16.689  21.789  0.00  0.00     0.033 H 
BRANCH  90  93
ATOM     93  CD  2KK d   1      12.868  15.290  23.398  0.00  0.00    -0.050 C 
ATOM     94  H   2KK d   1      13.846  14.972  23.008  0.00  0.00     0.035 H 
ATOM     95  H   2KK d   1      12.090  14.598  23.044  0.00  0.00     0.035 H 
BRANCH  93  96
ATOM     96  CE  2KK d   1      12.907  15.253  24.922  0.00  0.00    -0.004 C 
ATOM     97  H   2KK d   1      12.983  14.208  25.257  0.00  0.00     0.064 H 
ATOM     98  H   2KK d   1      11.983  15.699  25.319  0.00  0.00     0.064 H 
BRANCH  96  99
ATOM     99  NZ  2KK d   1      14.080  16.018  25.434  0.00  0.00    -0.357 N 
ATOM    100  C02 2KK d   1      13.917  17.320  26.074  0.00  0.00     0.251 C 
ATOM    101  O01 2KK d   1      12.781  17.850  26.163  0.00  0.00    -0.268 OA
ATOM    102  H   2KK d   1      14.997  15.631  25.337  0.00  0.00     0.162 HD
BRANCH 100 103
ATOM    103  C04 2KK d   1      15.112  18.108  26.460  0.00  0.00     0.032 A 
ATOM    104  C05 2KK d   1      16.365  17.707  26.029  0.00  0.00    -0.065 A 
ATOM    105  C06 2KK d   1      17.482  18.444  26.385  0.00  0.00    -0.045 A 
ATOM    106  H   2KK d   1      16.471  16.820  25.415  0.00  0.00     0.085 H 
ATOM    107  C07 2KK d   1      17.343  19.576  27.174  0.00  0.00     0.116 A 
ATOM    108  H   2KK d   1      18.465  18.136  26.047  0.00  0.00     0.088 H 
ATOM    109  F08 2KK d   1      18.417  20.279  27.513  0.00  0.00    -0.206 F 
ATOM    110  C09 2KK d   1      16.088  19.974  27.606  0.00  0.00    -0.045 A 
ATOM    111  C10 2KK d   1      14.968  19.238  27.251  0.00  0.00    -0.065 A 
ATOM    112  H   2KK d   1      15.982  20.860  28.221  0.00  0.00     0.088 H 
ATOM    113  H   2KK d   1      13.985  19.544  27.590  0.00  0.00     0.085 H 
ENDBRANCH 100 103
ENDBRANCH  96  99
ENDBRANCH  93  96
ENDBRANCH  90  93
ENDBRANCH  87  90
ENDBRANCH  63  87
ENDBRANCH  61  63
ENDBRANCH   1  59
BRANCH   1 114
ATOM    114  CB  SER d   1      10.924  22.657  21.865  0.00  0.00     0.044 C 
ATOM    115  H   SER d   1      10.282  22.351  22.704  0.00  0.00     0.077 H 
ATOM    116  H   SER d   1      10.321  22.723  20.947  0.00  0.00     0.077 H 
BRANCH 114 117
ATOM    117  OG  SER d   1      11.481  23.935  22.148  0.00  0.00    -0.398 OA
ATOM    118  H   SER d   1      12.000  23.884  22.942  0.00  0.00     0.209 HD
ENDBRANCH 114 117
ENDBRANCH   1 114
TORSDOF 28
