REMARK WARNING: 32 MAX_TORS EXCEEDED!!!
REMARK  34 active torsions:
REMARK  status: ('A' for Active; 'I' for Inactive)
REMARK    1  A    between atoms: N_1  and  CA_2 
REMARK    2  A    between atoms: CA_2  and  C_3 
REMARK    3  A    between atoms: CA_2  and  CB_5 
REMARK       I    between atoms: C_3  and  N_12 
REMARK    4  A    between atoms: CB_5  and  CG_6 
REMARK    5  A    between atoms: CG_6  and  CD_7 
REMARK    6  A    between atoms: CD_7  and  NE_8 
REMARK       I    between atoms: NE_8  and  CZ_9 
REMARK       I    between atoms: CZ_9  and  NH1_10 
REMARK    7  A    between atoms: N_12  and  CA_13 
REMARK    8  A    between atoms: CA_13  and  C_14 
REMARK    9  A    between atoms: CA_13  and  CB_16 
REMARK       I    between atoms: C_14  and  N_26 
REMARK   10  A    between atoms: CB_16  and  CG_17 
REMARK   11  A    between atoms: CA_27  and  C_28 
REMARK       I    between atoms: C_28  and  N_33 
REMARK   12  A    between atoms: N_33  and  CA_34 
REMARK   13  A    between atoms: CA_34  and  C_35 
REMARK   14  A    between atoms: CA_34  and  CB_37 
REMARK       I    between atoms: C_35  and  N_40 
REMARK   15  A    between atoms: CB_37  and  OG1_38 
REMARK   16  A    between atoms: CB_37  and  CG2_39 
REMARK   17  A    between atoms: N_40  and  CA_41 
REMARK   18  A    between atoms: CA_41  and  C_42 
REMARK   19  A    between atoms: CA_41  and  CB_44 
REMARK       I    between atoms: C_42  and  N_46 
REMARK   20  A    between atoms: CB_44  and  OG_45 
REMARK   21  A    between atoms: N_46  and  CA_47 
REMARK   22  A    between atoms: CA_47  and  C_48 
REMARK   23  A    between atoms: CA_47  and  CB_50 
REMARK       I    between atoms: C_48  and  N_61 
REMARK   24  A    between atoms: CB_50  and  CG_51 
REMARK   25  A    between atoms: CG_51  and  CD_52 
REMARK   26  A    between atoms: CD_52  and  CE_53 
REMARK   27  A    between atoms: CE_53  and  NZ_54 
REMARK       I    between atoms: NZ_54  and  CH_55 
REMARK   28  A    between atoms: CH_55  and  CT_57 
REMARK   29  A    between atoms: N_61  and  CA_62 
REMARK   30  A    between atoms: CA_62  and  C_63 
REMARK   31  A    between atoms: CA_62  and  CB_65 
REMARK   32  A    between atoms: CB_65  and  CG1_66 
REMARK   33  A    between atoms: CB_65  and  CG2_67 
REMARK   34  A    between atoms: CG1_66  and  CD1_68 
ROOT
ATOM      1  CA  THR d   1      14.922  22.790  19.326  0.00  0.00     0.113 C 
ATOM      2  H   THR d   1      14.260  22.932  18.459  0.00  0.00     0.091 H 
ENDROOT
BRANCH   1   3
ATOM      3  N   THR d   1      15.742  23.972  19.501  0.00  0.00    -0.344 N 
ATOM      4  C   PRO d   1      15.723  24.973  18.632  0.00  0.00     0.241 C 
ATOM      5  O   PRO d   1      15.100  24.935  17.565  0.00  0.00    -0.271 OA
ATOM      6  H   THR d   1      16.340  24.034  20.300  0.00  0.00     0.163 HD
BRANCH   4   7
ATOM      7  CA  PRO d   1      16.533  26.205  19.034  0.00  0.00     0.091 C 
ATOM      8  N   PRO d   1      16.881  27.028  17.876  0.00  0.00    -0.337 N 
ATOM      9  C   TRP d   1      17.837  26.643  17.031  0.00  0.00     0.243 C 
ATOM     10  CD  PRO d   1      16.027  28.224  17.770  0.00  0.00    -0.001 C 
ATOM     11  O   TRP d   1      18.499  25.622  17.202  0.00  0.00    -0.271 OA
ATOM     12  CG  PRO d   1      14.978  27.988  18.829  0.00  0.00    -0.048 C 
ATOM     13  H   PRO d   1      15.571  28.297  16.772  0.00  0.00     0.064 H 
ATOM     14  H   PRO d   1      16.601  29.139  17.979  0.00  0.00     0.064 H 
ATOM     15  CB  PRO d   1      15.648  27.139  19.854  0.00  0.00    -0.036 C 
ATOM     16  H   PRO d   1      14.652  28.942  19.270  0.00  0.00     0.035 H 
ATOM     17  H   PRO d   1      14.109  27.466  18.402  0.00  0.00     0.035 H 
ATOM     18  H   PRO d   1      16.254  27.754  20.536  0.00  0.00     0.036 H 
ATOM     19  H   PRO d   1      14.908  26.568  20.434  0.00  0.00     0.036 H 
ATOM     20  H   PRO d   1      17.431  25.899  19.591  0.00  0.00     0.087 H 
BRANCH   9  21
ATOM     21  CA  TRP d   1      18.045  27.516  15.800  0.00  0.00     0.093 C 
ATOM     22  H   TRP d   1      17.679  28.528  16.026  0.00  0.00     0.088 H 
BRANCH  21  23
ATOM     23  N   TRP d   1      19.450  27.628  15.415  0.00  0.00    -0.346 N 
ATOM     24  C   ARG d   1      20.207  28.639  15.836  0.00  0.00     0.249 C 
ATOM     25  O   ARG d   1      19.791  29.516  16.598  0.00  0.00    -0.271 OA
ATOM     26  H   TRP d   1      19.852  26.930  14.822  0.00  0.00     0.163 HD
BRANCH  24  27
ATOM     27  CA  ARG d   1      21.646  28.675  15.324  0.00  0.00     0.176 C 
ATOM     28  H   ARG d   1      21.619  28.840  14.237  0.00  0.00     0.099 H 
BRANCH  27  29
ATOM     29  N   ARG d   1      22.388  29.773  15.931  0.00  0.00    -0.067 N 
ATOM     30  H   ARG d   1      23.332  29.776  15.578  0.00  0.00     0.275 HD
ATOM     31  H   ARG d   1      22.404  29.655  16.932  0.00  0.00     0.275 HD
ATOM     32  H   ARG d   1      21.941  30.647  15.703  0.00  0.00     0.275 HD
ENDBRANCH  27  29
BRANCH  27  33
ATOM     33  CB  ARG d   1      22.346  27.338  15.588  0.00  0.00    -0.029 C 
ATOM     34  H   ARG d   1      23.425  27.529  15.678  0.00  0.00     0.036 H 
ATOM     35  H   ARG d   1      22.161  26.680  14.726  0.00  0.00     0.036 H 
BRANCH  33  36
ATOM     36  CG  ARG d   1      21.888  26.612  16.844  0.00  0.00    -0.047 C 
ATOM     37  H   ARG d   1      20.891  26.977  17.133  0.00  0.00     0.035 H 
ATOM     38  H   ARG d   1      22.601  26.809  17.659  0.00  0.00     0.035 H 
BRANCH  36  39
ATOM     39  CD  ARG d   1      21.820  25.111  16.585  0.00  0.00     0.009 C 
ATOM     40  H   ARG d   1      20.838  24.737  16.910  0.00  0.00     0.064 H 
ATOM     41  H   ARG d   1      22.612  24.613  17.163  0.00  0.00     0.064 H 
BRANCH  39  42
ATOM     42  NE  ARG d   1      22.001  24.801  15.166  0.00  0.00    -0.227 N 
ATOM     43  CZ  ARG d   1      21.026  24.816  14.259  0.00  0.00     0.665 C 
ATOM     44  NH1 ARG d   1      21.291  24.524  12.994  0.00  0.00    -0.235 N 
ATOM     45  NH2 ARG d   1      19.788  25.128  14.614  0.00  0.00    -0.235 N 
ATOM     46  H   ARG d   1      20.536  24.536  12.294  0.00  0.00     0.174 HD
ATOM     47  H   ARG d   1      22.252  24.285  12.711  0.00  0.00     0.174 HD
ATOM     48  H   ARG d   1      19.576  25.356  15.596  0.00  0.00     0.174 HD
ATOM     49  H   ARG d   1      19.038  25.143  13.908  0.00  0.00     0.174 HD
ATOM     50  H   ARG d   1      22.949  24.554  14.847  0.00  0.00     0.177 HD
ENDBRANCH  39  42
ENDBRANCH  36  39
ENDBRANCH  33  36
ENDBRANCH  27  33
ENDBRANCH  24  27
ENDBRANCH  21  23
BRANCH  21  51
ATOM     51  CB  TRP d   1      17.200  26.929  14.669  0.00  0.00    -0.012 C 
ATOM     52  H   TRP d   1      16.145  27.152  14.887  0.00  0.00     0.044 H 
ATOM     53  H   TRP d   1      17.352  25.840  14.667  0.00  0.00     0.044 H 
BRANCH  51  54
ATOM     54  CG  TRP d   1      17.498  27.433  13.295  0.00  0.00    -0.028 A 
ATOM     55  CD1 TRP d   1      18.020  28.648  12.949  0.00  0.00    -0.015 A 
ATOM     56  NE1 TRP d   1      18.146  28.731  11.582  0.00  0.00    -0.365 N 
ATOM     57  H   TRP d   1      18.295  29.433  13.651  0.00  0.00     0.112 H 
ATOM     58  CE2 TRP d   1      17.708  27.556  11.023  0.00  0.00     0.042 A 
ATOM     59  H   TRP d   1      18.510  29.543  11.062  0.00  0.00     0.165 HD
ATOM     60  CD2 TRP d   1      17.292  26.720  12.078  0.00  0.00    -0.002 A 
ATOM     61  CZ2 TRP d   1      17.639  27.168   9.688  0.00  0.00    -0.056 A 
ATOM     62  CE3 TRP d   1      16.793  25.450  11.774  0.00  0.00    -0.070 A 
ATOM     63  CZ3 TRP d   1      16.725  25.062  10.446  0.00  0.00    -0.082 A 
ATOM     64  H   TRP d   1      16.466  24.782  12.562  0.00  0.00     0.084 H 
ATOM     65  CH2 TRP d   1      17.146  25.919   9.421  0.00  0.00    -0.081 A 
ATOM     66  H   TRP d   1      16.340  24.080  10.196  0.00  0.00     0.083 H 
ATOM     67  H   TRP d   1      17.080  25.585   8.392  0.00  0.00     0.083 H 
ATOM     68  H   TRP d   1      17.963  27.828   8.892  0.00  0.00     0.086 H 
ENDBRANCH  51  54
ENDBRANCH  21  51
ENDBRANCH   9  21
ENDBRANCH   4   7
ENDBRANCH   1   3
BRANCH   1  69
ATOM     69  C   THR d   1      14.087  22.595  20.578  0.00  0.00     0.243 C 
ATOM     70  O   THR d   1      14.600  22.733  21.688  0.00  0.00    -0.271 OA
ATOM     71  N   SER d   1      12.804  22.282  20.401  0.00  0.00    -0.344 N 
ATOM     72  H   SER d   1      12.425  22.276  19.476  0.00  0.00     0.163 HD
BRANCH  71  73
ATOM     73  CA  SER d   1      11.942  21.949  21.525  0.00  0.00     0.109 C 
ATOM     74  H   SER d   1      12.541  21.944  22.448  0.00  0.00     0.090 H 
BRANCH  73  75
ATOM     75  C   SER d   1      11.352  20.565  21.299  0.00  0.00     0.243 C 
ATOM     76  O   SER d   1      10.956  20.215  20.181  0.00  0.00    -0.271 OA
ATOM     77  N   FAK d   1      11.316  19.765  22.358  0.00  0.00    -0.346 N 
ATOM     78  H   FAK d   1      11.782  20.043  23.198  0.00  0.00     0.163 HD
BRANCH  77  79
ATOM     79  CA  FAK d   1      10.611  18.490  22.322  0.00  0.00     0.089 C 
ATOM     80  H   FAK d   1      10.563  18.123  21.286  0.00  0.00     0.087 H 
BRANCH  79  81
ATOM     81  C   FAK d   1       9.214  18.722  22.844  0.00  0.00     0.241 C 
ATOM     82  O   FAK d   1       9.034  19.323  23.903  0.00  0.00    -0.271 OA
ATOM     83  N   ILE d   1       8.229  18.242  22.095  0.00  0.00    -0.344 N 
ATOM     84  H   ILE d   1       8.459  17.678  21.302  0.00  0.00     0.163 HD
BRANCH  83  85
ATOM     85  CA  ILE d   1       6.826  18.505  22.385  0.00  0.00     0.099 C 
ATOM     86  H   ILE d   1       6.750  18.800  23.442  0.00  0.00     0.090 H 
BRANCH  85  87
ATOM     87  C   ILE d   1       5.972  17.265  22.171  0.00  0.00     0.197 C 
ATOM     88  O   ILE d   1       6.436  16.247  21.657  0.00  0.00    -0.646 OA
ATOM     89  OXT ILE d   1       4.793  17.307  22.496  0.00  0.00    -0.646 OA
ENDBRANCH  85  87
BRANCH  85  90
ATOM     90  CB  ILE d   1       6.269  19.661  21.514  0.00  0.00    -0.029 C 
ATOM     91  H   ILE d   1       5.209  19.804  21.771  0.00  0.00     0.043 H 
BRANCH  90  92
ATOM     92  CG1 ILE d   1       6.357  19.316  20.029  0.00  0.00    -0.063 C 
ATOM     93  H   ILE d   1       5.845  18.358  19.858  0.00  0.00     0.033 H 
ATOM     94  H   ILE d   1       7.417  19.220  19.751  0.00  0.00     0.033 H 
BRANCH  92  95
ATOM     95  CD1 ILE d   1       5.714  20.379  19.146  0.00  0.00    -0.076 C 
ATOM     96  H   ILE d   1       5.804  20.083  18.090  0.00  0.00     0.027 H 
ATOM     97  H   ILE d   1       6.223  21.342  19.302  0.00  0.00     0.027 H 
ATOM     98  H   ILE d   1       4.651  20.480  19.409  0.00  0.00     0.027 H 
ENDBRANCH  92  95
ENDBRANCH  90  92
BRANCH  90  99
ATOM     99  CG2 ILE d   1       7.013  20.968  21.805  0.00  0.00    -0.070 C 
ATOM    100  H   ILE d   1       6.939  21.201  22.878  0.00  0.00     0.028 H 
ATOM    101  H   ILE d   1       6.563  21.784  21.221  0.00  0.00     0.028 H 
ATOM    102  H   ILE d   1       8.071  20.858  21.526  0.00  0.00     0.028 H 
ENDBRANCH  90  99
ENDBRANCH  85  90
ENDBRANCH  83  85
ENDBRANCH  79  81
BRANCH  79 103
ATOM    103  CB  FAK d   1      11.336  17.453  23.192  0.00  0.00    -0.038 C 
ATOM    104  H   FAK d   1      10.843  16.479  23.059  0.00  0.00     0.036 H 
ATOM    105  H   FAK d   1      11.258  17.763  24.244  0.00  0.00     0.036 H 
BRANCH 103 106
ATOM    106  CG  FAK d   1      12.811  17.302  22.839  0.00  0.00    -0.061 C 
ATOM    107  H   FAK d   1      13.375  18.114  23.322  0.00  0.00     0.033 H 
ATOM    108  H   FAK d   1      12.922  17.377  21.747  0.00  0.00     0.033 H 
BRANCH 106 109
ATOM    109  CD  FAK d   1      13.386  15.963  23.300  0.00  0.00    -0.050 C 
ATOM    110  H   FAK d   1      14.430  15.891  22.962  0.00  0.00     0.035 H 
ATOM    111  H   FAK d   1      12.797  15.151  22.848  0.00  0.00     0.035 H 
BRANCH 109 112
ATOM    112  CE  FAK d   1      13.351  15.808  24.812  0.00  0.00    -0.004 C 
ATOM    113  H   FAK d   1      13.653  14.785  25.079  0.00  0.00     0.064 H 
ATOM    114  H   FAK d   1      12.329  15.994  25.173  0.00  0.00     0.064 H 
BRANCH 112 115
ATOM    115  NZ  FAK d   1      14.274  16.770  25.445  0.00  0.00    -0.353 N 
ATOM    116  CH  FAK d   1      13.886  17.985  26.128  0.00  0.00     0.325 C 
ATOM    117  OH  FAK d   1      12.671  18.285  26.189  0.00  0.00    -0.263 OA
ATOM    118  H   FAK d   1      15.252  16.564  25.398  0.00  0.00     0.162 HD
BRANCH 116 119
ATOM    119  CT  FAK d   1      14.896  18.736  26.921  0.00  0.00     0.472 C 
ATOM    120  FI1 FAK d   1      16.122  18.447  26.490  0.00  0.00    -0.162 F 
ATOM    121  FI2 FAK d   1      14.648  20.034  26.810  0.00  0.00    -0.162 F 
ATOM    122  FI3 FAK d   1      14.800  18.371  28.187  0.00  0.00    -0.162 F 
ENDBRANCH 116 119
ENDBRANCH 112 115
ENDBRANCH 109 112
ENDBRANCH 106 109
ENDBRANCH 103 106
ENDBRANCH  79 103
ENDBRANCH  77  79
ENDBRANCH  73  75
BRANCH  73 123
ATOM    123  CB  SER d   1      10.813  22.969  21.674  0.00  0.00     0.044 C 
ATOM    124  H   SER d   1      10.145  22.655  22.489  0.00  0.00     0.077 H 
ATOM    125  H   SER d   1      10.244  23.022  20.734  0.00  0.00     0.077 H 
BRANCH 123 126
ATOM    126  OG  SER d   1      11.348  24.250  21.972  0.00  0.00    -0.398 OA
ATOM    127  H   SER d   1      11.924  24.523  21.268  0.00  0.00     0.209 HD
ENDBRANCH 123 126
ENDBRANCH  73 123
ENDBRANCH  71  73
ENDBRANCH   1  69
BRANCH   1 128
ATOM    128  CB  THR d   1      15.792  21.550  19.094  0.00  0.00     0.060 C 
ATOM    129  H   THR d   1      16.497  21.435  19.930  0.00  0.00     0.086 H 
BRANCH 128 130
ATOM    130  OG1 THR d   1      16.515  21.723  17.874  0.00  0.00    -0.393 OA
ATOM    131  H   THR d   1      17.063  22.496  17.939  0.00  0.00     0.210 HD
ENDBRANCH 128 130
BRANCH 128 132
ATOM    132  CG2 THR d   1      14.925  20.303  18.992  0.00  0.00    -0.050 C 
ATOM    133  H   THR d   1      15.565  19.424  18.826  0.00  0.00     0.031 H 
ATOM    134  H   THR d   1      14.225  20.411  18.151  0.00  0.00     0.031 H 
ATOM    135  H   THR d   1      14.359  20.173  19.926  0.00  0.00     0.031 H 
ENDBRANCH 128 132
ENDBRANCH   1 128
TORSDOF 34
