REMARK  28 active torsions:
REMARK  status: ('A' for Active; 'I' for Inactive)
REMARK    1  A    between atoms: N_1  and  CA_2 
REMARK    2  A    between atoms: CA_2  and  C_3 
REMARK    3  A    between atoms: CA_2  and  CB_5 
REMARK       I    between atoms: C_3  and  N_15 
REMARK    4  A    between atoms: CB_5  and  CG_6 
REMARK    5  A    between atoms: CA_16  and  C_17 
REMARK       I    between atoms: C_17  and  N_22 
REMARK    6  A    between atoms: N_22  and  CA_23 
REMARK    7  A    between atoms: CA_23  and  C_24 
REMARK    8  A    between atoms: CA_23  and  CB_26 
REMARK       I    between atoms: C_24  and  N_29 
REMARK    9  A    between atoms: CB_26  and  OG1_27 
REMARK   10  A    between atoms: CB_26  and  CG2_28 
REMARK   11  A    between atoms: N_29  and  CA_30 
REMARK   12  A    between atoms: CA_30  and  C_31 
REMARK   13  A    between atoms: CA_30  and  CB_33 
REMARK       I    between atoms: C_31  and  N_35 
REMARK   14  A    between atoms: CB_33  and  OG_34 
REMARK   15  A    between atoms: N_35  and  CA_36 
REMARK   16  A    between atoms: CA_36  and  C_37 
REMARK   17  A    between atoms: CA_36  and  CB_39 
REMARK       I    between atoms: C_37  and  N_53 
REMARK   18  A    between atoms: CB_39  and  CG_40 
REMARK   19  A    between atoms: CG_40  and  CD_41 
REMARK   20  A    between atoms: CD_41  and  CE_42 
REMARK   21  A    between atoms: CE_42  and  NZ_43 
REMARK       I    between atoms: NZ_43  and  C02_44 
REMARK   22  A    between atoms: C02_44  and  C04_46 
REMARK   23  A    between atoms: N_53  and  CA_54 
REMARK   24  A    between atoms: CA_54  and  C_55 
REMARK   25  A    between atoms: CA_54  and  CB_57 
REMARK   26  A    between atoms: CB_57  and  CG1_58 
REMARK   27  A    between atoms: CB_57  and  CG2_59 
REMARK   28  A    between atoms: CG1_58  and  CD1_60 
ROOT
ATOM      1  CA  SER d   1      11.988  21.767  21.545  0.00  0.00     0.109 C 
ATOM      2  H   SER d   1      12.597  21.745  22.461  0.00  0.00     0.090 H 
ENDROOT
BRANCH   1   3
ATOM      3  N   SER d   1      12.841  22.094  20.411  0.00  0.00    -0.344 N 
ATOM      4  C   THR d   1      14.120  22.436  20.574  0.00  0.00     0.243 C 
ATOM      5  O   THR d   1      14.639  22.594  21.683  0.00  0.00    -0.271 OA
ATOM      6  H   SER d   1      12.459  22.061  19.488  0.00  0.00     0.163 HD
BRANCH   4   7
ATOM      7  CA  THR d   1      14.938  22.652  19.316  0.00  0.00     0.113 C 
ATOM      8  H   THR d   1      14.267  22.794  18.456  0.00  0.00     0.091 H 
BRANCH   7   9
ATOM      9  N   THR d   1      15.750  23.847  19.498  0.00  0.00    -0.344 N 
ATOM     10  C   PRO d   1      15.760  24.843  18.623  0.00  0.00     0.241 C 
ATOM     11  O   PRO d   1      15.160  24.815  17.545  0.00  0.00    -0.271 OA
ATOM     12  H   THR d   1      16.322  23.919  20.315  0.00  0.00     0.163 HD
BRANCH  10  13
ATOM     13  CA  PRO d   1      16.555  26.076  19.035  0.00  0.00     0.091 C 
ATOM     14  N   PRO d   1      16.953  26.868  17.871  0.00  0.00    -0.337 N 
ATOM     15  C   TRP d   1      17.923  26.442  17.063  0.00  0.00     0.251 C 
ATOM     16  CD  PRO d   1      16.171  28.111  17.760  0.00  0.00    -0.001 C 
ATOM     17  O   TRP d   1      18.597  25.444  17.313  0.00  0.00    -0.271 OA
ATOM     18  CG  PRO d   1      15.027  27.876  18.714  0.00  0.00    -0.048 C 
ATOM     19  H   PRO d   1      15.806  28.258  16.733  0.00  0.00     0.064 H 
ATOM     20  H   PRO d   1      16.768  28.983  18.066  0.00  0.00     0.064 H 
ATOM     21  CB  PRO d   1      15.628  27.029  19.792  0.00  0.00    -0.036 C 
ATOM     22  H   PRO d   1      14.657  28.827  19.124  0.00  0.00     0.035 H 
ATOM     23  H   PRO d   1      14.202  27.347  18.214  0.00  0.00     0.035 H 
ATOM     24  H   PRO d   1      16.197  27.646  20.503  0.00  0.00     0.036 H 
ATOM     25  H   PRO d   1      14.849  26.471  20.332  0.00  0.00     0.036 H 
ATOM     26  H   PRO d   1      17.427  25.783  19.639  0.00  0.00     0.087 H 
BRANCH  15  27
ATOM     27  CA  TRP d   1      18.167  27.261  15.803  0.00  0.00     0.179 C 
ATOM     28  H   TRP d   1      17.979  28.323  16.019  0.00  0.00     0.099 H 
BRANCH  27  29
ATOM     29  N   TRP d   1      19.555  27.108  15.379  0.00  0.00    -0.066 N 
ATOM     30  H   TRP d   1      19.713  27.651  14.545  0.00  0.00     0.275 HD
ATOM     31  H   TRP d   1      19.743  26.136  15.188  0.00  0.00     0.275 HD
ATOM     32  H   TRP d   1      20.168  27.431  16.111  0.00  0.00     0.275 HD
ENDBRANCH  27  29
BRANCH  27  33
ATOM     33  CB  TRP d   1      17.194  26.797  14.719  0.00  0.00    -0.004 C 
ATOM     34  H   TRP d   1      16.192  27.173  14.974  0.00  0.00     0.044 H 
ATOM     35  H   TRP d   1      17.183  25.697  14.716  0.00  0.00     0.044 H 
BRANCH  33  36
ATOM     36  CG  TRP d   1      17.530  27.265  13.332  0.00  0.00    -0.028 A 
ATOM     37  CD1 TRP d   1      18.107  28.456  12.971  0.00  0.00    -0.015 A 
ATOM     38  NE1 TRP d   1      18.250  28.510  11.601  0.00  0.00    -0.365 N 
ATOM     39  H   TRP d   1      18.407  29.241  13.663  0.00  0.00     0.112 H 
ATOM     40  CE2 TRP d   1      17.770  27.347  11.058  0.00  0.00     0.042 A 
ATOM     41  H   TRP d   1      18.652  29.297  11.072  0.00  0.00     0.165 HD
ATOM     42  CD2 TRP d   1      17.305  26.542  12.120  0.00  0.00    -0.002 A 
ATOM     43  CZ2 TRP d   1      17.700  26.931   9.725  0.00  0.00    -0.056 A 
ATOM     44  CE3 TRP d   1      16.762  25.289  11.828  0.00  0.00    -0.070 A 
ATOM     45  CZ3 TRP d   1      16.699  24.881  10.509  0.00  0.00    -0.082 A 
ATOM     46  H   TRP d   1      16.396  24.648  12.622  0.00  0.00     0.084 H 
ATOM     47  CH2 TRP d   1      17.163  25.699   9.474  0.00  0.00    -0.081 A 
ATOM     48  H   TRP d   1      16.282  23.909  10.272  0.00  0.00     0.083 H 
ATOM     49  H   TRP d   1      17.095  25.349   8.450  0.00  0.00     0.083 H 
ATOM     50  H   TRP d   1      18.058  27.562   8.920  0.00  0.00     0.086 H 
ENDBRANCH  33  36
ENDBRANCH  27  33
ENDBRANCH  15  27
ENDBRANCH  10  13
ENDBRANCH   7   9
BRANCH   7  51
ATOM     51  CB  THR d   1      15.816  21.427  19.072  0.00  0.00     0.060 C 
ATOM     52  H   THR d   1      16.507  21.298  19.918  0.00  0.00     0.086 H 
BRANCH  51  53
ATOM     53  OG1 THR d   1      16.560  21.638  17.870  0.00  0.00    -0.393 OA
ATOM     54  H   THR d   1      17.101  22.413  17.966  0.00  0.00     0.210 HD
ENDBRANCH  51  53
BRANCH  51  55
ATOM     55  CG2 THR d   1      14.963  20.167  18.922  0.00  0.00    -0.050 C 
ATOM     56  H   THR d   1      15.617  19.300  18.747  0.00  0.00     0.031 H 
ATOM     57  H   THR d   1      14.278  20.287  18.070  0.00  0.00     0.031 H 
ATOM     58  H   THR d   1      14.380  20.007  19.841  0.00  0.00     0.031 H 
ENDBRANCH  51  55
ENDBRANCH   7  51
ENDBRANCH   4   7
ENDBRANCH   1   3
BRANCH   1  59
ATOM     59  C   SER d   1      11.367  20.414  21.311  0.00  0.00     0.243 C 
ATOM     60  O   SER d   1      10.941  20.116  20.194  0.00  0.00    -0.271 OA
ATOM     61  N   2KP d   1      11.335  19.594  22.357  0.00  0.00    -0.346 N 
ATOM     62  H   2KP d   1      11.842  19.846  23.182  0.00  0.00     0.163 HD
BRANCH  61  63
ATOM     63  CA  2KP d   1      10.590  18.343  22.347  0.00  0.00     0.089 C 
ATOM     64  H   2KP d   1      10.560  17.933  21.327  0.00  0.00     0.087 H 
BRANCH  63  65
ATOM     65  C   2KP d   1       9.200  18.649  22.821  0.00  0.00     0.241 C 
ATOM     66  O   2KP d   1       9.015  19.319  23.850  0.00  0.00    -0.271 OA
ATOM     67  N   ILE d   1       8.216  18.157  22.076  0.00  0.00    -0.344 N 
ATOM     68  H   ILE d   1       8.446  17.580  21.293  0.00  0.00     0.163 HD
BRANCH  67  69
ATOM     69  CA  ILE d   1       6.814  18.429  22.360  0.00  0.00     0.099 C 
ATOM     70  H   ILE d   1       6.740  18.734  23.414  0.00  0.00     0.090 H 
BRANCH  69  71
ATOM     71  C   ILE d   1       5.960  17.194  22.155  0.00  0.00     0.197 C 
ATOM     72  O   ILE d   1       6.428  16.161  21.657  0.00  0.00    -0.646 OA
ATOM     73  OXT ILE d   1       4.781  17.231  22.487  0.00  0.00    -0.646 OA
ENDBRANCH  69  71
BRANCH  69  74
ATOM     74  CB  ILE d   1       6.238  19.565  21.485  0.00  0.00    -0.029 C 
ATOM     75  H   ILE d   1       5.177  19.688  21.747  0.00  0.00     0.043 H 
BRANCH  74  76
ATOM     76  CG1 ILE d   1       6.322  19.228  19.997  0.00  0.00    -0.063 C 
ATOM     77  H   ILE d   1       5.790  18.282  19.819  0.00  0.00     0.033 H 
ATOM     78  H   ILE d   1       7.380  19.111  19.721  0.00  0.00     0.033 H 
BRANCH  76  79
ATOM     79  CD1 ILE d   1       5.700  20.317  19.110  0.00  0.00    -0.076 C 
ATOM     80  H   ILE d   1       5.788  20.024  18.053  0.00  0.00     0.027 H 
ATOM     81  H   ILE d   1       6.229  21.268  19.272  0.00  0.00     0.027 H 
ATOM     82  H   ILE d   1       4.638  20.439  19.370  0.00  0.00     0.027 H 
ENDBRANCH  76  79
ENDBRANCH  74  76
BRANCH  74  83
ATOM     83  CG2 ILE d   1       6.951  20.879  21.762  0.00  0.00    -0.070 C 
ATOM     84  H   ILE d   1       6.885  21.113  22.835  0.00  0.00     0.028 H 
ATOM     85  H   ILE d   1       6.476  21.683  21.182  0.00  0.00     0.028 H 
ATOM     86  H   ILE d   1       8.008  20.791  21.470  0.00  0.00     0.028 H 
ENDBRANCH  74  83
ENDBRANCH  69  74
ENDBRANCH  67  69
ENDBRANCH  63  65
BRANCH  63  87
ATOM     87  CB  2KP d   1      11.239  17.324  23.289  0.00  0.00    -0.038 C 
ATOM     88  H   2KP d   1      10.618  16.416  23.305  0.00  0.00     0.036 H 
ATOM     89  H   2KP d   1      11.280  17.757  24.299  0.00  0.00     0.036 H 
BRANCH  87  90
ATOM     90  CG  2KP d   1      12.639  16.942  22.872  0.00  0.00    -0.061 C 
ATOM     91  H   2KP d   1      13.349  17.678  23.277  0.00  0.00     0.033 H 
ATOM     92  H   2KP d   1      12.700  16.940  21.774  0.00  0.00     0.033 H 
BRANCH  90  93
ATOM     93  CD  2KP d   1      13.002  15.568  23.390  0.00  0.00    -0.050 C 
ATOM     94  H   2KP d   1      13.970  15.265  22.965  0.00  0.00     0.035 H 
ATOM     95  H   2KP d   1      12.227  14.850  23.085  0.00  0.00     0.035 H 
BRANCH  93  96
ATOM     96  CE  2KP d   1      13.102  15.581  24.893  0.00  0.00    -0.004 C 
ATOM     97  H   2KP d   1      13.247  14.552  25.254  0.00  0.00     0.064 H 
ATOM     98  H   2KP d   1      12.171  15.989  25.313  0.00  0.00     0.064 H 
BRANCH  96  99
ATOM     99  NZ  2KP d   1      14.239  16.414  25.334  0.00  0.00    -0.357 N 
ATOM    100  C02 2KP d   1      14.151  17.693  26.021  0.00  0.00     0.251 C 
ATOM    101  O03 2KP d   1      13.031  18.256  26.081  0.00  0.00    -0.268 OA
ATOM    102  H   2KP d   1      15.156  16.066  25.142  0.00  0.00     0.162 HD
BRANCH 100 103
ATOM    103  C04 2KP d   1      15.396  18.446  26.334  0.00  0.00     0.032 A 
ATOM    104  C05 2KP d   1      15.326  19.732  26.851  0.00  0.00    -0.066 A 
ATOM    105  C06 2KP d   1      16.493  20.426  27.138  0.00  0.00    -0.065 A 
ATOM    106  H   2KP d   1      14.362  20.194  27.030  0.00  0.00     0.085 H 
ATOM    107  C07 2KP d   1      17.723  19.830  26.912  0.00  0.00     0.011 A 
ATOM    108  H   2KP d   1      16.442  21.432  27.538  0.00  0.00     0.085 H 
ATOM    109 BR   2KP d   1      19.354  20.794  27.315  0.00  0.00    -0.051 Br
ATOM    110  C09 2KP d   1      17.793  18.546  26.394  0.00  0.00    -0.065 A 
ATOM    111  C10 2KP d   1      16.628  17.855  26.106  0.00  0.00    -0.066 A 
ATOM    112  H   2KP d   1      18.757  18.084  26.215  0.00  0.00     0.085 H 
ATOM    113  H   2KP d   1      16.680  16.851  25.702  0.00  0.00     0.085 H 
ENDBRANCH 100 103
ENDBRANCH  96  99
ENDBRANCH  93  96
ENDBRANCH  90  93
ENDBRANCH  87  90
ENDBRANCH  63  87
ENDBRANCH  61  63
ENDBRANCH   1  59
BRANCH   1 114
ATOM    114  CB  SER d   1      10.861  22.787  21.713  0.00  0.00     0.044 C 
ATOM    115  H   SER d   1      10.202  22.464  22.532  0.00  0.00     0.077 H 
ATOM    116  H   SER d   1      10.284  22.843  20.778  0.00  0.00     0.077 H 
BRANCH 114 117
ATOM    117  OG  SER d   1      11.382  24.074  22.016  0.00  0.00    -0.398 OA
ATOM    118  H   SER d   1      11.950  24.359  21.309  0.00  0.00     0.209 HD
ENDBRANCH 114 117
ENDBRANCH   1 114
TORSDOF 28
