REMARK WARNING: 32 MAX_TORS EXCEEDED!!!
REMARK  64 active torsions:
REMARK  status: ('A' for Active; 'I' for Inactive)
REMARK    1  A    between atoms: C_1  and  O_2 
REMARK    2  A    between atoms: C_1  and  CH3_3 
REMARK    3  A    between atoms: C_1  and  N_4 
REMARK    4  A    between atoms: N_4  and  CA_5 
REMARK    5  A    between atoms: CA_5  and  C_6 
REMARK    6  A    between atoms: CA_5  and  CB_8 
REMARK       I    between atoms: C_6  and  N_11 
REMARK    7  A    between atoms: CB_8  and  OG1_9 
REMARK    8  A    between atoms: CB_8  and  CG2_10 
REMARK    9  A    between atoms: N_11  and  CA_12 
REMARK   10  A    between atoms: CA_12  and  C_13 
REMARK   11  A    between atoms: CA_12  and  CB_15 
REMARK       I    between atoms: C_13  and  N_18 
REMARK   12  A    between atoms: CB_15  and  CG1_16 
REMARK   13  A    between atoms: CB_15  and  CG2_17 
REMARK   14  A    between atoms: N_18  and  CA_19 
REMARK   15  A    between atoms: CA_19  and  C_20 
REMARK   16  A    between atoms: CA_19  and  CB_22 
REMARK       I    between atoms: C_20  and  N_29 
REMARK   17  A    between atoms: CB_22  and  CG_23 
REMARK   18  A    between atoms: N_29  and  CA_30 
REMARK   19  A    between atoms: CA_30  and  C_31 
REMARK   20  A    between atoms: CA_30  and  CB_33 
REMARK       I    between atoms: C_31  and  N_36 
REMARK   21  A    between atoms: CB_33  and  OG1_34 
REMARK   22  A    between atoms: CB_33  and  CG2_35 
REMARK   23  A    between atoms: N_36  and  CA_37 
REMARK   24  A    between atoms: CA_37  and  C_38 
REMARK   25  A    between atoms: CA_37  and  CB_40 
REMARK       I    between atoms: C_38  and  N_42 
REMARK   26  A    between atoms: CB_40  and  OG_41 
REMARK   27  A    between atoms: N_42  and  CA_43 
REMARK   28  A    between atoms: CA_43  and  C_44 
REMARK   29  A    between atoms: CA_43  and  CB_46 
REMARK       I    between atoms: C_44  and  N_56 
REMARK   30  A    between atoms: CB_46  and  CG_47 
REMARK   31  A    between atoms: N_56  and  CA_57 
REMARK   32  A    between atoms: CA_57  and  C_58 
REMARK   33  A    between atoms: CA_57  and  CB_60 
REMARK       I    between atoms: C_58  and  N_65 
REMARK   34  A    between atoms: CB_60  and  CG_61 
REMARK   35  A    between atoms: CG_61  and  CD_62 
REMARK   36  A    between atoms: N_65  and  CA_66 
REMARK   37  A    between atoms: CA_66  and  C_67 
REMARK   38  A    between atoms: CA_66  and  CB_69 
REMARK       I    between atoms: C_67  and  N_74 
REMARK   39  A    between atoms: CB_69  and  CG_70 
REMARK   40  A    between atoms: CG_70  and  CD_71 
REMARK   41  A    between atoms: N_74  and  CA_75 
REMARK   42  A    between atoms: CA_75  and  C_76 
REMARK   43  A    between atoms: CA_75  and  CB_78 
REMARK       I    between atoms: C_76  and  N_86 
REMARK   44  A    between atoms: CB_78  and  CG_79 
REMARK   45  A    between atoms: CZ_84  and  OH_85 
REMARK   46  A    between atoms: N_86  and  CA_87 
REMARK   47  A    between atoms: CA_87  and  C_88 
REMARK   48  A    between atoms: CA_87  and  CB_90 
REMARK       I    between atoms: C_88  and  N_94 
REMARK   49  A    between atoms: CB_90  and  CG_91 
REMARK   50  A    between atoms: CG_91  and  CD1_92 
REMARK   51  A    between atoms: CG_91  and  CD2_93 
REMARK   52  A    between atoms: N_94  and  CA_95 
REMARK   53  A    between atoms: CA_95  and  C_96 
REMARK   54  A    between atoms: CA_95  and  CB_98 
REMARK       I    between atoms: C_96  and  N_102 
REMARK   55  A    between atoms: CB_98  and  CG_99 
REMARK   56  A    between atoms: N_102  and  CA_103 
REMARK   57  A    between atoms: CA_103  and  C_104 
REMARK   58  A    between atoms: CA_103  and  CB_106 
REMARK       I    between atoms: C_104  and  N_116 
REMARK   59  A    between atoms: CB_106  and  CG_107 
REMARK   60  A    between atoms: N_116  and  CA_117 
REMARK   61  A    between atoms: CA_117  and  C_118 
REMARK   62  A    between atoms: CA_117  and  CB_120 
REMARK       I    between atoms: C_118  and  N_123 
REMARK   63  A    between atoms: CB_120  and  CG1_121 
REMARK   64  A    between atoms: CB_120  and  CG2_122 
ROOT
ATOM      1  CA  GLU d   1      15.308   9.152 -39.842  0.00  0.00     0.090 C 
ATOM      2  H55 GLU d   1      16.367   8.963 -40.070  0.00  0.00     0.087 H 
ENDROOT
BRANCH   1   3
ATOM      3  N   GLU d   1      15.100   8.896 -38.401  0.00  0.00    -0.346 N 
ATOM      4  C   TRP d   1      15.746   9.579 -37.458  0.00  0.00     0.241 C 
ATOM      5  O   TRP d   1      16.556  10.454 -37.706  0.00  0.00    -0.271 OA
ATOM      6  H54 GLU d   1      14.452   8.186 -38.125  0.00  0.00     0.163 HD
BRANCH   4   7
ATOM      7  CA  TRP d   1      15.367   9.260 -36.007  0.00  0.00     0.093 C 
ATOM      8  H45 TRP d   1      15.654  10.108 -35.368  0.00  0.00     0.088 H 
BRANCH   7   9
ATOM      9  N   TRP d   1      13.916   9.068 -35.921  0.00  0.00    -0.346 N 
ATOM     10  C   SER d   1      13.083  10.070 -36.183  0.00  0.00     0.243 C 
ATOM     11  O   SER d   1      13.470  11.220 -36.410  0.00  0.00    -0.271 OA
ATOM     12  H44 TRP d   1      13.549   8.174 -35.663  0.00  0.00     0.163 HD
BRANCH  10  13
ATOM     13  CA  SER d   1      11.605   9.740 -36.187  0.00  0.00     0.109 C 
ATOM     14  H40 SER d   1      11.383   9.098 -35.322  0.00  0.00     0.090 H 
BRANCH  13  15
ATOM     15  N   SER d   1      10.836  10.970 -36.060  0.00  0.00    -0.344 N 
ATOM     16  C   THR d   1       9.584  10.985 -35.613  0.00  0.00     0.243 C 
ATOM     17  O   THR d   1       8.967   9.960 -35.301  0.00  0.00    -0.271 OA
ATOM     18  H39 SER d   1      11.265  11.835 -36.319  0.00  0.00     0.163 HD
BRANCH  16  19
ATOM     19  CA  THR d   1       8.936  12.357 -35.447  0.00  0.00     0.113 C 
ATOM     20  H33 THR d   1       8.651  12.450 -34.389  0.00  0.00     0.091 H 
BRANCH  19  21
ATOM     21  N   THR d   1       9.862  13.456 -35.731  0.00  0.00    -0.344 N 
ATOM     22  C   PHE d   1      10.629  13.985 -34.781  0.00  0.00     0.241 C 
ATOM     23  O   PHE d   1      10.685  13.530 -33.644  0.00  0.00    -0.271 OA
ATOM     24  H32 THR d   1       9.919  13.818 -36.662  0.00  0.00     0.163 HD
BRANCH  22  25
ATOM     25  CA  PHE d   1      11.432  15.218 -35.156  0.00  0.00     0.093 C 
ATOM     26  H24 PHE d   1      10.976  15.683 -36.042  0.00  0.00     0.088 H 
BRANCH  25  27
ATOM     27  N   PHE d   1      11.382  16.153 -34.046  0.00  0.00    -0.346 N 
ATOM     28  C   VAL d   1      10.388  17.014 -33.909  0.00  0.00     0.241 C 
ATOM     29  O   VAL d   1       9.488  17.120 -34.738  0.00  0.00    -0.271 OA
ATOM     30  H23 PHE d   1      12.117  16.145 -33.368  0.00  0.00     0.163 HD
BRANCH  28  31
ATOM     31  CA  VAL d   1      10.430  17.891 -32.653  0.00  0.00     0.092 C 
ATOM     32  H15 VAL d   1      11.318  17.617 -32.064  0.00  0.00     0.088 H 
BRANCH  31  33
ATOM     33  N   VAL d   1      10.558  19.289 -33.049  0.00  0.00    -0.346 N 
ATOM     34  C   THR d   1      11.740  19.891 -33.107  0.00  0.00     0.252 C 
ATOM     35  O   THR d   1      12.771  19.388 -32.678  0.00  0.00    -0.271 OA
ATOM     36  H14 VAL d   1       9.735  19.807 -33.283  0.00  0.00     0.163 HD
BRANCH  34  37
ATOM     37  CA  THR d   1      11.766  21.282 -33.733  0.00  0.00     0.204 C 
ATOM     38  H8  THR d   1      10.733  21.596 -33.946  0.00  0.00     0.103 H 
BRANCH  37  39
ATOM     39  N   THR d   1      12.385  22.245 -32.821  0.00  0.00    -0.034 N 
ATOM     40  H6  THR d   1      13.314  21.910 -32.617  0.00  0.00     0.281 HD
ATOM     41  H7  THR d   1      12.444  23.125 -33.309  0.00  0.00     0.281 HD
BRANCH  39  42
ATOM     42  C   ACE d   1      11.745  22.494 -31.580  0.00  0.00     0.187 C 
ATOM     43  H1  ACE d   1      11.835  21.739 -30.785  0.00  0.00     0.128 H 
BRANCH  42  44
ATOM     44  O   ACE d   1      10.627  22.506 -32.116  0.00  0.00    -0.370 OA
ATOM     45  H2  ACE d   1       9.963  22.666 -31.456  0.00  0.00     0.212 HD
ENDBRANCH  42  44
BRANCH  42  46
ATOM     46  CH3 ACE d   1      12.452  23.796 -31.211  0.00  0.00    -0.029 C 
ATOM     47  H3  ACE d   1      13.424  23.567 -30.750  0.00  0.00     0.033 H 
ATOM     48  H4  ACE d   1      11.832  24.361 -30.499  0.00  0.00     0.033 H 
ATOM     49  H5  ACE d   1      12.609  24.398 -32.118  0.00  0.00     0.033 H 
ENDBRANCH  42  46
ENDBRANCH  39  42
ENDBRANCH  37  39
BRANCH  37  50
ATOM     50  CB  THR d   1      12.568  21.265 -35.036  0.00  0.00     0.068 C 
ATOM     51  H9  THR d   1      13.601  20.958 -34.815  0.00  0.00     0.086 H 
BRANCH  50  52
ATOM     52  OG1 THR d   1      12.577  22.586 -35.588  0.00  0.00    -0.393 OA
ATOM     53  H10 THR d   1      12.979  23.184 -34.969  0.00  0.00     0.210 HD
ENDBRANCH  50  52
BRANCH  50  54
ATOM     54  CG2 THR d   1      11.982  20.301 -36.029  0.00  0.00    -0.050 C 
ATOM     55  H11 THR d   1      12.582  20.315 -36.951  0.00  0.00     0.031 H 
ATOM     56  H12 THR d   1      10.948  20.596 -36.260  0.00  0.00     0.031 H 
ATOM     57  H13 THR d   1      11.988  19.287 -35.603  0.00  0.00     0.031 H 
ENDBRANCH  50  54
ENDBRANCH  37  50
ENDBRANCH  34  37
ENDBRANCH  31  33
BRANCH  31  58
ATOM     58  CB  VAL d   1       9.181  17.647 -31.775  0.00  0.00    -0.033 C 
ATOM     59  H16 VAL d   1       8.294  17.990 -32.328  0.00  0.00     0.042 H 
BRANCH  58  60
ATOM     60  CG1 VAL d   1       9.013  16.167 -31.465  0.00  0.00    -0.071 C 
ATOM     61  H17 VAL d   1       8.119  16.022 -30.841  0.00  0.00     0.028 H 
ATOM     62  H18 VAL d   1       9.900  15.802 -30.926  0.00  0.00     0.028 H 
ATOM     63  H19 VAL d   1       8.899  15.606 -32.404  0.00  0.00     0.028 H 
ENDBRANCH  58  60
BRANCH  58  64
ATOM     64  CG2 VAL d   1       9.288  18.447 -30.480  0.00  0.00    -0.071 C 
ATOM     65  H20 VAL d   1       9.409  19.514 -30.717  0.00  0.00     0.028 H 
ATOM     66  H21 VAL d   1      10.158  18.098 -29.904  0.00  0.00     0.028 H 
ATOM     67  H22 VAL d   1       8.374  18.305 -29.885  0.00  0.00     0.028 H 
ENDBRANCH  58  64
ENDBRANCH  31  58
ENDBRANCH  28  31
ENDBRANCH  25  27
BRANCH  25  68
ATOM     68  CB  PHE d   1      12.882  14.873 -35.482  0.00  0.00    -0.014 C 
ATOM     69  H25 PHE d   1      12.897  14.241 -36.382  0.00  0.00     0.043 H 
ATOM     70  H26 PHE d   1      13.308  14.315 -34.635  0.00  0.00     0.043 H 
BRANCH  68  71
ATOM     71  CG  PHE d   1      13.733  16.081 -35.733  0.00  0.00    -0.056 A 
ATOM     72  CD1 PHE d   1      13.758  16.673 -36.992  0.00  0.00    -0.077 A 
ATOM     73  CE1 PHE d   1      14.531  17.792 -37.228  0.00  0.00    -0.082 A 
ATOM     74  H27 PHE d   1      13.165  16.251 -37.795  0.00  0.00     0.084 H 
ATOM     75  CZ  PHE d   1      15.284  18.350 -36.202  0.00  0.00    -0.083 A 
ATOM     76  H29 PHE d   1      14.551  18.237 -38.216  0.00  0.00     0.083 H 
ATOM     77  CE2 PHE d   1      15.266  17.777 -34.947  0.00  0.00    -0.082 A 
ATOM     78  H31 PHE d   1      15.884  19.233 -36.387  0.00  0.00     0.083 H 
ATOM     79  CD2 PHE d   1      14.481  16.657 -34.712  0.00  0.00    -0.077 A 
ATOM     80  H30 PHE d   1      15.863  18.200 -34.147  0.00  0.00     0.083 H 
ATOM     81  H28 PHE d   1      14.450  16.225 -33.718  0.00  0.00     0.084 H 
ENDBRANCH  68  71
ENDBRANCH  25  68
ENDBRANCH  22  25
ENDBRANCH  19  21
BRANCH  19  82
ATOM     82  CB  THR d   1       7.627  12.460 -36.280  0.00  0.00     0.060 C 
ATOM     83  H34 THR d   1       6.982  11.604 -36.034  0.00  0.00     0.086 H 
BRANCH  82  84
ATOM     84  OG1 THR d   1       7.922  12.434 -37.683  0.00  0.00    -0.393 OA
ATOM     85  H35 THR d   1       8.486  13.167 -37.901  0.00  0.00     0.210 HD
ENDBRANCH  82  84
BRANCH  82  86
ATOM     86  CG2 THR d   1       6.890  13.750 -35.943  0.00  0.00    -0.050 C 
ATOM     87  H36 THR d   1       5.967  13.811 -36.538  0.00  0.00     0.031 H 
ATOM     88  H37 THR d   1       7.534  14.611 -36.175  0.00  0.00     0.031 H 
ATOM     89  H38 THR d   1       6.637  13.759 -34.872  0.00  0.00     0.031 H 
ENDBRANCH  82  86
ENDBRANCH  19  82
ENDBRANCH  16  19
ENDBRANCH  13  15
BRANCH  13  90
ATOM     90  CB  SER d   1      11.239   8.977 -37.459  0.00  0.00     0.044 C 
ATOM     91  H41 SER d   1      10.143   8.928 -37.543  0.00  0.00     0.077 H 
ATOM     92  H42 SER d   1      11.648   7.958 -37.394  0.00  0.00     0.077 H 
BRANCH  90  93
ATOM     93  OG  SER d   1      11.761   9.610 -38.615  0.00  0.00    -0.398 OA
ATOM     94  H43 SER d   1      11.516   9.111 -39.386  0.00  0.00     0.209 HD
ENDBRANCH  90  93
ENDBRANCH  13  90
ENDBRANCH  10  13
ENDBRANCH   7   9
BRANCH   7  95
ATOM     95  CB  TRP d   1      16.100   8.016 -35.525  0.00  0.00    -0.012 C 
ATOM     96  H46 TRP d   1      15.849   7.184 -36.200  0.00  0.00     0.044 H 
ATOM     97  H47 TRP d   1      15.750   7.782 -34.509  0.00  0.00     0.044 H 
BRANCH  95  98
ATOM     98  CG  TRP d   1      17.578   8.156 -35.488  0.00  0.00    -0.028 A 
ATOM     99  CD1 TRP d   1      18.483   7.428 -36.197  0.00  0.00    -0.015 A 
ATOM    100  NE1 TRP d   1      19.756   7.839 -35.897  0.00  0.00    -0.365 N 
ATOM    101  H48 TRP d   1      18.233   6.635 -36.900  0.00  0.00     0.112 H 
ATOM    102  CE2 TRP d   1      19.692   8.862 -34.989  0.00  0.00     0.042 A 
ATOM    103  H49 TRP d   1      20.621   7.442 -36.291  0.00  0.00     0.165 HD
ATOM    104  CD2 TRP d   1      18.332   9.087 -34.707  0.00  0.00    -0.002 A 
ATOM    105  CZ2 TRP d   1      20.713   9.596 -34.386  0.00  0.00    -0.056 A 
ATOM    106  CE3 TRP d   1      17.988  10.090 -33.793  0.00  0.00    -0.070 A 
ATOM    107  CZ3 TRP d   1      19.006  10.830 -33.199  0.00  0.00    -0.082 A 
ATOM    108  H50 TRP d   1      16.949  10.286 -33.553  0.00  0.00     0.084 H 
ATOM    109  CH2 TRP d   1      20.346  10.571 -33.492  0.00  0.00    -0.081 A 
ATOM    110  H52 TRP d   1      18.755  11.619 -32.499  0.00  0.00     0.083 H 
ATOM    111  H53 TRP d   1      21.116  11.155 -33.001  0.00  0.00     0.083 H 
ATOM    112  H51 TRP d   1      21.755   9.404 -34.614  0.00  0.00     0.086 H 
ENDBRANCH  95  98
ENDBRANCH   7  95
ENDBRANCH   4   7
ENDBRANCH   1   3
BRANCH   1 113
ATOM    113  C   GLU d   1      14.998  10.609 -40.200  0.00  0.00     0.241 C 
ATOM    114  O   GLU d   1      15.775  11.255 -40.916  0.00  0.00    -0.271 OA
ATOM    115  N   GLU d   1      13.873  11.116 -39.702  0.00  0.00    -0.346 N 
ATOM    116  H60 GLU d   1      13.254  10.523 -39.188  0.00  0.00     0.163 HD
BRANCH 115 117
ATOM    117  CA  GLU d   1      13.524  12.521 -39.891  0.00  0.00     0.090 C 
ATOM    118  H61 GLU d   1      13.405  12.697 -40.970  0.00  0.00     0.087 H 
BRANCH 117 119
ATOM    119  C   GLU d   1      14.641  13.446 -39.383  0.00  0.00     0.241 C 
ATOM    120  O   GLU d   1      14.996  14.423 -40.046  0.00  0.00    -0.271 OA
ATOM    121  N   TYR d   1      15.189  13.144 -38.216  0.00  0.00    -0.346 N 
ATOM    122  H66 TYR d   1      14.841  12.362 -37.699  0.00  0.00     0.163 HD
BRANCH 121 123
ATOM    123  CA  TYR d   1      16.294  13.933 -37.669  0.00  0.00     0.093 C 
ATOM    124  H67 TYR d   1      15.978  14.986 -37.637  0.00  0.00     0.088 H 
BRANCH 123 125
ATOM    125  C   TYR d   1      17.533  13.828 -38.560  0.00  0.00     0.241 C 
ATOM    126  O   TYR d   1      18.205  14.834 -38.814  0.00  0.00    -0.271 OA
ATOM    127  N   LEU d   1      17.842  12.608 -39.000  0.00  0.00    -0.346 N 
ATOM    128  H75 LEU d   1      17.271  11.835 -38.723  0.00  0.00     0.163 HD
BRANCH 127 129
ATOM    129  CA  LEU d   1      18.987  12.363 -39.874  0.00  0.00     0.089 C 
ATOM    130  H76 LEU d   1      19.893  12.711 -39.356  0.00  0.00     0.087 H 
BRANCH 129 131
ATOM    131  C   LEU d   1      18.861  13.132 -41.195  0.00  0.00     0.241 C 
ATOM    132  O   LEU d   1      19.828  13.729 -41.666  0.00  0.00    -0.271 OA
ATOM    133  N   ASP d   1      17.670  13.116 -41.780  0.00  0.00    -0.346 N 
ATOM    134  H86 ASP d   1      16.925  12.594 -41.365  0.00  0.00     0.163 HD
BRANCH 133 135
ATOM    135  CA  ASP d   1      17.429  13.852 -43.026  0.00  0.00     0.098 C 
ATOM    136  H87 ASP d   1      18.152  13.493 -43.773  0.00  0.00     0.088 H 
BRANCH 135 137
ATOM    137  C   ASP d   1      17.643  15.346 -42.844  0.00  0.00     0.241 C 
ATOM    138  O   ASP d   1      18.169  16.003 -43.732  0.00  0.00    -0.271 OA
ATOM    139  N   TRP d   1      17.236  15.876 -41.691  0.00  0.00    -0.346 N 
ATOM    140  H90 TRP d   1      16.851  15.277 -40.988  0.00  0.00     0.163 HD
BRANCH 139 141
ATOM    141  CA  TRP d   1      17.337  17.305 -41.428  0.00  0.00     0.093 C 
ATOM    142  H91 TRP d   1      17.005  17.830 -42.336  0.00  0.00     0.088 H 
BRANCH 141 143
ATOM    143  C   TRP d   1      18.761  17.772 -41.120  0.00  0.00     0.241 C 
ATOM    144  O   TRP d   1      19.202  18.810 -41.621  0.00  0.00    -0.271 OA
ATOM    145  N   VAL d   1      19.461  17.021 -40.278  0.00  0.00    -0.346 N 
ATOM    146 0H10 VAL d   1      19.079  16.148 -39.976  0.00  0.00     0.163 HD
BRANCH 145 147
ATOM    147  CA  VAL d   1      20.771  17.430 -39.779  0.00  0.00     0.092 C 
ATOM    148 1H10 VAL d   1      20.704  18.486 -39.479  0.00  0.00     0.088 H 
BRANCH 147 149
ATOM    149  C   VAL d   1      21.823  17.312 -40.884  0.00  0.00     0.238 C 
ATOM    150  O   VAL d   1      21.634  16.600 -41.878  0.00  0.00    -0.271 OA
ATOM    151  N   NH2 d   1      22.914  18.137 -40.737  0.00  0.00    -0.368 N 
ATOM    152 9H10 NH2 d   1      23.648  18.122 -41.416  0.00  0.00     0.159 HD
ATOM    153 0H11 NH2 d   1      22.973  18.752 -39.951  0.00  0.00     0.159 HD
ENDBRANCH 147 149
BRANCH 147 154
ATOM    154  CB  VAL d   1      21.199  16.605 -38.534  0.00  0.00    -0.033 C 
ATOM    155 2H10 VAL d   1      20.292  16.362 -37.961  0.00  0.00     0.042 H 
BRANCH 154 156
ATOM    156  CG1 VAL d   1      21.863  15.294 -38.941  0.00  0.00    -0.071 C 
ATOM    157 3H10 VAL d   1      22.154  14.735 -38.039  0.00  0.00     0.028 H 
ATOM    158 4H10 VAL d   1      22.758  15.508 -39.544  0.00  0.00     0.028 H 
ATOM    159 5H10 VAL d   1      21.157  14.694 -39.533  0.00  0.00     0.028 H 
ENDBRANCH 154 156
BRANCH 154 160
ATOM    160  CG2 VAL d   1      22.121  17.418 -37.633  0.00  0.00    -0.071 C 
ATOM    161 6H10 VAL d   1      21.623  18.358 -37.352  0.00  0.00     0.028 H 
ATOM    162 7H10 VAL d   1      23.054  17.644 -38.171  0.00  0.00     0.028 H 
ATOM    163 8H10 VAL d   1      22.351  16.839 -36.726  0.00  0.00     0.028 H 
ENDBRANCH 154 160
ENDBRANCH 147 154
ENDBRANCH 145 147
ENDBRANCH 141 143
BRANCH 141 164
ATOM    164  CB  TRP d   1      16.412  17.705 -40.282  0.00  0.00    -0.012 C 
ATOM    165  H92 TRP d   1      16.536  16.980 -39.464  0.00  0.00     0.044 H 
ATOM    166  H93 TRP d   1      15.374  17.675 -40.644  0.00  0.00     0.044 H 
BRANCH 164 167
ATOM    167  CG  TRP d   1      16.690  19.078 -39.748  0.00  0.00    -0.028 A 
ATOM    168  CD1 TRP d   1      16.224  20.261 -40.249  0.00  0.00    -0.015 A 
ATOM    169  NE1 TRP d   1      16.697  21.313 -39.498  0.00  0.00    -0.365 N 
ATOM    170  H94 TRP d   1      15.573  20.357 -41.117  0.00  0.00     0.112 H 
ATOM    171  CE2 TRP d   1      17.487  20.821 -38.490  0.00  0.00     0.042 A 
ATOM    172  H95 TRP d   1      16.491  22.308 -39.666  0.00  0.00     0.165 HD
ATOM    173  CD2 TRP d   1      17.508  19.413 -38.618  0.00  0.00    -0.002 A 
ATOM    174  CZ2 TRP d   1      18.185  21.496 -37.474  0.00  0.00    -0.056 A 
ATOM    175  CE3 TRP d   1      18.253  18.661 -37.696  0.00  0.00    -0.070 A 
ATOM    176  CZ3 TRP d   1      18.950  19.332 -36.685  0.00  0.00    -0.082 A 
ATOM    177  H96 TRP d   1      18.288  17.580 -37.766  0.00  0.00     0.084 H 
ATOM    178  CH2 TRP d   1      18.908  20.737 -36.585  0.00  0.00    -0.081 A 
ATOM    179  H98 TRP d   1      19.531  18.763 -35.968  0.00  0.00     0.083 H 
ATOM    180  H99 TRP d   1      19.457  21.229 -35.791  0.00  0.00     0.083 H 
ATOM    181  H97 TRP d   1      18.154  22.577 -37.394  0.00  0.00     0.086 H 
ENDBRANCH 164 167
ENDBRANCH 141 164
ENDBRANCH 139 141
ENDBRANCH 135 137
BRANCH 135 182
ATOM    182  CB  ASP d   1      16.016  13.588 -43.566  0.00  0.00     0.043 C 
ATOM    183  H88 ASP d   1      15.722  14.431 -44.209  0.00  0.00     0.052 H 
ATOM    184  H89 ASP d   1      15.322  13.515 -42.716  0.00  0.00     0.052 H 
BRANCH 182 185
ATOM    185  CG  ASP d   1      15.930  12.316 -44.369  0.00  0.00     0.175 C 
ATOM    186  OD1 ASP d   1      16.994  11.796 -44.776  0.00  0.00    -0.648 OA
ATOM    187  OD2 ASP d   1      14.796  11.838 -44.599  0.00  0.00    -0.648 OA
ENDBRANCH 182 185
ENDBRANCH 135 182
ENDBRANCH 133 135
ENDBRANCH 129 131
BRANCH 129 188
ATOM    188  CB  LEU d   1      19.136  10.871 -40.160  0.00  0.00    -0.035 C 
ATOM    189  H77 LEU d   1      19.899  10.757 -40.944  0.00  0.00     0.037 H 
ATOM    190  H78 LEU d   1      18.168  10.506 -40.535  0.00  0.00     0.037 H 
BRANCH 188 191
ATOM    191  CG  LEU d   1      19.543   9.980 -38.985  0.00  0.00    -0.059 C 
ATOM    192  H79 LEU d   1      18.782  10.069 -38.196  0.00  0.00     0.038 H 
BRANCH 191 193
ATOM    193  CD1 LEU d   1      19.624   8.529 -39.421  0.00  0.00    -0.073 C 
ATOM    194  H80 LEU d   1      19.918   7.905 -38.564  0.00  0.00     0.028 H 
ATOM    195  H81 LEU d   1      20.372   8.428 -40.221  0.00  0.00     0.028 H 
ATOM    196  H82 LEU d   1      18.642   8.203 -39.793  0.00  0.00     0.028 H 
ENDBRANCH 191 193
BRANCH 191 197
ATOM    197  CD2 LEU d   1      20.878  10.430 -38.427  0.00  0.00    -0.073 C 
ATOM    198  H83 LEU d   1      20.809  11.482 -38.114  0.00  0.00     0.028 H 
ATOM    199  H84 LEU d   1      21.652  10.328 -39.202  0.00  0.00     0.028 H 
ATOM    200  H85 LEU d   1      21.142   9.806 -37.560  0.00  0.00     0.028 H 
ENDBRANCH 191 197
ENDBRANCH 188 191
ENDBRANCH 129 188
ENDBRANCH 127 129
ENDBRANCH 123 125
BRANCH 123 201
ATOM    201  CB  TYR d   1      16.643  13.492 -36.241  0.00  0.00    -0.014 C 
ATOM    202  H68 TYR d   1      16.567  12.396 -36.181  0.00  0.00     0.043 H 
ATOM    203  H69 TYR d   1      15.924  13.948 -35.545  0.00  0.00     0.043 H 
BRANCH 201 204
ATOM    204  CG  TYR d   1      18.031  13.902 -35.838  0.00  0.00    -0.056 A 
ATOM    205  CD1 TYR d   1      19.079  12.988 -35.862  0.00  0.00    -0.074 A 
ATOM    206  CE1 TYR d   1      20.364  13.368 -35.527  0.00  0.00    -0.051 A 
ATOM    207  H70 TYR d   1      18.884  11.961 -36.148  0.00  0.00     0.084 H 
ATOM    208  CZ  TYR d   1      20.618  14.670 -35.174  0.00  0.00     0.065 A 
ATOM    209  H72 TYR d   1      21.168  12.641 -35.543  0.00  0.00     0.087 H 
ATOM    210  CE2 TYR d   1      19.601  15.603 -35.150  0.00  0.00    -0.051 A 
ATOM    211  CD2 TYR d   1      18.315  15.217 -35.494  0.00  0.00    -0.074 A 
ATOM    212  H73 TYR d   1      19.806  16.628 -34.865  0.00  0.00     0.087 H 
ATOM    213  H71 TYR d   1      17.519  15.953 -35.495  0.00  0.00     0.084 H 
BRANCH 208 214
ATOM    214  OH  TYR d   1      21.899  15.042 -34.856  0.00  0.00    -0.361 OA
ATOM    215  H74 TYR d   1      21.918  15.380 -33.968  0.00  0.00     0.217 HD
ENDBRANCH 208 214
ENDBRANCH 201 204
ENDBRANCH 123 201
ENDBRANCH 121 123
ENDBRANCH 117 119
BRANCH 117 216
ATOM    216  CB  GLU d   1      12.194  12.845 -39.213  0.00  0.00    -0.029 C 
ATOM    217  H62 GLU d   1      12.264  12.555 -38.154  0.00  0.00     0.037 H 
ATOM    218  H63 GLU d   1      11.403  12.258 -39.702  0.00  0.00     0.037 H 
BRANCH 216 219
ATOM    219  CG  GLU d   1      11.813  14.313 -39.283  0.00  0.00     0.018 C 
ATOM    220  H64 GLU d   1      12.223  14.737 -40.211  0.00  0.00     0.049 H 
ATOM    221  H65 GLU d   1      12.253  14.830 -38.418  0.00  0.00     0.049 H 
BRANCH 219 222
ATOM    222  CD  GLU d   1      10.317  14.541 -39.270  0.00  0.00     0.172 C 
ATOM    223  OE1 GLU d   1       9.641  14.116 -40.234  0.00  0.00    -0.648 OA
ATOM    224  OE2 GLU d   1       9.826  15.166 -38.308  0.00  0.00    -0.648 OA
ENDBRANCH 219 222
ENDBRANCH 216 219
ENDBRANCH 117 216
ENDBRANCH 115 117
ENDBRANCH   1 113
BRANCH   1 225
ATOM    225  CB  GLU d   1      14.461   8.203 -40.695  0.00  0.00    -0.029 C 
ATOM    226  H56 GLU d   1      14.393   8.617 -41.712  0.00  0.00     0.037 H 
ATOM    227  H57 GLU d   1      13.455   8.145 -40.255  0.00  0.00     0.037 H 
BRANCH 225 228
ATOM    228  CG  GLU d   1      15.028   6.790 -40.788  0.00  0.00     0.018 C 
ATOM    229  H58 GLU d   1      16.090   6.861 -41.065  0.00  0.00     0.049 H 
ATOM    230  H59 GLU d   1      14.480   6.248 -41.573  0.00  0.00     0.049 H 
BRANCH 228 231
ATOM    231  CD  GLU d   1      14.923   5.991 -39.491  0.00  0.00     0.172 C 
ATOM    232  OE1 GLU d   1      14.128   6.360 -38.590  0.00  0.00    -0.648 OA
ATOM    233  OE2 GLU d   1      15.639   4.972 -39.371  0.00  0.00    -0.648 OA
ENDBRANCH 228 231
ENDBRANCH 225 228
ENDBRANCH   1 225
TORSDOF 64
