REMARK  1 active torsions:
REMARK  status: ('A' for Active; 'I' for Inactive)
REMARK    1  A    between atoms: C1_1  and  C2_4 
ROOT
ATOM      1  C1  VGL d   1      15.457   6.504  22.139  0.00  0.00     0.150 A 
ATOM      2  C3  VGL d   1      15.325   4.686  23.559  0.00  0.00     0.020 A 
ATOM      3  C4  VGL d   1      16.670   4.381  23.269  0.00  0.00     0.019 A 
ATOM      4  C6  VGL d   1      16.796   6.203  21.835  0.00  0.00     0.036 A 
ATOM      5  N2  VGL d   1      14.712   5.749  22.989  0.00  0.00    -0.251 NA
ATOM      6  N5  VGL d   1      17.384   5.138  22.393  0.00  0.00    -0.269 NA
ATOM      7  H1  VGL d   1      14.773   4.059  24.250  0.00  0.00     0.117 H 
ATOM      8  H2  VGL d   1      17.142   3.532  23.750  0.00  0.00     0.117 H 
ATOM      9  H3  VGL d   1      17.352   6.833  21.149  0.00  0.00     0.118 H 
ENDROOT
BRANCH   1  10
ATOM     10  C2  VGL d   1      14.803   7.674  21.498  0.00  0.00     0.230 C 
ATOM     11  O1  VGL d   1      13.713   8.063  21.999  0.00  0.00    -0.643 OA
ATOM     12  O2  VGL d   1      15.367   8.194  20.487  0.00  0.00    -0.643 OA
ENDBRANCH   1  10
TORSDOF 1
