REMARK  22 active torsions:
REMARK  status: ('A' for Active; 'I' for Inactive)
REMARK    1  A    between atoms: C9_1  and  O8_3 
REMARK       I    between atoms: C9_1  and  N10_11 
REMARK    2  A    between atoms: O8_3  and  C7_4 
REMARK    3  A    between atoms: C7_4  and  C3_5 
REMARK    4  A    between atoms: N10_11  and  C11_12 
REMARK    5  A    between atoms: C11_12  and  C12_13 
REMARK    6  A    between atoms: C11_12  and  C30_15 
REMARK       I    between atoms: C12_13  and  N13_19 
REMARK    7  A    between atoms: C30_15  and  C31_16 
REMARK    8  A    between atoms: C31_16  and  C32_17 
REMARK    9  A    between atoms: C31_16  and  C33_18 
REMARK   10  A    between atoms: N13_19  and  C14_20 
REMARK   11  A    between atoms: C14_20  and  C15_21 
REMARK   12  A    between atoms: C14_20  and  C24_23 
REMARK       I    between atoms: C15_21  and  N16_27 
REMARK   13  A    between atoms: C24_23  and  C25_24 
REMARK   14  A    between atoms: C25_24  and  C26_25 
REMARK   15  A    between atoms: C25_24  and  C27_26 
REMARK   16  A    between atoms: N16_27  and  C17_28 
REMARK   17  A    between atoms: C17_28  and  C22_29 
REMARK   18  A    between atoms: C17_28  and  C18_30 
REMARK   19  A    between atoms: C22_29  and  O33_34 
REMARK   20  A    between atoms: C18_30  and  C19_31 
REMARK   21  A    between atoms: C19_31  and  C20_32 
REMARK   22  A    between atoms: C19_31  and  C21_33 
ROOT
ATOM      1  C14 ALD d   1      60.626-136.523  39.261  0.00  0.00     0.089 C 
ATOM      2  H20 ALD d   1      59.886-135.823  39.676  0.00  0.00     0.087 H 
ENDROOT
BRANCH   1   3
ATOM      3  N13 ALD d   1      60.954-136.138  37.876  0.00  0.00    -0.346 N 
ATOM      4  C12 ALD d   1      60.736-134.902  37.397  0.00  0.00     0.241 C 
ATOM      5  O32 ALD d   1      60.269-133.973  38.053  0.00  0.00    -0.271 OA
ATOM      6  H19 ALD d   1      61.355-136.824  37.269  0.00  0.00     0.163 HD
BRANCH   4   7
ATOM      7  C11 ALD d   1      61.108-134.697  35.924  0.00  0.00     0.092 C 
ATOM      8  H9  ALD d   1      61.252-135.671  35.434  0.00  0.00     0.087 H 
BRANCH   7   9
ATOM      9  N10 ALD d   1      59.979-133.994  35.279  0.00  0.00    -0.324 N 
ATOM     10  C9  ALD d   1      58.842-134.628  34.921  0.00  0.00     0.361 C 
ATOM     11  O31 ALD d   1      58.736-135.842  35.105  0.00  0.00    -0.238 OA
ATOM     12  H8  ALD d   1      60.060-133.013  35.101  0.00  0.00     0.165 HD
BRANCH  10  13
ATOM     13  O8  ALD d   1      57.813-133.916  34.360  0.00  0.00    -0.299 OA
BRANCH  13  14
ATOM     14  C7  ALD d   1      56.752-134.663  33.780  0.00  0.00     0.054 C 
ATOM     15  H1  ALD d   1      57.006-135.733  33.756  0.00  0.00     0.082 H 
ATOM     16  H2  ALD d   1      56.551-134.311  32.758  0.00  0.00     0.082 H 
BRANCH  14  17
ATOM     17  C3  ALD d   1      55.633-134.445  34.601  0.00  0.00    -0.034 A 
ATOM     18  C4  ALD d   1      54.701-133.451  34.289  0.00  0.00    -0.075 A 
ATOM     19  C5  ALD d   1      53.590-133.241  35.103  0.00  0.00    -0.082 A 
ATOM     20  H3  ALD d   1      54.844-132.838  33.406  0.00  0.00     0.084 H 
ATOM     21  C6  ALD d   1      53.399-134.025  36.237  0.00  0.00    -0.083 A 
ATOM     22  H4  ALD d   1      52.874-132.466  34.853  0.00  0.00     0.083 H 
ATOM     23  C1  ALD d   1      54.322-135.018  36.554  0.00  0.00    -0.082 A 
ATOM     24  H5  ALD d   1      52.535-133.863  36.871  0.00  0.00     0.083 H 
ATOM     25  C2  ALD d   1      55.433-135.228  35.739  0.00  0.00    -0.075 A 
ATOM     26  H6  ALD d   1      54.176-135.630  37.437  0.00  0.00     0.083 H 
ATOM     27  H7  ALD d   1      56.146-136.005  35.991  0.00  0.00     0.084 H 
ENDBRANCH  14  17
ENDBRANCH  13  14
ENDBRANCH  10  13
ENDBRANCH   7   9
BRANCH   7  28
ATOM     28  C30 ALD d   1      62.409-133.921  35.859  0.00  0.00    -0.035 C 
ATOM     29  H10 ALD d   1      63.226-134.541  36.257  0.00  0.00     0.037 H 
ATOM     30  H11 ALD d   1      62.319-133.004  36.459  0.00  0.00     0.037 H 
BRANCH  28  31
ATOM     31  C31 ALD d   1      62.714-133.548  34.390  0.00  0.00    -0.059 C 
ATOM     32  H12 ALD d   1      61.933-132.860  34.034  0.00  0.00     0.038 H 
BRANCH  31  33
ATOM     33  C32 ALD d   1      64.065-132.869  34.330  0.00  0.00    -0.073 C 
ATOM     34  H13 ALD d   1      64.293-132.599  33.288  0.00  0.00     0.028 H 
ATOM     35  H14 ALD d   1      64.837-133.555  34.709  0.00  0.00     0.028 H 
ATOM     36  H15 ALD d   1      64.046-131.960  34.949  0.00  0.00     0.028 H 
ENDBRANCH  31  33
BRANCH  31  37
ATOM     37  C33 ALD d   1      62.775-134.746  33.459  0.00  0.00    -0.073 C 
ATOM     38  H16 ALD d   1      61.808-135.271  33.473  0.00  0.00     0.028 H 
ATOM     39  H17 ALD d   1      63.568-135.430  33.794  0.00  0.00     0.028 H 
ATOM     40  H18 ALD d   1      62.992-134.405  32.436  0.00  0.00     0.028 H 
ENDBRANCH  31  37
ENDBRANCH  28  31
ENDBRANCH   7  28
ENDBRANCH   4   7
ENDBRANCH   1   3
BRANCH   1  41
ATOM     41  C15 ALD d   1      61.887-136.511  40.138  0.00  0.00     0.240 C 
ATOM     42  O34 ALD d   1      62.896-137.114  39.777  0.00  0.00    -0.271 OA
ATOM     43  N16 ALD d   1      61.790-135.827  41.297  0.00  0.00    -0.353 N 
ATOM     44  H30 ALD d   1      60.941-135.340  41.505  0.00  0.00     0.163 HD
BRANCH  43  45
ATOM     45  C17 ALD d   1      62.900-135.777  42.266  0.00  0.00     0.033 C 
ATOM     46  H31 ALD d   1      63.854-135.905  41.734  0.00  0.00     0.075 H 
BRANCH  45  47
ATOM     47  C22 ALD d   1      62.694-136.944  43.251  0.00  0.00     0.035 C 
ATOM     48  H32 ALD d   1      63.582-137.044  43.892  0.00  0.00     0.077 H 
ATOM     49  H33 ALD d   1      62.542-137.877  42.688  0.00  0.00     0.077 H 
BRANCH  47  50
ATOM     50  O33 ALD d   1      61.541-136.684  44.067  0.00  0.00    -0.399 OA
ATOM     51  H43 ALD d   1      61.415-137.404  44.674  0.00  0.00     0.209 HD
ENDBRANCH  47  50
ENDBRANCH  45  47
BRANCH  45  52
ATOM     52  C18 ALD d   1      62.933-134.436  43.030  0.00  0.00    -0.042 C 
ATOM     53  H34 ALD d   1      63.764-134.463  43.750  0.00  0.00     0.036 H 
ATOM     54  H35 ALD d   1      61.983-134.317  43.572  0.00  0.00     0.036 H 
BRANCH  52  55
ATOM     55  C19 ALD d   1      63.124-133.226  42.107  0.00  0.00    -0.059 C 
ATOM     56  H36 ALD d   1      62.275-133.170  41.410  0.00  0.00     0.038 H 
BRANCH  55  57
ATOM     57  C20 ALD d   1      63.167-131.956  42.963  0.00  0.00    -0.073 C 
ATOM     58  H37 ALD d   1      63.304-131.080  42.312  0.00  0.00     0.028 H 
ATOM     59  H38 ALD d   1      64.005-132.020  43.672  0.00  0.00     0.028 H 
ATOM     60  H39 ALD d   1      62.223-131.856  43.519  0.00  0.00     0.028 H 
ENDBRANCH  55  57
BRANCH  55  61
ATOM     61  C21 ALD d   1      64.422-133.334  41.300  0.00  0.00    -0.073 C 
ATOM     62  H40 ALD d   1      64.396-134.245  40.684  0.00  0.00     0.028 H 
ATOM     63  H41 ALD d   1      65.279-133.382  41.988  0.00  0.00     0.028 H 
ATOM     64  H42 ALD d   1      64.523-132.453  40.649  0.00  0.00     0.028 H 
ENDBRANCH  55  61
ENDBRANCH  52  55
ENDBRANCH  45  52
ENDBRANCH  43  45
ENDBRANCH   1  41
BRANCH   1  65
ATOM     65  C24 ALD d   1      60.038-137.952  39.226  0.00  0.00    -0.035 C 
ATOM     66  H21 ALD d   1      60.770-138.639  39.677  0.00  0.00     0.037 H 
ATOM     67  H22 ALD d   1      59.871-138.232  38.175  0.00  0.00     0.037 H 
BRANCH  65  68
ATOM     68  C25 ALD d   1      58.704-138.098  39.985  0.00  0.00    -0.059 C 
ATOM     69  H23 ALD d   1      58.282-139.085  39.744  0.00  0.00     0.038 H 
BRANCH  68  70
ATOM     70  C26 ALD d   1      57.684-137.030  39.560  0.00  0.00    -0.073 C 
ATOM     71  H24 ALD d   1      56.750-137.170  40.124  0.00  0.00     0.028 H 
ATOM     72  H25 ALD d   1      57.480-137.125  38.483  0.00  0.00     0.028 H 
ATOM     73  H26 ALD d   1      58.092-136.030  39.769  0.00  0.00     0.028 H 
ENDBRANCH  68  70
BRANCH  68  74
ATOM     74  C27 ALD d   1      58.948-138.036  41.498  0.00  0.00    -0.073 C 
ATOM     75  H27 ALD d   1      59.679-138.806  41.783  0.00  0.00     0.028 H 
ATOM     76  H28 ALD d   1      58.002-138.214  42.030  0.00  0.00     0.028 H 
ATOM     77  H29 ALD d   1      59.338-137.043  41.766  0.00  0.00     0.028 H 
ENDBRANCH  68  74
ENDBRANCH  65  68
ENDBRANCH   1  65
TORSDOF 22
