REMARK  23 active torsions:
REMARK  status: ('A' for Active; 'I' for Inactive)
REMARK    1  A    between atoms: C27_1  and  O28_3 
REMARK       I    between atoms: N26_11  and  C27_1 
REMARK    2  A    between atoms: O28_3  and  C29_4 
REMARK    3  A    between atoms: C29_4  and  C30_5 
REMARK    4  A    between atoms: C25_12  and  N26_11 
REMARK    5  A    between atoms: C24_13  and  C25_12 
REMARK    6  A    between atoms: C25_12  and  C37_15 
REMARK       I    between atoms: N23_19  and  C24_13 
REMARK    7  A    between atoms: C37_15  and  C38_16 
REMARK    8  A    between atoms: C38_16  and  C39_17 
REMARK    9  A    between atoms: C38_16  and  C40_18 
REMARK   10  A    between atoms: C22_20  and  N23_19 
REMARK   11  A    between atoms: C21_21  and  C22_20 
REMARK   12  A    between atoms: C22_20  and  C42_23 
REMARK       I    between atoms: N20_35  and  C21_21 
REMARK   13  A    between atoms: C42_23  and  C43_24 
REMARK   14  A    between atoms: C43_24  and  C44_25 
REMARK   15  A    between atoms: C43_24  and  C45_26 
REMARK   16  A    between atoms: C12_32  and  C13_27 
REMARK   17  A    between atoms: C13_27  and  C47_33 
REMARK   18  A    between atoms: C13_27  and  C19_34 
REMARK   19  A    between atoms: C1_29  and  C9_28 
REMARK   20  A    between atoms: C1_29  and  O10_30 
REMARK   21  A    between atoms: C11_31  and  C1_29 
REMARK   22  A    between atoms: C11_31  and  C12_32 
REMARK   23  A    between atoms: C11_31  and  N20_35 
ROOT
ATOM      1  C22 2MK d   1      61.194-137.503  39.521  0.00  0.00     0.089 C 
ATOM      2  H20 2MK d   1      60.390-136.884  39.946  0.00  0.00     0.087 H 
ENDROOT
BRANCH   1   3
ATOM      3  N23 2MK d   1      61.420-137.096  38.120  0.00  0.00    -0.346 N 
ATOM      4  C24 2MK d   1      60.983-135.914  37.648  0.00  0.00     0.241 C 
ATOM      5  O41 2MK d   1      60.369-135.088  38.324  0.00  0.00    -0.271 OA
ATOM      6  H19 2MK d   1      61.910-137.714  37.506  0.00  0.00     0.163 HD
BRANCH   4   7
ATOM      7  C25 2MK d   1      61.285-135.622  36.173  0.00  0.00     0.092 C 
ATOM      8  H9  2MK d   1      61.457-136.562  35.628  0.00  0.00     0.087 H 
BRANCH   7   9
ATOM      9  N26 2MK d   1      60.128-134.913  35.596  0.00  0.00    -0.324 N 
ATOM     10  C27 2MK d   1      58.994-135.550  35.248  0.00  0.00     0.361 C 
ATOM     11  O36 2MK d   1      58.906-136.771  35.398  0.00  0.00    -0.238 OA
ATOM     12  H8  2MK d   1      60.188-133.924  35.458  0.00  0.00     0.165 HD
BRANCH  10  13
ATOM     13  O28 2MK d   1      57.945-134.815  34.750  0.00  0.00    -0.299 OA
BRANCH  13  14
ATOM     14  C29 2MK d   1      56.969-135.520  33.992  0.00  0.00     0.054 C 
ATOM     15  H1  2MK d   1      57.096-136.604  34.127  0.00  0.00     0.082 H 
ATOM     16  H2  2MK d   1      57.065-135.269  32.925  0.00  0.00     0.082 H 
BRANCH  14  17
ATOM     17  C30 2MK d   1      55.705-135.117  34.473  0.00  0.00    -0.034 A 
ATOM     18  C35 2MK d   1      55.429-135.131  35.844  0.00  0.00    -0.075 A 
ATOM     19  C34 2MK d   1      54.175-134.741  36.317  0.00  0.00    -0.082 A 
ATOM     20  H3  2MK d   1      56.194-135.447  36.544  0.00  0.00     0.084 H 
ATOM     21  C33 2MK d   1      53.183-134.338  35.427  0.00  0.00    -0.083 A 
ATOM     22  H4  2MK d   1      53.973-134.752  37.382  0.00  0.00     0.083 H 
ATOM     23  C32 2MK d   1      53.447-134.327  34.060  0.00  0.00    -0.082 A 
ATOM     24  H5  2MK d   1      52.210-134.034  35.797  0.00  0.00     0.083 H 
ATOM     25  C31 2MK d   1      54.699-134.717  33.587  0.00  0.00    -0.075 A 
ATOM     26  H6  2MK d   1      52.678-134.015  33.363  0.00  0.00     0.083 H 
ATOM     27  H7  2MK d   1      54.895-134.710  32.521  0.00  0.00     0.084 H 
ENDBRANCH  14  17
ENDBRANCH  13  14
ENDBRANCH  10  13
ENDBRANCH   7   9
BRANCH   7  28
ATOM     28  C37 2MK d   1      62.533-134.741  36.093  0.00  0.00    -0.035 C 
ATOM     29  H10 2MK d   1      63.349-135.220  36.654  0.00  0.00     0.037 H 
ATOM     30  H11 2MK d   1      62.310-133.760  36.537  0.00  0.00     0.037 H 
BRANCH  28  31
ATOM     31  C38 2MK d   1      62.973-134.545  34.637  0.00  0.00    -0.059 C 
ATOM     32  H12 2MK d   1      62.086-134.532  33.987  0.00  0.00     0.038 H 
BRANCH  31  33
ATOM     33  C39 2MK d   1      63.893-135.690  34.216  0.00  0.00    -0.073 C 
ATOM     34  H13 2MK d   1      64.205-135.544  33.171  0.00  0.00     0.028 H 
ATOM     35  H14 2MK d   1      63.355-136.645  34.308  0.00  0.00     0.028 H 
ATOM     36  H15 2MK d   1      64.781-135.705  34.865  0.00  0.00     0.028 H 
ENDBRANCH  31  33
BRANCH  31  37
ATOM     37  C40 2MK d   1      63.722-133.216  34.503  0.00  0.00    -0.073 C 
ATOM     38  H16 2MK d   1      63.061-132.391  34.806  0.00  0.00     0.028 H 
ATOM     39  H17 2MK d   1      64.031-133.073  33.457  0.00  0.00     0.028 H 
ATOM     40  H18 2MK d   1      64.612-133.230  35.150  0.00  0.00     0.028 H 
ENDBRANCH  31  37
ENDBRANCH  28  31
ENDBRANCH   7  28
ENDBRANCH   4   7
ENDBRANCH   1   3
BRANCH   1  41
ATOM     41  C21 2MK d   1      62.476-137.264  40.330  0.00  0.00     0.240 C 
ATOM     42  O46 2MK d   1      63.587-137.371  39.815  0.00  0.00    -0.271 OA
ATOM     43  N20 2MK d   1      62.261-136.922  41.607  0.00  0.00    -0.352 N 
ATOM     44  H45 2MK d   1      61.323-136.938  41.954  0.00  0.00     0.163 HD
BRANCH  43  45
ATOM     45  C11 2MK d   1      63.337-136.526  42.519  0.00  0.00     0.037 C 
ATOM     46  H36 2MK d   1      64.321-136.720  42.067  0.00  0.00     0.076 H 
BRANCH  45  47
ATOM     47  C1  2MK d   1      63.236-137.292  43.853  0.00  0.00     0.051 C 
ATOM     48  H34 2MK d   1      63.847-136.779  44.611  0.00  0.00     0.085 H 
BRANCH  47  49
ATOM     49  C9  2MK d   1      63.765-138.740  43.689  0.00  0.00    -0.051 C 
ATOM     50  H31 2MK d   1      64.816-138.712  43.366  0.00  0.00     0.031 H 
ATOM     51  H32 2MK d   1      63.163-139.267  42.934  0.00  0.00     0.031 H 
ATOM     52  H33 2MK d   1      63.691-139.268  44.651  0.00  0.00     0.031 H 
ENDBRANCH  47  49
BRANCH  47  53
ATOM     53  O10 2MK d   1      61.851-137.285  44.279  0.00  0.00    -0.394 OA
ATOM     54  H35 2MK d   1      61.554-136.387  44.371  0.00  0.00     0.210 HD
ENDBRANCH  47  53
ENDBRANCH  45  47
BRANCH  45  55
ATOM     55  C12 2MK d   1      63.117-135.006  42.702  0.00  0.00    -0.041 C 
ATOM     56  H37 2MK d   1      62.259-134.706  42.083  0.00  0.00     0.036 H 
ATOM     57  H38 2MK d   1      62.889-134.817  43.761  0.00  0.00     0.036 H 
BRANCH  55  58
ATOM     58  C13 2MK d   1      64.318-134.140  42.308  0.00  0.00    -0.059 C 
ATOM     59  H30 2MK d   1      65.156-134.357  42.987  0.00  0.00     0.038 H 
BRANCH  58  60
ATOM     60  C47 2MK d   1      63.917-132.661  42.451  0.00  0.00    -0.073 C 
ATOM     61  H39 2MK d   1      64.768-132.022  42.172  0.00  0.00     0.028 H 
ATOM     62  H40 2MK d   1      63.632-132.458  43.494  0.00  0.00     0.028 H 
ATOM     63  H41 2MK d   1      63.065-132.446  41.789  0.00  0.00     0.028 H 
ENDBRANCH  58  60
BRANCH  58  64
ATOM     64  C19 2MK d   1      64.764-134.428  40.864  0.00  0.00    -0.073 C 
ATOM     65  H42 2MK d   1      65.048-135.487  40.772  0.00  0.00     0.028 H 
ATOM     66  H43 2MK d   1      65.627-133.794  40.613  0.00  0.00     0.028 H 
ATOM     67  H44 2MK d   1      63.936-134.210  40.174  0.00  0.00     0.028 H 
ENDBRANCH  58  64
ENDBRANCH  55  58
ENDBRANCH  45  55
ENDBRANCH  43  45
ENDBRANCH   1  41
BRANCH   1  68
ATOM     68  C42 2MK d   1      60.757-138.971  39.581  0.00  0.00    -0.035 C 
ATOM     69  H21 2MK d   1      61.606-139.588  39.910  0.00  0.00     0.037 H 
ATOM     70  H22 2MK d   1      60.435-139.294  38.580  0.00  0.00     0.037 H 
BRANCH  68  71
ATOM     71  C43 2MK d   1      59.591-139.146  40.569  0.00  0.00    -0.059 C 
ATOM     72  H23 2MK d   1      59.870-138.709  41.539  0.00  0.00     0.038 H 
BRANCH  71  73
ATOM     73  C44 2MK d   1      59.329-140.647  40.744  0.00  0.00    -0.073 C 
ATOM     74  H24 2MK d   1      58.497-140.794  41.448  0.00  0.00     0.028 H 
ATOM     75  H25 2MK d   1      60.233-141.134  41.138  0.00  0.00     0.028 H 
ATOM     76  H26 2MK d   1      59.069-141.090  39.771  0.00  0.00     0.028 H 
ENDBRANCH  71  73
BRANCH  71  77
ATOM     77  C45 2MK d   1      58.321-138.443  40.053  0.00  0.00    -0.073 C 
ATOM     78  H27 2MK d   1      58.521-137.368  39.931  0.00  0.00     0.028 H 
ATOM     79  H28 2MK d   1      57.504-138.585  40.776  0.00  0.00     0.028 H 
ATOM     80  H29 2MK d   1      58.032-138.874  39.083  0.00  0.00     0.028 H 
ENDBRANCH  71  77
ENDBRANCH  68  71
ENDBRANCH   1  68
TORSDOF 23
