REMARK  24 active torsions:
REMARK  status: ('A' for Active; 'I' for Inactive)
REMARK    1  A    between atoms: C7_1  and  O6_3 
REMARK       I    between atoms: N9_11  and  C7_1 
REMARK    2  A    between atoms: O6_3  and  C5_4 
REMARK    3  A    between atoms: C5_4  and  C4_5 
REMARK    4  A    between atoms: C10_12  and  N9_11 
REMARK    5  A    between atoms: C15_13  and  C10_12 
REMARK    6  A    between atoms: C10_12  and  C11_15 
REMARK       I    between atoms: N16_19  and  C15_13 
REMARK    7  A    between atoms: C11_15  and  C12_16 
REMARK    8  A    between atoms: C12_16  and  C13_17 
REMARK    9  A    between atoms: C12_16  and  C14_18 
REMARK   10  A    between atoms: C17_20  and  N16_19 
REMARK   11  A    between atoms: C22_21  and  C17_20 
REMARK   12  A    between atoms: C17_20  and  C18_23 
REMARK       I    between atoms: N24_38  and  C22_21 
REMARK   13  A    between atoms: C18_23  and  C19_24 
REMARK   14  A    between atoms: C19_24  and  C20_25 
REMARK   15  A    between atoms: C19_24  and  C21_26 
REMARK   16  A    between atoms: C41_29  and  C26_27 
REMARK   17  A    between atoms: C26_27  and  S42_30 
REMARK   18  A    between atoms: C27_35  and  C28_28 
REMARK   19  A    between atoms: C28_28  and  C30_36 
REMARK   20  A    between atoms: C28_28  and  C29_37 
REMARK   21  A    between atoms: C25_34  and  C41_29 
REMARK   22  A    between atoms: S42_30  and  C45_33 
REMARK   23  A    between atoms: C25_34  and  C27_35 
REMARK   24  A    between atoms: C25_34  and  N24_38 
ROOT
ATOM      1  C17 2M1 d   1      11.727-137.693  16.505  0.00  0.00     0.089 C 
ATOM      2  H20 2M1 d   1      12.394-136.819  16.519  0.00  0.00     0.087 H 
ENDROOT
BRANCH   1   3
ATOM      3  N16 2M1 d   1      10.794-137.655  17.629  0.00  0.00    -0.346 N 
ATOM      4  C15 2M1 d   1      10.793-136.688  18.561  0.00  0.00     0.241 C 
ATOM      5  O31 2M1 d   1      11.530-135.702  18.572  0.00  0.00    -0.271 OA
ATOM      6  H19 2M1 d   1      10.120-138.389  17.709  0.00  0.00     0.163 HD
BRANCH   4   7
ATOM      7  C10 2M1 d   1       9.715-136.889  19.622  0.00  0.00     0.092 C 
ATOM      8  H9  2M1 d   1       9.442-137.954  19.655  0.00  0.00     0.087 H 
BRANCH   7   9
ATOM      9  N9  2M1 d   1      10.175-136.490  20.968  0.00  0.00    -0.324 N 
ATOM     10  C7  2M1 d   1      11.009-137.258  21.701  0.00  0.00     0.361 C 
ATOM     11  O8  2M1 d   1      11.440-138.322  21.253  0.00  0.00    -0.238 OA
ATOM     12  H8  2M1 d   1       9.858-135.622  21.349  0.00  0.00     0.165 HD
BRANCH  10  13
ATOM     13  O6  2M1 d   1      11.363-136.860  22.958  0.00  0.00    -0.299 OA
BRANCH  13  14
ATOM     14  C5  2M1 d   1      12.760-136.688  23.116  0.00  0.00     0.054 C 
ATOM     15  H1  2M1 d   1      13.129-135.898  22.446  0.00  0.00     0.082 H 
ATOM     16  H2  2M1 d   1      13.290-137.628  22.901  0.00  0.00     0.082 H 
BRANCH  14  17
ATOM     17  C4  2M1 d   1      12.942-136.316  24.464  0.00  0.00    -0.034 A 
ATOM     18  C32 2M1 d   1      12.555-137.178  25.496  0.00  0.00    -0.075 A 
ATOM     19  C33 2M1 d   1      12.732-136.816  26.832  0.00  0.00    -0.082 A 
ATOM     20  H3  2M1 d   1      12.113-138.138  25.255  0.00  0.00     0.084 H 
ATOM     21  C1  2M1 d   1      13.301-135.583  27.148  0.00  0.00    -0.083 A 
ATOM     22  H4  2M1 d   1      12.428-137.492  27.623  0.00  0.00     0.083 H 
ATOM     23  C2  2M1 d   1      13.692-134.718  26.126  0.00  0.00    -0.082 A 
ATOM     24  H5  2M1 d   1      13.439-135.298  28.185  0.00  0.00     0.083 H 
ATOM     25  C3  2M1 d   1      13.515-135.081  24.790  0.00  0.00    -0.075 A 
ATOM     26  H6  2M1 d   1      14.135-133.760  26.370  0.00  0.00     0.083 H 
ATOM     27  H7  2M1 d   1      13.822-134.404  24.001  0.00  0.00     0.084 H 
ENDBRANCH  14  17
ENDBRANCH  13  14
ENDBRANCH  10  13
ENDBRANCH   7   9
BRANCH   7  28
ATOM     28  C11 2M1 d   1       8.493-136.071  19.191  0.00  0.00    -0.035 C 
ATOM     29  H10 2M1 d   1       8.284-136.275  18.131  0.00  0.00     0.037 H 
ATOM     30  H11 2M1 d   1       8.716-135.002  19.321  0.00  0.00     0.037 H 
BRANCH  28  31
ATOM     31  C12 2M1 d   1       7.251-136.423  20.019  0.00  0.00    -0.059 C 
ATOM     32  H12 2M1 d   1       7.398-136.065  21.049  0.00  0.00     0.038 H 
BRANCH  31  33
ATOM     33  C13 2M1 d   1       6.041-135.720  19.399  0.00  0.00    -0.073 C 
ATOM     34  H13 2M1 d   1       5.139-135.961  19.981  0.00  0.00     0.028 H 
ATOM     35  H14 2M1 d   1       5.910-136.061  18.361  0.00  0.00     0.028 H 
ATOM     36  H15 2M1 d   1       6.204-134.632  19.409  0.00  0.00     0.028 H 
ENDBRANCH  31  33
BRANCH  31  37
ATOM     37  C14 2M1 d   1       6.980-137.928  20.055  0.00  0.00    -0.073 C 
ATOM     38  H16 2M1 d   1       7.843-138.445  20.499  0.00  0.00     0.028 H 
ATOM     39  H17 2M1 d   1       6.819-138.296  19.031  0.00  0.00     0.028 H 
ATOM     40  H18 2M1 d   1       6.083-138.125  20.661  0.00  0.00     0.028 H 
ENDBRANCH  31  37
ENDBRANCH  28  31
ENDBRANCH   7  28
ENDBRANCH   4   7
ENDBRANCH   1   3
BRANCH   1  41
ATOM     41  C22 2M1 d   1      10.923-137.732  15.205  0.00  0.00     0.240 C 
ATOM     42  O23 2M1 d   1      10.025-138.555  15.051  0.00  0.00    -0.271 OA
ATOM     43  N24 2M1 d   1      11.273-136.831  14.280  0.00  0.00    -0.355 N 
ATOM     44  H47 2M1 d   1      11.995-136.172  14.490  0.00  0.00     0.162 HD
BRANCH  43  45
ATOM     45  C25 2M1 d   1      10.619-136.785  12.957  0.00  0.00     0.013 C 
ATOM     46  H38 2M1 d   1       9.579-137.126  13.063  0.00  0.00     0.072 H 
BRANCH  45  47
ATOM     47  C41 2M1 d   1      11.371-137.744  12.004  0.00  0.00    -0.034 C 
ATOM     48  H33 2M1 d   1      11.198-138.782  12.325  0.00  0.00     0.037 H 
ATOM     49  H34 2M1 d   1      10.991-137.609  10.981  0.00  0.00     0.037 H 
BRANCH  47  50
ATOM     50  C26 2M1 d   1      12.891-137.451  12.025  0.00  0.00     0.030 C 
ATOM     51  H30 2M1 d   1      13.111-136.808  12.890  0.00  0.00     0.056 H 
ATOM     52  H31 2M1 d   1      13.158-136.923  11.098  0.00  0.00     0.056 H 
BRANCH  50  53
ATOM     53  S42 2M1 d   1      13.919-138.967  12.149  0.00  0.00     0.140 S 
ATOM     54  O43 2M1 d   1      13.996-139.687  10.801  0.00  0.00    -0.228 OA
ATOM     55  O44 2M1 d   1      13.318-139.898  13.196  0.00  0.00    -0.228 OA
BRANCH  53  56
ATOM     56  C45 2M1 d   1      15.566-138.516  12.653  0.00  0.00     0.015 C 
ATOM     57  H35 2M1 d   1      16.187-139.421  12.729  0.00  0.00     0.048 H 
ATOM     58  H36 2M1 d   1      15.526-138.016  13.632  0.00  0.00     0.048 H 
ATOM     59  H37 2M1 d   1      16.003-137.833  11.910  0.00  0.00     0.048 H 
ENDBRANCH  53  56
ENDBRANCH  50  53
ENDBRANCH  47  50
ENDBRANCH  45  47
BRANCH  45  60
ATOM     60  C27 2M1 d   1      10.608-135.352  12.381  0.00  0.00    -0.043 C 
ATOM     61  H39 2M1 d   1      11.637-135.074  12.112  0.00  0.00     0.036 H 
ATOM     62  H40 2M1 d   1       9.977-135.340  11.480  0.00  0.00     0.036 H 
BRANCH  60  63
ATOM     63  C28 2M1 d   1      10.061-134.311  13.379  0.00  0.00    -0.059 C 
ATOM     64  H32 2M1 d   1      10.686-134.323  14.284  0.00  0.00     0.038 H 
BRANCH  63  65
ATOM     65  C30 2M1 d   1      10.129-132.919  12.734  0.00  0.00    -0.073 C 
ATOM     66  H41 2M1 d   1       9.741-132.169  13.439  0.00  0.00     0.028 H 
ATOM     67  H42 2M1 d   1       9.521-132.910  11.817  0.00  0.00     0.028 H 
ATOM     68  H43 2M1 d   1      11.174-132.681  12.484  0.00  0.00     0.028 H 
ENDBRANCH  63  65
BRANCH  63  69
ATOM     69  C29 2M1 d   1       8.611-134.618  13.776  0.00  0.00    -0.073 C 
ATOM     70  H44 2M1 d   1       8.561-135.615  14.238  0.00  0.00     0.028 H 
ATOM     71  H45 2M1 d   1       7.973-134.597  12.880  0.00  0.00     0.028 H 
ATOM     72  H46 2M1 d   1       8.260-133.863  14.494  0.00  0.00     0.028 H 
ENDBRANCH  63  69
ENDBRANCH  60  63
ENDBRANCH  45  60
ENDBRANCH  43  45
ENDBRANCH   1  41
BRANCH   1  73
ATOM     73  C18 2M1 d   1      12.531-138.996  16.632  0.00  0.00    -0.035 C 
ATOM     74  H21 2M1 d   1      12.410-139.569  15.701  0.00  0.00     0.037 H 
ATOM     75  H22 2M1 d   1      12.121-139.574  17.474  0.00  0.00     0.037 H 
BRANCH  73  76
ATOM     76  C19 2M1 d   1      14.032-138.786  16.877  0.00  0.00    -0.059 C 
ATOM     77  H23 2M1 d   1      14.519-138.525  15.926  0.00  0.00     0.038 H 
BRANCH  76  78
ATOM     78  C20 2M1 d   1      14.318-137.678  17.901  0.00  0.00    -0.073 C 
ATOM     79  H24 2M1 d   1      15.405-137.574  18.035  0.00  0.00     0.028 H 
ATOM     80  H25 2M1 d   1      13.854-137.939  18.863  0.00  0.00     0.028 H 
ATOM     81  H26 2M1 d   1      13.900-136.727  17.539  0.00  0.00     0.028 H 
ENDBRANCH  76  78
BRANCH  76  82
ATOM     82  C21 2M1 d   1      14.601-140.105  17.411  0.00  0.00    -0.073 C 
ATOM     83  H27 2M1 d   1      14.403-140.909  16.687  0.00  0.00     0.028 H 
ATOM     84  H28 2M1 d   1      14.122-140.349  18.370  0.00  0.00     0.028 H 
ATOM     85  H29 2M1 d   1      15.686-140.003  17.559  0.00  0.00     0.028 H 
ENDBRANCH  76  82
ENDBRANCH  73  76
ENDBRANCH   1  73
TORSDOF 24
