REMARK  24 active torsions:
REMARK  status: ('A' for Active; 'I' for Inactive)
REMARK    1  A    between atoms: C7_1  and  O6_3 
REMARK       I    between atoms: N9_11  and  C7_1 
REMARK    2  A    between atoms: O6_3  and  C5_4 
REMARK    3  A    between atoms: C5_4  and  C4_5 
REMARK    4  A    between atoms: C10_12  and  N9_11 
REMARK    5  A    between atoms: C15_13  and  C10_12 
REMARK    6  A    between atoms: C10_12  and  C11_15 
REMARK       I    between atoms: N16_19  and  C15_13 
REMARK    7  A    between atoms: C11_15  and  C12_16 
REMARK    8  A    between atoms: C12_16  and  C13_17 
REMARK    9  A    between atoms: C12_16  and  C14_18 
REMARK   10  A    between atoms: C17_20  and  N16_19 
REMARK   11  A    between atoms: C22_21  and  C17_20 
REMARK   12  A    between atoms: C17_20  and  C18_23 
REMARK       I    between atoms: N24_34  and  C22_21 
REMARK   13  A    between atoms: C18_23  and  C19_24 
REMARK   14  A    between atoms: C19_24  and  C20_25 
REMARK   15  A    between atoms: C19_24  and  C21_26 
REMARK   16  A    between atoms: C30_27  and  O31_28 
REMARK   17  A    between atoms: C30_27  and  C25_29 
REMARK   18  A    between atoms: C32_35  and  C30_27 
REMARK   19  A    between atoms: C25_29  and  C26_30 
REMARK   20  A    between atoms: C25_29  and  N24_34 
REMARK   21  A    between atoms: C26_30  and  C27_31 
REMARK   22  A    between atoms: C27_31  and  C28_32 
REMARK   23  A    between atoms: C27_31  and  C29_33 
REMARK       I    between atoms: N34_43  and  C32_35 
REMARK   24  A    between atoms: C35_37  and  N34_43 
ROOT
ATOM      1  C17 2LV d   1      11.836-138.063  16.833  0.00  0.00     0.089 C 
ATOM      2  H20 2LV d   1      12.484-137.174  16.855  0.00  0.00     0.087 H 
ENDROOT
BRANCH   1   3
ATOM      3  N16 2LV d   1      10.883-138.038  17.948  0.00  0.00    -0.346 N 
ATOM      4  C15 2LV d   1      10.781-137.012  18.806  0.00  0.00     0.241 C 
ATOM      5  O41 2LV d   1      11.462-135.989  18.765  0.00  0.00    -0.271 OA
ATOM      6  H19 2LV d   1      10.279-138.825  18.075  0.00  0.00     0.163 HD
BRANCH   4   7
ATOM      7  C10 2LV d   1       9.691-137.197  19.859  0.00  0.00     0.092 C 
ATOM      8  H9  2LV d   1       9.543-138.271  20.047  0.00  0.00     0.087 H 
BRANCH   7   9
ATOM      9  N9  2LV d   1      10.061-136.541  21.126  0.00  0.00    -0.324 N 
ATOM     10  C7  2LV d   1      10.891-137.120  22.014  0.00  0.00     0.361 C 
ATOM     11  O8  2LV d   1      11.371-138.232  21.784  0.00  0.00    -0.238 OA
ATOM     12  H8  2LV d   1       9.684-135.638  21.332  0.00  0.00     0.165 HD
BRANCH  10  13
ATOM     13  O6  2LV d   1      11.168-136.475  23.187  0.00  0.00    -0.299 OA
BRANCH  13  14
ATOM     14  C5  2LV d   1      12.554-136.417  23.576  0.00  0.00     0.054 C 
ATOM     15  H1  2LV d   1      12.982-135.450  23.272  0.00  0.00     0.082 H 
ATOM     16  H2  2LV d   1      13.108-137.233  23.088  0.00  0.00     0.082 H 
BRANCH  14  17
ATOM     17  C4  2LV d   1      12.645-136.554  24.966  0.00  0.00    -0.034 A 
ATOM     18  C3  2LV d   1      12.296-137.764  25.571  0.00  0.00    -0.075 A 
ATOM     19  C2  2LV d   1      12.381-137.915  26.955  0.00  0.00    -0.082 A 
ATOM     20  H3  2LV d   1      11.956-138.592  24.960  0.00  0.00     0.084 H 
ATOM     21  C1  2LV d   1      12.817-136.850  27.742  0.00  0.00    -0.083 A 
ATOM     22  H4  2LV d   1      12.109-138.857  27.417  0.00  0.00     0.083 H 
ATOM     23  C43 2LV d   1      13.166-135.640  27.144  0.00  0.00    -0.082 A 
ATOM     24  H5  2LV d   1      12.885-136.963  28.818  0.00  0.00     0.083 H 
ATOM     25  C42 2LV d   1      13.081-135.490  25.759  0.00  0.00    -0.075 A 
ATOM     26  H6  2LV d   1      13.505-134.813  27.757  0.00  0.00     0.083 H 
ATOM     27  H7  2LV d   1      13.354-134.547  25.299  0.00  0.00     0.084 H 
ENDBRANCH  14  17
ENDBRANCH  13  14
ENDBRANCH  10  13
ENDBRANCH   7   9
BRANCH   7  28
ATOM     28  C11 2LV d   1       8.399-136.593  19.292  0.00  0.00    -0.035 C 
ATOM     29  H10 2LV d   1       8.164-137.089  18.339  0.00  0.00     0.037 H 
ATOM     30  H11 2LV d   1       8.556-135.518  19.117  0.00  0.00     0.037 H 
BRANCH  28  31
ATOM     31  C12 2LV d   1       7.214-136.771  20.248  0.00  0.00    -0.059 C 
ATOM     32  H12 2LV d   1       7.407-136.204  21.171  0.00  0.00     0.038 H 
BRANCH  31  33
ATOM     33  C13 2LV d   1       5.953-136.228  19.570  0.00  0.00    -0.073 C 
ATOM     34  H13 2LV d   1       5.093-136.349  20.245  0.00  0.00     0.028 H 
ATOM     35  H14 2LV d   1       5.769-136.784  18.639  0.00  0.00     0.028 H 
ATOM     36  H15 2LV d   1       6.091-135.161  19.340  0.00  0.00     0.028 H 
ENDBRANCH  31  33
BRANCH  31  37
ATOM     37  C14 2LV d   1       7.004-138.247  20.605  0.00  0.00    -0.073 C 
ATOM     38  H16 2LV d   1       7.909-138.639  21.092  0.00  0.00     0.028 H 
ATOM     39  H17 2LV d   1       6.803-138.821  19.688  0.00  0.00     0.028 H 
ATOM     40  H18 2LV d   1       6.149-138.340  21.291  0.00  0.00     0.028 H 
ENDBRANCH  31  37
ENDBRANCH  28  31
ENDBRANCH   7  28
ENDBRANCH   4   7
ENDBRANCH   1   3
BRANCH   1  41
ATOM     41  C22 2LV d   1      11.004-138.086  15.554  0.00  0.00     0.240 C 
ATOM     42  O23 2LV d   1       9.998-138.789  15.489  0.00  0.00    -0.271 OA
ATOM     43  N24 2LV d   1      11.430-137.302  14.551  0.00  0.00    -0.352 N 
ATOM     44  H42 2LV d   1      12.250-136.743  14.672  0.00  0.00     0.163 HD
BRANCH  43  45
ATOM     45  C25 2LV d   1      10.698-137.259  13.272  0.00  0.00     0.046 C 
ATOM     46  H32 2LV d   1       9.636-137.457  13.477  0.00  0.00     0.077 H 
BRANCH  45  47
ATOM     47  C30 2LV d   1      11.229-138.366  12.329  0.00  0.00     0.132 C 
ATOM     48  H30 2LV d   1      10.847-138.192  11.312  0.00  0.00     0.101 H 
BRANCH  47  49
ATOM     49  O31 2LV d   1      10.760-139.623  12.823  0.00  0.00    -0.384 OA
ATOM     50  H31 2LV d   1      11.086-139.757  13.705  0.00  0.00     0.210 HD
ENDBRANCH  47  49
BRANCH  47  51
ATOM     51  C32 2LV d   1      12.778-138.409  12.293  0.00  0.00     0.253 C 
ATOM     52  O33 2LV d   1      13.438-137.374  12.205  0.00  0.00    -0.270 OA
ATOM     53  N34 2LV d   1      13.305-139.655  12.334  0.00  0.00    -0.325 N 
ATOM     54  H48 2LV d   1      12.695-140.446  12.384  0.00  0.00     0.169 HD
BRANCH  53  55
ATOM     55  C35 2LV d   1      14.631-139.846  12.309  0.00  0.00     0.034 A 
ATOM     56  C36 2LV d   1      15.478-139.206  11.394  0.00  0.00    -0.057 A 
ATOM     57  C37 2LV d   1      16.849-139.457  11.416  0.00  0.00    -0.081 A 
ATOM     58  H43 2LV d   1      15.066-138.514  10.668  0.00  0.00     0.086 H 
ATOM     59  C38 2LV d   1      17.381-140.356  12.340  0.00  0.00    -0.083 A 
ATOM     60  H44 2LV d   1      17.503-138.953  10.714  0.00  0.00     0.083 H 
ATOM     61  C39 2LV d   1      16.540-141.002  13.246  0.00  0.00    -0.081 A 
ATOM     62  H45 2LV d   1      18.447-140.553  12.354  0.00  0.00     0.083 H 
ATOM     63  C40 2LV d   1      15.171-140.750  13.224  0.00  0.00    -0.057 A 
ATOM     64  H46 2LV d   1      16.952-141.700  13.966  0.00  0.00     0.083 H 
ATOM     65  H47 2LV d   1      14.519-141.261  13.924  0.00  0.00     0.086 H 
ENDBRANCH  53  55
ENDBRANCH  47  51
ENDBRANCH  45  47
BRANCH  45  66
ATOM     66  C26 2LV d   1      10.803-135.898  12.610  0.00  0.00    -0.041 C 
ATOM     67  H33 2LV d   1      10.211-135.898  11.683  0.00  0.00     0.036 H 
ATOM     68  H34 2LV d   1      11.857-135.689  12.373  0.00  0.00     0.036 H 
BRANCH  66  69
ATOM     69  C27 2LV d   1      10.264-134.797  13.563  0.00  0.00    -0.059 C 
ATOM     70  H35 2LV d   1      10.966-134.678  14.401  0.00  0.00     0.038 H 
BRANCH  69  71
ATOM     71  C28 2LV d   1      10.154-133.506  12.788  0.00  0.00    -0.073 C 
ATOM     72  H36 2LV d   1       9.773-132.713  13.448  0.00  0.00     0.028 H 
ATOM     73  H37 2LV d   1       9.463-133.643  11.943  0.00  0.00     0.028 H 
ATOM     74  H38 2LV d   1      11.146-133.221  12.408  0.00  0.00     0.028 H 
ENDBRANCH  69  71
BRANCH  69  75
ATOM     75  C29 2LV d   1       8.881-135.094  14.110  0.00  0.00    -0.073 C 
ATOM     76  H39 2LV d   1       8.908-136.031  14.686  0.00  0.00     0.028 H 
ATOM     77  H40 2LV d   1       8.171-135.197  13.276  0.00  0.00     0.028 H 
ATOM     78  H41 2LV d   1       8.561-134.270  14.765  0.00  0.00     0.028 H 
ENDBRANCH  69  75
ENDBRANCH  66  69
ENDBRANCH  45  66
ENDBRANCH  43  45
ENDBRANCH   1  41
BRANCH   1  79
ATOM     79  C18 2LV d   1      12.689-139.337  16.929  0.00  0.00    -0.035 C 
ATOM     80  H21 2LV d   1      12.615-139.893  15.983  0.00  0.00     0.037 H 
ATOM     81  H22 2LV d   1      12.312-139.962  17.752  0.00  0.00     0.037 H 
BRANCH  79  82
ATOM     82  C19 2LV d   1      14.159-138.990  17.194  0.00  0.00    -0.059 C 
ATOM     83  H23 2LV d   1      14.479-138.207  16.491  0.00  0.00     0.038 H 
BRANCH  82  84
ATOM     84  C20 2LV d   1      14.339-138.476  18.633  0.00  0.00    -0.073 C 
ATOM     85  H24 2LV d   1      15.398-138.232  18.805  0.00  0.00     0.028 H 
ATOM     86  H25 2LV d   1      14.022-139.254  19.343  0.00  0.00     0.028 H 
ATOM     87  H26 2LV d   1      13.726-137.574  18.779  0.00  0.00     0.028 H 
ENDBRANCH  82  84
BRANCH  82  88
ATOM     88  C21 2LV d   1      15.012-140.247  16.978  0.00  0.00    -0.073 C 
ATOM     89  H27 2LV d   1      14.878-140.608  15.948  0.00  0.00     0.028 H 
ATOM     90  H28 2LV d   1      14.698-141.029  17.685  0.00  0.00     0.028 H 
ATOM     91  H29 2LV d   1      16.072-140.005  17.147  0.00  0.00     0.028 H 
ENDBRANCH  82  88
ENDBRANCH  79  82
ENDBRANCH   1  79
TORSDOF 24
