REMARK  26 active torsions:
REMARK  status: ('A' for Active; 'I' for Inactive)
REMARK    1  A    between atoms: C7_1  and  O6_3 
REMARK       I    between atoms: C7_1  and  N9_11 
REMARK    2  A    between atoms: O6_3  and  C5_4 
REMARK    3  A    between atoms: C5_4  and  C4_5 
REMARK    4  A    between atoms: N9_11  and  C10_12 
REMARK    5  A    between atoms: C10_12  and  C15_13 
REMARK    6  A    between atoms: C10_12  and  C11_15 
REMARK       I    between atoms: C15_13  and  N16_19 
REMARK    7  A    between atoms: C11_15  and  C12_16 
REMARK    8  A    between atoms: C12_16  and  C13_17 
REMARK    9  A    between atoms: C12_16  and  C14_18 
REMARK   10  A    between atoms: N16_19  and  C17_20 
REMARK   11  A    between atoms: C17_20  and  C22_21 
REMARK   12  A    between atoms: C17_20  and  C18_23 
REMARK       I    between atoms: C22_21  and  N24_27 
REMARK   13  A    between atoms: C18_23  and  C19_24 
REMARK   14  A    between atoms: C19_24  and  C20_25 
REMARK   15  A    between atoms: C19_24  and  C21_26 
REMARK   16  A    between atoms: N24_27  and  C25_28 
REMARK   17  A    between atoms: C25_28  and  C26_29 
REMARK   18  A    between atoms: C25_28  and  C33_33 
REMARK   19  A    between atoms: C26_29  and  C27_30 
REMARK   20  A    between atoms: C27_30  and  C29_31 
REMARK   21  A    between atoms: C27_30  and  C28_32 
REMARK   22  A    between atoms: C33_33  and  C34_34 
REMARK   23  A    between atoms: C33_33  and  O43_38 
REMARK   24  A    between atoms: C34_34  and  C45_35 
REMARK   25  A    between atoms: C34_34  and  C35_36 
REMARK   26  A    between atoms: C35_36  and  O40_37 
ROOT
ATOM      1  C17 2L0 d   1      60.657-137.119  38.910  0.00  0.00     0.089 C 
ATOM      2  H   2L0 d   1      59.879-136.440  39.288  0.00  0.00     0.087 H 
ENDROOT
BRANCH   1   3
ATOM      3  N16 2L0 d   1      60.996-136.739  37.524  0.00  0.00    -0.346 N 
ATOM      4  C15 2L0 d   1      60.599-135.574  36.979  0.00  0.00     0.241 C 
ATOM      5  O30 2L0 d   1      59.924-134.724  37.559  0.00  0.00    -0.271 OA
ATOM      6  H   2L0 d   1      61.540-137.370  36.971  0.00  0.00     0.163 HD
BRANCH   4   7
ATOM      7  C10 2L0 d   1      61.062-135.351  35.535  0.00  0.00     0.092 C 
ATOM      8  H   2L0 d   1      61.279-136.319  35.061  0.00  0.00     0.087 H 
BRANCH   7   9
ATOM      9  N9  2L0 d   1      59.999-134.668  34.772  0.00  0.00    -0.324 N 
ATOM     10  C7  2L0 d   1      58.889-135.313  34.360  0.00  0.00     0.361 C 
ATOM     11  O8  2L0 d   1      58.743-136.510  34.614  0.00  0.00    -0.238 OA
ATOM     12  H   2L0 d   1      60.105-133.698  34.554  0.00  0.00     0.165 HD
BRANCH  10  13
ATOM     13  O6  2L0 d   1      57.933-134.624  33.662  0.00  0.00    -0.299 OA
BRANCH  13  14
ATOM     14  C5  2L0 d   1      56.783-135.370  33.210  0.00  0.00     0.054 C 
ATOM     15  H   2L0 d   1      57.026-136.443  33.199  0.00  0.00     0.082 H 
ATOM     16  H   2L0 d   1      56.514-135.045  32.194  0.00  0.00     0.082 H 
BRANCH  14  17
ATOM     17  C4  2L0 d   1      55.701-135.149  34.068  0.00  0.00    -0.034 A 
ATOM     18  C3  2L0 d   1      54.751-134.172  33.766  0.00  0.00    -0.075 A 
ATOM     19  C2  2L0 d   1      53.670-133.950  34.617  0.00  0.00    -0.082 A 
ATOM     20  H   2L0 d   1      54.855-133.582  32.863  0.00  0.00     0.084 H 
ATOM     21  C1  2L0 d   1      53.533-134.708  35.779  0.00  0.00    -0.083 A 
ATOM     22  H   2L0 d   1      52.937-133.189  34.376  0.00  0.00     0.083 H 
ATOM     23  C32 2L0 d   1      54.478-135.686  36.085  0.00  0.00    -0.082 A 
ATOM     24  H   2L0 d   1      52.693-134.537  36.443  0.00  0.00     0.083 H 
ATOM     25  C31 2L0 d   1      55.559-135.907  35.232  0.00  0.00    -0.075 A 
ATOM     26  H   2L0 d   1      54.372-136.276  36.988  0.00  0.00     0.083 H 
ATOM     27  H   2L0 d   1      56.291-136.669  35.473  0.00  0.00     0.084 H 
ENDBRANCH  14  17
ENDBRANCH  13  14
ENDBRANCH  10  13
ENDBRANCH   7   9
BRANCH   7  28
ATOM     28  C11 2L0 d   1      62.343-134.506  35.580  0.00  0.00    -0.035 C 
ATOM     29  H   2L0 d   1      63.077-135.012  36.224  0.00  0.00     0.037 H 
ATOM     30  H   2L0 d   1      62.101-133.520  36.004  0.00  0.00     0.037 H 
BRANCH  28  31
ATOM     31  C12 2L0 d   1      62.963-134.306  34.190  0.00  0.00    -0.059 C 
ATOM     32  H   2L0 d   1      62.233-133.806  33.536  0.00  0.00     0.038 H 
BRANCH  31  33
ATOM     33  C13 2L0 d   1      64.211-133.428  34.335  0.00  0.00    -0.073 C 
ATOM     34  H   2L0 d   1      64.668-133.275  33.346  0.00  0.00     0.028 H 
ATOM     35  H   2L0 d   1      64.933-133.924  35.000  0.00  0.00     0.028 H 
ATOM     36  H   2L0 d   1      63.927-132.455  34.763  0.00  0.00     0.028 H 
ENDBRANCH  31  33
BRANCH  31  37
ATOM     37  C14 2L0 d   1      63.359-135.648  33.565  0.00  0.00    -0.073 C 
ATOM     38  H   2L0 d   1      62.466-136.281  33.459  0.00  0.00     0.028 H 
ATOM     39  H   2L0 d   1      64.091-136.152  34.213  0.00  0.00     0.028 H 
ATOM     40  H   2L0 d   1      63.804-135.474  32.574  0.00  0.00     0.028 H 
ENDBRANCH  31  37
ENDBRANCH  28  31
ENDBRANCH   7  28
ENDBRANCH   4   7
ENDBRANCH   1   3
BRANCH   1  41
ATOM     41  C22 2L0 d   1      61.909-136.960  39.780  0.00  0.00     0.240 C 
ATOM     42  O23 2L0 d   1      63.000-136.706  39.271  0.00  0.00    -0.271 OA
ATOM     43  N24 2L0 d   1      61.697-137.085  41.103  0.00  0.00    -0.352 N 
ATOM     44  H   2L0 d   1      60.793-137.361  41.429  0.00  0.00     0.163 HD
BRANCH  43  45
ATOM     45  C25 2L0 d   1      62.763-136.826  42.079  0.00  0.00     0.037 C 
ATOM     46  H   2L0 d   1      63.747-136.929  41.599  0.00  0.00     0.076 H 
BRANCH  45  47
ATOM     47  C26 2L0 d   1      62.503-135.350  42.473  0.00  0.00    -0.041 C 
ATOM     48  H   2L0 d   1      62.102-135.327  43.497  0.00  0.00     0.036 H 
ATOM     49  H   2L0 d   1      61.760-134.929  41.779  0.00  0.00     0.036 H 
BRANCH  47  50
ATOM     50  C27 2L0 d   1      63.762-134.480  42.424  0.00  0.00    -0.059 C 
ATOM     51  H   2L0 d   1      64.525-134.921  43.083  0.00  0.00     0.038 H 
BRANCH  50  52
ATOM     52  C29 2L0 d   1      63.414-133.067  42.925  0.00  0.00    -0.073 C 
ATOM     53  H   2L0 d   1      64.314-132.435  42.893  0.00  0.00     0.028 H 
ATOM     54  H   2L0 d   1      63.044-133.125  43.959  0.00  0.00     0.028 H 
ATOM     55  H   2L0 d   1      62.636-132.631  42.281  0.00  0.00     0.028 H 
ENDBRANCH  50  52
BRANCH  50  56
ATOM     56  C28 2L0 d   1      64.331-134.393  40.998  0.00  0.00    -0.073 C 
ATOM     57  H   2L0 d   1      64.580-135.403  40.640  0.00  0.00     0.028 H 
ATOM     58  H   2L0 d   1      65.239-133.772  41.003  0.00  0.00     0.028 H 
ATOM     59  H   2L0 d   1      63.582-133.942  40.331  0.00  0.00     0.028 H 
ENDBRANCH  50  56
ENDBRANCH  47  50
ENDBRANCH  45  47
BRANCH  45  60
ATOM     60  C33 2L0 d   1      62.724-137.765  43.316  0.00  0.00     0.060 C 
ATOM     61  H   2L0 d   1      63.194-137.243  44.162  0.00  0.00     0.086 H 
BRANCH  60  62
ATOM     62  C34 2L0 d   1      63.522-139.077  43.055  0.00  0.00    -0.010 C 
ATOM     63  H   2L0 d   1      63.684-139.646  43.983  0.00  0.00     0.046 H 
BRANCH  62  64
ATOM     64  C45 2L0 d   1      64.706-138.588  42.484  0.00  0.00    -0.069 C 
ATOM     65  H   2L0 d   1      65.373-139.430  42.246  0.00  0.00     0.028 H 
ATOM     66  H   2L0 d   1      65.205-137.914  43.196  0.00  0.00     0.028 H 
ATOM     67  H   2L0 d   1      64.468-138.037  41.562  0.00  0.00     0.028 H 
ENDBRANCH  62  64
BRANCH  62  68
ATOM     68  C35 2L0 d   1      62.897-139.964  41.961  0.00  0.00     0.022 C 
ATOM     69  H   2L0 d   1      63.456-140.909  41.902  0.00  0.00     0.074 H 
ATOM     70  H   2L0 d   1      62.958-139.440  40.995  0.00  0.00     0.074 H 
BRANCH  68  71
ATOM     71  O40 2L0 d   1      61.525-140.250  42.252  0.00  0.00    -0.400 OA
ATOM     72  H   2L0 d   1      61.036-139.437  42.301  0.00  0.00     0.209 HD
ENDBRANCH  68  71
ENDBRANCH  62  68
ENDBRANCH  60  62
BRANCH  60  73
ATOM     73  O43 2L0 d   1      61.351-138.053  43.663  0.00  0.00    -0.393 OA
ATOM     74  H   2L0 d   1      60.937-138.524  42.950  0.00  0.00     0.210 HD
ENDBRANCH  60  73
ENDBRANCH  45  60
ENDBRANCH  43  45
ENDBRANCH   1  41
BRANCH   1  75
ATOM     75  C18 2L0 d   1      60.106-138.549  38.943  0.00  0.00    -0.035 C 
ATOM     76  H   2L0 d   1      60.503-139.073  39.825  0.00  0.00     0.037 H 
ATOM     77  H   2L0 d   1      60.416-139.081  38.031  0.00  0.00     0.037 H 
BRANCH  75  78
ATOM     78  C19 2L0 d   1      58.572-138.516  39.017  0.00  0.00    -0.059 C 
ATOM     79  H   2L0 d   1      58.264-138.001  39.939  0.00  0.00     0.038 H 
BRANCH  78  80
ATOM     80  C20 2L0 d   1      57.980-137.782  37.807  0.00  0.00    -0.073 C 
ATOM     81  H   2L0 d   1      56.883-137.773  37.885  0.00  0.00     0.028 H 
ATOM     82  H   2L0 d   1      58.278-138.299  36.883  0.00  0.00     0.028 H 
ATOM     83  H   2L0 d   1      58.355-136.748  37.786  0.00  0.00     0.028 H 
ENDBRANCH  78  80
BRANCH  78  84
ATOM     84  C21 2L0 d   1      58.051-139.954  39.032  0.00  0.00    -0.073 C 
ATOM     85  H   2L0 d   1      58.471-140.487  39.897  0.00  0.00     0.028 H 
ATOM     86  H   2L0 d   1      58.354-140.463  38.105  0.00  0.00     0.028 H 
ATOM     87  H   2L0 d   1      56.953-139.946  39.104  0.00  0.00     0.028 H 
ENDBRANCH  78  84
ENDBRANCH  75  78
ENDBRANCH   1  75
TORSDOF 26
