REMARK  4 active torsions:
REMARK  status: ('A' for Active; 'I' for Inactive)
REMARK    1  A    between atoms: C01_1  and  N02_2 
REMARK       I    between atoms: N02_2  and  C03_3 
REMARK    2  A    between atoms: C03_3  and  C04_4 
REMARK    3  A    between atoms: C09_9  and  O10_10 
REMARK    4  A    between atoms: O10_10  and  C11_11 
ROOT
ATOM      1  C04 2LX d   1      26.965   7.887   0.831  0.00  0.00     0.051 A 
ATOM      2  C05 2LX d   1      26.571   6.540   1.256  0.00  0.00    -0.066 A 
ATOM      3  C06 2LX d   1      27.548   5.501   1.404  0.00  0.00    -0.082 A 
ATOM      4  C07 2LX d   1      28.926   5.790   1.013  0.00  0.00    -0.080 A 
ATOM      5  C08 2LX d   1      29.358   7.053   0.552  0.00  0.00    -0.050 A 
ATOM      6  C09 2LX d   1      28.413   8.132   0.461  0.00  0.00     0.083 A 
ATOM      7  H   2LX d   1      25.528   6.327   1.461  0.00  0.00     0.085 H 
ATOM      8  H   2LX d   1      27.272   4.528   1.795  0.00  0.00     0.083 H 
ATOM      9  H   2LX d   1      29.656   4.992   1.081  0.00  0.00     0.083 H 
ATOM     10  H   2LX d   1      30.393   7.207   0.269  0.00  0.00     0.087 H 
ENDROOT
BRANCH   6  11
ATOM     11  O10 2LX d   1      28.795   9.376   0.018  0.00  0.00    -0.345 OA
BRANCH  11  12
ATOM     12  C11 2LX d   1      30.017   9.877  -0.209  0.00  0.00     0.049 C 
ATOM     13  C12 2LX d   1      29.915  11.103  -1.037  0.00  0.00    -0.021 C 
ATOM     14  C13 2LX d   1      31.292  11.718  -1.279  0.00  0.00     0.022 C 
ATOM     15  H   2LX d   1      29.280  11.836  -0.517  0.00  0.00     0.040 H 
ATOM     16  H   2LX d   1      29.461  10.846  -2.005  0.00  0.00     0.040 H 
ATOM     17  O14 2LX d   1      31.877  12.004  -0.006  0.00  0.00    -0.391 OA
ATOM     18  H   2LX d   1      31.189  12.646  -1.860  0.00  0.00     0.074 H 
ATOM     19  H   2LX d   1      31.926  11.008  -1.831  0.00  0.00     0.074 H 
ATOM     20  C15 2LX d   1      32.034  10.795   0.962  0.00  0.00     0.022 C 
ATOM     21  C16 2LX d   1      30.721  10.087   1.107  0.00  0.00    -0.021 C 
ATOM     22  H   2LX d   1      32.365  11.156   1.947  0.00  0.00     0.074 H 
ATOM     23  H   2LX d   1      32.782  10.098   0.557  0.00  0.00     0.074 H 
ATOM     24  H   2LX d   1      30.901   9.105   1.569  0.00  0.00     0.040 H 
ATOM     25  H   2LX d   1      30.070  10.686   1.761  0.00  0.00     0.040 H 
ATOM     26  H   2LX d   1      30.595   9.137  -0.782  0.00  0.00     0.084 H 
ENDBRANCH  11  12
ENDBRANCH   6  11
BRANCH   1  27
ATOM     27  C03 2LX d   1      25.859   8.902   0.811  0.00  0.00     0.187 C 
ATOM     28  N02 2LX d   1      26.219  10.339   0.420  0.00  0.00    -0.372 N 
ATOM     29  H   2LX d   1      27.158  10.591   0.187  0.00  0.00     0.161 HD
ATOM     30  O17 2LX d   1      24.565   8.600   1.128  0.00  0.00    -0.172 OA
BRANCH  28  31
ATOM     31  C01 2LX d   1      25.111  11.359   0.398  0.00  0.00    -0.019 C 
ATOM     32  H   2LX d   1      25.519  12.337   0.102  0.00  0.00     0.056 H 
ATOM     33  H   2LX d   1      24.664  11.437   1.400  0.00  0.00     0.056 H 
ATOM     34  H   2LX d   1      24.341  11.049  -0.324  0.00  0.00     0.056 H 
ENDBRANCH  28  31
ENDBRANCH   1  27
TORSDOF 4
