REMARK  2 active torsions:
REMARK  status: ('A' for Active; 'I' for Inactive)
REMARK    1  A    between atoms: C01_1  and  N02_2 
REMARK       I    between atoms: N02_2  and  C03_3 
REMARK    2  A    between atoms: C03_3  and  C04_4 
ROOT
ATOM      1  C04 2LY d   1     -26.958  -8.378   0.647  0.00  0.00     0.108 A 
ATOM      2  C05 2LY d   1     -28.333  -8.866   0.419  0.00  0.00     0.125 A 
ATOM      3  C06 2LY d   1     -29.234  -7.751   0.334  0.00  0.00     0.110 A 
ATOM      4  C07 2LY d   1     -28.473  -6.456   0.491  0.00  0.00    -0.009 A 
ATOM      5  S08 2LY d   1     -26.886  -6.752   0.687  0.00  0.00    -0.091 SA
ATOM      6  O09 2LY d   1     -30.577  -7.936   0.147  0.00  0.00    -0.346 OA
ATOM      7  C10 2LY d   1     -31.064  -9.218  -0.020  0.00  0.00     0.046 C 
ATOM      8  C11 2LY d   1     -30.227 -10.405   0.461  0.00  0.00     0.046 C 
ATOM      9  O12 2LY d   1     -28.783 -10.248   0.335  0.00  0.00    -0.345 OA
ATOM     10  H   2LY d   1     -28.923  -5.465   0.475  0.00  0.00     0.099 H 
ATOM     11  H   2LY d   1     -31.232  -9.360  -1.098  0.00  0.00     0.078 H 
ATOM     12  H   2LY d   1     -32.026  -9.268   0.511  0.00  0.00     0.078 H 
ATOM     13  H   2LY d   1     -30.524 -11.288  -0.124  0.00  0.00     0.078 H 
ATOM     14  H   2LY d   1     -30.458 -10.574   1.523  0.00  0.00     0.078 H 
ENDROOT
BRANCH   1  15
ATOM     15  C03 2LY d   1     -25.801  -9.269   0.759  0.00  0.00     0.261 C 
ATOM     16  N02 2LY d   1     -25.985 -10.710   0.559  0.00  0.00    -0.361 N 
ATOM     17  H   2LY d   1     -26.884 -11.107   0.375  0.00  0.00     0.162 HD
ATOM     18  O13 2LY d   1     -24.719  -8.739   0.971  0.00  0.00    -0.267 OA
BRANCH  16  19
ATOM     19  C01 2LY d   1     -24.795 -11.523   0.643  0.00  0.00    -0.018 C 
ATOM     20  H   2LY d   1     -25.059 -12.578   0.477  0.00  0.00     0.056 H 
ATOM     21  H   2LY d   1     -24.344 -11.411   1.640  0.00  0.00     0.056 H 
ATOM     22  H   2LY d   1     -24.075 -11.200  -0.124  0.00  0.00     0.056 H 
ENDBRANCH  16  19
ENDBRANCH   1  15
TORSDOF 2
