REMARK  10 active torsions:
REMARK  status: ('A' for Active; 'I' for Inactive)
REMARK    1  A    between atoms: C2_2  and  C1_1 
REMARK    2  A    between atoms: C4_4  and  O4_15 
REMARK    3  A    between atoms: N5_12  and  C5_5 
REMARK    4  A    between atoms: C6_6  and  C7_7 
REMARK    5  A    between atoms: C7_7  and  C8_8 
REMARK    6  A    between atoms: C7_7  and  O7_17 
REMARK    7  A    between atoms: C8_8  and  C9_9 
REMARK    8  A    between atoms: C8_8  and  O8_18 
REMARK    9  A    between atoms: C9_9  and  O9_19 
REMARK   10  A    between atoms: C10_10  and  C11_11 
REMARK       I    between atoms: C10_10  and  N5_12 
ROOT
ATOM      1  C2  SIA d   1      37.877  23.897 -16.475  0.00  0.00     0.125 C 
ATOM      2  C3  SIA d   1      38.826  24.556 -17.454  0.00  0.00    -0.005 C 
ATOM      3  C4  SIA d   1      38.537  24.056 -18.854  0.00  0.00     0.060 C 
ATOM      4  C5  SIA d   1      37.120  24.424 -19.228  0.00  0.00     0.064 C 
ATOM      5  C6  SIA d   1      36.216  23.914 -18.127  0.00  0.00     0.088 C 
ATOM      6  O6  SIA d   1      36.623  24.407 -16.867  0.00  0.00    -0.365 OA
ATOM      7  H   SIA d   1      38.099  24.241 -15.454  0.00  0.00     0.100 H 
ATOM      8  H   SIA d   1      39.863  24.308 -17.183  0.00  0.00     0.041 H 
ATOM      9  H   SIA d   1      38.689  25.647 -17.419  0.00  0.00     0.041 H 
ATOM     10  H   SIA d   1      38.641  22.961 -18.873  0.00  0.00     0.086 H 
ATOM     11  H   SIA d   1      37.021  25.515 -19.327  0.00  0.00     0.080 H 
ATOM     12  H   SIA d   1      36.272  22.816 -18.113  0.00  0.00     0.090 H 
ENDROOT
BRANCH   5  13
ATOM     13  C7  SIA d   1      34.782  24.326 -18.370  0.00  0.00     0.089 C 
ATOM     14  H   SIA d   1      34.453  23.964 -19.355  0.00  0.00     0.091 H 
BRANCH  13  15
ATOM     15  C8  SIA d   1      33.923  23.714 -17.289  0.00  0.00     0.083 C 
ATOM     16  H   SIA d   1      33.975  24.336 -16.383  0.00  0.00     0.090 H 
BRANCH  15  17
ATOM     17  C9  SIA d   1      32.490  23.632 -17.761  0.00  0.00     0.043 C 
ATOM     18  H   SIA d   1      32.363  22.745 -18.399  0.00  0.00     0.078 H 
ATOM     19  H   SIA d   1      32.239  24.536 -18.335  0.00  0.00     0.078 H 
BRANCH  17  20
ATOM     20  O9  SIA d   1      31.638  23.533 -16.642  0.00  0.00    -0.398 OA
ATOM     21  H   SIA d   1      30.736  23.481 -16.936  0.00  0.00     0.209 HD
ENDBRANCH  17  20
ENDBRANCH  15  17
BRANCH  15  22
ATOM     22  O8  SIA d   1      34.392  22.419 -16.998  0.00  0.00    -0.391 OA
ATOM     23  H   SIA d   1      35.293  22.469 -16.701  0.00  0.00     0.210 HD
ENDBRANCH  15  22
ENDBRANCH  13  15
BRANCH  13  24
ATOM     24  O7  SIA d   1      34.676  25.730 -18.328  0.00  0.00    -0.390 OA
ATOM     25  H   SIA d   1      34.968  26.043 -17.480  0.00  0.00     0.210 HD
ENDBRANCH  13  24
ENDBRANCH   5  13
BRANCH   4  26
ATOM     26  N5  SIA d   1      36.786  23.794 -20.458  0.00  0.00    -0.352 N 
ATOM     27  C10 SIA d   1      36.114  24.504 -21.487  0.00  0.00     0.214 C 
ATOM     28  O10 SIA d   1      35.811  25.668 -21.321  0.00  0.00    -0.274 OA
ATOM     29  H   SIA d   1      37.029  22.834 -20.601  0.00  0.00     0.163 HD
BRANCH  27  30
ATOM     30  C11 SIA d   1      35.765  23.815 -22.788  0.00  0.00    -0.003 C 
ATOM     31  H   SIA d   1      35.252  24.525 -23.453  0.00  0.00     0.040 H 
ATOM     32  H   SIA d   1      35.104  22.960 -22.584  0.00  0.00     0.040 H 
ATOM     33  H   SIA d   1      36.686  23.459 -23.273  0.00  0.00     0.040 H 
ENDBRANCH  27  30
ENDBRANCH   4  26
BRANCH   3  34
ATOM     34  O4  SIA d   1      39.445  24.615 -19.774  0.00  0.00    -0.393 OA
ATOM     35  H   SIA d   1      40.331  24.376 -19.528  0.00  0.00     0.210 HD
ENDBRANCH   3  34
BRANCH   1  36
ATOM     36  C1  SIA d   1      38.006  22.386 -16.474  0.00  0.00     0.203 C 
ATOM     37  O1A SIA d   1      39.150  21.874 -16.605  0.00  0.00    -0.646 OA
ATOM     38  O1B SIA d   1      37.007  21.635 -16.305  0.00  0.00    -0.646 OA
ENDBRANCH   1  36
TORSDOF 10
