REMARK  6 active torsions:
REMARK  status: ('A' for Active; 'I' for Inactive)
REMARK    1  A    between atoms: CAC_1  and  CA_2 
REMARK    2  A    between atoms: CA_2  and  CB_3 
REMARK    3  A    between atoms: CB_3  and  CBC_4 
REMARK    4  A    between atoms: CB_3  and  CG_5 
REMARK    5  A    between atoms: CB_3  and  OHB_13 
REMARK    6  A    between atoms: CG_5  and  CGC_6 
ROOT
ATOM      1  CB  FLC d   1      10.807  21.734  17.574  0.00  0.00     0.164 C 
ENDROOT
BRANCH   1   2
ATOM      2  CA  FLC d   1      10.901  22.794  16.491  0.00  0.00     0.054 C 
ATOM      3  H   FLC d   1      11.949  23.088  16.330  0.00  0.00     0.054 H 
ATOM      4  H   FLC d   1      10.477  22.419  15.548  0.00  0.00     0.054 H 
BRANCH   2   5
ATOM      5  CAC FLC d   1      10.098  23.964  17.002  0.00  0.00     0.176 C 
ATOM      6  OA1 FLC d   1       8.879  23.984  16.742  0.00  0.00    -0.648 OA
ATOM      7  OA2 FLC d   1      10.667  24.852  17.677  0.00  0.00    -0.648 OA
ENDBRANCH   2   5
ENDBRANCH   1   2
BRANCH   1   8
ATOM      8  CBC FLC d   1       9.470  21.096  17.841  0.00  0.00     0.210 C 
ATOM      9  OB1 FLC d   1       8.885  21.560  18.839  0.00  0.00    -0.646 OA
ATOM     10  OB2 FLC d   1       8.982  20.207  17.104  0.00  0.00    -0.646 OA
ENDBRANCH   1   8
BRANCH   1  11
ATOM     11  CG  FLC d   1      12.049  21.273  18.335  0.00  0.00     0.054 C 
ATOM     12  H   FLC d   1      11.714  20.590  19.129  0.00  0.00     0.054 H 
ATOM     13  H   FLC d   1      12.507  22.165  18.788  0.00  0.00     0.054 H 
BRANCH  11  14
ATOM     14  CGC FLC d   1      13.130  20.558  17.548  0.00  0.00     0.176 C 
ATOM     15  OG1 FLC d   1      13.322  20.838  16.343  0.00  0.00    -0.648 OA
ATOM     16  OG2 FLC d   1      13.812  19.706  18.158  0.00  0.00    -0.648 OA
ENDBRANCH  11  14
ENDBRANCH   1  11
BRANCH   1  17
ATOM     17  OHB FLC d   1      11.045  20.786  16.520  0.00  0.00    -0.378 OA
ATOM     18  H   FLC d   1      10.367  20.871  15.860  0.00  0.00     0.211 HD
ENDBRANCH   1  17
TORSDOF 6
