REMARK  4 active torsions:
REMARK  status: ('A' for Active; 'I' for Inactive)
REMARK    1  A    between atoms: C1_1  and  C2_4 
REMARK    2  A    between atoms: C2_4  and  C3_6 
REMARK    3  A    between atoms: C3_6  and  C4_7 
REMARK    4  A    between atoms: C4_7  and  C5_8 
ROOT
ATOM      1  C3  AKG d   1      13.411  22.657  15.709  0.00  0.00     0.010 C 
ATOM      2  H   AKG d   1      14.434  22.309  15.501  0.00  0.00     0.045 H 
ATOM      3  H   AKG d   1      13.373  23.105  16.713  0.00  0.00     0.045 H 
ENDROOT
BRANCH   1   4
ATOM      4  C2  AKG d   1      12.481  21.455  15.684  0.00  0.00     0.225 C 
ATOM      5  O5  AKG d   1      11.708  21.279  14.756  0.00  0.00    -0.286 OA
BRANCH   4   6
ATOM      6  C1  AKG d   1      12.516  20.492  16.789  0.00  0.00     0.246 C 
ATOM      7  O1  AKG d   1      11.446  20.072  17.294  0.00  0.00    -0.642 OA
ATOM      8  O2  AKG d   1      13.620  20.110  17.231  0.00  0.00    -0.642 OA
ENDBRANCH   4   6
ENDBRANCH   1   4
BRANCH   1   9
ATOM      9  C4  AKG d   1      13.050  23.734  14.687  0.00  0.00     0.022 C 
ATOM     10  H   AKG d   1      12.343  24.444  15.141  0.00  0.00     0.049 H 
ATOM     11  H   AKG d   1      12.584  23.262  13.810  0.00  0.00     0.049 H 
BRANCH   9  12
ATOM     12  C5  AKG d   1      14.297  24.478  14.252  0.00  0.00     0.172 C 
ATOM     13  O3  AKG d   1      14.215  25.699  13.981  0.00  0.00    -0.648 OA
ATOM     14  O4  AKG d   1      15.381  23.857  14.162  0.00  0.00    -0.648 OA
ENDBRANCH   9  12
ENDBRANCH   1   9
TORSDOF 4
