REMARK  3 active torsions:
REMARK  status: ('A' for Active; 'I' for Inactive)
REMARK    1  A    between atoms: C2_2  and  C1_1 
REMARK       I    between atoms: N1_9  and  C2_2 
REMARK    2  A    between atoms: C4_3  and  C5_4 
REMARK    3  A    between atoms: C4_3  and  N1_9 
ROOT
ATOM      1  C2  OGA d   1      -6.866  15.538 -20.458  0.00  0.00     0.318 C 
ATOM      2  O2' OGA d   1      -6.711  16.569 -21.083  0.00  0.00    -0.261 OA
ATOM      3  N1  OGA d   1      -6.209  14.439 -20.828  0.00  0.00    -0.342 N 
ATOM      4  H   OGA d   1      -6.514  13.528 -20.552  0.00  0.00     0.163 HD
ENDROOT
BRANCH   3   5
ATOM      5  C4  OGA d   1      -5.025  14.629 -21.654  0.00  0.00     0.075 C 
ATOM      6  H   OGA d   1      -5.357  14.945 -22.654  0.00  0.00     0.080 H 
ATOM      7  H   OGA d   1      -4.420  15.427 -21.200  0.00  0.00     0.080 H 
BRANCH   5   8
ATOM      8  C5  OGA d   1      -4.147  13.417 -21.818  0.00  0.00     0.191 C 
ATOM      9  O3  OGA d   1      -2.939  13.616 -22.091  0.00  0.00    -0.647 OA
ATOM     10  O4  OGA d   1      -4.664  12.281 -21.699  0.00  0.00    -0.647 OA
ENDBRANCH   5   8
ENDBRANCH   3   5
BRANCH   1  11
ATOM     11  C1  OGA d   1      -7.753  15.562 -19.292  0.00  0.00     0.270 C 
ATOM     12  O1  OGA d   1      -8.079  14.495 -18.730  0.00  0.00    -0.640 OA
ATOM     13  O2  OGA d   1      -8.161  16.670 -18.873  0.00  0.00    -0.640 OA
ENDBRANCH   1  11
TORSDOF 3
