REMARK  2 active torsions:
REMARK  status: ('A' for Active; 'I' for Inactive)
REMARK    1  A    between atoms: C41_2  and  C4_4 
REMARK    2  A    between atoms: C2_8  and  C21_10 
ROOT
ATOM      1  C4  PD2 d   1      14.526   4.579  14.676  0.00  0.00     0.044 A 
ATOM      2  C5  PD2 d   1      15.752   4.190  14.151  0.00  0.00    -0.049 A 
ATOM      3  C6  PD2 d   1      16.882   4.951  14.423  0.00  0.00     0.004 A 
ATOM      4  C3  PD2 d   1      14.454   5.730  15.467  0.00  0.00    -0.032 A 
ATOM      5  C2  PD2 d   1      15.623   6.463  15.707  0.00  0.00     0.133 A 
ATOM      6  N1  PD2 d   1      16.801   6.055  15.180  0.00  0.00    -0.254 NA
ATOM      7  H   PD2 d   1      15.826   3.301  13.535  0.00  0.00     0.087 H 
ATOM      8  H   PD2 d   1      17.841   4.649  14.018  0.00  0.00     0.114 H 
ATOM      9  H   PD2 d   1      13.508   6.050  15.888  0.00  0.00     0.089 H 
ENDROOT
BRANCH   1  10
ATOM     10  C41 PD2 d   1      13.314   3.748  14.365  0.00  0.00     0.209 C 
ATOM     11  O42 PD2 d   1      12.193   4.303  14.287  0.00  0.00    -0.644 OA
ATOM     12  O41 PD2 d   1      13.465   2.518  14.175  0.00  0.00    -0.644 OA
ENDBRANCH   1  10
BRANCH   5  13
ATOM     13  C21 PD2 d   1      15.623   7.704  16.555  0.00  0.00     0.229 C 
ATOM     14  O21 PD2 d   1      16.726   8.252  16.789  0.00  0.00    -0.643 OA
ATOM     15  O22 PD2 d   1      14.551   8.152  17.017  0.00  0.00    -0.643 OA
ENDBRANCH   5  13
TORSDOF 2
