REMARK  8 active torsions:
REMARK  status: ('A' for Active; 'I' for Inactive)
REMARK    1  A    between atoms: SBN_2  and  CBI_5 
REMARK    2  A    between atoms: CBH_11  and  SBM_12 
REMARK    3  A    between atoms: CBF_18  and  NAY_19 
REMARK       I    between atoms: NAY_19  and  CBA_20 
REMARK    4  A    between atoms: CBA_20  and  CBD_22 
REMARK    5  A    between atoms: CBB_26  and  CAA_27 
REMARK    6  A    between atoms: CBE_28  and  NAX_29 
REMARK       I    between atoms: NAX_29  and  CAZ_30 
REMARK    7  A    between atoms: CAZ_30  and  CBC_32 
REMARK    8  A    between atoms: CBG_37  and  NBL_38 
ROOT
ATOM      1  CBD 2NG d   1      38.158  -8.268  43.787  0.00  0.00     0.034 A 
ATOM      2  CAV 2NG d   1      38.936  -7.860  42.697  0.00  0.00    -0.041 A 
ATOM      3  CAQ 2NG d   1      37.031  -7.485  44.108  0.00  0.00    -0.067 A 
ATOM      4  CAO 2NG d   1      36.674  -6.343  43.390  0.00  0.00    -0.074 A 
ATOM      5  CBB 2NG d   1      37.453  -5.939  42.308  0.00  0.00    -0.035 A 
ATOM      6  CBE 2NG d   1      38.590  -6.704  41.984  0.00  0.00     0.042 A 
ATOM      7  H   2NG d   1      39.805  -8.438  42.405  0.00  0.00     0.088 H 
ATOM      8  H   2NG d   1      36.415  -7.783  44.949  0.00  0.00     0.085 H 
ATOM      9  H   2NG d   1      35.796  -5.774  43.672  0.00  0.00     0.084 H 
ENDROOT
BRANCH   1  10
ATOM     10  CBA 2NG d   1      38.528  -9.434  44.496  0.00  0.00     0.256 C 
ATOM     11  NAY 2NG d   1      37.509 -10.219  44.960  0.00  0.00    -0.322 N 
ATOM     12  H   2NG d   1      36.568  -9.899  44.846  0.00  0.00     0.169 HD
ATOM     13  OAC 2NG d   1      39.717  -9.673  44.676  0.00  0.00    -0.267 OA
BRANCH  11  14
ATOM     14  CBF 2NG d   1      37.720 -11.416  45.570  0.00  0.00     0.047 A 
ATOM     15  CBK 2NG d   1      37.178 -11.712  46.858  0.00  0.00     0.027 A 
ATOM     16  CBI 2NG d   1      36.452 -10.795  47.655  0.00  0.00     0.094 A 
ATOM     17  CBJ 2NG d   1      37.393 -13.004  47.397  0.00  0.00     0.002 A 
ATOM     18  CAR 2NG d   1      35.972 -11.155  48.914  0.00  0.00    -0.058 A 
ATOM     19  CAM 2NG d   1      36.192 -12.422  49.418  0.00  0.00    -0.081 A 
ATOM     20  H   2NG d   1      35.420 -10.432  49.504  0.00  0.00     0.086 H 
ATOM     21  CAU 2NG d   1      36.896 -13.338  48.663  0.00  0.00    -0.070 A 
ATOM     22  H   2NG d   1      35.815 -12.694  50.397  0.00  0.00     0.083 H 
ATOM     23  H   2NG d   1      37.067 -14.333  49.057  0.00  0.00     0.084 H 
ATOM     24  CBH 2NG d   1      38.106 -13.975  46.674  0.00  0.00     0.091 A 
ATOM     25  CAT 2NG d   1      38.600 -13.674  45.409  0.00  0.00    -0.056 A 
ATOM     26  CAS 2NG d   1      38.399 -12.411  44.859  0.00  0.00    -0.055 A 
ATOM     27  H   2NG d   1      39.144 -14.426  44.849  0.00  0.00     0.086 H 
ATOM     28  H   2NG d   1      38.774 -12.195  43.865  0.00  0.00     0.087 H 
BRANCH  16  29
ATOM     29  SBN 2NG d   1      36.086  -9.184  47.154  0.00  0.00     0.138 S 
ATOM     30  OAI 2NG d   1      35.182  -8.463  48.171  0.00  0.00    -0.591 OA
ATOM     31  OAF 2NG d   1      37.400  -8.406  47.055  0.00  0.00    -0.591 OA
ATOM     32  OAG 2NG d   1      35.305  -9.282  45.847  0.00  0.00    -0.591 OA
ENDBRANCH  16  29
BRANCH  24  33
ATOM     33  SBM 2NG d   1      38.370 -15.618  47.327  0.00  0.00     0.138 S 
ATOM     34  OAH 2NG d   1      37.031 -16.271  47.618  0.00  0.00    -0.591 OA
ATOM     35  OAE 2NG d   1      39.132 -15.548  48.636  0.00  0.00    -0.591 OA
ATOM     36  OAD 2NG d   1      39.083 -16.501  46.303  0.00  0.00    -0.591 OA
ENDBRANCH  24  33
ENDBRANCH  11  14
ENDBRANCH   1  10
BRANCH   6  37
ATOM     37  NAX 2NG d   1      39.293  -6.302  40.922  0.00  0.00    -0.322 N 
ATOM     38  CAZ 2NG d   1      40.385  -5.516  41.060  0.00  0.00     0.256 C 
ATOM     39  OAB 2NG d   1      40.850  -5.163  42.147  0.00  0.00    -0.267 OA
ATOM     40  H   2NG d   1      39.007  -6.588  40.007  0.00  0.00     0.169 HD
BRANCH  38  41
ATOM     41  CBC 2NG d   1      41.008  -5.176  39.846  0.00  0.00     0.034 A 
ATOM     42  CAW 2NG d   1      42.395  -5.103  39.782  0.00  0.00    -0.036 A 
ATOM     43  CBG 2NG d   1      43.042  -4.780  38.585  0.00  0.00     0.103 A 
ATOM     44  H   2NG d   1      42.983  -5.299  40.672  0.00  0.00     0.088 H 
ATOM     45  CAP 2NG d   1      42.297  -4.528  37.426  0.00  0.00    -0.051 A 
ATOM     46  CAL 2NG d   1      40.906  -4.602  37.475  0.00  0.00    -0.080 A 
ATOM     47  H   2NG d   1      42.798  -4.277  36.498  0.00  0.00     0.087 H 
ATOM     48  CAN 2NG d   1      40.271  -4.920  38.675  0.00  0.00    -0.068 A 
ATOM     49  H   2NG d   1      40.320  -4.413  36.583  0.00  0.00     0.083 H 
ATOM     50  H   2NG d   1      39.189  -4.971  38.706  0.00  0.00     0.085 H 
BRANCH  43  51
ATOM     51  NBL 2NG d   1      44.370  -4.708  38.570  0.00  0.00    -0.116 N 
ATOM     52  OAK 2NG d   1      45.105  -4.522  39.818  0.00  0.00    -0.532 OA
ATOM     53  OAJ 2NG d   1      45.101  -4.787  37.332  0.00  0.00    -0.532 OA
ENDBRANCH  43  51
ENDBRANCH  38  41
ENDBRANCH   6  37
BRANCH   5  54
ATOM     54  CAA 2NG d   1      37.098  -4.785  41.583  0.00  0.00    -0.049 C 
ATOM     55  H   2NG d   1      36.181  -4.351  42.010  0.00  0.00     0.033 H 
ATOM     56  H   2NG d   1      36.922  -5.053  40.531  0.00  0.00     0.033 H 
ATOM     57  H   2NG d   1      37.914  -4.049  41.642  0.00  0.00     0.033 H 
ENDBRANCH   5  54
TORSDOF 8
