REMARK  10 active torsions:
REMARK  status: ('A' for Active; 'I' for Inactive)
REMARK    1  A    between atoms: CAO_15  and  CAA_1 
REMARK    2  A    between atoms: CAZ_26  and  CAB_2 
REMARK    3  A    between atoms: OAW_23  and  CAO_15 
REMARK    4  A    between atoms: CAT_20  and  CBA_27 
REMARK    5  A    between atoms: SBG_33  and  CAT_20 
REMARK       I    between atoms: CAX_24  and  NAV_22 
REMARK    6  A    between atoms: NAV_22  and  SBG_33 
REMARK    7  A    between atoms: CAY_25  and  OAW_23 
REMARK    8  A    between atoms: CBE_31  and  CAX_24 
REMARK    9  A    between atoms: CBC_29  and  CAY_25 
REMARK   10  A    between atoms: CBD_30  and  NBF_32 
ROOT
ATOM      1  NAC AZJ d   1      18.732  97.525  52.124  0.00  0.00    -0.191 NA
ATOM      2  CAH AZJ d   1      17.880  97.980  52.757  0.00  0.00     0.103 C 
ATOM      3  CAN AZJ d   1      16.367  97.888  54.670  0.00  0.00    -0.042 A 
ATOM      4  NAU AZJ d   1      15.254 100.295  53.982  0.00  0.00    -0.239 NA
ATOM      5  CAZ AZJ d   1      14.798  99.668  55.091  0.00  0.00     0.049 A 
ATOM      6  CBB AZJ d   1      16.814  98.566  53.536  0.00  0.00     0.086 A 
ATOM      7  CBC AZJ d   1      15.350  98.411  55.485  0.00  0.00     0.065 A 
ATOM      8  CBD AZJ d   1      16.213  99.786  53.177  0.00  0.00     0.126 A 
ATOM      9  H   AZJ d   1      16.815  96.935  54.928  0.00  0.00     0.087 H 
ENDROOT
BRANCH   8  10
ATOM     10  NBF AZJ d   1      16.703 100.604  52.028  0.00  0.00    -0.266 NA
ATOM     11  CAR AZJ d   1      16.174 102.007  51.996  0.00  0.00    -0.014 C 
ATOM     12  CAP AZJ d   1      17.038 102.905  51.108  0.00  0.00    -0.042 C 
ATOM     13  H   AZJ d   1      15.147 101.994  51.602  0.00  0.00     0.056 H 
ATOM     14  H   AZJ d   1      16.169 102.412  53.019  0.00  0.00     0.056 H 
ATOM     15  CBE AZJ d   1      17.143 102.292  49.698  0.00  0.00     0.026 C 
ATOM     16  H   AZJ d   1      18.044 102.993  51.545  0.00  0.00     0.035 H 
ATOM     17  H   AZJ d   1      16.579 103.903  51.040  0.00  0.00     0.035 H 
ATOM     18  CAQ AZJ d   1      17.577 100.787  49.712  0.00  0.00    -0.042 C 
ATOM     19  H   AZJ d   1      16.144 102.335  49.239  0.00  0.00     0.054 H 
ATOM     20  CAS AZJ d   1      16.673  99.984  50.671  0.00  0.00    -0.014 C 
ATOM     21  H   AZJ d   1      17.489 100.373  48.697  0.00  0.00     0.035 H 
ATOM     22  H   AZJ d   1      18.622 100.713  50.049  0.00  0.00     0.035 H 
ATOM     23  H   AZJ d   1      17.037  98.948  50.734  0.00  0.00     0.056 H 
ATOM     24  H   AZJ d   1      15.641  99.988  50.290  0.00  0.00     0.056 H 
BRANCH  15  25
ATOM     25  CAX AZJ d   1      18.087 103.156  48.854  0.00  0.00     0.235 C 
ATOM     26  OAD AZJ d   1      19.314 103.057  48.946  0.00  0.00    -0.272 OA
ATOM     27  NAV AZJ d   1      17.427 104.047  48.091  0.00  0.00    -0.254 N 
ATOM     28  H   AZJ d   1      16.427 104.057  48.097  0.00  0.00     0.181 HD
BRANCH  27  29
ATOM     29  SBG AZJ d   1      18.251 105.128  47.141  0.00  0.00     0.236 S 
ATOM     30  OAF AZJ d   1      17.219 106.038  46.455  0.00  0.00    -0.205 OA
ATOM     31  OAG AZJ d   1      19.154 105.981  48.045  0.00  0.00    -0.205 OA
BRANCH  29  32
ATOM     32  CAT AZJ d   1      19.319 104.282  45.881  0.00  0.00     0.070 C 
ATOM     33  H   AZJ d   1      19.796 105.064  45.272  0.00  0.00     0.066 H 
ATOM     34  H   AZJ d   1      20.092 103.720  46.426  0.00  0.00     0.066 H 
BRANCH  32  35
ATOM     35  CBA AZJ d   1      18.684 103.383  44.996  0.00  0.00    -0.043 A 
ATOM     36  CAL AZJ d   1      18.656 103.676  43.624  0.00  0.00    -0.076 A 
ATOM     37  CAJ AZJ d   1      18.081 102.779  42.715  0.00  0.00    -0.082 A 
ATOM     38  H   AZJ d   1      19.083 104.605  43.264  0.00  0.00     0.084 H 
ATOM     39  CAI AZJ d   1      17.564 101.563  43.169  0.00  0.00    -0.083 A 
ATOM     40  H   AZJ d   1      18.037 103.028  41.661  0.00  0.00     0.083 H 
ATOM     41  CAK AZJ d   1      17.619 101.249  44.531  0.00  0.00    -0.082 A 
ATOM     42  H   AZJ d   1      17.122 100.865  42.468  0.00  0.00     0.083 H 
ATOM     43  CAM AZJ d   1      18.188 102.148  45.439  0.00  0.00    -0.076 A 
ATOM     44  H   AZJ d   1      17.219 100.305  44.884  0.00  0.00     0.083 H 
ATOM     45  H   AZJ d   1      18.246 101.889  46.490  0.00  0.00     0.084 H 
ENDBRANCH  32  35
ENDBRANCH  29  32
ENDBRANCH  27  29
ENDBRANCH  15  25
ENDBRANCH   8  10
BRANCH   7  46
ATOM     46  CAY AZJ d   1      14.935  97.644  56.605  0.00  0.00     0.295 C 
ATOM     47  OAE AZJ d   1      13.955  97.948  57.289  0.00  0.00    -0.259 OA
BRANCH  46  48
ATOM     48  OAW AZJ d   1      15.714  96.552  56.895  0.00  0.00    -0.318 OA
BRANCH  48  49
ATOM     49  CAO AZJ d   1      15.031  95.287  56.826  0.00  0.00     0.026 C 
ATOM     50  H   AZJ d   1      14.103  95.343  57.414  0.00  0.00     0.074 H 
ATOM     51  H   AZJ d   1      14.788  95.062  55.777  0.00  0.00     0.074 H 
BRANCH  49  52
ATOM     52  CAA AZJ d   1      15.921  94.175  57.389  0.00  0.00    -0.056 C 
ATOM     53  H   AZJ d   1      15.388  93.214  57.331  0.00  0.00     0.030 H 
ATOM     54  H   AZJ d   1      16.164  94.396  58.439  0.00  0.00     0.030 H 
ATOM     55  H   AZJ d   1      16.849  94.116  56.802  0.00  0.00     0.030 H 
ENDBRANCH  49  52
ENDBRANCH  48  49
ENDBRANCH  46  48
ENDBRANCH   7  46
BRANCH   5  56
ATOM     56  CAB AZJ d   1      13.771 100.339  55.769  0.00  0.00    -0.035 C 
ATOM     57  H   AZJ d   1      13.470  99.754  56.651  0.00  0.00     0.035 H 
ATOM     58  H   AZJ d   1      12.908 100.462  55.098  0.00  0.00     0.035 H 
ATOM     59  H   AZJ d   1      14.129 101.328  56.090  0.00  0.00     0.035 H 
ENDBRANCH   5  56
TORSDOF 10
