REMARK WARNING: 32 MAX_TORS EXCEEDED!!!
REMARK  76 active torsions:
REMARK  status: ('A' for Active; 'I' for Inactive)
REMARK    1  A    between atoms: N_1  and  CA_2 
REMARK    2  A    between atoms: CA_2  and  C_3 
REMARK    3  A    between atoms: CA_2  and  CB_5 
REMARK       I    between atoms: C_3  and  N_9 
REMARK    4  A    between atoms: CB_5  and  CG_6 
REMARK    5  A    between atoms: CG_6  and  SD_7 
REMARK    6  A    between atoms: SD_7  and  CE_8 
REMARK    7  A    between atoms: N_9  and  CA_10 
REMARK    8  A    between atoms: CA_10  and  C_11 
REMARK    9  A    between atoms: CA_10  and  CB_13 
REMARK       I    between atoms: C_11  and  N_19 
REMARK   10  A    between atoms: CB_13  and  CG_14 
REMARK   11  A    between atoms: N_19  and  CA_20 
REMARK   12  A    between atoms: CA_20  and  C_21 
REMARK   13  A    between atoms: CA_20  and  CB_23 
REMARK       I    between atoms: C_21  and  N_30 
REMARK   14  A    between atoms: CB_23  and  CG_24 
REMARK   15  A    between atoms: CG_24  and  CD_25 
REMARK   16  A    between atoms: CD_25  and  NE_26 
REMARK       I    between atoms: NE_26  and  CZ_27 
REMARK       I    between atoms: CZ_27  and  NH1_28 
REMARK   17  A    between atoms: N_30  and  CA_31 
REMARK   18  A    between atoms: CA_31  and  C_32 
REMARK   19  A    between atoms: CA_31  and  CB_34 
REMARK       I    between atoms: C_32  and  N_37 
REMARK   20  A    between atoms: CB_34  and  CG1_35 
REMARK   21  A    between atoms: CB_34  and  CG2_36 
REMARK   22  A    between atoms: N_37  and  CA_38 
REMARK   23  A    between atoms: CA_38  and  C_39 
REMARK   24  A    between atoms: CA_38  and  CB_41 
REMARK       I    between atoms: C_39  and  N_43 
REMARK   25  A    between atoms: CB_41  and  OG_42 
REMARK   26  A    between atoms: N_43  and  CA_44 
REMARK   27  A    between atoms: CA_44  and  C_45 
REMARK   28  A    between atoms: CA_44  and  CB_47 
REMARK       I    between atoms: C_45  and  N_48 
REMARK   29  A    between atoms: N_48  and  CA_49 
REMARK   30  A    between atoms: CA_49  and  C_50 
REMARK   31  A    between atoms: CA_49  and  CB_52 
REMARK       I    between atoms: C_50  and  N_53 
REMARK   32  A    between atoms: N_53  and  CA_54 
REMARK   33  A    between atoms: CA_54  and  C_55 
REMARK   34  A    between atoms: CA_54  and  CB_57 
REMARK       I    between atoms: C_55  and  N_61 
REMARK   35  A    between atoms: CB_57  and  CG_58 
REMARK   36  A    between atoms: CG_58  and  CD1_59 
REMARK   37  A    between atoms: CG_58  and  CD2_60 
REMARK   38  A    between atoms: N_61  and  CA_62 
REMARK   39  A    between atoms: CA_62  and  C_63 
REMARK   40  A    between atoms: CA_62  and  CB_65 
REMARK       I    between atoms: C_63  and  N_70 
REMARK   41  A    between atoms: CB_65  and  CG_66 
REMARK   42  A    between atoms: CG_66  and  CD_67 
REMARK   43  A    between atoms: N_70  and  CA_71 
REMARK   44  A    between atoms: CA_71  and  C_72 
REMARK   45  A    between atoms: CA_71  and  CB_74 
REMARK       I    between atoms: C_72  and  N_79 
REMARK   46  A    between atoms: CB_74  and  CG_75 
REMARK   47  A    between atoms: CG_75  and  CD_76 
REMARK   48  A    between atoms: N_79  and  CA_80 
REMARK   49  A    between atoms: CA_80  and  C_81 
REMARK   50  A    between atoms: CA_80  and  CB_83 
REMARK       I    between atoms: C_81  and  N_84 
REMARK   51  A    between atoms: N_84  and  CA_85 
REMARK   52  A    between atoms: CA_85  and  C_86 
REMARK   53  A    between atoms: CA_85  and  CB_88 
REMARK       I    between atoms: C_86  and  N_92 
REMARK   54  A    between atoms: CB_88  and  CG_89 
REMARK       I    between atoms: CG_89  and  ND2_91 
REMARK   55  A    between atoms: N_92  and  CA_93 
REMARK   56  A    between atoms: CA_93  and  C_94 
REMARK   57  A    between atoms: CA_93  and  CB_96 
REMARK       I    between atoms: C_94  and  N_101 
REMARK   58  A    between atoms: CB_96  and  CG_97 
REMARK   59  A    between atoms: CG_97  and  CD_98 
REMARK   60  A    between atoms: CD_98  and  CE_99 
REMARK   61  A    between atoms: CE_99  and  NZ_100 
REMARK   62  A    between atoms: N_101  and  CA_102 
REMARK   63  A    between atoms: CA_102  and  C_103 
REMARK   64  A    between atoms: CA_102  and  CB_105 
REMARK       I    between atoms: C_103  and  N_108 
REMARK   65  A    between atoms: CB_105  and  CG1_106 
REMARK   66  A    between atoms: CB_105  and  CG2_107 
REMARK   67  A    between atoms: N_108  and  CA_109 
REMARK   68  A    between atoms: CA_109  and  C_110 
REMARK   69  A    between atoms: CA_109  and  CB_112 
REMARK       I    between atoms: C_110  and  N_119 
REMARK   70  A    between atoms: CB_112  and  CG_113 
REMARK   71  A    between atoms: N_119  and  CA_120 
REMARK   72  A    between atoms: CA_120  and  C_121 
REMARK   73  A    between atoms: CA_120  and  CB_123 
REMARK   74  A    between atoms: CB_123  and  CG_124 
REMARK   75  A    between atoms: CG_124  and  CD1_125 
REMARK   76  A    between atoms: CG_124  and  CD2_126 
ROOT
ATOM      1  CA  GLU d   1     -14.878  34.216 -82.162  0.00  0.00     0.090 C 
ATOM      2  H   GLU d   1     -14.445  34.421 -81.172  0.00  0.00     0.087 H 
ENDROOT
BRANCH   1   3
ATOM      3  N   GLU d   1     -14.264  33.002 -82.689  0.00  0.00    -0.346 N 
ATOM      4  C   LEU d   1     -14.348  31.855 -82.032  0.00  0.00     0.241 C 
ATOM      5  O   LEU d   1     -14.983  31.743 -80.975  0.00  0.00    -0.271 OA
ATOM      6  H   GLU d   1     -13.772  33.036 -83.559  0.00  0.00     0.163 HD
BRANCH   4   7
ATOM      7  CA  LEU d   1     -13.629  30.661 -82.674  0.00  0.00     0.089 C 
ATOM      8  H   LEU d   1     -14.004  29.743 -82.198  0.00  0.00     0.087 H 
BRANCH   7   9
ATOM      9  N   LEU d   1     -13.884  30.571 -84.104  0.00  0.00    -0.346 N 
ATOM     10  C   ALA d   1     -15.118  30.485 -84.581  0.00  0.00     0.240 C 
ATOM     11  O   ALA d   1     -16.109  30.504 -83.855  0.00  0.00    -0.271 OA
ATOM     12  H   LEU d   1     -13.112  30.574 -84.740  0.00  0.00     0.163 HD
BRANCH  10  13
ATOM     13  CA  ALA d   1     -15.253  30.379 -86.101  0.00  0.00     0.086 C 
ATOM     14  H   ALA d   1     -16.310  30.525 -86.368  0.00  0.00     0.086 H 
BRANCH  13  15
ATOM     15  N   ALA d   1     -14.465  31.394 -86.760  0.00  0.00    -0.346 N 
ATOM     16  C   ALA d   1     -14.783  32.671 -86.637  0.00  0.00     0.240 C 
ATOM     17  O   ALA d   1     -15.744  33.058 -85.965  0.00  0.00    -0.271 OA
ATOM     18  H   ALA d   1     -13.675  31.129 -87.312  0.00  0.00     0.163 HD
BRANCH  16  19
ATOM     19  CA  ALA d   1     -13.886  33.649 -87.379  0.00  0.00     0.086 C 
ATOM     20  H   ALA d   1     -13.912  34.615 -86.853  0.00  0.00     0.086 H 
BRANCH  19  21
ATOM     21  N   ALA d   1     -12.507  33.177 -87.411  0.00  0.00    -0.346 N 
ATOM     22  C   SER d   1     -11.844  32.905 -86.292  0.00  0.00     0.243 C 
ATOM     23  O   SER d   1     -12.347  33.031 -85.177  0.00  0.00    -0.271 OA
ATOM     24  H   ALA d   1     -12.051  33.056 -88.293  0.00  0.00     0.163 HD
BRANCH  22  25
ATOM     25  CA  SER d   1     -10.396  32.433 -86.456  0.00  0.00     0.109 C 
ATOM     26  H   SER d   1      -9.975  32.224 -85.461  0.00  0.00     0.090 H 
BRANCH  25  27
ATOM     27  N   SER d   1     -10.315  31.232 -87.260  0.00  0.00    -0.344 N 
ATOM     28  C   VAL d   1     -10.983  30.132 -86.949  0.00  0.00     0.241 C 
ATOM     29  O   VAL d   1     -11.697  30.032 -85.954  0.00  0.00    -0.271 OA
ATOM     30  H   SER d   1      -9.736  31.233 -88.076  0.00  0.00     0.163 HD
BRANCH  28  31
ATOM     31  CA  VAL d   1     -10.813  28.976 -87.922  0.00  0.00     0.092 C 
ATOM     32  H   VAL d   1     -11.782  28.475 -88.066  0.00  0.00     0.088 H 
BRANCH  31  33
ATOM     33  N   VAL d   1     -10.365  29.518 -89.210  0.00  0.00    -0.346 N 
ATOM     34  C   ARG d   1     -11.186  30.211 -90.000  0.00  0.00     0.241 C 
ATOM     35  O   ARG d   1     -12.359  30.446 -89.708  0.00  0.00    -0.271 OA
ATOM     36  H   VAL d   1      -9.421  29.364 -89.502  0.00  0.00     0.163 HD
BRANCH  34  37
ATOM     37  CA  ARG d   1     -10.602  30.730 -91.310  0.00  0.00     0.089 C 
ATOM     38  H   ARG d   1      -9.962  31.589 -91.059  0.00  0.00     0.087 H 
BRANCH  37  39
ATOM     39  N   ARG d   1      -9.767  29.770 -92.027  0.00  0.00    -0.346 N 
ATOM     40  C   HIS d   1     -10.077  28.488 -92.216  0.00  0.00     0.241 C 
ATOM     41  O   HIS d   1     -11.113  27.958 -91.795  0.00  0.00    -0.271 OA
ATOM     42  H   ARG d   1      -8.900  30.098 -92.403  0.00  0.00     0.163 HD
BRANCH  40  43
ATOM     43  CA  HIS d   1      -9.028  27.675 -92.985  0.00  0.00     0.094 C 
ATOM     44  H   HIS d   1      -8.118  27.622 -92.370  0.00  0.00     0.088 H 
BRANCH  43  45
ATOM     45  N   HIS d   1      -9.502  26.324 -93.227  0.00  0.00    -0.346 N 
ATOM     46  C   MET d   1      -8.848  25.274 -92.744  0.00  0.00     0.249 C 
ATOM     47  O   MET d   1      -7.834  25.382 -92.055  0.00  0.00    -0.271 OA
ATOM     48  H   HIS d   1     -10.333  26.182 -93.765  0.00  0.00     0.163 HD
BRANCH  46  49
ATOM     49  CA  MET d   1      -9.415  23.897 -93.082  0.00  0.00     0.176 C 
ATOM     50  H   MET d   1      -9.617  23.364 -92.141  0.00  0.00     0.099 H 
BRANCH  49  51
ATOM     51  N   MET d   1     -10.665  23.987 -93.833  0.00  0.00    -0.066 N 
ATOM     52  H   MET d   1     -11.003  23.059 -94.034  0.00  0.00     0.275 HD
ATOM     53  H   MET d   1     -10.503  24.481 -94.697  0.00  0.00     0.275 HD
ATOM     54  H   MET d   1     -11.351  24.483 -93.286  0.00  0.00     0.275 HD
ENDBRANCH  49  51
BRANCH  49  55
ATOM     55  CB  MET d   1      -8.375  23.104 -93.886  0.00  0.00    -0.022 C 
ATOM     56  H   MET d   1      -8.201  23.631 -94.836  0.00  0.00     0.037 H 
ATOM     57  H   MET d   1      -8.788  22.105 -94.091  0.00  0.00     0.037 H 
BRANCH  55  58
ATOM     58  CG  MET d   1      -7.024  22.928 -93.182  0.00  0.00    -0.021 C 
ATOM     59  H   MET d   1      -7.210  22.890 -92.099  0.00  0.00     0.049 H 
ATOM     60  H   MET d   1      -6.403  23.805 -93.417  0.00  0.00     0.049 H 
BRANCH  58  61
ATOM     61  SD  MET d   1      -6.074  21.423 -93.645  0.00  0.00    -0.173 SA
BRANCH  61  62
ATOM     62  CE  MET d   1      -4.429  22.105 -93.897  0.00  0.00    -0.035 C 
ATOM     63  H   MET d   1      -3.738  21.299 -94.186  0.00  0.00     0.041 H 
ATOM     64  H   MET d   1      -4.079  22.572 -92.965  0.00  0.00     0.041 H 
ATOM     65  H   MET d   1      -4.464  22.861 -94.695  0.00  0.00     0.041 H 
ENDBRANCH  61  62
ENDBRANCH  58  61
ENDBRANCH  55  58
ENDBRANCH  49  55
ENDBRANCH  46  49
ENDBRANCH  43  45
BRANCH  43  66
ATOM     66  CB  HIS d   1      -8.666  28.340 -94.335  0.00  0.00     0.004 C 
ATOM     67  H   HIS d   1      -9.581  28.777 -94.761  0.00  0.00     0.046 H 
ATOM     68  H   HIS d   1      -8.283  27.562 -95.011  0.00  0.00     0.046 H 
BRANCH  66  69
ATOM     69  CG  HIS d   1      -7.631  29.424 -94.230  0.00  0.00     0.053 A 
ATOM     70  ND1 HIS d   1      -7.953  30.766 -94.218  0.00  0.00    -0.247 NA
ATOM     71  CE1 HIS d   1      -6.851  31.481 -94.075  0.00  0.00     0.064 A 
ATOM     72  NE2 HIS d   1      -5.824  30.653 -93.996  0.00  0.00    -0.359 N 
ATOM     73  H   HIS d   1      -6.798  32.568 -94.030  0.00  0.00     0.143 H 
ATOM     74  CD2 HIS d   1      -6.284  29.361 -94.093  0.00  0.00     0.002 A 
ATOM     75  H   HIS d   1      -4.839  30.931 -93.880  0.00  0.00     0.166 HD
ATOM     76  H   HIS d   1      -5.679  28.456 -94.065  0.00  0.00     0.114 H 
ENDBRANCH  66  69
ENDBRANCH  43  66
ENDBRANCH  40  43
ENDBRANCH  37  39
BRANCH  37  77
ATOM     77  CB  ARG d   1     -11.724  31.229 -92.220  0.00  0.00    -0.036 C 
ATOM     78  H   ARG d   1     -11.268  31.672 -93.118  0.00  0.00     0.036 H 
ATOM     79  H   ARG d   1     -12.290  32.001 -91.678  0.00  0.00     0.036 H 
BRANCH  77  80
ATOM     80  CG  ARG d   1     -12.689  30.157 -92.660  0.00  0.00    -0.048 C 
ATOM     81  H   ARG d   1     -13.252  29.796 -91.786  0.00  0.00     0.035 H 
ATOM     82  H   ARG d   1     -12.126  29.323 -93.103  0.00  0.00     0.035 H 
BRANCH  80  83
ATOM     83  CD  ARG d   1     -13.662  30.705 -93.689  0.00  0.00     0.009 C 
ATOM     84  H   ARG d   1     -14.170  31.586 -93.269  0.00  0.00     0.064 H 
ATOM     85  H   ARG d   1     -14.406  29.931 -93.927  0.00  0.00     0.064 H 
BRANCH  83  86
ATOM     86  NE  ARG d   1     -12.971  31.093 -94.913  0.00  0.00    -0.227 N 
ATOM     87  CZ  ARG d   1     -13.430  30.847 -96.134  0.00  0.00     0.665 C 
ATOM     88  NH1 ARG d   1     -12.730  31.233 -97.194  0.00  0.00    -0.235 N 
ATOM     89  NH2 ARG d   1     -14.587  30.214 -96.291  0.00  0.00    -0.235 N 
ATOM     90  H   ARG d   1     -13.084  31.043 -98.142  0.00  0.00     0.174 HD
ATOM     91  H   ARG d   1     -11.832  31.722 -97.068  0.00  0.00     0.174 HD
ATOM     92  H   ARG d   1     -15.127  29.916 -95.466  0.00  0.00     0.174 HD
ATOM     93  H   ARG d   1     -14.944  30.021 -97.238  0.00  0.00     0.174 HD
ATOM     94  H   ARG d   1     -12.072  31.588 -94.825  0.00  0.00     0.177 HD
ENDBRANCH  83  86
ENDBRANCH  80  83
ENDBRANCH  77  80
ENDBRANCH  37  77
ENDBRANCH  34  37
ENDBRANCH  31  33
BRANCH  31  95
ATOM     95  CB  VAL d   1      -9.799  27.940 -87.329  0.00  0.00    -0.033 C 
ATOM     96  H   VAL d   1      -9.599  27.171 -88.090  0.00  0.00     0.042 H 
BRANCH  95  97
ATOM     97  CG1 VAL d   1      -8.498  28.607 -86.967  0.00  0.00    -0.071 C 
ATOM     98  H   VAL d   1      -7.805  27.859 -86.554  0.00  0.00     0.028 H 
ATOM     99  H   VAL d   1      -8.683  29.389 -86.216  0.00  0.00     0.028 H 
ATOM    100  H   VAL d   1      -8.055  29.060 -87.867  0.00  0.00     0.028 H 
ENDBRANCH  95  97
BRANCH  95 101
ATOM    101  CG2 VAL d   1     -10.394  27.271 -86.101  0.00  0.00    -0.071 C 
ATOM    102  H   VAL d   1     -11.344  26.786 -86.372  0.00  0.00     0.028 H 
ATOM    103  H   VAL d   1     -10.577  28.028 -85.324  0.00  0.00     0.028 H 
ATOM    104  H   VAL d   1      -9.692  26.515 -85.719  0.00  0.00     0.028 H 
ENDBRANCH  95 101
ENDBRANCH  31  95
ENDBRANCH  28  31
ENDBRANCH  25  27
BRANCH  25 105
ATOM    105  CB  SER d   1      -9.589  33.533 -87.123  0.00  0.00     0.044 C 
ATOM    106  H   SER d   1      -9.717  33.464 -88.213  0.00  0.00     0.077 H 
ATOM    107  H   SER d   1      -8.526  33.406 -86.870  0.00  0.00     0.077 H 
BRANCH 105 108
ATOM    108  OG  SER d   1     -10.021  34.805 -86.685  0.00  0.00    -0.398 OA
ATOM    109  H   SER d   1      -9.505  35.478 -87.113  0.00  0.00     0.209 HD
ENDBRANCH 105 108
ENDBRANCH  25 105
ENDBRANCH  22  25
ENDBRANCH  19  21
BRANCH  19 110
ATOM    110  CB  ALA d   1     -14.404  33.850 -88.796  0.00  0.00    -0.049 C 
ATOM    111  H   ALA d   1     -15.444  34.206 -88.759  0.00  0.00     0.030 H 
ATOM    112  H   ALA d   1     -14.362  32.895 -89.341  0.00  0.00     0.030 H 
ATOM    113  H   ALA d   1     -13.780  34.594 -89.312  0.00  0.00     0.030 H 
ENDBRANCH  19 110
ENDBRANCH  16  19
ENDBRANCH  13  15
BRANCH  13 114
ATOM    114  CB  ALA d   1     -14.815  29.018 -86.581  0.00  0.00    -0.049 C 
ATOM    115  H   ALA d   1     -15.414  28.243 -86.081  0.00  0.00     0.030 H 
ATOM    116  H   ALA d   1     -13.751  28.870 -86.343  0.00  0.00     0.030 H 
ATOM    117  H   ALA d   1     -14.961  28.948 -87.669  0.00  0.00     0.030 H 
ENDBRANCH  13 114
ENDBRANCH  10  13
ENDBRANCH   7   9
BRANCH   7 118
ATOM    118  CB  LEU d   1     -12.113  30.751 -82.439  0.00  0.00    -0.035 C 
ATOM    119  H   LEU d   1     -11.951  30.901 -81.361  0.00  0.00     0.037 H 
ATOM    120  H   LEU d   1     -11.742  31.627 -82.991  0.00  0.00     0.037 H 
BRANCH 118 121
ATOM    121  CG  LEU d   1     -11.270  29.535 -82.872  0.00  0.00    -0.059 C 
ATOM    122  H   LEU d   1     -11.569  29.241 -83.889  0.00  0.00     0.038 H 
BRANCH 121 123
ATOM    123  CD1 LEU d   1      -9.816  29.889 -82.875  0.00  0.00    -0.073 C 
ATOM    124  H   LEU d   1      -9.226  29.014 -83.185  0.00  0.00     0.028 H 
ATOM    125  H   LEU d   1      -9.511  30.197 -81.864  0.00  0.00     0.028 H 
ATOM    126  H   LEU d   1      -9.642  30.717 -83.578  0.00  0.00     0.028 H 
ENDBRANCH 121 123
BRANCH 121 127
ATOM    127  CD2 LEU d   1     -11.501  28.364 -81.931  0.00  0.00    -0.073 C 
ATOM    128  H   LEU d   1     -12.569  28.102 -81.927  0.00  0.00     0.028 H 
ATOM    129  H   LEU d   1     -11.188  28.644 -80.914  0.00  0.00     0.028 H 
ATOM    130  H   LEU d   1     -10.913  27.499 -82.271  0.00  0.00     0.028 H 
ENDBRANCH 121 127
ENDBRANCH 118 121
ENDBRANCH   7 118
ENDBRANCH   4   7
ENDBRANCH   1   3
BRANCH   1 131
ATOM    131  C   GLU d   1     -16.382  34.060 -81.999  0.00  0.00     0.241 C 
ATOM    132  O   GLU d   1     -16.974  34.539 -81.023  0.00  0.00    -0.271 OA
ATOM    133  N   GLU d   1     -16.984  33.382 -82.971  0.00  0.00    -0.346 N 
ATOM    134  H   GLU d   1     -16.428  33.027 -83.722  0.00  0.00     0.163 HD
BRANCH 133 135
ATOM    135  CA  GLU d   1     -18.420  33.133 -82.989  0.00  0.00     0.090 C 
ATOM    136  H   GLU d   1     -18.945  34.073 -82.766  0.00  0.00     0.087 H 
BRANCH 135 137
ATOM    137  C   GLU d   1     -18.812  32.092 -81.942  0.00  0.00     0.241 C 
ATOM    138  O   GLU d   1     -19.810  32.236 -81.248  0.00  0.00    -0.271 OA
ATOM    139  N   ALA d   1     -17.996  31.058 -81.815  0.00  0.00    -0.346 N 
ATOM    140  H   ALA d   1     -17.160  31.017 -82.362  0.00  0.00     0.163 HD
BRANCH 139 141
ATOM    141  CA  ALA d   1     -18.300  29.991 -80.896  0.00  0.00     0.086 C 
ATOM    142  H   ALA d   1     -19.349  29.700 -81.054  0.00  0.00     0.086 H 
BRANCH 141 143
ATOM    143  C   ALA d   1     -18.146  30.393 -79.459  0.00  0.00     0.240 C 
ATOM    144  O   ALA d   1     -18.846  29.867 -78.601  0.00  0.00    -0.271 OA
ATOM    145  N   ASN d   1     -17.234  31.326 -79.192  0.00  0.00    -0.346 N 
ATOM    146  H   ASN d   1     -16.721  31.745 -79.942  0.00  0.00     0.163 HD
BRANCH 145 147
ATOM    147  CA  ASN d   1     -16.974  31.745 -77.816  0.00  0.00     0.097 C 
ATOM    148  H   ASN d   1     -17.208  30.888 -77.167  0.00  0.00     0.088 H 
BRANCH 147 149
ATOM    149  C   ASN d   1     -17.854  32.902 -77.361  0.00  0.00     0.241 C 
ATOM    150  O   ASN d   1     -17.686  33.424 -76.263  0.00  0.00    -0.271 OA
ATOM    151  N   LYS d   1     -18.805  33.287 -78.202  0.00  0.00    -0.346 N 
ATOM    152  H   LYS d   1     -18.891  32.832 -79.088  0.00  0.00     0.163 HD
BRANCH 151 153
ATOM    153  CA  LYS d   1     -19.725  34.359 -77.858  0.00  0.00     0.089 C 
ATOM    154  H   LYS d   1     -19.144  35.282 -77.714  0.00  0.00     0.087 H 
BRANCH 153 155
ATOM    155  C   LYS d   1     -20.501  34.063 -76.570  0.00  0.00     0.241 C 
ATOM    156  O   LYS d   1     -20.867  34.983 -75.836  0.00  0.00    -0.271 OA
ATOM    157  N   VAL d   1     -20.761  32.786 -76.298  0.00  0.00    -0.346 N 
ATOM    158  H   VAL d   1     -20.436  32.074 -76.921  0.00  0.00     0.163 HD
BRANCH 157 159
ATOM    159  CA  VAL d   1     -21.512  32.410 -75.106  0.00  0.00     0.092 C 
ATOM    160  H   VAL d   1     -22.519  32.839 -75.213  0.00  0.00     0.088 H 
BRANCH 159 161
ATOM    161  C   VAL d   1     -20.922  32.924 -73.808  0.00  0.00     0.241 C 
ATOM    162  O   VAL d   1     -21.598  32.892 -72.781  0.00  0.00    -0.271 OA
ATOM    163  N   PHE d   1     -19.666  33.375 -73.846  0.00  0.00    -0.346 N 
ATOM    164  H   PHE d   1     -19.175  33.357 -74.717  0.00  0.00     0.163 HD
BRANCH 163 165
ATOM    165  CA  PHE d   1     -18.976  33.897 -72.659  0.00  0.00     0.093 C 
ATOM    166  H   PHE d   1     -19.479  33.479 -71.774  0.00  0.00     0.088 H 
BRANCH 165 167
ATOM    167  C   PHE d   1     -19.029  35.425 -72.558  0.00  0.00     0.241 C 
ATOM    168  O   PHE d   1     -18.330  36.021 -71.739  0.00  0.00    -0.271 OA
ATOM    169  N   LEU d   1     -19.850  36.057 -73.390  0.00  0.00    -0.345 N 
ATOM    170  H   LEU d   1     -20.389  35.526 -74.044  0.00  0.00     0.163 HD
BRANCH 169 171
ATOM    171  CA  LEU d   1     -19.981  37.510 -73.369  0.00  0.00     0.096 C 
ATOM    172  H   LEU d   1     -19.062  37.947 -72.950  0.00  0.00     0.089 H 
BRANCH 171 173
ATOM    173  C   LEU d   1     -21.169  37.915 -72.502  0.00  0.00     0.196 C 
ATOM    174  O   LEU d   1     -21.010  38.544 -71.457  0.00  0.00    -0.646 OA
ATOM    175  O1  LEU d   1     -22.334  37.599 -72.863  0.00  0.00    -0.646 OA
ENDBRANCH 171 173
BRANCH 171 176
ATOM    176  CB  LEU d   1     -20.187  38.040 -74.788  0.00  0.00    -0.034 C 
ATOM    177  H   LEU d   1     -20.243  39.137 -74.734  0.00  0.00     0.037 H 
ATOM    178  H   LEU d   1     -21.142  37.642 -75.162  0.00  0.00     0.037 H 
BRANCH 176 179
ATOM    179  CG  LEU d   1     -19.098  37.674 -75.795  0.00  0.00    -0.059 C 
ATOM    180  H   LEU d   1     -19.085  36.582 -75.929  0.00  0.00     0.038 H 
BRANCH 179 181
ATOM    181  CD1 LEU d   1     -19.395  38.332 -77.148  0.00  0.00    -0.073 C 
ATOM    182  H   LEU d   1     -18.607  38.064 -77.867  0.00  0.00     0.028 H 
ATOM    183  H   LEU d   1     -19.423  39.425 -77.026  0.00  0.00     0.028 H 
ATOM    184  H   LEU d   1     -20.368  37.979 -77.522  0.00  0.00     0.028 H 
ENDBRANCH 179 181
BRANCH 179 185
ATOM    185  CD2 LEU d   1     -17.740  38.121 -75.253  0.00  0.00    -0.073 C 
ATOM    186  H   LEU d   1     -17.554  37.635 -74.284  0.00  0.00     0.028 H 
ATOM    187  H   LEU d   1     -17.739  39.213 -75.121  0.00  0.00     0.028 H 
ATOM    188  H   LEU d   1     -16.950  37.837 -75.964  0.00  0.00     0.028 H 
ENDBRANCH 179 185
ENDBRANCH 176 179
ENDBRANCH 171 176
ENDBRANCH 169 171
ENDBRANCH 165 167
BRANCH 165 189
ATOM    189  CB  PHE d   1     -17.500  33.458 -72.632  0.00  0.00    -0.014 C 
ATOM    190  H   PHE d   1     -16.967  34.084 -71.900  0.00  0.00     0.043 H 
ATOM    191  H   PHE d   1     -17.073  33.620 -73.633  0.00  0.00     0.043 H 
BRANCH 189 192
ATOM    192  CG  PHE d   1     -17.292  32.015 -72.259  0.00  0.00    -0.056 A 
ATOM    193  CD1 PHE d   1     -17.495  31.002 -73.189  0.00  0.00    -0.077 A 
ATOM    194  CE1 PHE d   1     -17.323  29.658 -72.843  0.00  0.00    -0.082 A 
ATOM    195  H   PHE d   1     -17.792  31.258 -74.200  0.00  0.00     0.084 H 
ATOM    196  CZ  PHE d   1     -16.942  29.319 -71.551  0.00  0.00    -0.083 A 
ATOM    197  H   PHE d   1     -17.487  28.882 -73.582  0.00  0.00     0.083 H 
ATOM    198  CE2 PHE d   1     -16.733  30.324 -70.609  0.00  0.00    -0.082 A 
ATOM    199  H   PHE d   1     -16.808  28.279 -71.277  0.00  0.00     0.083 H 
ATOM    200  CD2 PHE d   1     -16.907  31.666 -70.968  0.00  0.00    -0.077 A 
ATOM    201  H   PHE d   1     -16.436  30.067 -69.599  0.00  0.00     0.083 H 
ATOM    202  H   PHE d   1     -16.740  32.443 -70.231  0.00  0.00     0.084 H 
ENDBRANCH 189 192
ENDBRANCH 165 189
ENDBRANCH 163 165
ENDBRANCH 159 161
BRANCH 159 203
ATOM    203  CB  VAL d   1     -21.647  30.883 -74.966  0.00  0.00    -0.033 C 
ATOM    204  H   VAL d   1     -22.109  30.654 -73.994  0.00  0.00     0.042 H 
BRANCH 203 205
ATOM    205  CG1 VAL d   1     -22.517  30.335 -76.061  0.00  0.00    -0.071 C 
ATOM    206  H   VAL d   1     -22.605  29.244 -75.948  0.00  0.00     0.028 H 
ATOM    207  H   VAL d   1     -22.068  30.568 -77.038  0.00  0.00     0.028 H 
ATOM    208  H   VAL d   1     -23.516  30.791 -75.999  0.00  0.00     0.028 H 
ENDBRANCH 203 205
BRANCH 203 209
ATOM    209  CG2 VAL d   1     -20.289  30.237 -75.026  0.00  0.00    -0.071 C 
ATOM    210  H   VAL d   1     -19.655  30.641 -74.223  0.00  0.00     0.028 H 
ATOM    211  H   VAL d   1     -19.825  30.449 -76.001  0.00  0.00     0.028 H 
ATOM    212  H   VAL d   1     -20.394  29.149 -74.898  0.00  0.00     0.028 H 
ENDBRANCH 203 209
ENDBRANCH 159 203
ENDBRANCH 157 159
ENDBRANCH 153 155
BRANCH 153 213
ATOM    213  CB  LYS d   1     -20.720  34.570 -78.990  0.00  0.00    -0.038 C 
ATOM    214  H   LYS d   1     -21.597  35.094 -78.583  0.00  0.00     0.036 H 
ATOM    215  H   LYS d   1     -21.025  33.583 -79.368  0.00  0.00     0.036 H 
BRANCH 213 216
ATOM    216  CG  LYS d   1     -20.186  35.375 -80.152  0.00  0.00    -0.061 C 
ATOM    217  H   LYS d   1     -19.280  34.887 -80.541  0.00  0.00     0.033 H 
ATOM    218  H   LYS d   1     -19.935  36.387 -79.802  0.00  0.00     0.033 H 
BRANCH 216 219
ATOM    219  CD  LYS d   1     -21.221  35.476 -81.275  0.00  0.00    -0.043 C 
ATOM    220  H   LYS d   1     -22.175  35.820 -80.850  0.00  0.00     0.035 H 
ATOM    221  H   LYS d   1     -21.357  34.481 -81.724  0.00  0.00     0.035 H 
BRANCH 219 222
ATOM    222  CE  LYS d   1     -20.780  36.464 -82.376  0.00  0.00     0.080 C 
ATOM    223  H   LYS d   1     -20.740  37.472 -81.938  0.00  0.00     0.075 H 
ATOM    224  H   LYS d   1     -21.532  36.442 -83.179  0.00  0.00     0.075 H 
BRANCH 222 225
ATOM    225  NZ  LYS d   1     -19.431  36.160 -82.984  0.00  0.00    -0.079 N 
ATOM    226  H   LYS d   1     -19.218  36.847 -83.690  0.00  0.00     0.274 HD
ATOM    227  H   LYS d   1     -19.450  35.243 -83.403  0.00  0.00     0.274 HD
ATOM    228  H   LYS d   1     -18.725  36.187 -82.265  0.00  0.00     0.274 HD
ENDBRANCH 222 225
ENDBRANCH 219 222
ENDBRANCH 216 219
ENDBRANCH 213 216
ENDBRANCH 153 213
ENDBRANCH 151 153
ENDBRANCH 147 149
BRANCH 147 229
ATOM    229  CB  ASN d   1     -15.484  32.077 -77.626  0.00  0.00     0.036 C 
ATOM    230  H   ASN d   1     -15.289  33.073 -78.051  0.00  0.00     0.051 H 
ATOM    231  H   ASN d   1     -14.885  31.326 -78.162  0.00  0.00     0.051 H 
BRANCH 229 232
ATOM    232  CG  ASN d   1     -15.059  32.081 -76.147  0.00  0.00     0.217 C 
ATOM    233  OD1 ASN d   1     -15.292  31.112 -75.424  0.00  0.00    -0.274 OA
ATOM    234  ND2 ASN d   1     -14.427  33.171 -75.705  0.00  0.00    -0.370 N 
ATOM    235  H   ASN d   1     -14.130  33.224 -74.752  0.00  0.00     0.159 HD
ATOM    236  H   ASN d   1     -14.251  33.934 -76.327  0.00  0.00     0.159 HD
ENDBRANCH 229 232
ENDBRANCH 147 229
ENDBRANCH 145 147
ENDBRANCH 141 143
BRANCH 141 237
ATOM    237  CB  ALA d   1     -17.425  28.800 -81.186  0.00  0.00    -0.049 C 
ATOM    238  H   ALA d   1     -17.663  27.990 -80.481  0.00  0.00     0.030 H 
ATOM    239  H   ALA d   1     -16.369  29.085 -81.074  0.00  0.00     0.030 H 
ATOM    240  H   ALA d   1     -17.605  28.455 -82.215  0.00  0.00     0.030 H 
ENDBRANCH 141 237
ENDBRANCH 139 141
ENDBRANCH 135 137
BRANCH 135 241
ATOM    241  CB  GLU d   1     -18.835  32.646 -84.385  0.00  0.00    -0.029 C 
ATOM    242  H   GLU d   1     -18.211  31.776 -84.640  0.00  0.00     0.037 H 
ATOM    243  H   GLU d   1     -18.640  33.459 -85.100  0.00  0.00     0.037 H 
BRANCH 241 244
ATOM    244  CG  GLU d   1     -20.302  32.233 -84.530  0.00  0.00     0.018 C 
ATOM    245  H   GLU d   1     -20.568  31.590 -83.678  0.00  0.00     0.049 H 
ATOM    246  H   GLU d   1     -20.412  31.665 -85.466  0.00  0.00     0.049 H 
BRANCH 244 247
ATOM    247  CD  GLU d   1     -21.272  33.416 -84.565  0.00  0.00     0.172 C 
ATOM    248  OE1 GLU d   1     -20.932  34.451 -85.181  0.00  0.00    -0.648 OA
ATOM    249  OE2 GLU d   1     -22.383  33.308 -83.996  0.00  0.00    -0.648 OA
ENDBRANCH 244 247
ENDBRANCH 241 244
ENDBRANCH 135 241
ENDBRANCH 133 135
ENDBRANCH   1 131
BRANCH   1 250
ATOM    250  CB  GLU d   1     -14.562  35.389 -83.084  0.00  0.00    -0.029 C 
ATOM    251  H   GLU d   1     -15.072  35.221 -84.044  0.00  0.00     0.037 H 
ATOM    252  H   GLU d   1     -13.475  35.417 -83.247  0.00  0.00     0.037 H 
BRANCH 250 253
ATOM    253  CG  GLU d   1     -14.997  36.738 -82.543  0.00  0.00     0.018 C 
ATOM    254  H   GLU d   1     -14.601  36.852 -81.523  0.00  0.00     0.049 H 
ATOM    255  H   GLU d   1     -16.096  36.767 -82.515  0.00  0.00     0.049 H 
BRANCH 253 256
ATOM    256  CD  GLU d   1     -14.500  37.904 -83.392  0.00  0.00     0.172 C 
ATOM    257  OE1 GLU d   1     -14.644  39.063 -82.945  0.00  0.00    -0.648 OA
ATOM    258  OE2 GLU d   1     -13.967  37.668 -84.501  0.00  0.00    -0.648 OA
ENDBRANCH 253 256
ENDBRANCH 250 253
ENDBRANCH   1 250
TORSDOF 76
