REMARK  5 active torsions:
REMARK  status: ('A' for Active; 'I' for Inactive)
REMARK    1  A    between atoms: C4_5  and  C7_8 
REMARK    2  A    between atoms: C5_6  and  C6_7 
REMARK    3  A    between atoms: C10_11  and  O1_20 
REMARK    4  A    between atoms: C15_17  and  N2_22 
REMARK    5  A    between atoms: N3_25  and  C22_28 
ROOT
ATOM      1  C7  2NK d   1     -15.833   5.952 -26.093  0.00  0.00    -0.025 A 
ATOM      2  C13 2NK d   1     -16.253   7.073 -26.805  0.00  0.00    -0.070 A 
ATOM      3  C14 2NK d   1     -15.856   8.348 -26.439  0.00  0.00    -0.061 A 
ATOM      4  C15 2NK d   1     -15.025   8.549 -25.328  0.00  0.00     0.010 A 
ATOM      5  C16 2NK d   1     -14.619   7.427 -24.598  0.00  0.00    -0.061 A 
ATOM      6  C17 2NK d   1     -15.035   6.157 -24.966  0.00  0.00    -0.070 A 
ATOM      7  H   2NK d   1     -16.904   6.945 -27.663  0.00  0.00     0.084 H 
ATOM      8  H   2NK d   1     -16.192   9.201 -27.018  0.00  0.00     0.086 H 
ATOM      9  H   2NK d   1     -13.973   7.552 -23.736  0.00  0.00     0.086 H 
ATOM     10  H   2NK d   1     -14.735   5.305 -24.366  0.00  0.00     0.084 H 
ENDROOT
BRANCH   1  11
ATOM     11  C4  2NK d   1     -16.199   4.574 -26.541  0.00  0.00    -0.012 A 
ATOM     12  C3  2NK d   1     -17.550   4.329 -26.805  0.00  0.00    -0.054 A 
ATOM     13  C2  2NK d   1     -17.950   3.031 -27.068  0.00  0.00     0.003 A 
ATOM     14  H   2NK d   1     -18.270   5.140 -26.804  0.00  0.00     0.087 H 
ATOM     15  N1  2NK d   1     -17.120   1.986 -27.089  0.00  0.00    -0.272 NA
ATOM     16  H   2NK d   1     -19.000   2.852 -27.269  0.00  0.00     0.114 H 
ATOM     17  C1  2NK d   1     -15.824   2.226 -26.869  0.00  0.00     0.013 A 
ATOM     18  C5  2NK d   1     -15.294   3.488 -26.608  0.00  0.00     0.003 A 
ATOM     19  H   2NK d   1     -15.141   1.385 -26.895  0.00  0.00     0.116 H 
BRANCH  18  20
ATOM     20  C6  2NK d   1     -13.821   3.633 -26.425  0.00  0.00    -0.018 A 
ATOM     21  C8  2NK d   1     -13.143   2.864 -25.472  0.00  0.00    -0.032 A 
ATOM     22  C9  2NK d   1     -11.814   3.089 -25.213  0.00  0.00     0.153 A 
ATOM     23  H   2NK d   1     -13.671   2.085 -24.934  0.00  0.00     0.089 H 
ATOM     24  C10 2NK d   1     -11.110   4.072 -25.880  0.00  0.00     0.143 A 
ATOM     25  F1  2NK d   1     -11.184   2.320 -24.291  0.00  0.00    -0.203 F 
ATOM     26  C11 2NK d   1     -11.781   4.803 -26.837  0.00  0.00     0.153 A 
ATOM     27  C12 2NK d   1     -13.103   4.596 -27.138  0.00  0.00    -0.032 A 
ATOM     28  F2  2NK d   1     -11.109   5.792 -27.466  0.00  0.00    -0.203 F 
ATOM     29  H   2NK d   1     -13.585   5.173 -27.919  0.00  0.00     0.089 H 
BRANCH  24  30
ATOM     30  O1  2NK d   1      -9.827   4.438 -25.701  0.00  0.00    -0.355 OA
ATOM     31  H   2NK d   1      -9.434   3.892 -25.030  0.00  0.00     0.218 HD
ENDBRANCH  24  30
ENDBRANCH  18  20
ENDBRANCH   1  11
BRANCH   4  32
ATOM     32  N2  2NK d   1     -14.649   9.862 -24.921  0.00  0.00    -0.280 NA
ATOM     33  C18 2NK d   1     -15.358  10.959 -25.592  0.00  0.00     0.006 C 
ATOM     34  C19 2NK d   1     -14.741  12.303 -25.250  0.00  0.00     0.094 C 
ATOM     35  H   2NK d   1     -16.410  10.955 -25.271  0.00  0.00     0.058 H 
ATOM     36  H   2NK d   1     -15.306  10.807 -26.680  0.00  0.00     0.058 H 
ATOM     37  N3  2NK d   1     -14.718  12.513 -23.805  0.00  0.00    -0.073 N 
ATOM     38  H   2NK d   1     -15.333  13.101 -25.721  0.00  0.00     0.077 H 
ATOM     39  H   2NK d   1     -13.711  12.335 -25.635  0.00  0.00     0.077 H 
ATOM     40  C20 2NK d   1     -13.929  11.458 -23.172  0.00  0.00     0.094 C 
ATOM     41  H   2NK d   1     -15.662  12.464 -23.456  0.00  0.00     0.279 HD
ATOM     42  C21 2NK d   1     -14.515  10.083 -23.475  0.00  0.00     0.006 C 
ATOM     43  H   2NK d   1     -13.925  11.616 -22.083  0.00  0.00     0.077 H 
ATOM     44  H   2NK d   1     -12.898  11.502 -23.553  0.00  0.00     0.077 H 
ATOM     45  H   2NK d   1     -13.852   9.312 -23.055  0.00  0.00     0.058 H 
ATOM     46  H   2NK d   1     -15.508  10.007 -23.008  0.00  0.00     0.058 H 
BRANCH  37  47
ATOM     47  C22 2NK d   1     -14.169  13.840 -23.482  0.00  0.00     0.066 C 
ATOM     48  H   2NK d   1     -14.777  14.617 -23.968  0.00  0.00     0.068 H 
ATOM     49  H   2NK d   1     -13.133  13.906 -23.844  0.00  0.00     0.068 H 
ATOM     50  H   2NK d   1     -14.187  13.989 -22.392  0.00  0.00     0.068 H 
ENDBRANCH  37  47
ENDBRANCH   4  32
TORSDOF 5
