REMARK  8 active torsions:
REMARK  status: ('A' for Active; 'I' for Inactive)
REMARK    1  A    between atoms: C10_8  and  N1_1 
REMARK    2  A    between atoms: C15_10  and  N3_2 
REMARK    3  A    between atoms: C7_6  and  O2_20 
REMARK    4  A    between atoms: O2_20  and  C8_7 
REMARK    5  A    between atoms: C8_7  and  C9_21 
REMARK    6  A    between atoms: C9_21  and  C10_8 
REMARK    7  A    between atoms: C2_17  and  O1_18 
REMARK    8  A    between atoms: O1_18  and  C1_19 
ROOT
ATOM      1  C4  2OD d   1      -9.040  14.411  11.952  0.00  0.00    -0.012 A 
ATOM      2  C5  2OD d   1      -7.703  13.865  11.960  0.00  0.00     0.043 A 
ATOM      3  C6  2OD d   1      -7.400  12.606  12.496  0.00  0.00    -0.022 A 
ATOM      4  C7  2OD d   1      -8.506  11.843  13.009  0.00  0.00     0.104 A 
ATOM      5  C15 2OD d   1      -7.469  15.806  10.993  0.00  0.00     0.088 A 
ATOM      6  C17 2OD d   1      -9.507  16.978  12.258  0.00  0.00    -0.047 C 
ATOM      7  C16 2OD d   1      -8.977  15.801  11.357  0.00  0.00     0.047 A 
ATOM      8  C19 2OD d   1      -9.978  16.247  10.235  0.00  0.00    -0.047 C 
ATOM      9  C18 2OD d   1     -10.640  17.247  11.233  0.00  0.00    -0.062 C 
ATOM     10  C3  2OD d   1     -10.115  13.695  12.459  0.00  0.00    -0.038 A 
ATOM     11  N2  2OD d   1      -6.778  14.723  11.346  0.00  0.00    -0.345 N 
ATOM     12  C2  2OD d   1      -9.865  12.393  13.001  0.00  0.00     0.102 A 
ATOM     13  H   2OD d   1      -6.385  12.227  12.523  0.00  0.00     0.091 H 
ATOM     14  H   2OD d   1      -8.798  17.811  12.373  0.00  0.00     0.035 H 
ATOM     15  H   2OD d   1      -9.863  16.660  13.249  0.00  0.00     0.035 H 
ATOM     16  H   2OD d   1     -10.649  15.448   9.887  0.00  0.00     0.035 H 
ATOM     17  H   2OD d   1      -9.499  16.727   9.369  0.00  0.00     0.035 H 
ATOM     18  H   2OD d   1     -10.679  18.284  10.869  0.00  0.00     0.033 H 
ATOM     19  H   2OD d   1     -11.639  16.942  11.578  0.00  0.00     0.033 H 
ATOM     20  H   2OD d   1     -11.117  14.110  12.445  0.00  0.00     0.088 H 
ATOM     21  H   2OD d   1      -5.773  14.551  11.199  0.00  0.00     0.167 HD
ENDROOT
BRANCH   4  22
ATOM     22  O2  2OD d   1      -8.269  10.550  13.469  0.00  0.00    -0.348 OA
BRANCH  22  23
ATOM     23  C8  2OD d   1      -6.879  10.073  13.405  0.00  0.00     0.028 C 
ATOM     24  H   2OD d   1      -6.206  10.842  13.813  0.00  0.00     0.075 H 
ATOM     25  H   2OD d   1      -6.608   9.866  12.359  0.00  0.00     0.075 H 
BRANCH  23  26
ATOM     26  C9  2OD d   1      -6.751   8.776  14.240  0.00  0.00    -0.022 C 
ATOM     27  H   2OD d   1      -6.963   9.022  15.291  0.00  0.00     0.038 H 
ATOM     28  H   2OD d   1      -5.717   8.411  14.151  0.00  0.00     0.038 H 
BRANCH  26  29
ATOM     29  C10 2OD d   1      -7.713   7.626  13.805  0.00  0.00     0.085 C 
ATOM     30  H   2OD d   1      -7.590   6.796  14.516  0.00  0.00     0.076 H 
ATOM     31  H   2OD d   1      -8.743   8.008  13.862  0.00  0.00     0.076 H 
BRANCH  29  32
ATOM     32  N1  2OD d   1      -7.498   7.085  12.423  0.00  0.00    -0.071 N 
ATOM     33  C14 2OD d   1      -6.259   6.238  12.223  0.00  0.00     0.084 C 
ATOM     34  C13 2OD d   1      -6.454   5.692  10.805  0.00  0.00    -0.041 C 
ATOM     35  H   2OD d   1      -6.212   5.423  12.960  0.00  0.00     0.076 H 
ATOM     36  H   2OD d   1      -5.346   6.847  12.292  0.00  0.00     0.076 H 
ATOM     37  C12 2OD d   1      -7.965   5.367  10.758  0.00  0.00    -0.041 C 
ATOM     38  H   2OD d   1      -5.850   4.787  10.644  0.00  0.00     0.035 H 
ATOM     39  H   2OD d   1      -6.189   6.448  10.051  0.00  0.00     0.035 H 
ATOM     40  C11 2OD d   1      -8.622   6.260  11.860  0.00  0.00     0.084 C 
ATOM     41  H   2OD d   1      -8.136   4.302  10.975  0.00  0.00     0.035 H 
ATOM     42  H   2OD d   1      -8.380   5.611   9.769  0.00  0.00     0.035 H 
ATOM     43  H   2OD d   1      -9.394   6.909  11.421  0.00  0.00     0.076 H 
ATOM     44  H   2OD d   1      -9.072   5.635  12.645  0.00  0.00     0.076 H 
ATOM     45  H   2OD d   1      -7.401   7.898  11.835  0.00  0.00     0.279 HD
ENDBRANCH  29  32
ENDBRANCH  26  29
ENDBRANCH  23  26
ENDBRANCH  22  23
ENDBRANCH   4  22
BRANCH  12  46
ATOM     46  O1  2OD d   1     -10.836  11.582  13.547  0.00  0.00    -0.353 OA
BRANCH  46  47
ATOM     47  C1  2OD d   1     -12.190  12.015  13.656  0.00  0.00     0.010 C 
ATOM     48  H   2OD d   1     -12.793  11.219  14.117  0.00  0.00     0.066 H 
ATOM     49  H   2OD d   1     -12.585  12.241  12.654  0.00  0.00     0.066 H 
ATOM     50  H   2OD d   1     -12.237  12.919  14.281  0.00  0.00     0.066 H 
ENDBRANCH  46  47
ENDBRANCH  12  46
BRANCH   5  51
ATOM     51  N3  2OD d   1      -6.876  16.843  10.370  0.00  0.00    -0.388 N 
ATOM     52  H   2OD d   1      -5.871  16.804  10.147  0.00  0.00     0.157 HD
ATOM     53  H   2OD d   1      -7.428  17.675  10.117  0.00  0.00     0.157 HD
ENDBRANCH   5  51
TORSDOF 8
