REMARK WARNING: 32 MAX_TORS EXCEEDED!!!
REMARK  54 active torsions:
REMARK  status: ('A' for Active; 'I' for Inactive)
REMARK    1  A    between atoms: CA_2  and  C_3 
REMARK       I    between atoms: C_3  and  N_8 
REMARK    2  A    between atoms: N_8  and  CA_9 
REMARK    3  A    between atoms: CA_9  and  C_10 
REMARK    4  A    between atoms: CA_9  and  CB_12 
REMARK       I    between atoms: C_10  and  N_13 
REMARK    5  A    between atoms: N_13  and  CA_14 
REMARK    6  A    between atoms: CA_14  and  C_15 
REMARK    7  A    between atoms: CA_14  and  CB_17 
REMARK       I    between atoms: C_15  and  N_19 
REMARK    8  A    between atoms: CB_17  and  CG_18 
REMARK    9  A    between atoms: N_19  and  CA_20 
REMARK   10  A    between atoms: CA_20  and  C_21 
REMARK   11  A    between atoms: CA_20  and  CB_23 
REMARK       I    between atoms: C_21  and  N_24 
REMARK   12  A    between atoms: N_24  and  CA_25 
REMARK   13  A    between atoms: CA_25  and  C_26 
REMARK   14  A    between atoms: CA_25  and  CB_28 
REMARK   15  A    between atoms: CB_28  and  CG_29 
REMARK   16  A    between atoms: CG_29  and  CD_30 
REMARK   17  A    between atoms: CD_30  and  NE_31 
REMARK       I    between atoms: NE_31  and  CZ_32 
REMARK       I    between atoms: CZ_32  and  NH1_33 
REMARK       I    between atoms: CZ_32  and  NH2_34 
REMARK   18  A    between atoms: N_35  and  CA_36 
REMARK   19  A    between atoms: CA_36  and  C_37 
REMARK   20  A    between atoms: CA_36  and  CB_39 
REMARK       I    between atoms: C_37  and  N_46 
REMARK   21  A    between atoms: CB_39  and  CG_40 
REMARK   22  A    between atoms: CG_40  and  CD_41 
REMARK   23  A    between atoms: CD_41  and  NE_42 
REMARK       I    between atoms: NE_42  and  CZ_43 
REMARK       I    between atoms: CZ_43  and  NH1_44 
REMARK       I    between atoms: CZ_43  and  NH2_45 
REMARK   24  A    between atoms: N_46  and  CA_47 
REMARK   25  A    between atoms: CA_47  and  C_48 
REMARK   26  A    between atoms: CA_47  and  CB_50 
REMARK       I    between atoms: C_48  and  N_51 
REMARK   27  A    between atoms: N_51  and  CA_52 
REMARK   28  A    between atoms: CA_52  and  C_53 
REMARK   29  A    between atoms: CA_52  and  CB_55 
REMARK       I    between atoms: C_53  and  N_56 
REMARK   30  A    between atoms: N_56  and  CA_57 
REMARK   31  A    between atoms: CA_57  and  C_58 
REMARK   32  A    between atoms: CA_57  and  CB_60 
REMARK       I    between atoms: C_58  and  N_67 
REMARK   33  A    between atoms: CB_60  and  CG_61 
REMARK   34  A    between atoms: CG_61  and  CD_62 
REMARK   35  A    between atoms: CD_62  and  NE_63 
REMARK       I    between atoms: NE_63  and  CZ_64 
REMARK       I    between atoms: CZ_64  and  NH1_65 
REMARK   36  A    between atoms: N_67  and  CA_68 
REMARK   37  A    between atoms: CA_68  and  C_69 
REMARK   38  A    between atoms: CA_68  and  CB_71 
REMARK       I    between atoms: C_69  and  N_73 
REMARK   39  A    between atoms: CB_71  and  OG_72 
REMARK   40  A    between atoms: N_73  and  CA_74 
REMARK   41  A    between atoms: CA_74  and  CB_75 
REMARK   42  A    between atoms: CA_74  and  C_80 
REMARK   43  A    between atoms: CB_75  and  CG_76 
REMARK   44  A    between atoms: CG_76  and  CD_77 
REMARK   45  A    between atoms: CD_77  and  CE_78 
REMARK   46  A    between atoms: CE_78  and  NZ_79 
REMARK   47  A    between atoms: NZ_79  and  CM1_82 
REMARK   48  A    between atoms: NZ_79  and  CM2_83 
REMARK   49  A    between atoms: NZ_79  and  CM3_84 
REMARK       I    between atoms: C_80  and  N_85 
REMARK   50  A    between atoms: N_85  and  CA_86 
REMARK   51  A    between atoms: CA_86  and  C_87 
REMARK   52  A    between atoms: CA_86  and  CB_89 
REMARK   53  A    between atoms: CB_89  and  CG1_90 
REMARK   54  A    between atoms: CB_89  and  CG2_91 
ROOT
ATOM      1  CA  GLN d   1      43.941  -6.616 -14.474  0.00  0.00     0.089 C 
ATOM      2  H   GLN d   1      43.745  -6.696 -13.395  0.00  0.00     0.087 H 
ENDROOT
BRANCH   1   3
ATOM      3  N   GLN d   1      45.321  -6.201 -14.667  0.00  0.00    -0.346 N 
ATOM      4  C   LYS d   1      46.280  -6.554 -13.820  0.00  0.00     0.240 C 
ATOM      5  O   LYS d   1      46.062  -7.176 -12.779  0.00  0.00    -0.271 OA
ATOM      6  H   GLN d   1      45.554  -5.635 -15.458  0.00  0.00     0.163 HD
BRANCH   4   7
ATOM      7  CA  LYS d   1      47.693  -6.134 -14.203  0.00  0.00     0.086 C 
ATOM      8  H   LYS d   1      47.627  -5.434 -15.049  0.00  0.00     0.086 H 
BRANCH   7   9
ATOM      9  N   LYS d   1      48.354  -5.454 -13.101  0.00  0.00    -0.346 N 
ATOM     10  C   PRO d   1      47.958  -4.253 -12.693  0.00  0.00     0.249 C 
ATOM     11  O   PRO d   1      47.008  -3.654 -13.180  0.00  0.00    -0.271 OA
ATOM     12  H   LYS d   1      49.122  -5.899 -12.641  0.00  0.00     0.163 HD
BRANCH  10  13
ATOM     13  CA  PRO d   1      48.742  -3.622 -11.557  0.00  0.00     0.178 C 
ATOM     14  N   PRO d   1      49.353  -2.350 -11.942  0.00  0.00    -0.062 N 
ATOM     15  CD  PRO d   1      49.387  -1.407 -10.811  0.00  0.00     0.083 C 
ATOM     16  H   PRO d   1      48.818  -1.943 -12.693  0.00  0.00     0.278 HD
ATOM     17  H   PRO d   1      50.296  -2.520 -12.255  0.00  0.00     0.278 HD
ATOM     18  CG  PRO d   1      48.555  -2.108  -9.750  0.00  0.00    -0.040 C 
ATOM     19  H   PRO d   1      48.940  -0.441 -11.089  0.00  0.00     0.075 H 
ATOM     20  H   PRO d   1      50.418  -1.247 -10.462  0.00  0.00     0.075 H 
ATOM     21  CB  PRO d   1      47.818  -3.219 -10.414  0.00  0.00    -0.028 C 
ATOM     22  H   PRO d   1      49.212  -2.511  -8.964  0.00  0.00     0.035 H 
ATOM     23  H   PRO d   1      47.842  -1.399  -9.304  0.00  0.00     0.035 H 
ATOM     24  H   PRO d   1      47.662  -4.058  -9.720  0.00  0.00     0.036 H 
ATOM     25  H   PRO d   1      46.846  -2.873 -10.796  0.00  0.00     0.036 H 
ATOM     26  H   PRO d   1      49.508  -4.332 -11.212  0.00  0.00     0.099 H 
ENDBRANCH  10  13
ENDBRANCH   7   9
BRANCH   7  27
ATOM     27  CB  LYS d   1      48.505  -7.352 -14.646  0.00  0.00    -0.049 C 
ATOM     28  H   LYS d   1      47.990  -7.853 -15.479  0.00  0.00     0.030 H 
ATOM     29  H   LYS d   1      48.605  -8.052 -13.803  0.00  0.00     0.030 H 
ATOM     30  H   LYS d   1      49.504  -7.027 -14.974  0.00  0.00     0.030 H 
ENDBRANCH   7  27
ENDBRANCH   4   7
ENDBRANCH   1   3
BRANCH   1  31
ATOM     31  C   GLN d   1      43.727  -7.985 -15.110  0.00  0.00     0.241 C 
ATOM     32  O   GLN d   1      43.910  -8.153 -16.318  0.00  0.00    -0.271 OA
ATOM     33  N   LYS d   1      43.354  -8.960 -14.286  0.00  0.00    -0.346 N 
ATOM     34  H   LYS d   1      43.198  -8.746 -13.322  0.00  0.00     0.163 HD
BRANCH  33  35
ATOM     35  CA  LYS d   1      43.166 -10.331 -14.745  0.00  0.00     0.086 C 
ATOM     36  H   LYS d   1      43.720 -10.458 -15.687  0.00  0.00     0.086 H 
BRANCH  35  37
ATOM     37  C   LYS d   1      41.693 -10.631 -15.012  0.00  0.00     0.240 C 
ATOM     38  O   LYS d   1      40.831  -9.774 -14.811  0.00  0.00    -0.271 OA
ATOM     39  N   ARG d   1      41.412 -11.848 -15.467  0.00  0.00    -0.349 N 
ATOM     40  H   ARG d   1      42.160 -12.488 -15.645  0.00  0.00     0.163 HD
BRANCH  39  41
ATOM     41  CA  ARG d   1      40.038 -12.271 -15.712  0.00  0.00     0.062 C 
ATOM     42  H   ARG d   1      39.485 -11.421 -16.138  0.00  0.00     0.083 H 
BRANCH  41  43
ATOM     43  C   ARG d   1      39.361 -12.683 -14.407  0.00  0.00     0.109 C 
ATOM     44  O   ARG d   1      38.202 -12.349 -14.163  0.00  0.00    -0.305 OA
ATOM     45  H   ARG d   1      39.911 -13.281 -13.682  0.00  0.00     0.146 H 
ENDBRANCH  41  43
BRANCH  41  46
ATOM     46  CB  ARG d   1      39.995 -13.426 -16.713  0.00  0.00    -0.039 C 
ATOM     47  H   ARG d   1      40.536 -14.280 -16.280  0.00  0.00     0.036 H 
ATOM     48  H   ARG d   1      40.498 -13.103 -17.637  0.00  0.00     0.036 H 
BRANCH  46  49
ATOM     49  CG  ARG d   1      38.583 -13.881 -17.068  0.00  0.00    -0.048 C 
ATOM     50  H   ARG d   1      38.117 -13.121 -17.712  0.00  0.00     0.035 H 
ATOM     51  H   ARG d   1      38.000 -13.984 -16.141  0.00  0.00     0.035 H 
BRANCH  49  52
ATOM     52  CD  ARG d   1      38.580 -15.214 -17.801  0.00  0.00     0.009 C 
ATOM     53  H   ARG d   1      37.541 -15.484 -18.039  0.00  0.00     0.064 H 
ATOM     54  H   ARG d   1      39.016 -15.980 -17.143  0.00  0.00     0.064 H 
BRANCH  52  55
ATOM     55  NE  ARG d   1      39.349 -15.170 -19.043  0.00  0.00    -0.227 N 
ATOM     56  CZ  ARG d   1      38.851 -14.801 -20.221  0.00  0.00     0.665 C 
ATOM     57  NH1 ARG d   1      39.628 -14.795 -21.298  0.00  0.00    -0.235 N 
ATOM     58  NH2 ARG d   1      37.579 -14.437 -20.323  0.00  0.00    -0.235 N 
ATOM     59  H   ARG d   1      39.243 -14.509 -22.209  0.00  0.00     0.174 HD
ATOM     60  H   ARG d   1      40.616 -15.076 -21.222  0.00  0.00     0.174 HD
ATOM     61  H   ARG d   1      36.974 -14.441 -19.489  0.00  0.00     0.174 HD
ATOM     62  H   ARG d   1      37.197 -14.151 -21.236  0.00  0.00     0.174 HD
ATOM     63  H   ARG d   1      40.342 -15.442 -19.004  0.00  0.00     0.177 HD
ENDBRANCH  52  55
ENDBRANCH  49  52
ENDBRANCH  46  49
ENDBRANCH  41  46
ENDBRANCH  39  41
ENDBRANCH  35  37
BRANCH  35  64
ATOM     64  CB  LYS d   1      43.725 -11.318 -13.716  0.00  0.00    -0.049 C 
ATOM     65  H   LYS d   1      43.576 -12.347 -14.076  0.00  0.00     0.030 H 
ATOM     66  H   LYS d   1      43.201 -11.185 -12.758  0.00  0.00     0.030 H 
ATOM     67  H   LYS d   1      44.800 -11.131 -13.575  0.00  0.00     0.030 H 
ENDBRANCH  35  64
ENDBRANCH  33  35
ENDBRANCH   1  31
BRANCH   1  68
ATOM     68  CB  GLN d   1      42.977  -5.583 -15.065  0.00  0.00    -0.041 C 
ATOM     69  H   GLN d   1      41.948  -5.927 -14.886  0.00  0.00     0.036 H 
ATOM     70  H   GLN d   1      43.159  -5.518 -16.148  0.00  0.00     0.036 H 
BRANCH  68  71
ATOM     71  CG  GLN d   1      43.128  -4.189 -14.468  0.00  0.00    -0.074 C 
ATOM     72  H   GLN d   1      42.406  -3.507 -14.941  0.00  0.00     0.027 H 
ATOM     73  H   GLN d   1      44.150  -3.822 -14.647  0.00  0.00     0.027 H 
ATOM     74  H   GLN d   1      42.938  -4.231 -13.385  0.00  0.00     0.027 H 
ENDBRANCH  68  71
ENDBRANCH   1  68
TORSDOF 54
