REMARK  9 active torsions:
REMARK  status: ('A' for Active; 'I' for Inactive)
REMARK    1  A    between atoms: C23_1  and  O4_2 
REMARK    2  A    between atoms: O4_2  and  C17_3 
REMARK    3  A    between atoms: C18_5  and  O3_6 
REMARK    4  A    between atoms: O3_6  and  C22_7 
REMARK    5  A    between atoms: C19_8  and  O2_9 
REMARK    6  A    between atoms: O2_9  and  C21_10 
REMARK    7  A    between atoms: C15_12  and  N4_13 
REMARK    8  A    between atoms: N4_13  and  C14_14 
REMARK    9  A    between atoms: C6_21  and  C7_23 
ROOT
ATOM      1  C14 2NS d   1     -18.118  -1.269 -23.663  0.00  0.00     0.252 A 
ATOM      2  O1  2NS d   1     -17.418  -0.110 -23.516  0.00  0.00    -0.275 OA
ATOM      3  N3  2NS d   1     -17.401  -2.424 -23.677  0.00  0.00    -0.206 NA
ATOM      4  C2  2NS d   1     -16.101  -1.935 -23.509  0.00  0.00     0.096 A 
ATOM      5  C3  2NS d   1     -14.882  -2.614 -23.427  0.00  0.00    -0.052 A 
ATOM      6  C4  2NS d   1     -13.712  -1.875 -23.244  0.00  0.00    -0.080 A 
ATOM      7  C5  2NS d   1     -13.747  -0.489 -23.135  0.00  0.00    -0.069 A 
ATOM      8  C6  2NS d   1     -14.958   0.204 -23.210  0.00  0.00     0.013 A 
ATOM      9  C1  2NS d   1     -16.116  -0.544 -23.407  0.00  0.00     0.119 A 
ATOM     10  H   2NS d   1     -14.846  -3.695 -23.504  0.00  0.00     0.087 H 
ATOM     11  H   2NS d   1     -12.760  -2.390 -23.186  0.00  0.00     0.083 H 
ATOM     12  H   2NS d   1     -12.824   0.060 -22.990  0.00  0.00     0.085 H 
ENDROOT
BRANCH   1  13
ATOM     13  N4  2NS d   1     -19.471  -1.174 -23.720  0.00  0.00    -0.320 N 
ATOM     14  H   2NS d   1     -19.961  -2.071 -23.848  0.00  0.00     0.169 HD
BRANCH  13  15
ATOM     15  C15 2NS d   1     -20.318  -0.045 -23.632  0.00  0.00     0.040 A 
ATOM     16  C16 2NS d   1     -21.654  -0.262 -23.959  0.00  0.00    -0.022 A 
ATOM     17  C17 2NS d   1     -22.559   0.778 -23.888  0.00  0.00     0.106 A 
ATOM     18  H   2NS d   1     -21.983  -1.247 -24.269  0.00  0.00     0.091 H 
ATOM     19  C18 2NS d   1     -22.137   2.052 -23.492  0.00  0.00     0.135 A 
ATOM     20  C19 2NS d   1     -20.799   2.260 -23.139  0.00  0.00     0.106 A 
ATOM     21  C20 2NS d   1     -19.891   1.215 -23.215  0.00  0.00    -0.022 A 
ATOM     22  H   2NS d   1     -18.852   1.377 -22.951  0.00  0.00     0.091 H 
BRANCH  17  23
ATOM     23  O4  2NS d   1     -23.894   0.663 -24.180  0.00  0.00    -0.353 OA
BRANCH  23  24
ATOM     24  C23 2NS d   1     -24.396  -0.627 -24.535  0.00  0.00     0.010 C 
ATOM     25  H   2NS d   1     -25.475  -0.557 -24.739  0.00  0.00     0.066 H 
ATOM     26  H   2NS d   1     -24.224  -1.328 -23.705  0.00  0.00     0.066 H 
ATOM     27  H   2NS d   1     -23.875  -0.988 -25.434  0.00  0.00     0.066 H 
ENDBRANCH  23  24
ENDBRANCH  17  23
BRANCH  19  28
ATOM     28  O3  2NS d   1     -23.045   3.098 -23.463  0.00  0.00    -0.351 OA
BRANCH  28  29
ATOM     29  C22 2NS d   1     -23.034   3.956 -24.609  0.00  0.00     0.011 C 
ATOM     30  H   2NS d   1     -23.788   4.747 -24.482  0.00  0.00     0.067 H 
ATOM     31  H   2NS d   1     -23.267   3.368 -25.509  0.00  0.00     0.067 H 
ATOM     32  H   2NS d   1     -22.039   4.412 -24.716  0.00  0.00     0.067 H 
ENDBRANCH  28  29
ENDBRANCH  19  28
BRANCH  20  33
ATOM     33  O2  2NS d   1     -20.485   3.528 -22.732  0.00  0.00    -0.353 OA
BRANCH  33  34
ATOM     34  C21 2NS d   1     -19.158   3.772 -22.245  0.00  0.00     0.010 C 
ATOM     35  H   2NS d   1     -19.061   4.830 -21.959  0.00  0.00     0.066 H 
ATOM     36  H   2NS d   1     -18.429   3.538 -23.035  0.00  0.00     0.066 H 
ATOM     37  H   2NS d   1     -18.966   3.136 -21.368  0.00  0.00     0.066 H 
ENDBRANCH  33  34
ENDBRANCH  20  33
ENDBRANCH  13  15
ENDBRANCH   1  13
BRANCH   8  38
ATOM     38  C7  2NS d   1     -15.028   1.691 -23.020  0.00  0.00     0.006 A 
ATOM     39  C12 2NS d   1     -14.327   2.348 -21.922  0.00  0.00     0.073 A 
ATOM     40  N1  2NS d   1     -13.569   1.882 -20.859  0.00  0.00    -0.348 N 
ATOM     41  C11 2NS d   1     -14.461   3.740 -21.857  0.00  0.00     0.085 A 
ATOM     42  C13 2NS d   1     -13.265   2.977 -20.189  0.00  0.00     0.065 A 
ATOM     43  H   2NS d   1     -13.305   0.910 -20.643  0.00  0.00     0.167 HD
ATOM     44  N2  2NS d   1     -13.763   4.114 -20.733  0.00  0.00    -0.242 NA
ATOM     45  H   2NS d   1     -12.667   2.968 -19.279  0.00  0.00     0.143 H 
ATOM     46  C10 2NS d   1     -15.210   4.495 -22.762  0.00  0.00    -0.053 A 
ATOM     47  C9  2NS d   1     -15.880   3.834 -23.782  0.00  0.00    -0.080 A 
ATOM     48  H   2NS d   1     -15.267   5.574 -22.670  0.00  0.00     0.087 H 
ATOM     49  C8  2NS d   1     -15.796   2.451 -23.910  0.00  0.00    -0.070 A 
ATOM     50  H   2NS d   1     -16.476   4.402 -24.487  0.00  0.00     0.083 H 
ATOM     51  H   2NS d   1     -16.333   1.955 -24.710  0.00  0.00     0.084 H 
ENDBRANCH   8  38
TORSDOF 9
