REMARK  9 active torsions:
REMARK  status: ('A' for Active; 'I' for Inactive)
REMARK    1  A    between atoms: C_2  and  CA_4 
REMARK    2  A    between atoms: CA_4  and  N_5 
REMARK    3  A    between atoms: CA_4  and  CB_6 
REMARK    4  A    between atoms: CB_6  and  CG_7 
REMARK    5  A    between atoms: CG_7  and  CD2_8 
REMARK    6  A    between atoms: CG_7  and  CD1_11 
REMARK    7  A    between atoms: CD1_11  and  CAH_12 
REMARK    8  A    between atoms: CAH_12  and  CAN_13 
REMARK       I    between atoms: CAN_13  and  NAK_15 
REMARK    9  A    between atoms: NAK_15  and  CAA_16 
ROOT
ATOM      1  CG  2QD d   1      -4.313  28.559 -15.478  0.00  0.00     0.033 C 
ATOM      2  H   2QD d   1      -5.341  28.636 -15.093  0.00  0.00     0.056 H 
ENDROOT
BRANCH   1   3
ATOM      3  CB  2QD d   1      -3.598  29.899 -15.176  0.00  0.00    -0.016 C 
ATOM      4  H   2QD d   1      -2.624  29.894 -15.688  0.00  0.00     0.038 H 
ATOM      5  H   2QD d   1      -4.216  30.718 -15.572  0.00  0.00     0.038 H 
BRANCH   3   6
ATOM      6  CA  2QD d   1      -3.355  30.158 -13.671  0.00  0.00     0.183 C 
ATOM      7  H   2QD d   1      -3.069  29.201 -13.209  0.00  0.00     0.101 H 
BRANCH   6   8
ATOM      8  C   2QD d   1      -2.219  31.158 -13.450  0.00  0.00     0.204 C 
ATOM      9  O   2QD d   1      -1.089  30.876 -13.939  0.00  0.00    -0.646 OA
ATOM     10  OXT 2QD d   1      -2.494  32.190 -12.783  0.00  0.00    -0.646 OA
ENDBRANCH   6   8
BRANCH   6  11
ATOM     11  N   2QD d   1      -4.556  30.652 -12.995  0.00  0.00    -0.065 N 
ATOM     12  H   2QD d   1      -5.312  30.000 -13.134  0.00  0.00     0.275 HD
ATOM     13  H   2QD d   1      -4.811  31.549 -13.377  0.00  0.00     0.275 HD
ATOM     14  H   2QD d   1      -4.371  30.747 -12.009  0.00  0.00     0.275 HD
ENDBRANCH   6  11
ENDBRANCH   3   6
ENDBRANCH   1   3
BRANCH   1  15
ATOM     15  CD2 2QD d   1      -3.619  27.381 -14.791  0.00  0.00     0.177 C 
ATOM     16  OAG 2QD d   1      -2.358  27.368 -14.857  0.00  0.00    -0.648 OA
ATOM     17  OAD 2QD d   1      -4.370  26.534 -14.247  0.00  0.00    -0.648 OA
ENDBRANCH   1  15
BRANCH   1  18
ATOM     18  CD1 2QD d   1      -4.379  28.240 -16.991  0.00  0.00    -0.045 C 
ATOM     19  H   2QD d   1      -4.307  27.150 -17.121  0.00  0.00     0.035 H 
ATOM     20  H   2QD d   1      -3.526  28.726 -17.488  0.00  0.00     0.035 H 
BRANCH  18  21
ATOM     21  CAH 2QD d   1      -5.667  28.724 -17.656  0.00  0.00     0.010 C 
ATOM     22  H   2QD d   1      -5.864  28.093 -18.535  0.00  0.00     0.047 H 
ATOM     23  H   2QD d   1      -5.523  29.766 -17.978  0.00  0.00     0.047 H 
BRANCH  21  24
ATOM     24  CAN 2QD d   1      -6.884  28.666 -16.736  0.00  0.00     0.217 C 
ATOM     25  OAE 2QD d   1      -7.307  27.580 -16.294  0.00  0.00    -0.274 OA
ATOM     26  NAK 2QD d   1      -7.410  29.888 -16.475  0.00  0.00    -0.365 N 
ATOM     27  H   2QD d   1      -7.006  30.716 -16.863  0.00  0.00     0.161 HD
BRANCH  26  28
ATOM     28  CAA 2QD d   1      -8.601  29.959 -15.597  0.00  0.00    -0.018 C 
ATOM     29  H   2QD d   1      -8.908  31.009 -15.480  0.00  0.00     0.056 H 
ATOM     30  H   2QD d   1      -8.356  29.537 -14.611  0.00  0.00     0.056 H 
ATOM     31  H   2QD d   1      -9.424  29.384 -16.047  0.00  0.00     0.056 H 
ENDBRANCH  26  28
ENDBRANCH  21  24
ENDBRANCH  18  21
ENDBRANCH   1  18
TORSDOF 9
