REMARK  21 active torsions:
REMARK  status: ('A' for Active; 'I' for Inactive)
REMARK    1  A    between atoms: C7_4  and  C1_1 
REMARK    2  A    between atoms: C3_3  and  O6_23 
REMARK       I    between atoms: N9_25  and  C7_4 
REMARK    3  A    between atoms: O6_23  and  C10_5 
REMARK    4  A    between atoms: C16_10  and  C19_11 
REMARK    5  A    between atoms: C16_10  and  N9_25 
REMARK       I    between atoms: C19_11  and  N23_14 
REMARK    6  A    between atoms: C20_12  and  C17_27 
REMARK    7  A    between atoms: N23_14  and  S24_30 
REMARK    8  A    between atoms: S24_30  and  C27_15 
REMARK    9  A    between atoms: C31_17  and  O49_49 
REMARK       I    between atoms: N5_22  and  C34_20 
REMARK   10  A    between atoms: C34_20  and  C36_36 
REMARK   11  A    between atoms: C36_36  and  C37_37 
REMARK   12  A    between atoms: C36_36  and  N41_41 
REMARK   13  A    between atoms: C37_37  and  C38_38 
REMARK   14  A    between atoms: C37_37  and  C39_39 
REMARK   15  A    between atoms: C37_37  and  C40_40 
REMARK       I    between atoms: N41_41  and  C42_42 
REMARK   16  A    between atoms: C42_42  and  O44_44 
REMARK   17  A    between atoms: O44_44  and  C45_45 
REMARK   18  A    between atoms: C45_45  and  C46_46 
REMARK   19  A    between atoms: C45_45  and  C47_47 
REMARK   20  A    between atoms: C45_45  and  C48_48 
REMARK   21  A    between atoms: O49_49  and  C50_50 
ROOT
ATOM      1  C1  2R8 d   1      50.391  76.099   0.421  0.00  0.00     0.094 C 
ATOM      2  C2  2R8 d   1      51.507  76.062   1.451  0.00  0.00    -0.011 C 
ATOM      3  C3  2R8 d   1      52.787  76.379   0.676  0.00  0.00     0.064 C 
ATOM      4  C34 2R8 d   1      50.135  77.435  -1.569  0.00  0.00     0.244 C 
ATOM      5  C4  2R8 d   1      52.257  77.604  -0.084  0.00  0.00     0.023 C 
ATOM      6  N5  2R8 d   1      50.907  77.124  -0.503  0.00  0.00    -0.334 N 
ATOM      7  O35 2R8 d   1      49.029  76.935  -1.757  0.00  0.00    -0.271 OA
ATOM      8  H   2R8 d   1      50.324  75.133  -0.101  0.00  0.00     0.088 H 
ATOM      9  H   2R8 d   1      51.573  75.065   1.911  0.00  0.00     0.040 H 
ATOM     10  H   2R8 d   1      51.334  76.816   2.233  0.00  0.00     0.040 H 
ATOM     11  H   2R8 d   1      53.678  76.547   1.298  0.00  0.00     0.086 H 
ATOM     12  H   2R8 d   1      52.887  77.843  -0.953  0.00  0.00     0.068 H 
ATOM     13  H   2R8 d   1      52.186  78.485   0.571  0.00  0.00     0.068 H 
ENDROOT
BRANCH   1  14
ATOM     14  C7  2R8 d   1      49.020  76.377   1.035  0.00  0.00     0.241 C 
ATOM     15  O8  2R8 d   1      48.762  77.490   1.495  0.00  0.00    -0.271 OA
ATOM     16  N9  2R8 d   1      48.144  75.315   1.023  0.00  0.00    -0.341 N 
ATOM     17  H   2R8 d   1      48.447  74.406   0.736  0.00  0.00     0.163 HD
BRANCH  16  18
ATOM     18  C16 2R8 d   1      46.802  75.539   1.427  0.00  0.00     0.122 A 
ATOM     19  C17 2R8 d   1      46.250  76.185   0.198  0.00  0.00    -0.003 A 
ATOM     20  C18 2R8 d   1      45.982  74.750   0.485  0.00  0.00    -0.023 A 
ATOM     21  H   2R8 d   1      46.935  76.451  -0.621  0.00  0.00     0.050 H 
ATOM     22  H   2R8 d   1      44.971  74.428   0.775  0.00  0.00     0.038 H 
ATOM     23  H   2R8 d   1      46.453  73.970  -0.132  0.00  0.00     0.038 H 
BRANCH  18  24
ATOM     24  C19 2R8 d   1      46.407  75.790   2.846  0.00  0.00     0.260 C 
ATOM     25  N23 2R8 d   1      47.356  75.839   3.773  0.00  0.00    -0.252 N 
ATOM     26  H   2R8 d   1      48.328  75.731   3.565  0.00  0.00     0.181 HD
ATOM     27  O22 2R8 d   1      45.217  75.935   3.098  0.00  0.00    -0.270 OA
BRANCH  25  28
ATOM     28  S24 2R8 d   1      46.798  76.088   5.262  0.00  0.00     0.237 S 
ATOM     29  O25 2R8 d   1      45.977  75.035   5.730  0.00  0.00    -0.205 OA
ATOM     30  O26 2R8 d   1      46.355  77.446   5.357  0.00  0.00    -0.205 OA
BRANCH  28  31
ATOM     31  C27 2R8 d   1      48.150  76.045   6.316  0.00  0.00     0.063 A 
ATOM     32  C28 2R8 d   1      48.569  74.739   6.885  0.00  0.00    -0.046 A 
ATOM     33  C29 2R8 d   1      48.193  75.885   7.767  0.00  0.00    -0.046 A 
ATOM     34  H   2R8 d   1      49.618  74.416   6.815  0.00  0.00     0.035 H 
ATOM     35  H   2R8 d   1      47.909  73.863   6.804  0.00  0.00     0.035 H 
ATOM     36  H   2R8 d   1      47.257  75.850   8.344  0.00  0.00     0.035 H 
ATOM     37  H   2R8 d   1      48.966  76.403   8.354  0.00  0.00     0.035 H 
ATOM     38  H   2R8 d   1      48.910  76.711   5.882  0.00  0.00     0.066 H 
ENDBRANCH  28  31
ENDBRANCH  25  28
ENDBRANCH  18  24
BRANCH  19  39
ATOM     39  C20 2R8 d   1      45.159  77.222   0.259  0.00  0.00    -0.105 C 
ATOM     40  C21 2R8 d   1      44.699  78.385  -0.223  0.00  0.00    -0.124 C 
ATOM     41  H   2R8 d   1      43.767  78.802   0.157  0.00  0.00     0.066 H 
ATOM     42  H   2R8 d   1      45.257  78.913  -0.995  0.00  0.00     0.066 H 
ATOM     43  H   2R8 d   1      44.445  76.886   1.009  0.00  0.00     0.076 H 
ENDBRANCH  19  39
ENDBRANCH  16  18
ENDBRANCH   1  14
BRANCH   4  44
ATOM     44  C36 2R8 d   1      50.709  78.440  -2.559  0.00  0.00     0.098 C 
ATOM     45  H   2R8 d   1      51.773  78.591  -2.327  0.00  0.00     0.088 H 
BRANCH  44  46
ATOM     46  C37 2R8 d   1      49.987  79.804  -2.485  0.00  0.00    -0.022 C 
BRANCH  46  47
ATOM     47  C38 2R8 d   1      48.536  79.694  -2.993  0.00  0.00    -0.067 C 
ATOM     48  H   2R8 d   1      48.049  80.678  -2.928  0.00  0.00     0.028 H 
ATOM     49  H   2R8 d   1      47.985  78.971  -2.374  0.00  0.00     0.028 H 
ATOM     50  H   2R8 d   1      48.538  79.354  -4.039  0.00  0.00     0.028 H 
ENDBRANCH  46  47
BRANCH  46  51
ATOM     51  C39 2R8 d   1      50.040  80.304  -1.013  0.00  0.00    -0.067 C 
ATOM     52  H   2R8 d   1      51.088  80.370  -0.686  0.00  0.00     0.028 H 
ATOM     53  H   2R8 d   1      49.498  79.599  -0.366  0.00  0.00     0.028 H 
ATOM     54  H   2R8 d   1      49.572  81.297  -0.946  0.00  0.00     0.028 H 
ENDBRANCH  46  51
BRANCH  46  55
ATOM     55  C40 2R8 d   1      50.726  80.781  -3.420  0.00  0.00    -0.067 C 
ATOM     56  H   2R8 d   1      50.676  80.408  -4.454  0.00  0.00     0.028 H 
ATOM     57  H   2R8 d   1      51.778  80.861  -3.110  0.00  0.00     0.028 H 
ATOM     58  H   2R8 d   1      50.251  81.772  -3.364  0.00  0.00     0.028 H 
ENDBRANCH  46  55
ENDBRANCH  44  46
BRANCH  44  59
ATOM     59  N41 2R8 d   1      50.584  77.920  -3.906  0.00  0.00    -0.323 N 
ATOM     60  C42 2R8 d   1      51.622  77.274  -4.481  0.00  0.00     0.362 C 
ATOM     61  O43 2R8 d   1      52.695  77.164  -3.970  0.00  0.00    -0.238 OA
ATOM     62  H   2R8 d   1      49.729  78.039  -4.410  0.00  0.00     0.165 HD
BRANCH  60  63
ATOM     63  O44 2R8 d   1      51.295  76.766  -5.665  0.00  0.00    -0.294 OA
BRANCH  63  64
ATOM     64  C45 2R8 d   1      52.164  75.958  -6.460  0.00  0.00     0.061 C 
BRANCH  64  65
ATOM     65  C46 2R8 d   1      52.503  74.652  -5.740  0.00  0.00    -0.048 C 
ATOM     66  H   2R8 d   1      53.172  74.048  -6.371  0.00  0.00     0.031 H 
ATOM     67  H   2R8 d   1      51.578  74.090  -5.544  0.00  0.00     0.031 H 
ATOM     68  H   2R8 d   1      53.003  74.878  -4.787  0.00  0.00     0.031 H 
ENDBRANCH  64  65
BRANCH  64  69
ATOM     69  C47 2R8 d   1      51.362  75.589  -7.727  0.00  0.00    -0.048 C 
ATOM     70  H   2R8 d   1      51.983  74.962  -8.384  0.00  0.00     0.031 H 
ATOM     71  H   2R8 d   1      51.075  76.507  -8.260  0.00  0.00     0.031 H 
ATOM     72  H   2R8 d   1      50.457  75.034  -7.439  0.00  0.00     0.031 H 
ENDBRANCH  64  69
BRANCH  64  73
ATOM     73  C48 2R8 d   1      53.437  76.763  -6.830  0.00  0.00    -0.048 C 
ATOM     74  H   2R8 d   1      54.102  76.136  -7.442  0.00  0.00     0.031 H 
ATOM     75  H   2R8 d   1      53.960  77.064  -5.911  0.00  0.00     0.031 H 
ATOM     76  H   2R8 d   1      53.151  77.659  -7.400  0.00  0.00     0.031 H 
ENDBRANCH  64  73
ENDBRANCH  63  64
ENDBRANCH  60  63
ENDBRANCH  44  59
ENDBRANCH   4  44
BRANCH   3  77
ATOM     77  O6  2R8 d   1      52.971  75.397  -0.318  0.00  0.00    -0.327 OA
BRANCH  77  78
ATOM     78  C10 2R8 d   1      53.820  74.362   0.000  0.00  0.00     0.175 A 
ATOM     79  C15 2R8 d   1      54.087  73.378  -1.022  0.00  0.00     0.027 A 
ATOM     80  C14 2R8 d   1      55.123  72.330  -0.646  0.00  0.00    -0.018 A 
ATOM     81  C33 2R8 d   1      53.422  73.392  -2.318  0.00  0.00    -0.065 A 
ATOM     82  C13 2R8 d   1      55.763  72.362   0.654  0.00  0.00    -0.055 A 
ATOM     83  C30 2R8 d   1      55.432  71.339  -1.645  0.00  0.00    -0.040 A 
ATOM     84  C12 2R8 d   1      55.413  73.380   1.619  0.00  0.00     0.006 A 
ATOM     85  H   2R8 d   1      56.510  71.617   0.905  0.00  0.00     0.087 H 
ATOM     86  N11 2R8 d   1      54.456  74.316   1.234  0.00  0.00    -0.236 NA
ATOM     87  H   2R8 d   1      55.875  73.413   2.599  0.00  0.00     0.114 H 
ATOM     88  C31 2R8 d   1      54.762  71.378  -2.942  0.00  0.00     0.069 A 
ATOM     89  H   2R8 d   1      56.161  70.565  -1.434  0.00  0.00     0.089 H 
ATOM     90  C32 2R8 d   1      53.764  72.387  -3.288  0.00  0.00    -0.050 A 
ATOM     91  H   2R8 d   1      53.288  72.378  -4.262  0.00  0.00     0.087 H 
ATOM     92  H   2R8 d   1      52.681  74.149  -2.548  0.00  0.00     0.085 H 
BRANCH  88  93
ATOM     93  O49 2R8 d   1      55.024  70.473  -3.953  0.00  0.00    -0.356 OA
BRANCH  93  94
ATOM     94  C50 2R8 d   1      55.909  69.391  -3.659  0.00  0.00     0.010 C 
ATOM     95  H   2R8 d   1      56.022  68.757  -4.551  0.00  0.00     0.066 H 
ATOM     96  H   2R8 d   1      55.495  68.792  -2.834  0.00  0.00     0.066 H 
ATOM     97  H   2R8 d   1      56.891  69.790  -3.365  0.00  0.00     0.066 H 
ENDBRANCH  93  94
ENDBRANCH  88  93
ENDBRANCH  77  78
ENDBRANCH   3  77
TORSDOF 21
