REMARK  11 active torsions:
REMARK  status: ('A' for Active; 'I' for Inactive)
REMARK    1  A    between atoms: C1_23  and  C12_13 
REMARK    2  A    between atoms: C25_24  and  C9_14 
REMARK    3  A    between atoms: C18_25  and  C19_15 
REMARK    4  A    between atoms: C22_16  and  C31_34 
REMARK    5  A    between atoms: C13_17  and  C26_30 
REMARK    6  A    between atoms: C6_19  and  N5_40 
REMARK    7  A    between atoms: C14_20  and  N6_41 
REMARK    8  A    between atoms: N5_40  and  C4_22 
REMARK       I    between atoms: N7_39  and  C25_24 
REMARK       I    between atoms: N6_41  and  C18_25 
REMARK    9  A    between atoms: C31_34  and  C32_31 
REMARK   10  A    between atoms: C31_34  and  C33_32 
REMARK   11  A    between atoms: C31_34  and  C34_33 
ROOT
ATOM      1  C16 2P5 d   1      11.674  20.887  22.677  0.00  0.00    -0.080 A 
ATOM      2  C17 2P5 d   1      10.871  20.877  21.541  0.00  0.00    -0.069 A 
ATOM      3  C15 2P5 d   1      13.094  20.863  22.548  0.00  0.00    -0.057 A 
ATOM      4  C12 2P5 d   1      11.461  20.825  20.244  0.00  0.00     0.020 A 
ATOM      5  C13 2P5 d   1      12.879  20.786  20.091  0.00  0.00    -0.021 A 
ATOM      6  C14 2P5 d   1      13.672  20.833  21.267  0.00  0.00     0.042 A 
ATOM      7  H   2P5 d   1      11.220  20.913  23.661  0.00  0.00     0.083 H 
ATOM      8  H   2P5 d   1       9.792  20.909  21.642  0.00  0.00     0.085 H 
ATOM      9  H   2P5 d   1      13.723  20.868  23.431  0.00  0.00     0.086 H 
ENDROOT
BRANCH   4  10
ATOM     10  C1  2P5 d   1      10.538  20.843  19.080  0.00  0.00     0.165 A 
ATOM     11  N2  2P5 d   1      10.894  21.639  18.037  0.00  0.00    -0.206 NA
ATOM     12  C2  2P5 d   1      10.007  21.575  16.994  0.00  0.00     0.183 A 
ATOM     13  C3  2P5 d   1       8.820  20.806  16.983  0.00  0.00     0.128 A 
ATOM     14  N3  2P5 d   1      10.077  22.192  15.763  0.00  0.00    -0.222 NA
ATOM     15  C4  2P5 d   1       8.538  20.039  18.147  0.00  0.00     0.161 A 
ATOM     16  N4  2P5 d   1       8.153  20.957  15.779  0.00  0.00    -0.345 N 
ATOM     17  N1  2P5 d   1       9.403  20.036  19.199  0.00  0.00    -0.208 NA
ATOM     18  C5  2P5 d   1       8.921  21.786  15.050  0.00  0.00     0.067 A 
ATOM     19  H   2P5 d   1       7.260  20.526  15.501  0.00  0.00     0.167 HD
ATOM     20  H   2P5 d   1       8.684  22.106  14.036  0.00  0.00     0.143 H 
BRANCH  15  21
ATOM     21  N5  2P5 d   1       7.347  19.390  18.172  0.00  0.00    -0.339 N 
ATOM     22  H   2P5 d   1       6.782  19.488  17.317  0.00  0.00     0.167 HD
BRANCH  21  23
ATOM     23  C6  2P5 d   1       6.752  18.590  19.199  0.00  0.00     0.033 A 
ATOM     24  C7  2P5 d   1       5.470  18.073  18.992  0.00  0.00    -0.056 A 
ATOM     25  C8  2P5 d   1       4.850  17.302  19.997  0.00  0.00    -0.066 A 
ATOM     26  H   2P5 d   1       4.952  18.265  18.059  0.00  0.00     0.086 H 
ATOM     27  C9  2P5 d   1       5.505  17.065  21.201  0.00  0.00     0.032 A 
ATOM     28  H   2P5 d   1       3.860  16.893  19.831  0.00  0.00     0.085 H 
ATOM     29  C10 2P5 d   1       6.780  17.603  21.442  0.00  0.00    -0.066 A 
ATOM     30  C11 2P5 d   1       7.428  18.353  20.440  0.00  0.00    -0.056 A 
ATOM     31  H   2P5 d   1       7.265  17.442  22.398  0.00  0.00     0.085 H 
ATOM     32  H   2P5 d   1       8.425  18.745  20.606  0.00  0.00     0.086 H 
BRANCH  27  33
ATOM     33  C25 2P5 d   1       4.859  16.187  22.245  0.00  0.00     0.253 C 
ATOM     34  N7  2P5 d   1       4.662  14.779  22.048  0.00  0.00    -0.344 N 
ATOM     35  C27 2P5 d   1       4.014  13.944  23.078  0.00  0.00     0.018 C 
ATOM     36  C30 2P5 d   1       5.176  14.023  20.887  0.00  0.00     0.018 C 
ATOM     37  C28 2P5 d   1       3.006  13.022  22.433  0.00  0.00     0.034 C 
ATOM     38  H   2P5 d   1       4.778  13.345  23.595  0.00  0.00     0.067 H 
ATOM     39  H   2P5 d   1       3.503  14.592  23.805  0.00  0.00     0.067 H 
ATOM     40  O3  2P5 d   1       3.600  12.241  21.398  0.00  0.00    -0.388 OA
ATOM     41  H   2P5 d   1       2.193  13.626  22.003  0.00  0.00     0.076 H 
ATOM     42  H   2P5 d   1       2.596  12.348  23.200  0.00  0.00     0.076 H 
ATOM     43  C29 2P5 d   1       4.106  13.090  20.367  0.00  0.00     0.034 C 
ATOM     44  H   2P5 d   1       4.534  12.466  19.569  0.00  0.00     0.076 H 
ATOM     45  H   2P5 d   1       3.278  13.689  19.960  0.00  0.00     0.076 H 
ATOM     46  H   2P5 d   1       5.464  14.727  20.092  0.00  0.00     0.067 H 
ATOM     47  H   2P5 d   1       6.054  13.436  21.194  0.00  0.00     0.067 H 
ATOM     48  O2  2P5 d   1       4.535  16.717  23.304  0.00  0.00    -0.267 OA
ENDBRANCH  27  33
ENDBRANCH  21  23
ENDBRANCH  15  21
ENDBRANCH   4  10
BRANCH   5  49
ATOM     49  C26 2P5 d   1      13.546  20.628  18.734  0.00  0.00    -0.048 C 
ATOM     50  H   2P5 d   1      12.777  20.612  17.947  0.00  0.00     0.033 H 
ATOM     51  H   2P5 d   1      14.113  19.686  18.712  0.00  0.00     0.033 H 
ATOM     52  H   2P5 d   1      14.230  21.472  18.561  0.00  0.00     0.033 H 
ENDBRANCH   5  49
BRANCH   6  53
ATOM     53  N6  2P5 d   1      15.086  20.894  21.051  0.00  0.00    -0.322 N 
ATOM     54  C18 2P5 d   1      15.770  22.044  20.718  0.00  0.00     0.256 C 
ATOM     55  O1  2P5 d   1      15.215  23.137  20.695  0.00  0.00    -0.267 OA
ATOM     56  H   2P5 d   1      15.611  20.049  21.148  0.00  0.00     0.169 HD
BRANCH  54  57
ATOM     57  C19 2P5 d   1      17.232  21.863  20.403  0.00  0.00     0.032 A 
ATOM     58  C20 2P5 d   1      18.084  22.977  20.461  0.00  0.00    -0.067 A 
ATOM     59  C21 2P5 d   1      19.416  22.872  20.064  0.00  0.00    -0.075 A 
ATOM     60  H   2P5 d   1      17.703  23.927  20.818  0.00  0.00     0.085 H 
ATOM     61  C22 2P5 d   1      19.944  21.656  19.588  0.00  0.00    -0.051 A 
ATOM     62  H   2P5 d   1      20.058  23.743  20.123  0.00  0.00     0.084 H 
ATOM     63  C23 2P5 d   1      19.067  20.552  19.550  0.00  0.00    -0.075 A 
ATOM     64  C24 2P5 d   1      17.730  20.641  19.962  0.00  0.00    -0.067 A 
ATOM     65  H   2P5 d   1      19.440  19.600  19.189  0.00  0.00     0.084 H 
ATOM     66  H   2P5 d   1      17.090  19.766  19.937  0.00  0.00     0.085 H 
BRANCH  61  67
ATOM     67  C31 2P5 d   1      21.427  21.569  19.140  0.00  0.00    -0.024 C 
BRANCH  67  68
ATOM     68  C32 2P5 d   1      22.307  21.220  20.343  0.00  0.00    -0.066 C 
ATOM     69  H   2P5 d   1      23.358  21.159  20.023  0.00  0.00     0.028 H 
ATOM     70  H   2P5 d   1      21.993  20.251  20.758  0.00  0.00     0.028 H 
ATOM     71  H   2P5 d   1      22.203  22.000  21.112  0.00  0.00     0.028 H 
ENDBRANCH  67  68
BRANCH  67  72
ATOM     72  C33 2P5 d   1      21.945  22.871  18.529  0.00  0.00    -0.066 C 
ATOM     73  H   2P5 d   1      21.325  23.141  17.661  0.00  0.00     0.028 H 
ATOM     74  H   2P5 d   1      22.988  22.735  18.207  0.00  0.00     0.028 H 
ATOM     75  H   2P5 d   1      21.894  23.674  19.279  0.00  0.00     0.028 H 
ENDBRANCH  67  72
BRANCH  67  76
ATOM     76  C34 2P5 d   1      21.670  20.515  18.064  0.00  0.00    -0.066 C 
ATOM     77  H   2P5 d   1      21.322  19.536  18.425  0.00  0.00     0.028 H 
ATOM     78  H   2P5 d   1      22.745  20.462  17.839  0.00  0.00     0.028 H 
ATOM     79  H   2P5 d   1      21.118  20.787  17.153  0.00  0.00     0.028 H 
ENDBRANCH  67  76
ENDBRANCH  61  67
ENDBRANCH  54  57
ENDBRANCH   6  53
TORSDOF 11
