REMARK  9 active torsions:
REMARK  status: ('A' for Active; 'I' for Inactive)
REMARK    1  A    between atoms: C09_18  and  C10_1 
REMARK    2  A    between atoms: C01_10  and  N02_11 
REMARK    3  A    between atoms: C18_23  and  C01_10 
REMARK    4  A    between atoms: C01_10  and  C29_28 
REMARK    5  A    between atoms: C04_13  and  C07_16 
REMARK    6  A    between atoms: C07_16  and  N08_17 
REMARK       I    between atoms: N08_17  and  C09_18 
REMARK    7  A    between atoms: C18_23  and  C19_24 
REMARK    8  A    between atoms: C29_28  and  C30_29 
REMARK       I    between atoms: C30_29  and  N31_30 
REMARK    9  A    between atoms: N31_30  and  O32_31 
ROOT
ATOM      1  C01 2H7 d   1     161.614   1.108 -62.170  0.00  0.00     0.042 C 
ATOM      2  H7  2H7 d   1     162.296   1.293 -63.013  0.00  0.00     0.076 H 
ENDROOT
BRANCH   1   3
ATOM      3  N02 2H7 d   1     162.528   0.658 -61.145  0.00  0.00    -0.278 N 
ATOM      4  C03 2H7 d   1     163.886   0.826 -61.247  0.00  0.00     0.022 A 
ATOM      5  C04 2H7 d   1     164.437   0.259 -60.052  0.00  0.00     0.086 A 
ATOM      6  H8  2H7 d   1     164.431   1.293 -62.066  0.00  0.00     0.116 H 
ATOM      7  N05 2H7 d   1     163.373  -0.207 -59.320  0.00  0.00    -0.161 NA
ATOM      8  N06 2H7 d   1     162.251   0.045 -60.001  0.00  0.00     0.005 NA
BRANCH   5   9
ATOM      9  C07 2H7 d   1     165.938   0.232 -59.723  0.00  0.00     0.038 C 
ATOM     10  H9  2H7 d   1     166.426  -0.583 -60.278  0.00  0.00     0.073 H 
ATOM     11  H10 2H7 d   1     166.079   0.076 -58.643  0.00  0.00     0.073 H 
BRANCH   9  12
ATOM     12  N08 2H7 d   1     166.510   1.496 -60.111  0.00  0.00    -0.351 N 
ATOM     13  C09 2H7 d   1     167.710   1.511 -60.943  0.00  0.00     0.251 C 
ATOM     14  O11 2H7 d   1     168.215   0.448 -61.293  0.00  0.00    -0.268 OA
ATOM     15  H11 2H7 d   1     166.090   2.353 -59.814  0.00  0.00     0.163 HD
BRANCH  13  16
ATOM     16  C10 2H7 d   1     168.379   2.839 -61.386  0.00  0.00     0.032 A 
ATOM     17  C12 2H7 d   1     167.843   3.588 -62.429  0.00  0.00    -0.065 A 
ATOM     18  C13 2H7 d   1     168.473   4.785 -62.817  0.00  0.00    -0.045 A 
ATOM     19  H12 2H7 d   1     166.947   3.252 -62.939  0.00  0.00     0.085 H 
ATOM     20  C14 2H7 d   1     169.626   5.208 -62.172  0.00  0.00     0.116 A 
ATOM     21  H1  2H7 d   1     168.056   5.378 -63.623  0.00  0.00     0.088 H 
ATOM     22  C15 2H7 d   1     170.160   4.454 -61.132  0.00  0.00    -0.045 A 
ATOM     23  F17 2H7 d   1     170.233   6.359 -62.548  0.00  0.00    -0.206 F 
ATOM     24  C16 2H7 d   1     169.533   3.266 -60.745  0.00  0.00    -0.065 A 
ATOM     25  H2  2H7 d   1     171.058   4.786 -60.624  0.00  0.00     0.088 H 
ATOM     26  H13 2H7 d   1     169.951   2.674 -59.939  0.00  0.00     0.085 H 
ENDBRANCH  13  16
ENDBRANCH   9  12
ENDBRANCH   5   9
ENDBRANCH   1   3
BRANCH   1  27
ATOM     27  C18 2H7 d   1     161.041   2.489 -61.937  0.00  0.00    -0.020 C 
ATOM     28  H14 2H7 d   1     160.993   2.689 -60.856  0.00  0.00     0.043 H 
ATOM     29  H15 2H7 d   1     160.030   2.544 -62.366  0.00  0.00     0.043 H 
BRANCH  27  30
ATOM     30  C19 2H7 d   1     161.947   3.538 -62.616  0.00  0.00    -0.055 A 
ATOM     31  C20 2H7 d   1     161.485   4.816 -62.940  0.00  0.00    -0.066 A 
ATOM     32  C21 2H7 d   1     162.384   5.770 -63.579  0.00  0.00    -0.025 A 
ATOM     33  H3  2H7 d   1     160.462   5.097 -62.717  0.00  0.00     0.085 H 
ATOM     34  C22 2H7 d   1     163.678   5.420 -63.868  0.00  0.00    -0.026 A 
ATOM     35  C25 2H7 d   1     161.921   7.088 -63.916  0.00  0.00    -0.072 A 
ATOM     36  C28 2H7 d   1     164.571   6.358 -64.501  0.00  0.00    -0.072 A 
ATOM     37  C23 2H7 d   1     164.156   4.101 -63.535  0.00  0.00    -0.072 A 
ATOM     38  C27 2H7 d   1     164.117   7.641 -64.827  0.00  0.00    -0.082 A 
ATOM     39  H6  2H7 d   1     165.592   6.070 -64.724  0.00  0.00     0.084 H 
ATOM     40  C26 2H7 d   1     162.792   8.005 -64.538  0.00  0.00    -0.082 A 
ATOM     41  H18 2H7 d   1     164.786   8.351 -65.301  0.00  0.00     0.083 H 
ATOM     42  H5  2H7 d   1     162.437   8.997 -64.795  0.00  0.00     0.083 H 
ATOM     43  C24 2H7 d   1     163.285   3.188 -62.920  0.00  0.00    -0.076 A 
ATOM     44  H16 2H7 d   1     165.178   3.817 -63.758  0.00  0.00     0.084 H 
ATOM     45  H4  2H7 d   1     163.644   2.195 -62.673  0.00  0.00     0.084 H 
ATOM     46  H17 2H7 d   1     160.901   7.377 -63.692  0.00  0.00     0.084 H 
ENDBRANCH  27  30
ENDBRANCH   1  27
BRANCH   1  47
ATOM     47  C29 2H7 d   1     160.696   0.057 -62.760  0.00  0.00     0.032 C 
ATOM     48  H19 2H7 d   1     161.256  -0.889 -62.800  0.00  0.00     0.050 H 
ATOM     49  H20 2H7 d   1     160.439   0.375 -63.781  0.00  0.00     0.050 H 
BRANCH  47  50
ATOM     50  C30 2H7 d   1     159.399  -0.208 -62.022  0.00  0.00     0.242 C 
ATOM     51  N31 2H7 d   1     159.072  -1.545 -61.654  0.00  0.00    -0.237 N 
ATOM     52  H21 2H7 d   1     159.697  -2.292 -61.881  0.00  0.00     0.197 HD
ATOM     53  O33 2H7 d   1     158.635   0.689 -61.749  0.00  0.00    -0.271 OA
BRANCH  51  54
ATOM     54  O32 2H7 d   1     157.905  -1.810 -60.991  0.00  0.00    -0.287 OA
ATOM     55  H22 2H7 d   1     157.896  -1.337 -60.167  0.00  0.00     0.244 HD
ENDBRANCH  51  54
ENDBRANCH  47  50
ENDBRANCH   1  47
TORSDOF 9
