REMARK WARNING: 32 MAX_TORS EXCEEDED!!!
REMARK  34 active torsions:
REMARK  status: ('A' for Active; 'I' for Inactive)
REMARK    1  A    between atoms: N_1  and  CA_2 
REMARK    2  A    between atoms: CA_2  and  C_3 
REMARK    3  A    between atoms: CA_2  and  CB_5 
REMARK       I    between atoms: C_3  and  N_9 
REMARK    4  A    between atoms: CB_5  and  CG_6 
REMARK       I    between atoms: CG_6  and  ND2_8 
REMARK    5  A    between atoms: N_9  and  CA_10 
REMARK    6  A    between atoms: CA_10  and  C_11 
REMARK    7  A    between atoms: CA_10  and  CB_13 
REMARK       I    between atoms: C_11  and  N_18 
REMARK    8  A    between atoms: CB_13  and  CG_14 
REMARK    9  A    between atoms: CG_14  and  CD_15 
REMARK       I    between atoms: CD_15  and  NE2_17 
REMARK   10  A    between atoms: N_18  and  CA_19 
REMARK   11  A    between atoms: CA_19  and  C_20 
REMARK   12  A    between atoms: CA_19  and  CB_22 
REMARK       I    between atoms: C_20  and  N_27 
REMARK   13  A    between atoms: CB_22  and  CG_23 
REMARK   14  A    between atoms: CG_23  and  CD_24 
REMARK   15  A    between atoms: CD_24  and  CE_25 
REMARK   16  A    between atoms: CE_25  and  NZ_26 
REMARK   17  A    between atoms: N_27  and  CA_28 
REMARK   18  A    between atoms: CA_28  and  C_29 
REMARK   19  A    between atoms: CA_28  and  CB_31 
REMARK       I    between atoms: C_29  and  N_36 
REMARK   20  A    between atoms: CB_31  and  CG_32 
REMARK   21  A    between atoms: CG_32  and  CD_33 
REMARK   22  A    between atoms: N_36  and  CA_37 
REMARK   23  A    between atoms: CA_37  and  C_38 
REMARK   24  A    between atoms: CA_37  and  CB_40 
REMARK       I    between atoms: C_38  and  N_48 
REMARK   25  A    between atoms: CB_40  and  CG_41 
REMARK   26  A    between atoms: CZ_46  and  OH_47 
REMARK   27  A    between atoms: N_48  and  CA_49 
REMARK   28  A    between atoms: CA_49  and  C_50 
REMARK   29  A    between atoms: CA_49  and  CB_52 
REMARK       I    between atoms: C_50  and  N_59 
REMARK   30  A    between atoms: CB_52  and  CG_53 
REMARK   31  A    between atoms: N_59  and  CA_60 
REMARK   32  A    between atoms: CA_60  and  C_61 
REMARK   33  A    between atoms: CA_60  and  CB_63 
REMARK   34  A    between atoms: CB_63  and  CG_64 
ROOT
ATOM      1  CA  GLU d   1      51.221  -7.700  20.526  0.00  0.00     0.090 C 
ATOM      2  H31 GLU d   1      51.714  -6.809  20.942  0.00  0.00     0.087 H 
ENDROOT
BRANCH   1   3
ATOM      3  N   GLU d   1      50.275  -7.240  19.504  0.00  0.00    -0.346 N 
ATOM      4  C   LYS d   1      49.881  -5.969  19.514  0.00  0.00     0.241 C 
ATOM      5  O   LYS d   1      50.134  -5.226  20.466  0.00  0.00    -0.271 OA
ATOM      6  H30 GLU d   1      49.931  -7.872  18.810  0.00  0.00     0.163 HD
BRANCH   4   7
ATOM      7  CA  LYS d   1      49.058  -5.436  18.330  0.00  0.00     0.089 C 
ATOM      8  H18 LYS d   1      48.294  -6.182  18.067  0.00  0.00     0.087 H 
BRANCH   7   9
ATOM      9  N   LYS d   1      48.399  -4.180  18.688  0.00  0.00    -0.346 N 
ATOM     10  C   GLN d   1      47.097  -4.085  18.941  0.00  0.00     0.241 C 
ATOM     11  O   GLN d   1      46.328  -5.032  18.836  0.00  0.00    -0.271 OA
ATOM     12  H17 LYS d   1      48.956  -3.351  18.745  0.00  0.00     0.163 HD
BRANCH  10  13
ATOM     13  CA  GLN d   1      46.574  -2.695  19.329  0.00  0.00     0.090 C 
ATOM     14  H10 GLN d   1      47.440  -2.090  19.635  0.00  0.00     0.087 H 
BRANCH  13  15
ATOM     15  N   GLN d   1      45.896  -1.978  18.249  0.00  0.00    -0.346 N 
ATOM     16  C   ASN d   1      46.520  -1.329  17.268  0.00  0.00     0.249 C 
ATOM     17  O   ASN d   1      47.746  -1.289  17.143  0.00  0.00    -0.271 OA
ATOM     18  H9  GLN d   1      44.896  -1.975  18.247  0.00  0.00     0.163 HD
BRANCH  16  19
ATOM     19  CA  ASN d   1      45.598  -0.619  16.273  0.00  0.00     0.183 C 
ATOM     20  H4  ASN d   1      44.982  -1.381  15.772  0.00  0.00     0.099 H 
BRANCH  19  21
ATOM     21  N   ASN d   1      44.707   0.312  16.957  0.00  0.00    -0.066 N 
ATOM     22  H1  ASN d   1      44.112   0.765  16.281  0.00  0.00     0.275 HD
ATOM     23  H2  ASN d   1      45.254   1.006  17.442  0.00  0.00     0.275 HD
ATOM     24  H3  ASN d   1      44.139  -0.192  17.620  0.00  0.00     0.275 HD
ENDBRANCH  19  21
BRANCH  19  25
ATOM     25  CB  ASN d   1      46.416   0.116  15.208  0.00  0.00     0.044 C 
ATOM     26  H5  ASN d   1      47.344   0.485  15.670  0.00  0.00     0.051 H 
ATOM     27  H6  ASN d   1      45.827   0.968  14.838  0.00  0.00     0.051 H 
BRANCH  25  28
ATOM     28  CG  ASN d   1      46.779  -0.768  14.033  0.00  0.00     0.217 C 
ATOM     29  OD1 ASN d   1      46.107  -1.766  13.752  0.00  0.00    -0.274 OA
ATOM     30  ND2 ASN d   1      47.853  -0.405  13.334  0.00  0.00    -0.370 N 
ATOM     31  H7  ASN d   1      48.144  -0.948  12.546  0.00  0.00     0.159 HD
ATOM     32  H8  ASN d   1      48.368   0.411  13.597  0.00  0.00     0.159 HD
ENDBRANCH  25  28
ENDBRANCH  19  25
ENDBRANCH  16  19
ENDBRANCH  13  15
BRANCH  13  33
ATOM     33  CB  GLN d   1      45.622  -2.823  20.524  0.00  0.00    -0.030 C 
ATOM     34  H11 GLN d   1      45.558  -3.887  20.795  0.00  0.00     0.037 H 
ATOM     35  H12 GLN d   1      44.631  -2.465  20.209  0.00  0.00     0.037 H 
BRANCH  33  36
ATOM     36  CG  GLN d   1      46.028  -2.048  21.762  0.00  0.00     0.011 C 
ATOM     37  H13 GLN d   1      45.181  -2.030  22.463  0.00  0.00     0.047 H 
ATOM     38  H14 GLN d   1      46.283  -1.019  21.469  0.00  0.00     0.047 H 
BRANCH  36  39
ATOM     39  CD  GLN d   1      47.232  -2.673  22.461  0.00  0.00     0.215 C 
ATOM     40  OE1 GLN d   1      48.179  -1.984  22.831  0.00  0.00    -0.274 OA
ATOM     41  NE2 GLN d   1      47.205  -3.988  22.625  0.00  0.00    -0.370 N 
ATOM     42  H15 GLN d   1      47.967  -4.451  23.077  0.00  0.00     0.159 HD
ATOM     43  H16 GLN d   1      46.422  -4.517  22.297  0.00  0.00     0.159 HD
ENDBRANCH  36  39
ENDBRANCH  33  36
ENDBRANCH  13  33
ENDBRANCH  10  13
ENDBRANCH   7   9
BRANCH   7  44
ATOM     44  CB  LYS d   1      49.958  -5.188  17.112  0.00  0.00    -0.038 C 
ATOM     45  H19 LYS d   1      50.958  -4.919  17.483  0.00  0.00     0.036 H 
ATOM     46  H20 LYS d   1      49.536  -4.342  16.550  0.00  0.00     0.036 H 
BRANCH  44  47
ATOM     47  CG  LYS d   1      50.121  -6.355  16.142  0.00  0.00    -0.061 C 
ATOM     48  H21 LYS d   1      49.131  -6.667  15.777  0.00  0.00     0.033 H 
ATOM     49  H22 LYS d   1      50.602  -7.197  16.661  0.00  0.00     0.033 H 
BRANCH  47  50
ATOM     50  CD  LYS d   1      50.985  -5.929  14.960  0.00  0.00    -0.043 C 
ATOM     51  H23 LYS d   1      51.936  -5.529  15.342  0.00  0.00     0.035 H 
ATOM     52  H24 LYS d   1      50.456  -5.144  14.399  0.00  0.00     0.035 H 
BRANCH  50  53
ATOM     53  CE  LYS d   1      51.283  -7.087  14.020  0.00  0.00     0.080 C 
ATOM     54  H25 LYS d   1      51.907  -6.720  13.192  0.00  0.00     0.075 H 
ATOM     55  H26 LYS d   1      50.333  -7.472  13.620  0.00  0.00     0.075 H 
BRANCH  53  56
ATOM     56  NZ  LYS d   1      52.004  -8.203  14.709  0.00  0.00    -0.079 N 
ATOM     57  H27 LYS d   1      52.180  -8.946  14.051  0.00  0.00     0.274 HD
ATOM     58  H28 LYS d   1      51.438  -8.552  15.466  0.00  0.00     0.274 HD
ATOM     59  H29 LYS d   1      52.880  -7.863  15.074  0.00  0.00     0.274 HD
ENDBRANCH  53  56
ENDBRANCH  50  53
ENDBRANCH  47  50
ENDBRANCH  44  47
ENDBRANCH   7  44
ENDBRANCH   4   7
ENDBRANCH   1   3
BRANCH   1  60
ATOM     60  C   GLU d   1      52.315  -8.578  19.891  0.00  0.00     0.241 C 
ATOM     61  O   GLU d   1      52.084  -9.236  18.888  0.00  0.00    -0.271 OA
ATOM     62  N   TYR d   1      53.527  -8.502  20.430  0.00  0.00    -0.346 N 
ATOM     63  H36 TYR d   1      53.651  -7.934  21.243  0.00  0.00     0.163 HD
BRANCH  62  64
ATOM     64  CA  TYR d   1      54.689  -9.208  19.893  0.00  0.00     0.093 C 
ATOM     65  H37 TYR d   1      54.352  -9.836  19.055  0.00  0.00     0.088 H 
BRANCH  64  66
ATOM     66  C   TYR d   1      55.337 -10.105  20.943  0.00  0.00     0.241 C 
ATOM     67  O   TYR d   1      55.315  -9.783  22.129  0.00  0.00    -0.271 OA
ATOM     68  N   PHE d   1      55.874 -11.245  20.522  0.00  0.00    -0.346 N 
ATOM     69  H45 PHE d   1      55.771 -11.514  19.564  0.00  0.00     0.163 HD
BRANCH  68  70
ATOM     70  CA  PHE d   1      56.617 -12.117  21.444  0.00  0.00     0.093 C 
ATOM     71  H46 PHE d   1      56.655 -11.639  22.434  0.00  0.00     0.088 H 
BRANCH  70  72
ATOM     72  C   PHE d   1      58.054 -12.276  20.925  0.00  0.00     0.241 C 
ATOM     73  O   PHE d   1      58.258 -12.638  19.766  0.00  0.00    -0.271 OA
ATOM     74  N   PHE d   1      59.050 -11.998  21.766  0.00  0.00    -0.344 N 
ATOM     75  H54 PHE d   1      58.847 -11.771  22.718  0.00  0.00     0.163 HD
BRANCH  74  76
ATOM     76  CA  PHE d   1      60.445 -12.023  21.304  0.00  0.00     0.100 C 
ATOM     77  H55 PHE d   1      60.458 -12.494  20.310  0.00  0.00     0.090 H 
BRANCH  76  78
ATOM     78  C   PHE d   1      61.352 -12.850  22.224  0.00  0.00     0.197 C 
ATOM     79  O   PHE d   1      62.523 -13.127  21.907  0.00  0.00    -0.646 OA
ATOM     80  OXT PHE d   1      60.925 -13.263  23.300  0.00  0.00    -0.646 OA
ENDBRANCH  76  78
BRANCH  76  81
ATOM     81  CB  PHE d   1      60.998 -10.587  21.161  0.00  0.00    -0.013 C 
ATOM     82  H56 PHE d   1      62.070 -10.650  20.922  0.00  0.00     0.043 H 
ATOM     83  H57 PHE d   1      60.867 -10.067  22.121  0.00  0.00     0.043 H 
BRANCH  81  84
ATOM     84  CG  PHE d   1      60.315  -9.778  20.083  0.00  0.00    -0.056 A 
ATOM     85  CD1 PHE d   1      60.083 -10.324  18.823  0.00  0.00    -0.077 A 
ATOM     86  CE1 PHE d   1      59.447  -9.586  17.845  0.00  0.00    -0.082 A 
ATOM     87  H58 PHE d   1      60.404 -11.337  18.608  0.00  0.00     0.084 H 
ATOM     88  CZ  PHE d   1      59.024  -8.282  18.119  0.00  0.00    -0.083 A 
ATOM     89  H60 PHE d   1      59.276 -10.017  16.865  0.00  0.00     0.083 H 
ATOM     90  CE2 PHE d   1      59.248  -7.740  19.367  0.00  0.00    -0.082 A 
ATOM     91  H62 PHE d   1      58.523  -7.700  17.354  0.00  0.00     0.083 H 
ATOM     92  CD2 PHE d   1      59.884  -8.489  20.340  0.00  0.00    -0.077 A 
ATOM     93  H61 PHE d   1      58.926  -6.728  19.585  0.00  0.00     0.083 H 
ATOM     94  H59 PHE d   1      60.048  -8.059  21.321  0.00  0.00     0.084 H 
ENDBRANCH  81  84
ENDBRANCH  76  81
ENDBRANCH  74  76
ENDBRANCH  70  72
BRANCH  70  95
ATOM     95  CB  PHE d   1      55.895 -13.466  21.589  0.00  0.00    -0.014 C 
ATOM     96  H47 PHE d   1      56.445 -14.083  22.315  0.00  0.00     0.043 H 
ATOM     97  H48 PHE d   1      55.889 -13.969  20.610  0.00  0.00     0.043 H 
BRANCH  95  98
ATOM     98  CG  PHE d   1      54.468 -13.319  22.064  0.00  0.00    -0.056 A 
ATOM     99  CD1 PHE d   1      54.167 -13.267  23.422  0.00  0.00    -0.077 A 
ATOM    100  CE1 PHE d   1      52.857 -13.094  23.863  0.00  0.00    -0.082 A 
ATOM    101  H49 PHE d   1      54.966 -13.363  24.149  0.00  0.00     0.084 H 
ATOM    102  CZ  PHE d   1      51.832 -12.953  22.938  0.00  0.00    -0.083 A 
ATOM    103  H51 PHE d   1      52.639 -13.070  24.925  0.00  0.00     0.083 H 
ATOM    104  CE2 PHE d   1      52.122 -12.981  21.580  0.00  0.00    -0.082 A 
ATOM    105  H53 PHE d   1      50.810 -12.822  23.274  0.00  0.00     0.083 H 
ATOM    106  CD2 PHE d   1      53.439 -13.160  21.151  0.00  0.00    -0.077 A 
ATOM    107  H52 PHE d   1      51.326 -12.864  20.853  0.00  0.00     0.083 H 
ATOM    108  H50 PHE d   1      53.659 -13.175  20.090  0.00  0.00     0.084 H 
ENDBRANCH  95  98
ENDBRANCH  70  95
ENDBRANCH  68  70
ENDBRANCH  64  66
BRANCH  64 109
ATOM    109  CB  TYR d   1      55.736  -8.223  19.377  0.00  0.00    -0.014 C 
ATOM    110  H38 TYR d   1      56.575  -8.806  18.969  0.00  0.00     0.043 H 
ATOM    111  H39 TYR d   1      56.086  -7.625  20.232  0.00  0.00     0.043 H 
BRANCH 109 112
ATOM    112  CG  TYR d   1      55.271  -7.266  18.302  0.00  0.00    -0.056 A 
ATOM    113  CD1 TYR d   1      54.605  -6.089  18.623  0.00  0.00    -0.074 A 
ATOM    114  CE1 TYR d   1      54.211  -5.198  17.636  0.00  0.00    -0.051 A 
ATOM    115  H40 TYR d   1      54.390  -5.864  19.661  0.00  0.00     0.084 H 
ATOM    116  CZ  TYR d   1      54.485  -5.479  16.317  0.00  0.00     0.065 A 
ATOM    117  H42 TYR d   1      53.690  -4.285  17.902  0.00  0.00     0.087 H 
ATOM    118  CE2 TYR d   1      55.149  -6.637  15.977  0.00  0.00    -0.051 A 
ATOM    119  CD2 TYR d   1      55.544  -7.518  16.965  0.00  0.00    -0.074 A 
ATOM    120  H43 TYR d   1      55.361  -6.856  14.937  0.00  0.00     0.087 H 
ATOM    121  H41 TYR d   1      56.076  -8.422  16.691  0.00  0.00     0.084 H 
BRANCH 116 122
ATOM    122  OH  TYR d   1      54.097  -4.607  15.327  0.00  0.00    -0.361 OA
ATOM    123  H44 TYR d   1      53.506  -5.050  14.730  0.00  0.00     0.217 HD
ENDBRANCH 116 122
ENDBRANCH 109 112
ENDBRANCH  64 109
ENDBRANCH  62  64
ENDBRANCH   1  60
BRANCH   1 124
ATOM    124  CB  GLU d   1      50.516  -8.412  21.694  0.00  0.00    -0.029 C 
ATOM    125  H32 GLU d   1      49.785  -9.122  21.281  0.00  0.00     0.037 H 
ATOM    126  H33 GLU d   1      49.993  -7.657  22.299  0.00  0.00     0.037 H 
BRANCH 124 127
ATOM    127  CG  GLU d   1      51.490  -9.186  22.608  0.00  0.00     0.018 C 
ATOM    128  H34 GLU d   1      52.309  -8.507  22.887  0.00  0.00     0.049 H 
ATOM    129  H35 GLU d   1      51.895 -10.033  22.035  0.00  0.00     0.049 H 
BRANCH 127 130
ATOM    130  CD  GLU d   1      50.871  -9.737  23.896  0.00  0.00     0.172 C 
ATOM    131  OE1 GLU d   1      49.727 -10.264  23.886  0.00  0.00    -0.648 OA
ATOM    132  OE2 GLU d   1      51.565  -9.644  24.935  0.00  0.00    -0.648 OA
ENDBRANCH 127 130
ENDBRANCH 124 127
ENDBRANCH   1 124
TORSDOF 34
