REMARK WARNING: 32 MAX_TORS EXCEEDED!!!
REMARK  42 active torsions:
REMARK  status: ('A' for Active; 'I' for Inactive)
REMARK    1  A    between atoms: N_1  and  CA_2 
REMARK    2  A    between atoms: CA_2  and  C_3 
REMARK    3  A    between atoms: CA_2  and  CB_5 
REMARK       I    between atoms: C_3  and  N_9 
REMARK    4  A    between atoms: CB_5  and  CG_6 
REMARK       I    between atoms: CG_6  and  ND2_8 
REMARK    5  A    between atoms: N_9  and  CA_10 
REMARK    6  A    between atoms: CA_10  and  C_11 
REMARK    7  A    between atoms: CA_10  and  CB_13 
REMARK       I    between atoms: C_11  and  N_18 
REMARK    8  A    between atoms: CB_13  and  CG_14 
REMARK    9  A    between atoms: CG_14  and  CD_15 
REMARK   10  A    between atoms: CD_15  and  CE_16 
REMARK   11  A    between atoms: CE_16  and  NZ_17 
REMARK   12  A    between atoms: N_18  and  CA_19 
REMARK   13  A    between atoms: CA_19  and  C_20 
REMARK   14  A    between atoms: CA_19  and  CB_22 
REMARK       I    between atoms: C_20  and  N_26 
REMARK   15  A    between atoms: CB_22  and  CG_23 
REMARK   16  A    between atoms: N_26  and  CA_27 
REMARK   17  A    between atoms: CA_27  and  C_28 
REMARK   18  A    between atoms: CA_27  and  CB_30 
REMARK       I    between atoms: C_28  and  N_35 
REMARK   19  A    between atoms: CB_30  and  CG_31 
REMARK   20  A    between atoms: CG_31  and  CD_32 
REMARK   21  A    between atoms: CD_32  and  CE_33 
REMARK   22  A    between atoms: CE_33  and  NZ_34 
REMARK   23  A    between atoms: N_35  and  CA_36 
REMARK   24  A    between atoms: CA_36  and  C_37 
REMARK   25  A    between atoms: CA_36  and  CB_39 
REMARK       I    between atoms: C_37  and  N_44 
REMARK   26  A    between atoms: CB_39  and  CG_40 
REMARK   27  A    between atoms: CG_40  and  CD_41 
REMARK   28  A    between atoms: N_44  and  CA_45 
REMARK   29  A    between atoms: CA_45  and  C_46 
REMARK   30  A    between atoms: CA_45  and  CB_48 
REMARK       I    between atoms: C_46  and  N_56 
REMARK   31  A    between atoms: CB_48  and  CG_49 
REMARK   32  A    between atoms: CZ_54  and  OH_55 
REMARK   33  A    between atoms: N_56  and  CA_57 
REMARK   34  A    between atoms: CA_57  and  C_58 
REMARK   35  A    between atoms: CA_57  and  CB_60 
REMARK       I    between atoms: C_58  and  N_68 
REMARK   36  A    between atoms: CB_60  and  CG_61 
REMARK   37  A    between atoms: CZ_66  and  OH_67 
REMARK   38  A    between atoms: N_68  and  CA_69 
REMARK   39  A    between atoms: CA_69  and  C_70 
REMARK   40  A    between atoms: CA_69  and  CB_72 
REMARK   41  A    between atoms: CB_72  and  CG1_73 
REMARK   42  A    between atoms: CB_72  and  CG2_74 
ROOT
ATOM      1  C   LYS d   1       3.222   2.747 -19.546  0.00  0.00     0.241 C 
ATOM      2  O   LYS d   1       3.536   1.606 -19.889  0.00  0.00    -0.271 OA
ATOM      3  N   GLU d   1       3.150   3.131 -18.277  0.00  0.00    -0.346 N 
ATOM      4  H39 GLU d   1       2.950   4.090 -18.073  0.00  0.00     0.163 HD
ENDROOT
BRANCH   3   5
ATOM      5  CA  GLU d   1       3.351   2.207 -17.174  0.00  0.00     0.090 C 
ATOM      6  H40 GLU d   1       3.429   1.179 -17.558  0.00  0.00     0.087 H 
BRANCH   5   7
ATOM      7  C   GLU d   1       2.127   2.312 -16.251  0.00  0.00     0.241 C 
ATOM      8  O   GLU d   1       1.786   3.412 -15.821  0.00  0.00    -0.271 OA
ATOM      9  N   TYR d   1       1.440   1.200 -15.985  0.00  0.00    -0.346 N 
ATOM     10  H45 TYR d   1       1.697   0.345 -16.435  0.00  0.00     0.163 HD
BRANCH   9  11
ATOM     11  CA  TYR d   1       0.312   1.208 -15.042  0.00  0.00     0.093 C 
ATOM     12  H46 TYR d   1      -0.050   2.240 -14.924  0.00  0.00     0.088 H 
BRANCH  11  13
ATOM     13  C   TYR d   1       0.820   0.690 -13.703  0.00  0.00     0.241 C 
ATOM     14  O   TYR d   1       1.403  -0.376 -13.655  0.00  0.00    -0.271 OA
ATOM     15  N   TYR d   1       0.643   1.430 -12.617  0.00  0.00    -0.346 N 
ATOM     16  H54 TYR d   1       0.187   2.318 -12.679  0.00  0.00     0.163 HD
BRANCH  15  17
ATOM     17  CA  TYR d   1       1.121   0.934 -11.328  0.00  0.00     0.093 C 
ATOM     18  H55 TYR d   1       1.814   0.098 -11.504  0.00  0.00     0.088 H 
BRANCH  17  19
ATOM     19  C   TYR d   1      -0.070   0.430 -10.542  0.00  0.00     0.241 C 
ATOM     20  O   TYR d   1      -0.929   1.220 -10.142  0.00  0.00    -0.271 OA
ATOM     21  N   VAL d   1      -0.146  -0.882 -10.328  0.00  0.00    -0.344 N 
ATOM     22  H63 VAL d   1       0.627  -1.474 -10.558  0.00  0.00     0.163 HD
BRANCH  21  23
ATOM     23  CA  VAL d   1      -1.361  -1.454  -9.756  0.00  0.00     0.099 C 
ATOM     24  H64 VAL d   1      -2.021  -0.616  -9.489  0.00  0.00     0.090 H 
BRANCH  23  25
ATOM     25  C   VAL d   1      -1.113  -2.267  -8.480  0.00  0.00     0.197 C 
ATOM     26  O   VAL d   1      -2.089  -2.675  -7.842  0.00  0.00    -0.646 OA
ATOM     27  OXT VAL d   1       0.020  -2.510  -8.033  0.00  0.00    -0.646 OA
ENDBRANCH  23  25
BRANCH  23  28
ATOM     28  CB  VAL d   1      -2.099  -2.330 -10.797  0.00  0.00    -0.032 C 
ATOM     29  H65 VAL d   1      -2.990  -2.763 -10.319  0.00  0.00     0.042 H 
BRANCH  28  30
ATOM     30  CG1 VAL d   1      -2.544  -1.476 -11.980  0.00  0.00    -0.071 C 
ATOM     31  H66 VAL d   1      -3.067  -2.108 -12.713  0.00  0.00     0.028 H 
ATOM     32  H67 VAL d   1      -1.663  -1.018 -12.454  0.00  0.00     0.028 H 
ATOM     33  H68 VAL d   1      -3.223  -0.686 -11.627  0.00  0.00     0.028 H 
ENDBRANCH  28  30
BRANCH  28  34
ATOM     34  CG2 VAL d   1      -1.215  -3.459 -11.280  0.00  0.00    -0.071 C 
ATOM     35  H69 VAL d   1      -0.898  -4.070 -10.422  0.00  0.00     0.028 H 
ATOM     36  H70 VAL d   1      -0.328  -3.042 -11.780  0.00  0.00     0.028 H 
ATOM     37  H71 VAL d   1      -1.775  -4.086 -11.989  0.00  0.00     0.028 H 
ENDBRANCH  28  34
ENDBRANCH  23  28
ENDBRANCH  21  23
ENDBRANCH  17  19
BRANCH  17  38
ATOM     38  CB  TYR d   1       1.866   2.023 -10.549  0.00  0.00    -0.014 C 
ATOM     39  H56 TYR d   1       2.039   1.659  -9.525  0.00  0.00     0.043 H 
ATOM     40  H57 TYR d   1       1.231   2.921 -10.517  0.00  0.00     0.043 H 
BRANCH  38  41
ATOM     41  CG  TYR d   1       3.207   2.408 -11.152  0.00  0.00    -0.056 A 
ATOM     42  CD1 TYR d   1       3.300   3.408 -12.125  0.00  0.00    -0.074 A 
ATOM     43  CE1 TYR d   1       4.535   3.761 -12.681  0.00  0.00    -0.051 A 
ATOM     44  H58 TYR d   1       2.402   3.918 -12.454  0.00  0.00     0.084 H 
ATOM     45  CZ  TYR d   1       5.691   3.124 -12.264  0.00  0.00     0.065 A 
ATOM     46  H60 TYR d   1       4.586   4.534 -13.439  0.00  0.00     0.087 H 
ATOM     47  CE2 TYR d   1       5.624   2.129 -11.297  0.00  0.00    -0.051 A 
ATOM     48  CD2 TYR d   1       4.380   1.772 -10.749  0.00  0.00    -0.074 A 
ATOM     49  H61 TYR d   1       6.528   1.630 -10.966  0.00  0.00     0.087 H 
ATOM     50  H59 TYR d   1       4.332   0.989 -10.001  0.00  0.00     0.084 H 
BRANCH  45  51
ATOM     51  OH  TYR d   1       6.916   3.478 -12.822  0.00  0.00    -0.361 OA
ATOM     52  H62 TYR d   1       6.784   4.168 -13.461  0.00  0.00     0.217 HD
ENDBRANCH  45  51
ENDBRANCH  38  41
ENDBRANCH  17  38
ENDBRANCH  15  17
ENDBRANCH  11  13
BRANCH  11  53
ATOM     53  CB  TYR d   1      -0.850   0.332 -15.529  0.00  0.00    -0.014 C 
ATOM     54  H47 TYR d   1      -1.565   0.236 -14.699  0.00  0.00     0.043 H 
ATOM     55  H48 TYR d   1      -0.440  -0.658 -15.775  0.00  0.00     0.043 H 
BRANCH  53  56
ATOM     56  CG  TYR d   1      -1.616   0.825 -16.740  0.00  0.00    -0.056 A 
ATOM     57  CD1 TYR d   1      -1.200   0.501 -18.024  0.00  0.00    -0.074 A 
ATOM     58  CE1 TYR d   1      -1.890   0.939 -19.136  0.00  0.00    -0.051 A 
ATOM     59  H49 TYR d   1      -0.314  -0.109 -18.156  0.00  0.00     0.084 H 
ATOM     60  CZ  TYR d   1      -3.027   1.689 -18.983  0.00  0.00     0.065 A 
ATOM     61  H51 TYR d   1      -1.533   0.690 -20.129  0.00  0.00     0.087 H 
ATOM     62  CE2 TYR d   1      -3.479   2.026 -17.724  0.00  0.00    -0.051 A 
ATOM     63  CD2 TYR d   1      -2.765   1.592 -16.601  0.00  0.00    -0.074 A 
ATOM     64  H52 TYR d   1      -4.378   2.621 -17.606  0.00  0.00     0.087 H 
ATOM     65  H50 TYR d   1      -3.114   1.858 -15.610  0.00  0.00     0.084 H 
BRANCH  60  66
ATOM     66  OH  TYR d   1      -3.690   2.110 -20.111  0.00  0.00    -0.361 OA
ATOM     67  H53 TYR d   1      -3.239   1.786 -20.882  0.00  0.00     0.217 HD
ENDBRANCH  60  66
ENDBRANCH  53  56
ENDBRANCH  11  53
ENDBRANCH   9  11
ENDBRANCH   5   7
BRANCH   5  68
ATOM     68  CB  GLU d   1       4.646   2.564 -16.445  0.00  0.00    -0.029 C 
ATOM     69  H41 GLU d   1       4.500   3.547 -15.974  0.00  0.00     0.037 H 
ATOM     70  H42 GLU d   1       5.442   2.634 -17.201  0.00  0.00     0.037 H 
BRANCH  68  71
ATOM     71  CG  GLU d   1       5.119   1.617 -15.377  0.00  0.00     0.018 C 
ATOM     72  H43 GLU d   1       4.253   1.298 -14.778  0.00  0.00     0.049 H 
ATOM     73  H44 GLU d   1       5.838   2.143 -14.731  0.00  0.00     0.049 H 
BRANCH  71  74
ATOM     74  CD  GLU d   1       5.785   0.400 -15.948  0.00  0.00     0.172 C 
ATOM     75  OE1 GLU d   1       6.917   0.088 -15.562  0.00  0.00    -0.648 OA
ATOM     76  OE2 GLU d   1       5.153  -0.279 -16.765  0.00  0.00    -0.648 OA
ENDBRANCH  71  74
ENDBRANCH  68  71
ENDBRANCH   5  68
ENDBRANCH   3   5
BRANCH   1  77
ATOM     77  CA  LYS d   1       2.886   3.820 -20.578  0.00  0.00     0.089 C 
ATOM     78  H27 LYS d   1       3.175   4.797 -20.165  0.00  0.00     0.087 H 
BRANCH  77  79
ATOM     79  N   LYS d   1       3.648   3.607 -21.813  0.00  0.00    -0.346 N 
ATOM     80  C   ASP d   1       3.820   4.598 -22.681  0.00  0.00     0.241 C 
ATOM     81  O   ASP d   1       3.279   5.685 -22.546  0.00  0.00    -0.271 OA
ATOM     82  H26 LYS d   1       4.042   2.708 -22.003  0.00  0.00     0.163 HD
BRANCH  80  83
ATOM     83  CA  ASP d   1       4.767   4.361 -23.858  0.00  0.00     0.098 C 
ATOM     84  H23 ASP d   1       5.478   5.200 -23.869  0.00  0.00     0.088 H 
BRANCH  83  85
ATOM     85  N   ASP d   1       5.561   3.138 -23.756  0.00  0.00    -0.346 N 
ATOM     86  C   LYS d   1       6.868   3.279 -23.576  0.00  0.00     0.241 C 
ATOM     87  O   LYS d   1       7.387   4.393 -23.581  0.00  0.00    -0.271 OA
ATOM     88  H22 ASP d   1       5.138   2.234 -23.819  0.00  0.00     0.163 HD
BRANCH  86  89
ATOM     89  CA  LYS d   1       7.734   2.020 -23.396  0.00  0.00     0.089 C 
ATOM     90  H10 LYS d   1       7.122   1.137 -23.634  0.00  0.00     0.087 H 
BRANCH  89  91
ATOM     91  N   LYS d   1       8.864   2.073 -24.306  0.00  0.00    -0.346 N 
ATOM     92  C   ASN d   1       8.790   1.570 -25.529  0.00  0.00     0.249 C 
ATOM     93  O   ASN d   1       7.775   1.040 -25.974  0.00  0.00    -0.271 OA
ATOM     94  H9  LYS d   1       9.717   2.498 -24.003  0.00  0.00     0.163 HD
BRANCH  92  95
ATOM     95  CA  ASN d   1      10.037   1.696 -26.383  0.00  0.00     0.183 C 
ATOM     96  H4  ASN d   1      10.586   2.594 -26.063  0.00  0.00     0.099 H 
BRANCH  95  97
ATOM     97  N   ASN d   1      10.934   0.547 -26.236  0.00  0.00    -0.066 N 
ATOM     98  H1  ASN d   1      11.745   0.677 -26.821  0.00  0.00     0.275 HD
ATOM     99  H2  ASN d   1      10.451  -0.294 -26.513  0.00  0.00     0.275 HD
ATOM    100  H3  ASN d   1      11.223   0.467 -25.274  0.00  0.00     0.275 HD
ENDBRANCH  95  97
BRANCH  95 101
ATOM    101  CB  ASN d   1       9.609   1.880 -27.839  0.00  0.00     0.044 C 
ATOM    102  H5  ASN d   1       8.859   2.683 -27.886  0.00  0.00     0.051 H 
ATOM    103  H6  ASN d   1       9.162   0.940 -28.196  0.00  0.00     0.051 H 
BRANCH 101 104
ATOM    104  CG  ASN d   1      10.754   2.239 -28.739  0.00  0.00     0.217 C 
ATOM    105  OD1 ASN d   1      10.943   1.645 -29.807  0.00  0.00    -0.274 OA
ATOM    106  ND2 ASN d   1      11.533   3.221 -28.320  0.00  0.00    -0.370 N 
ATOM    107  H7  ASN d   1      12.315   3.510 -28.873  0.00  0.00     0.159 HD
ATOM    108  H8  ASN d   1      11.341   3.675 -27.450  0.00  0.00     0.159 HD
ENDBRANCH 101 104
ENDBRANCH  95 101
ENDBRANCH  92  95
ENDBRANCH  89  91
BRANCH  89 109
ATOM    109  CB  LYS d   1       8.251   1.885 -21.961  0.00  0.00    -0.038 C 
ATOM    110  H11 LYS d   1       8.631   2.867 -21.643  0.00  0.00     0.036 H 
ATOM    111  H12 LYS d   1       9.075   1.156 -21.963  0.00  0.00     0.036 H 
BRANCH 109 112
ATOM    112  CG  LYS d   1       7.239   1.435 -20.959  0.00  0.00    -0.061 C 
ATOM    113  H13 LYS d   1       6.996   0.378 -21.140  0.00  0.00     0.033 H 
ATOM    114  H14 LYS d   1       6.329   2.044 -21.065  0.00  0.00     0.033 H 
BRANCH 112 115
ATOM    115  CD  LYS d   1       7.784   1.590 -19.546  0.00  0.00    -0.043 C 
ATOM    116  H15 LYS d   1       6.991   1.323 -18.832  0.00  0.00     0.035 H 
ATOM    117  H16 LYS d   1       8.075   2.640 -19.395  0.00  0.00     0.035 H 
BRANCH 115 118
ATOM    118  CE  LYS d   1       8.985   0.714 -19.282  0.00  0.00     0.080 C 
ATOM    119  H17 LYS d   1       9.795   0.961 -19.984  0.00  0.00     0.075 H 
ATOM    120  H18 LYS d   1       8.713  -0.346 -19.395  0.00  0.00     0.075 H 
BRANCH 118 121
ATOM    121  NZ  LYS d   1       9.420   0.987 -17.877  0.00  0.00    -0.079 N 
ATOM    122  H19 LYS d   1      10.224   0.420 -17.658  0.00  0.00     0.274 HD
ATOM    123  H20 LYS d   1       8.669   0.764 -17.243  0.00  0.00     0.274 HD
ATOM    124  H21 LYS d   1       9.661   1.961 -17.783  0.00  0.00     0.274 HD
ENDBRANCH 118 121
ENDBRANCH 115 118
ENDBRANCH 112 115
ENDBRANCH 109 112
ENDBRANCH  89 109
ENDBRANCH  86  89
ENDBRANCH  83  85
BRANCH  83 125
ATOM    125  CB  ASP d   1       3.992   4.397 -25.171  0.00  0.00     0.043 C 
ATOM    126  H24 ASP d   1       4.682   4.682 -25.979  0.00  0.00     0.052 H 
ATOM    127  H25 ASP d   1       3.194   5.149 -25.088  0.00  0.00     0.052 H 
BRANCH 125 128
ATOM    128  CG  ASP d   1       3.375   3.082 -25.512  0.00  0.00     0.175 C 
ATOM    129  OD1 ASP d   1       2.739   2.487 -24.616  0.00  0.00    -0.648 OA
ATOM    130  OD2 ASP d   1       3.539   2.637 -26.677  0.00  0.00    -0.648 OA
ENDBRANCH 125 128
ENDBRANCH  83 125
ENDBRANCH  80  83
ENDBRANCH  77  79
BRANCH  77 131
ATOM    131  CB  LYS d   1       1.364   3.846 -20.850  0.00  0.00    -0.038 C 
ATOM    132  H28 LYS d   1       1.076   2.876 -21.281  0.00  0.00     0.036 H 
ATOM    133  H29 LYS d   1       1.159   4.646 -21.577  0.00  0.00     0.036 H 
BRANCH 131 134
ATOM    134  CG  LYS d   1       0.497   4.094 -19.607  0.00  0.00    -0.061 C 
ATOM    135  H30 LYS d   1       0.871   4.988 -19.087  0.00  0.00     0.033 H 
ATOM    136  H31 LYS d   1       0.575   3.222 -18.941  0.00  0.00     0.033 H 
BRANCH 134 137
ATOM    137  CD  LYS d   1      -0.973   4.311 -19.963  0.00  0.00    -0.043 C 
ATOM    138  H32 LYS d   1      -1.591   4.135 -19.070  0.00  0.00     0.035 H 
ATOM    139  H33 LYS d   1      -1.262   3.604 -20.754  0.00  0.00     0.035 H 
BRANCH 137 140
ATOM    140  CE  LYS d   1      -1.198   5.734 -20.456  0.00  0.00     0.080 C 
ATOM    141  H34 LYS d   1      -0.468   5.959 -21.248  0.00  0.00     0.075 H 
ATOM    142  H35 LYS d   1      -1.056   6.431 -19.617  0.00  0.00     0.075 H 
BRANCH 140 143
ATOM    143  NZ  LYS d   1      -2.577   5.903 -21.002  0.00  0.00    -0.079 N 
ATOM    144  H36 LYS d   1      -2.698   6.852 -21.320  0.00  0.00     0.274 HD
ATOM    145  H37 LYS d   1      -3.251   5.702 -20.280  0.00  0.00     0.274 HD
ATOM    146  H38 LYS d   1      -2.713   5.269 -21.774  0.00  0.00     0.274 HD
ENDBRANCH 140 143
ENDBRANCH 137 140
ENDBRANCH 134 137
ENDBRANCH 131 134
ENDBRANCH  77 131
ENDBRANCH   1  77
TORSDOF 42
