REMARK  8 active torsions:
REMARK  status: ('A' for Active; 'I' for Inactive)
REMARK    1  A    between atoms: CAB_7  and  NAH_8 
REMARK    2  A    between atoms: NAH_8  and  CAI_9 
REMARK    3  A    between atoms: CAI_9  and  NAJ_11 
REMARK    4  A    between atoms: CAN_13  and  OAS_14 
REMARK    5  A    between atoms: CAM_15  and  OAR_16 
REMARK    6  A    between atoms: CAL_17  and  OAQ_18 
REMARK    7  A    between atoms: CAK_19  and  CAP_20 
REMARK    8  A    between atoms: CAP_20  and  OAT_21 
ROOT
ATOM      1  NAJ 2OZ d   1      29.031 -16.225   3.213  0.00  0.00    -0.346 N 
ATOM      2  CAO 2OZ d   1      30.120 -16.431   2.314  0.00  0.00     0.024 C 
ATOM      3  CAN 2OZ d   1      31.299 -15.511   2.407  0.00  0.00     0.078 C 
ATOM      4  CAM 2OZ d   1      31.182 -14.348   3.346  0.00  0.00     0.088 C 
ATOM      5  CAL 2OZ d   1      30.297 -14.542   4.527  0.00  0.00     0.084 C 
ATOM      6  CAK 2OZ d   1      29.004 -15.153   4.145  0.00  0.00     0.061 C 
ATOM      7  H   2OZ d   1      29.720 -16.346   1.293  0.00  0.00     0.068 H 
ATOM      8  H   2OZ d   1      30.490 -17.453   2.479  0.00  0.00     0.068 H 
ATOM      9  H   2OZ d   1      31.449 -15.088   1.403  0.00  0.00     0.089 H 
ATOM     10  H   2OZ d   1      32.192 -14.171   3.743  0.00  0.00     0.091 H 
ATOM     11  H   2OZ d   1      30.802 -15.200   5.250  0.00  0.00     0.090 H 
ATOM     12  H   2OZ d   1      28.620 -15.608   5.070  0.00  0.00     0.080 H 
ENDROOT
BRANCH   1  13
ATOM     13  CAI 2OZ d   1      27.968 -17.183   3.142  0.00  0.00     0.175 C 
ATOM     14  SAU 2OZ d   1      26.640 -17.093   4.139  0.00  0.00    -0.041 SA
BRANCH  13  15
ATOM     15  NAH 2OZ d   1      28.105 -18.235   2.177  0.00  0.00    -0.333 N 
ATOM     16  H   2OZ d   1      28.924 -18.236   1.603  0.00  0.00     0.168 HD
BRANCH  15  17
ATOM     17  CAB 2OZ d   1      27.149 -19.286   1.978  0.00  0.00     0.034 A 
ATOM     18  CAA 2OZ d   1      27.340 -20.580   2.697  0.00  0.00    -0.054 A 
ATOM     19  CAF 2OZ d   1      26.458 -21.603   2.521  0.00  0.00    -0.044 A 
ATOM     20  H   2OZ d   1      28.186 -20.706   3.363  0.00  0.00     0.087 H 
ATOM     21  CAE 2OZ d   1      25.298 -21.433   1.601  0.00  0.00     0.116 A 
ATOM     22  H   2OZ d   1      26.600 -22.539   3.049  0.00  0.00     0.088 H 
ATOM     23  FAG 2OZ d   1      24.436 -22.429   1.427  0.00  0.00    -0.206 F 
ATOM     24  CAD 2OZ d   1      25.124 -20.253   0.937  0.00  0.00    -0.044 A 
ATOM     25  CAC 2OZ d   1      26.092 -19.136   1.132  0.00  0.00    -0.054 A 
ATOM     26  H   2OZ d   1      24.281 -20.128   0.267  0.00  0.00     0.088 H 
ATOM     27  H   2OZ d   1      25.954 -18.202   0.599  0.00  0.00     0.087 H 
ENDBRANCH  15  17
ENDBRANCH  13  15
ENDBRANCH   1  13
BRANCH   6  28
ATOM     28  CAP 2OZ d   1      28.036 -14.085   3.786  0.00  0.00     0.038 C 
ATOM     29  H   2OZ d   1      27.029 -14.491   3.965  0.00  0.00     0.077 H 
ATOM     30  H   2OZ d   1      28.164 -13.884   2.712  0.00  0.00     0.077 H 
BRANCH  28  31
ATOM     31  OAT 2OZ d   1      28.100 -12.870   4.433  0.00  0.00    -0.399 OA
ATOM     32  H   2OZ d   1      28.952 -12.477   4.282  0.00  0.00     0.209 HD
ENDBRANCH  28  31
ENDBRANCH   6  28
BRANCH   3  33
ATOM     33  OAS 2OZ d   1      32.412 -16.252   2.732  0.00  0.00    -0.391 OA
ATOM     34  H   2OZ d   1      33.166 -15.678   2.794  0.00  0.00     0.210 HD
ENDBRANCH   3  33
BRANCH   5  35
ATOM     35  OAQ 2OZ d   1      30.069 -13.314   5.104  0.00  0.00    -0.391 OA
ATOM     36  H   2OZ d   1      29.649 -12.742   4.473  0.00  0.00     0.210 HD
ENDBRANCH   5  35
BRANCH   4  37
ATOM     37  OAR 2OZ d   1      30.803 -13.218   2.660  0.00  0.00    -0.390 OA
ATOM     38  H   2OZ d   1      30.733 -12.490   3.266  0.00  0.00     0.210 HD
ENDBRANCH   4  37
TORSDOF 8
