REMARK  20 active torsions:
REMARK  status: ('A' for Active; 'I' for Inactive)
REMARK    1  A    between atoms: CA_2  and  C_3 
REMARK       I    between atoms: C_3  and  N_8 
REMARK    2  A    between atoms: N_8  and  CA_9 
REMARK    3  A    between atoms: CA_9  and  C_10 
REMARK    4  A    between atoms: CA_9  and  CB_12 
REMARK       I    between atoms: C_10  and  N_16 
REMARK    5  A    between atoms: CB_12  and  CG_13 
REMARK    6  A    between atoms: N_16  and  CA_17 
REMARK    7  A    between atoms: CA_17  and  C_18 
REMARK    8  A    between atoms: CA_17  and  CB_20 
REMARK       I    between atoms: C_18  and  N_28 
REMARK    9  A    between atoms: CB_20  and  CG_21 
REMARK   10  A    between atoms: CZ_26  and  OH_27 
REMARK   11  A    between atoms: N_28  and  CA_29 
REMARK   12  A    between atoms: CA_29  and  C_30 
REMARK   13  A    between atoms: CA_29  and  CB_32 
REMARK       I    between atoms: C_30  and  N_39 
REMARK   14  A    between atoms: CB_32  and  CG_33 
REMARK   15  A    between atoms: N_39  and  CA_40 
REMARK   16  A    between atoms: CA_40  and  C_41 
REMARK   17  A    between atoms: CA_40  and  CB_43 
REMARK   18  A    between atoms: CB_43  and  CG_44 
REMARK   19  A    between atoms: CG_44  and  CD1_45 
REMARK   20  A    between atoms: CG_44  and  CD2_46 
ROOT
ATOM      1  CA  TYR d   1      14.700   6.763  13.406  0.00  0.00     0.093 C 
ATOM      2  H   TYR d   1      14.971   7.776  13.073  0.00  0.00     0.088 H 
ENDROOT
BRANCH   1   3
ATOM      3  N   TYR d   1      15.948   6.073  13.733  0.00  0.00    -0.346 N 
ATOM      4  C   ASP d   1      17.024   6.765  14.098  0.00  0.00     0.241 C 
ATOM      5  O   ASP d   1      17.010   7.991  14.203  0.00  0.00    -0.271 OA
ATOM      6  H   TYR d   1      15.992   5.075  13.682  0.00  0.00     0.163 HD
BRANCH   4   7
ATOM      7  CA  ASP d   1      18.306   5.986  14.411  0.00  0.00     0.098 C 
ATOM      8  H   ASP d   1      18.244   5.681  15.466  0.00  0.00     0.088 H 
BRANCH   7   9
ATOM      9  N   ASP d   1      18.512   4.764  13.634  0.00  0.00    -0.345 N 
ATOM     10  C   PRO d   1      18.672   3.585  14.232  0.00  0.00     0.249 C 
ATOM     11  O   PRO d   1      18.546   3.421  15.447  0.00  0.00    -0.271 OA
ATOM     12  H   ASP d   1      18.533   4.815  12.636  0.00  0.00     0.163 HD
BRANCH  10  13
ATOM     13  CA  PRO d   1      19.008   2.387  13.347  0.00  0.00     0.178 C 
ATOM     14  N   PRO d   1      18.927   2.699  11.915  0.00  0.00    -0.062 N 
ATOM     15  CD  PRO d   1      20.244   2.628  11.259  0.00  0.00     0.083 C 
ATOM     16  H   PRO d   1      18.559   3.631  11.805  0.00  0.00     0.278 HD
ATOM     17  H   PRO d   1      18.307   2.038  11.473  0.00  0.00     0.278 HD
ATOM     18  CG  PRO d   1      21.198   2.663  12.415  0.00  0.00    -0.040 C 
ATOM     19  H   PRO d   1      20.400   3.488  10.591  0.00  0.00     0.075 H 
ATOM     20  H   PRO d   1      20.351   1.695  10.686  0.00  0.00     0.075 H 
ATOM     21  CB  PRO d   1      20.478   1.991  13.535  0.00  0.00    -0.028 C 
ATOM     22  H   PRO d   1      22.122   2.120  12.169  0.00  0.00     0.035 H 
ATOM     23  H   PRO d   1      21.443   3.702  12.682  0.00  0.00     0.035 H 
ATOM     24  H   PRO d   1      20.597   0.899  13.473  0.00  0.00     0.036 H 
ATOM     25  H   PRO d   1      20.854   2.346  14.506  0.00  0.00     0.036 H 
ATOM     26  H   PRO d   1      18.337   1.552  13.599  0.00  0.00     0.099 H 
ENDBRANCH  10  13
ENDBRANCH   7   9
BRANCH   7  27
ATOM     27  CB  ASP d   1      19.511   6.921  14.259  0.00  0.00     0.043 C 
ATOM     28  H   ASP d   1      19.278   7.878  14.748  0.00  0.00     0.052 H 
ATOM     29  H   ASP d   1      19.692   7.091  13.187  0.00  0.00     0.052 H 
BRANCH  27  30
ATOM     30  CG  ASP d   1      20.773   6.353  14.881  0.00  0.00     0.175 C 
ATOM     31  OD1 ASP d   1      20.662   5.474  15.762  0.00  0.00    -0.648 OA
ATOM     32  OD2 ASP d   1      21.876   6.791  14.490  0.00  0.00    -0.648 OA
ENDBRANCH  27  30
ENDBRANCH   7  27
ENDBRANCH   4   7
ENDBRANCH   1   3
BRANCH   1  33
ATOM     33  C   TYR d   1      13.752   6.916  14.592  0.00  0.00     0.241 C 
ATOM     34  O   TYR d   1      12.723   7.582  14.484  0.00  0.00    -0.271 OA
ATOM     35  N   PHE d   1      14.100   6.317  15.724  0.00  0.00    -0.346 N 
ATOM     36  H   PHE d   1      14.998   5.884  15.800  0.00  0.00     0.163 HD
BRANCH  35  37
ATOM     37  CA  PHE d   1      13.182   6.285  16.858  0.00  0.00     0.093 C 
ATOM     38  H   PHE d   1      12.250   6.774  16.539  0.00  0.00     0.088 H 
BRANCH  37  39
ATOM     39  C   PHE d   1      13.693   7.044  18.077  0.00  0.00     0.241 C 
ATOM     40  O   PHE d   1      13.448   6.645  19.215  0.00  0.00    -0.271 OA
ATOM     41  N   LEU d   1      14.390   8.146  17.828  0.00  0.00    -0.345 N 
ATOM     42  H   LEU d   1      14.562   8.408  16.878  0.00  0.00     0.163 HD
BRANCH  41  43
ATOM     43  CA  LEU d   1      14.912   8.985  18.898  0.00  0.00     0.096 C 
ATOM     44  H   LEU d   1      15.073   8.356  19.786  0.00  0.00     0.089 H 
BRANCH  43  45
ATOM     45  C   LEU d   1      13.922  10.087  19.262  0.00  0.00     0.196 C 
ATOM     46  O   LEU d   1      13.003  10.393  18.501  0.00  0.00    -0.646 OA
ATOM     47  OXT LEU d   1      14.018  10.697  20.329  0.00  0.00    -0.646 OA
ENDBRANCH  43  45
BRANCH  43  48
ATOM     48  CB  LEU d   1      16.252   9.594  18.484  0.00  0.00    -0.034 C 
ATOM     49  H   LEU d   1      16.631  10.187  19.329  0.00  0.00     0.037 H 
ATOM     50  H   LEU d   1      16.073  10.255  17.623  0.00  0.00     0.037 H 
BRANCH  48  51
ATOM     51  CG  LEU d   1      17.335   8.588  18.089  0.00  0.00    -0.059 C 
ATOM     52  H   LEU d   1      16.947   7.968  17.268  0.00  0.00     0.038 H 
BRANCH  51  53
ATOM     53  CD1 LEU d   1      18.580   9.306  17.594  0.00  0.00    -0.073 C 
ATOM     54  H   LEU d   1      19.344   8.565  17.316  0.00  0.00     0.028 H 
ATOM     55  H   LEU d   1      18.971   9.954  18.392  0.00  0.00     0.028 H 
ATOM     56  H   LEU d   1      18.326   9.918  16.716  0.00  0.00     0.028 H 
ENDBRANCH  51  53
BRANCH  51  57
ATOM     57  CD2 LEU d   1      17.667   7.675  19.259  0.00  0.00    -0.073 C 
ATOM     58  H   LEU d   1      16.752   7.168  19.599  0.00  0.00     0.028 H 
ATOM     59  H   LEU d   1      18.083   8.272  20.084  0.00  0.00     0.028 H 
ATOM     60  H   LEU d   1      18.406   6.925  18.941  0.00  0.00     0.028 H 
ENDBRANCH  51  57
ENDBRANCH  48  51
ENDBRANCH  43  48
ENDBRANCH  41  43
ENDBRANCH  37  39
BRANCH  37  61
ATOM     61  CB  PHE d   1      12.852   4.838  17.220  0.00  0.00    -0.014 C 
ATOM     62  H   PHE d   1      12.159   4.841  18.075  0.00  0.00     0.043 H 
ATOM     63  H   PHE d   1      13.784   4.328  17.505  0.00  0.00     0.043 H 
BRANCH  61  64
ATOM     64  CG  PHE d   1      12.219   4.077  16.099  0.00  0.00    -0.056 A 
ATOM     65  CD1 PHE d   1      10.845   4.074  15.938  0.00  0.00    -0.077 A 
ATOM     66  CE1 PHE d   1      10.259   3.390  14.898  0.00  0.00    -0.082 A 
ATOM     67  H   PHE d   1      10.223   4.617  16.640  0.00  0.00     0.084 H 
ATOM     68  CZ  PHE d   1      11.045   2.705  14.003  0.00  0.00    -0.083 A 
ATOM     69  H   PHE d   1       9.181   3.392  14.785  0.00  0.00     0.083 H 
ATOM     70  CE2 PHE d   1      12.416   2.697  14.154  0.00  0.00    -0.082 A 
ATOM     71  H   PHE d   1      10.588   2.171  13.178  0.00  0.00     0.083 H 
ATOM     72  CD2 PHE d   1      12.998   3.385  15.189  0.00  0.00    -0.077 A 
ATOM     73  H   PHE d   1      13.034   2.147  13.454  0.00  0.00     0.083 H 
ATOM     74  H   PHE d   1      14.077   3.386  15.294  0.00  0.00     0.084 H 
ENDBRANCH  61  64
ENDBRANCH  37  61
ENDBRANCH  35  37
ENDBRANCH   1  33
BRANCH   1  75
ATOM     75  CB  TYR d   1      13.973   6.071  12.249  0.00  0.00    -0.014 C 
ATOM     76  H   TYR d   1      12.993   6.553  12.117  0.00  0.00     0.043 H 
ATOM     77  H   TYR d   1      13.829   5.013  12.512  0.00  0.00     0.043 H 
BRANCH  75  78
ATOM     78  CG  TYR d   1      14.717   6.139  10.940  0.00  0.00    -0.056 A 
ATOM     79  CD1 TYR d   1      14.884   7.348  10.275  0.00  0.00    -0.074 A 
ATOM     80  CE1 TYR d   1      15.568   7.412   9.072  0.00  0.00    -0.051 A 
ATOM     81  H   TYR d   1      14.473   8.255  10.704  0.00  0.00     0.084 H 
ATOM     82  CZ  TYR d   1      16.089   6.260   8.523  0.00  0.00     0.065 A 
ATOM     83  H   TYR d   1      15.693   8.362   8.566  0.00  0.00     0.087 H 
ATOM     84  CE2 TYR d   1      15.932   5.049   9.163  0.00  0.00    -0.051 A 
ATOM     85  CD2 TYR d   1      15.249   4.994  10.363  0.00  0.00    -0.074 A 
ATOM     86  H   TYR d   1      16.342   4.145   8.727  0.00  0.00     0.087 H 
ATOM     87  H   TYR d   1      15.127   4.040  10.863  0.00  0.00     0.084 H 
BRANCH  82  88
ATOM     88  OH  TYR d   1      16.768   6.312   7.327  0.00  0.00    -0.361 OA
ATOM     89  H   TYR d   1      16.325   5.765   6.689  0.00  0.00     0.217 HD
ENDBRANCH  82  88
ENDBRANCH  75  78
ENDBRANCH   1  75
TORSDOF 20
