REMARK  8 active torsions:
REMARK  status: ('A' for Active; 'I' for Inactive)
REMARK    1  A    between atoms: C02_2  and  C03_3 
REMARK       I    between atoms: C02_2  and  N15_15 
REMARK    2  A    between atoms: C03_3  and  C04_4 
REMARK    3  A    between atoms: C03_3  and  N14_14 
REMARK    4  A    between atoms: C04_4  and  C05_5 
REMARK    5  A    between atoms: N15_15  and  C16_16 
REMARK    6  A    between atoms: N21_21  and  C22_22 
REMARK    7  A    between atoms: C22_22  and  C23_23 
REMARK    8  A    between atoms: C29_29  and  C30_30 
ROOT
ATOM      1  C16 2PX d   1      38.185  27.672  19.940  0.00  0.00     0.015 C 
ATOM      2  C17 2PX d   1      37.670  28.562  18.893  0.00  0.00    -0.023 C 
ATOM      3  C18 2PX d   1      37.057  29.786  19.471  0.00  0.00     0.086 C 
ATOM      4  C19 2PX d   1      37.128  27.260  20.880  0.00  0.00    -0.023 C 
ATOM      5  C20 2PX d   1      36.374  28.410  21.461  0.00  0.00     0.086 C 
ATOM      6  N21 2PX d   1      36.063  29.467  20.504  0.00  0.00    -0.067 N 
ATOM      7  H   2PX d   1      38.650  26.787  19.480  0.00  0.00     0.072 H 
ATOM      8  H   2PX d   1      36.910  28.023  18.308  0.00  0.00     0.038 H 
ATOM      9  H   2PX d   1      38.500  28.855  18.233  0.00  0.00     0.038 H 
ATOM     10  H   2PX d   1      36.564  30.351  18.666  0.00  0.00     0.076 H 
ATOM     11  H   2PX d   1      37.850  30.403  19.919  0.00  0.00     0.076 H 
ATOM     12  H   2PX d   1      37.592  26.696  21.702  0.00  0.00     0.038 H 
ATOM     13  H   2PX d   1      36.418  26.612  20.345  0.00  0.00     0.038 H 
ATOM     14  H   2PX d   1      36.978  28.845  22.271  0.00  0.00     0.076 H 
ATOM     15  H   2PX d   1      35.428  28.029  21.873  0.00  0.00     0.076 H 
ATOM     16  H   2PX d   1      35.464  28.896  19.928  0.00  0.00     0.280 HD
ENDROOT
BRANCH   1  17
ATOM     17  N15 2PX d   1      39.159  28.423  20.736  0.00  0.00    -0.355 N 
ATOM     18  C02 2PX d   1      40.484  28.782  20.240  0.00  0.00     0.248 C 
ATOM     19  O01 2PX d   1      40.873  28.472  19.112  0.00  0.00    -0.271 OA
ATOM     20  H   2PX d   1      38.904  28.703  21.662  0.00  0.00     0.162 HD
BRANCH  18  21
ATOM     21  C03 2PX d   1      41.367  29.560  21.178  0.00  0.00     0.179 C 
ATOM     22  H   2PX d   1      40.964  29.480  22.198  0.00  0.00     0.099 H 
BRANCH  21  23
ATOM     23  C04 2PX d   1      41.361  30.993  20.770  0.00  0.00    -0.004 C 
ATOM     24  H   2PX d   1      41.209  31.073  19.684  0.00  0.00     0.044 H 
ATOM     25  H   2PX d   1      42.317  31.465  21.042  0.00  0.00     0.044 H 
BRANCH  23  26
ATOM     26  C05 2PX d   1      40.224  31.670  21.502  0.00  0.00    -0.028 A 
ATOM     27  C06 2PX d   1      40.026  31.676  22.869  0.00  0.00    -0.015 A 
ATOM     28  N07 2PX d   1      38.902  32.378  23.136  0.00  0.00    -0.365 N 
ATOM     29  H   2PX d   1      40.667  31.196  23.607  0.00  0.00     0.112 H 
ATOM     30  C08 2PX d   1      38.349  32.833  21.969  0.00  0.00     0.042 A 
ATOM     31  H   2PX d   1      38.519  32.546  24.077  0.00  0.00     0.165 HD
ATOM     32  C09 2PX d   1      39.176  32.392  20.920  0.00  0.00    -0.002 A 
ATOM     33  C13 2PX d   1      37.192  33.588  21.786  0.00  0.00    -0.056 A 
ATOM     34  C10 2PX d   1      38.852  32.717  19.611  0.00  0.00    -0.070 A 
ATOM     35  C11 2PX d   1      37.689  33.470  19.415  0.00  0.00    -0.082 A 
ATOM     36  H   2PX d   1      39.471  32.402  18.779  0.00  0.00     0.084 H 
ATOM     37  C12 2PX d   1      36.887  33.894  20.469  0.00  0.00    -0.081 A 
ATOM     38  H   2PX d   1      37.402  33.733  18.403  0.00  0.00     0.083 H 
ATOM     39  H   2PX d   1      36.000  34.479  20.255  0.00  0.00     0.083 H 
ATOM     40  H   2PX d   1      36.574  33.913  22.615  0.00  0.00     0.086 H 
ENDBRANCH  23  26
ENDBRANCH  21  23
BRANCH  21  41
ATOM     41  N14 2PX d   1      42.696  29.025  21.169  0.00  0.00    -0.066 N 
ATOM     42  H   2PX d   1      42.670  28.057  21.448  0.00  0.00     0.275 HD
ATOM     43  H   2PX d   1      43.272  29.545  21.812  0.00  0.00     0.275 HD
ATOM     44  H   2PX d   1      43.081  29.097  20.240  0.00  0.00     0.275 HD
ENDBRANCH  21  41
ENDBRANCH  18  21
ENDBRANCH   1  17
BRANCH   6  45
ATOM     45  C22 2PX d   1      35.082  30.524  20.744  0.00  0.00     0.109 C 
ATOM     46  H   2PX d   1      34.586  30.747  19.788  0.00  0.00     0.083 H 
ATOM     47  H   2PX d   1      35.625  31.415  21.092  0.00  0.00     0.083 H 
BRANCH  45  48
ATOM     48  C23 2PX d   1      34.002  30.209  21.766  0.00  0.00    -0.005 A 
ATOM     49  C24 2PX d   1      32.721  29.798  21.497  0.00  0.00    -0.014 A 
ATOM     50  N25 2PX d   1      32.061  29.641  22.681  0.00  0.00    -0.365 N 
ATOM     51  H   2PX d   1      32.302  29.626  20.507  0.00  0.00     0.112 H 
ATOM     52  C26 2PX d   1      32.888  29.960  23.735  0.00  0.00     0.043 A 
ATOM     53  H   2PX d   1      31.084  29.328  22.773  0.00  0.00     0.165 HD
ATOM     54  C27 2PX d   1      34.114  30.326  23.163  0.00  0.00     0.000 A 
ATOM     55  C32 2PX d   1      32.654  29.948  25.129  0.00  0.00    -0.056 A 
ATOM     56  C28 2PX d   1      35.161  30.702  24.015  0.00  0.00    -0.065 A 
ATOM     57  C29 2PX d   1      34.959  30.702  25.404  0.00  0.00    -0.061 A 
ATOM     58  H   2PX d   1      36.121  30.991  23.604  0.00  0.00     0.085 H 
ATOM     59  C31 2PX d   1      33.717  30.324  25.942  0.00  0.00    -0.075 A 
ATOM     60  H   2PX d   1      33.585  30.326  27.018  0.00  0.00     0.084 H 
ATOM     61  H   2PX d   1      31.694  29.660  25.543  0.00  0.00     0.087 H 
BRANCH  57  62
ATOM     62  C30 2PX d   1      36.083  31.110  26.259  0.00  0.00    -0.051 C 
ATOM     63  H   2PX d   1      35.778  31.060  27.315  0.00  0.00     0.033 H 
ATOM     64  H   2PX d   1      36.377  32.140  26.011  0.00  0.00     0.033 H 
ATOM     65  H   2PX d   1      36.935  30.435  26.092  0.00  0.00     0.033 H 
ENDBRANCH  57  62
ENDBRANCH  45  48
ENDBRANCH   6  45
TORSDOF 8
