REMARK  5 active torsions:
REMARK  status: ('A' for Active; 'I' for Inactive)
REMARK    1  A    between atoms: CAH_9  and  CAJ_10 
REMARK    2  A    between atoms: CAJ_10  and  NAK_11 
REMARK    3  A    between atoms: CAN_16  and  NAQ_17 
REMARK       I    between atoms: NAQ_17  and  C_18 
REMARK    4  A    between atoms: C_18  and  CA_20 
REMARK    5  A    between atoms: CA_20  and  N_21 
ROOT
ATOM      1  NAK 2PZ d   1     -28.869  36.436 -68.745  0.00  0.00    -0.067 N 
ATOM      2  CAP 2PZ d   1     -27.661  36.528 -67.935  0.00  0.00     0.086 C 
ATOM      3  CAO 2PZ d   1     -26.667  37.612 -68.367  0.00  0.00    -0.023 C 
ATOM      4  CAL 2PZ d   1     -28.911  36.997 -70.067  0.00  0.00     0.086 C 
ATOM      5  CAM 2PZ d   1     -28.023  38.215 -70.285  0.00  0.00    -0.023 C 
ATOM      6  CAN 2PZ d   1     -27.273  38.664 -69.098  0.00  0.00     0.015 C 
ATOM      7  H   2PZ d   1     -28.748  35.477 -69.029  0.00  0.00     0.280 HD
ATOM      8  H   2PZ d   1     -27.146  35.557 -67.980  0.00  0.00     0.076 H 
ATOM      9  H   2PZ d   1     -27.962  36.736 -66.898  0.00  0.00     0.076 H 
ATOM     10  H   2PZ d   1     -25.895  37.147 -68.998  0.00  0.00     0.038 H 
ATOM     11  H   2PZ d   1     -26.199  38.036 -67.467  0.00  0.00     0.038 H 
ATOM     12  H   2PZ d   1     -29.950  37.291 -70.279  0.00  0.00     0.076 H 
ATOM     13  H   2PZ d   1     -28.599  36.217 -70.777  0.00  0.00     0.076 H 
ATOM     14  H   2PZ d   1     -28.661  39.046 -70.619  0.00  0.00     0.038 H 
ATOM     15  H   2PZ d   1     -27.297  37.970 -71.074  0.00  0.00     0.038 H 
ATOM     16  H   2PZ d   1     -27.990  39.161 -68.428  0.00  0.00     0.072 H 
ENDROOT
BRANCH   1  17
ATOM     17  CAJ 2PZ d   1     -29.914  36.293 -68.161  0.00  0.00     0.109 C 
ATOM     18  H   2PZ d   1     -30.110  37.161 -67.515  0.00  0.00     0.083 H 
ATOM     19  H   2PZ d   1     -30.738  36.178 -68.880  0.00  0.00     0.083 H 
BRANCH  17  20
ATOM     20  CAH 2PZ d   1     -29.770  35.019 -67.310  0.00  0.00    -0.005 A 
ATOM     21  CAF 2PZ d   1     -29.902  34.892 -65.861  0.00  0.00    -0.000 A 
ATOM     22  CAA 2PZ d   1     -30.194  35.818 -64.836  0.00  0.00    -0.070 A 
ATOM     23  CAE 2PZ d   1     -29.667  33.564 -65.553  0.00  0.00     0.043 A 
ATOM     24  CAB 2PZ d   1     -30.250  35.415 -63.536  0.00  0.00    -0.082 A 
ATOM     25  H   2PZ d   1     -30.375  36.857 -65.085  0.00  0.00     0.084 H 
ATOM     26  CAC 2PZ d   1     -30.016  34.035 -63.210  0.00  0.00    -0.081 A 
ATOM     27  H   2PZ d   1     -30.470  36.131 -62.752  0.00  0.00     0.083 H 
ATOM     28  CAD 2PZ d   1     -29.733  33.138 -64.180  0.00  0.00    -0.056 A 
ATOM     29  H   2PZ d   1     -30.067  33.711 -62.177  0.00  0.00     0.083 H 
ATOM     30  H   2PZ d   1     -29.556  32.099 -63.925  0.00  0.00     0.086 H 
ATOM     31  NAG 2PZ d   1     -29.411  32.889 -66.718  0.00  0.00    -0.365 N 
ATOM     32  CAI 2PZ d   1     -29.468  33.726 -67.760  0.00  0.00    -0.014 A 
ATOM     33  H   2PZ d   1     -29.204  31.882 -66.782  0.00  0.00     0.165 HD
ATOM     34  H   2PZ d   1     -29.305  33.446 -68.800  0.00  0.00     0.112 H 
ENDBRANCH  17  20
ENDBRANCH   1  17
BRANCH   6  35
ATOM     35  NAQ 2PZ d   1     -26.207  39.680 -69.493  0.00  0.00    -0.355 N 
ATOM     36  C   2PZ d   1     -25.126  39.416 -70.363  0.00  0.00     0.243 C 
ATOM     37  O   2PZ d   1     -24.969  38.345 -70.862  0.00  0.00    -0.272 OA
ATOM     38  H   2PZ d   1     -26.278  40.600 -69.108  0.00  0.00     0.162 HD
BRANCH  36  39
ATOM     39  CA  2PZ d   1     -24.105  40.559 -70.681  0.00  0.00     0.152 C 
ATOM     40  H   2PZ d   1     -24.005  40.661 -71.772  0.00  0.00     0.090 H 
ATOM     41  H   2PZ d   1     -23.128  40.302 -70.246  0.00  0.00     0.090 H 
BRANCH  39  42
ATOM     42  N   2PZ d   1     -24.560  41.824 -70.122  0.00  0.00    -0.071 N 
ATOM     43  H   2PZ d   1     -23.891  42.546 -70.337  0.00  0.00     0.274 HD
ATOM     44  H   2PZ d   1     -24.650  41.736 -69.122  0.00  0.00     0.274 HD
ATOM     45  H   2PZ d   1     -25.454  42.065 -70.520  0.00  0.00     0.274 HD
ENDBRANCH  39  42
ENDBRANCH  36  39
ENDBRANCH   6  35
TORSDOF 5
