REMARK  7 active torsions:
REMARK  status: ('A' for Active; 'I' for Inactive)
REMARK    1  A    between atoms: C08_8  and  C10_10 
REMARK    2  A    between atoms: C10_10  and  N11_11 
REMARK    3  A    between atoms: C14_14  and  N17_17 
REMARK       I    between atoms: N17_17  and  C18_18 
REMARK    4  A    between atoms: C18_18  and  C19_19 
REMARK    5  A    between atoms: C19_19  and  C21_21 
REMARK    6  A    between atoms: C19_19  and  N22_22 
REMARK    7  A    between atoms: C21_21  and  C23_23 
ROOT
ATOM      1  N11 RND d   1      36.200  28.636  21.294  0.00  0.00    -0.067 N 
ATOM      2  C12 RND d   1      37.170  27.959  22.201  0.00  0.00     0.086 C 
ATOM      3  C13 RND d   1      37.837  26.778  21.604  0.00  0.00    -0.023 C 
ATOM      4  C14 RND d   1      38.426  27.140  20.317  0.00  0.00     0.015 C 
ATOM      5  C15 RND d   1      37.374  27.646  19.427  0.00  0.00    -0.023 C 
ATOM      6  C16 RND d   1      36.767  28.901  19.984  0.00  0.00     0.086 C 
ATOM      7  H   RND d   1      35.579  27.853  21.160  0.00  0.00     0.280 HD
ATOM      8  H   RND d   1      36.630  27.631  23.102  0.00  0.00     0.076 H 
ATOM      9  H   RND d   1      37.945  28.687  22.483  0.00  0.00     0.076 H 
ATOM     10  H   RND d   1      37.097  25.977  21.455  0.00  0.00     0.038 H 
ATOM     11  H   RND d   1      38.629  26.424  22.281  0.00  0.00     0.038 H 
ATOM     12  H   RND d   1      38.905  26.254  19.875  0.00  0.00     0.072 H 
ATOM     13  H   RND d   1      36.590  26.881  19.323  0.00  0.00     0.038 H 
ATOM     14  H   RND d   1      37.809  27.862  18.440  0.00  0.00     0.038 H 
ATOM     15  H   RND d   1      37.544  29.674  20.073  0.00  0.00     0.076 H 
ATOM     16  H   RND d   1      35.974  29.254  19.308  0.00  0.00     0.076 H 
ENDROOT
BRANCH   4  17
ATOM     17  N17 RND d   1      39.423  28.233  20.458  0.00  0.00    -0.355 N 
ATOM     18  C18 RND d   1      40.824  28.032  20.831  0.00  0.00     0.248 C 
ATOM     19  O20 RND d   1      41.262  26.928  21.052  0.00  0.00    -0.271 OA
ATOM     20  H   RND d   1      39.116  29.169  20.286  0.00  0.00     0.162 HD
BRANCH  18  21
ATOM     21  C19 RND d   1      41.769  29.186  20.931  0.00  0.00     0.179 C 
ATOM     22  H   RND d   1      42.786  28.772  20.867  0.00  0.00     0.099 H 
BRANCH  21  23
ATOM     23  C21 RND d   1      41.679  29.955  22.264  0.00  0.00    -0.004 C 
ATOM     24  H   RND d   1      42.500  30.686  22.236  0.00  0.00     0.044 H 
ATOM     25  H   RND d   1      41.879  29.209  23.047  0.00  0.00     0.044 H 
BRANCH  23  26
ATOM     26  C23 RND d   1      40.471  30.725  22.742  0.00  0.00    -0.028 A 
ATOM     27  C25 RND d   1      40.023  30.735  24.066  0.00  0.00    -0.015 A 
ATOM     28  N24 RND d   1      38.918  31.536  24.183  0.00  0.00    -0.365 N 
ATOM     29  H   RND d   1      40.485  30.186  24.885  0.00  0.00     0.112 H 
ATOM     30  C27 RND d   1      38.617  32.066  22.960  0.00  0.00     0.042 A 
ATOM     31  H   RND d   1      38.397  31.711  25.054  0.00  0.00     0.165 HD
ATOM     32  C26 RND d   1      39.552  31.602  22.020  0.00  0.00    -0.002 A 
ATOM     33  C28 RND d   1      37.536  32.969  22.571  0.00  0.00    -0.056 A 
ATOM     34  C31 RND d   1      39.446  32.011  20.689  0.00  0.00    -0.070 A 
ATOM     35  C30 RND d   1      38.382  32.899  20.303  0.00  0.00    -0.082 A 
ATOM     36  H   RND d   1      40.160  31.662  19.952  0.00  0.00     0.084 H 
ATOM     37  C29 RND d   1      37.447  33.363  21.261  0.00  0.00    -0.081 A 
ATOM     38  H   RND d   1      38.295  33.216  19.270  0.00  0.00     0.083 H 
ATOM     39  H   RND d   1      36.654  34.036  20.955  0.00  0.00     0.083 H 
ATOM     40  H   RND d   1      36.819  33.320  23.304  0.00  0.00     0.086 H 
ENDBRANCH  23  26
ENDBRANCH  21  23
BRANCH  21  41
ATOM     41  N22 RND d   1      41.599  30.068  19.845  0.00  0.00    -0.066 N 
ATOM     42  H   RND d   1      41.660  29.553  18.981  0.00  0.00     0.275 HD
ATOM     43  H   RND d   1      42.320  30.772  19.868  0.00  0.00     0.275 HD
ATOM     44  H   RND d   1      40.695  30.510  19.909  0.00  0.00     0.275 HD
ENDBRANCH  21  41
ENDBRANCH  18  21
ENDBRANCH   4  17
BRANCH   1  45
ATOM     45  C10 RND d   1      35.202  29.739  21.346  0.00  0.00     0.109 C 
ATOM     46  H   RND d   1      35.732  30.699  21.434  0.00  0.00     0.083 H 
ATOM     47  H   RND d   1      34.610  29.731  20.419  0.00  0.00     0.083 H 
BRANCH  45  48
ATOM     48  C08 RND d   1      34.280  29.582  22.516  0.00  0.00    -0.005 A 
ATOM     49  C06 RND d   1      34.554  29.717  23.945  0.00  0.00    -0.000 A 
ATOM     50  C01 RND d   1      35.710  30.014  24.701  0.00  0.00    -0.070 A 
ATOM     51  C05 RND d   1      33.387  29.482  24.607  0.00  0.00     0.043 A 
ATOM     52  C02 RND d   1      35.641  30.062  26.141  0.00  0.00    -0.082 A 
ATOM     53  H   RND d   1      36.651  30.206  24.198  0.00  0.00     0.084 H 
ATOM     54  C03 RND d   1      34.450  29.829  26.816  0.00  0.00    -0.081 A 
ATOM     55  H   RND d   1      36.538  30.285  26.708  0.00  0.00     0.083 H 
ATOM     56  C04 RND d   1      33.316  29.536  26.078  0.00  0.00    -0.056 A 
ATOM     57  H   RND d   1      34.409  29.876  27.898  0.00  0.00     0.083 H 
ATOM     58  H   RND d   1      32.375  29.346  26.582  0.00  0.00     0.086 H 
ATOM     59  N07 RND d   1      32.405  29.211  23.647  0.00  0.00    -0.365 N 
ATOM     60  C09 RND d   1      32.921  29.269  22.425  0.00  0.00    -0.014 A 
ATOM     61  H   RND d   1      31.420  28.997  23.859  0.00  0.00     0.165 HD
ATOM     62  H   RND d   1      32.373  29.100  21.500  0.00  0.00     0.112 H 
ENDBRANCH  45  48
ENDBRANCH   1  45
TORSDOF 7
