REMARK  2 active torsions:
REMARK  status: ('A' for Active; 'I' for Inactive)
REMARK    1  A    between atoms: C9_8  and  C11_5 
REMARK    2  A    between atoms: C7_6  and  C8_7 
ROOT
ATOM      1  C4  NSE d   1      12.964  85.087  19.268  0.00  0.00     0.099 C 
ATOM      2  C5  NSE d   1      12.668  84.225  21.554  0.00  0.00    -0.049 A 
ATOM      3  C6  NSE d   1      12.685  81.799  21.935  0.00  0.00    -0.069 A 
ATOM      4  C8  NSE d   1      12.593  83.120  22.417  0.00  0.00     0.021 A 
ATOM      5  N1  NSE d   1      13.044  85.958  18.498  0.00  0.00    -0.191 NA
ATOM      6  C3  NSE d   1      12.862  83.991  20.189  0.00  0.00     0.045 A 
ATOM      7  C2  NSE d   1      12.872  81.582  20.570  0.00  0.00    -0.081 A 
ATOM      8  C1  NSE d   1      12.954  82.671  19.703  0.00  0.00    -0.063 A 
ATOM      9  H   NSE d   1      12.578  85.235  21.937  0.00  0.00     0.087 H 
ATOM     10  H   NSE d   1      12.611  80.960  22.618  0.00  0.00     0.085 H 
ATOM     11  H   NSE d   1      12.953  80.572  20.185  0.00  0.00     0.083 H 
ATOM     12  H   NSE d   1      13.090  82.500  18.641  0.00  0.00     0.085 H 
ENDROOT
BRANCH   4  13
ATOM     13  C7  NSE d   1      12.373  83.395  23.831  0.00  0.00     0.206 A 
ATOM     14  N2  NSE d   1      11.636  84.362  24.292  0.00  0.00    -0.199 NA
ATOM     15  C11 NSE d   1      11.742  84.177  25.650  0.00  0.00     0.191 A 
ATOM     16  N3  NSE d   1      12.497  83.156  26.027  0.00  0.00    -0.105 NA
ATOM     17  O1  NSE d   1      12.923  82.616  24.798  0.00  0.00    -0.190 OA
BRANCH  15  18
ATOM     18  C9  NSE d   1      11.048  85.075  26.554  0.00  0.00     0.032 A 
ATOM     19  C10 NSE d   1      10.144  85.984  25.993  0.00  0.00     0.015 A 
ATOM     20  N4  NSE d   1       9.455  86.855  26.736  0.00  0.00    -0.272 NA
ATOM     21  H   NSE d   1       9.998  85.981  24.919  0.00  0.00     0.116 H 
ATOM     22  C14 NSE d   1       9.651  86.831  28.066  0.00  0.00     0.002 A 
ATOM     23  C13 NSE d   1      10.535  85.961  28.721  0.00  0.00    -0.065 A 
ATOM     24  H   NSE d   1       9.088  87.531  28.673  0.00  0.00     0.114 H 
ATOM     25  C12 NSE d   1      11.248  85.058  27.942  0.00  0.00    -0.067 A 
ATOM     26  H   NSE d   1      10.658  85.992  29.798  0.00  0.00     0.085 H 
ATOM     27  H   NSE d   1      11.941  84.359  28.395  0.00  0.00     0.085 H 
ENDBRANCH  15  18
ENDBRANCH   4  13
TORSDOF 2
