REMARK  15 active torsions:
REMARK  status: ('A' for Active; 'I' for Inactive)
REMARK    1  A    between atoms: PB5_2  and  CB5_5 
REMARK    2  A    between atoms: CB5_5  and  CA5_6 
REMARK    3  A    between atoms: CA5_6  and  O15_8 
REMARK    4  A    between atoms: O15_8  and  C5_9 
REMARK    5  A    between atoms: C6_10  and  O16_11 
REMARK    6  A    between atoms: O16_11  and  PA6_12 
REMARK    7  A    between atoms: C1_16  and  O11_17 
REMARK    8  A    between atoms: O11_17  and  PA1_18 
REMARK    9  A    between atoms: C4_22  and  O14_23 
REMARK   10  A    between atoms: O14_23  and  PA4_24 
REMARK   11  A    between atoms: C3_28  and  O13_29 
REMARK   12  A    between atoms: O13_29  and  PA3_30 
REMARK   13  A    between atoms: C2_34  and  O12_35 
REMARK   14  A    between atoms: O12_35  and  CA2_36 
REMARK   15  A    between atoms: CA2_36  and  CB2_37 
ROOT
ATOM      1  C5  2OU d   1      -6.282  16.685  14.630  0.00  0.00     0.104 C 
ATOM      2  C6  2OU d   1      -6.929  15.920  15.788  0.00  0.00     0.107 C 
ATOM      3  C1  2OU d   1      -6.663  16.579  17.138  0.00  0.00     0.107 C 
ATOM      4  C4  2OU d   1      -6.644  18.167  14.655  0.00  0.00     0.107 C 
ATOM      5  C3  2OU d   1      -6.320  18.758  16.022  0.00  0.00     0.107 C 
ATOM      6  C2  2OU d   1      -7.093  18.033  17.121  0.00  0.00     0.095 C 
ATOM      7  H   2OU d   1      -5.189  16.570  14.670  0.00  0.00     0.092 H 
ATOM      8  H   2OU d   1      -8.016  15.885  15.622  0.00  0.00     0.092 H 
ATOM      9  H   2OU d   1      -5.589  16.520  17.368  0.00  0.00     0.092 H 
ATOM     10  H   2OU d   1      -7.717  18.290  14.445  0.00  0.00     0.092 H 
ATOM     11  H   2OU d   1      -5.242  18.656  16.213  0.00  0.00     0.092 H 
ATOM     12  H   2OU d   1      -6.863  18.494  18.093  0.00  0.00     0.091 H 
ENDROOT
BRANCH   6  13
ATOM     13  O12 2OU d   1      -8.512  18.120  16.883  0.00  0.00    -0.376 OA
BRANCH  13  14
ATOM     14  CA2 2OU d   1      -9.142  19.072  17.701  0.00  0.00     0.044 C 
ATOM     15  H   2OU d   1      -8.602  20.030  17.664  0.00  0.00     0.081 H 
ATOM     16  H   2OU d   1      -9.188  18.717  18.741  0.00  0.00     0.081 H 
BRANCH  14  17
ATOM     17  CB2 2OU d   1     -10.434  19.215  17.173  0.00  0.00    -0.035 A 
ATOM     18  CD2 2OU d   1     -10.628  19.966  16.013  0.00  0.00    -0.075 A 
ATOM     19  CE2 2OU d   1     -11.899  20.121  15.461  0.00  0.00    -0.082 A 
ATOM     20  H   2OU d   1      -9.777  20.436  15.534  0.00  0.00     0.084 H 
ATOM     21  CZ  2OU d   1     -12.993  19.514  16.074  0.00  0.00    -0.083 A 
ATOM     22  H   2OU d   1     -12.035  20.710  14.561  0.00  0.00     0.083 H 
ATOM     23  CE1 2OU d   1     -12.808  18.760  17.234  0.00  0.00    -0.082 A 
ATOM     24  H   2OU d   1     -13.985  19.627  15.651  0.00  0.00     0.083 H 
ATOM     25  CD1 2OU d   1     -11.534  18.608  17.782  0.00  0.00    -0.075 A 
ATOM     26  H   2OU d   1     -13.660  18.290  17.712  0.00  0.00     0.083 H 
ATOM     27  H   2OU d   1     -11.398  18.018  18.681  0.00  0.00     0.084 H 
ENDBRANCH  14  17
ENDBRANCH  13  14
ENDBRANCH   6  13
BRANCH   3  28
ATOM     28  O11 2OU d   1      -7.417  15.881  18.149  0.00  0.00    -0.272 OA
BRANCH  28  29
ATOM     29  PA1 2OU d   1      -6.799  15.572  19.604  0.00  0.00     0.422 P 
ATOM     30  O21 2OU d   1      -5.400  15.205  19.335  0.00  0.00    -0.617 OA
ATOM     31  O41 2OU d   1      -7.651  14.471  20.106  0.00  0.00    -0.617 OA
ATOM     32  O31 2OU d   1      -6.977  16.872  20.291  0.00  0.00    -0.617 OA
ENDBRANCH  28  29
ENDBRANCH   3  28
BRANCH   5  33
ATOM     33  O13 2OU d   1      -6.674  20.139  16.026  0.00  0.00    -0.272 OA
BRANCH  33  34
ATOM     34  PA3 2OU d   1      -5.717  21.230  16.674  0.00  0.00     0.422 P 
ATOM     35  O23 2OU d   1      -4.502  21.237  15.845  0.00  0.00    -0.617 OA
ATOM     36  O43 2OU d   1      -6.533  22.452  16.593  0.00  0.00    -0.617 OA
ATOM     37  O33 2OU d   1      -5.537  20.698  18.047  0.00  0.00    -0.617 OA
ENDBRANCH  33  34
ENDBRANCH   5  33
BRANCH   2  38
ATOM     38  O16 2OU d   1      -6.403  14.564  15.812  0.00  0.00    -0.272 OA
BRANCH  38  39
ATOM     39  PA6 2OU d   1      -7.298  13.278  15.464  0.00  0.00     0.422 P 
ATOM     40  O46 2OU d   1      -8.607  13.557  16.083  0.00  0.00    -0.617 OA
ATOM     41  O36 2OU d   1      -7.265  13.243  13.988  0.00  0.00    -0.617 OA
ATOM     42  O26 2OU d   1      -6.543  12.175  16.111  0.00  0.00    -0.617 OA
ENDBRANCH  38  39
ENDBRANCH   2  38
BRANCH   4  43
ATOM     43  O14 2OU d   1      -5.863  18.853  13.646  0.00  0.00    -0.272 OA
BRANCH  43  44
ATOM     44  PA4 2OU d   1      -6.363  20.067  12.687  0.00  0.00     0.422 P 
ATOM     45  O24 2OU d   1      -5.595  21.230  13.150  0.00  0.00    -0.617 OA
ATOM     46  O44 2OU d   1      -6.006  19.568  11.358  0.00  0.00    -0.617 OA
ATOM     47  O34 2OU d   1      -7.818  20.201  12.921  0.00  0.00    -0.617 OA
ENDBRANCH  43  44
ENDBRANCH   4  43
BRANCH   1  48
ATOM     48  O15 2OU d   1      -6.809  16.123  13.416  0.00  0.00    -0.310 OA
BRANCH  48  49
ATOM     49  CA5 2OU d   1      -5.947  15.567  12.516  0.00  0.00     0.272 C 
ATOM     50  O25 2OU d   1      -4.749  15.355  12.714  0.00  0.00    -0.265 OA
BRANCH  49  51
ATOM     51  CB5 2OU d   1      -6.624  15.151  11.202  0.00  0.00     0.119 C 
ATOM     52  H   2OU d   1      -6.155  14.226  10.835  0.00  0.00     0.069 H 
ATOM     53  H   2OU d   1      -7.692  14.970  11.392  0.00  0.00     0.069 H 
BRANCH  51  54
ATOM     54  PB5 2OU d   1      -6.457  16.459   9.916  0.00  0.00     0.269 P 
ATOM     55  O45 2OU d   1      -4.983  16.405   9.841  0.00  0.00    -0.639 OA
ATOM     56  O55 2OU d   1      -7.243  15.771   8.874  0.00  0.00    -0.639 OA
ATOM     57  O65 2OU d   1      -7.100  17.585  10.624  0.00  0.00    -0.639 OA
ENDBRANCH  51  54
ENDBRANCH  49  51
ENDBRANCH  48  49
ENDBRANCH   1  48
TORSDOF 15
