REMARK  14 active torsions:
REMARK  status: ('A' for Active; 'I' for Inactive)
REMARK    1  A    between atoms: CB5_6  and  CA5_7 
REMARK    2  A    between atoms: CA5_7  and  O15_8 
REMARK    3  A    between atoms: O15_8  and  C5_9 
REMARK    4  A    between atoms: C6_10  and  O16_11 
REMARK    5  A    between atoms: O16_11  and  PA6_12 
REMARK    6  A    between atoms: C1_16  and  O11_17 
REMARK    7  A    between atoms: O11_17  and  PA1_18 
REMARK    8  A    between atoms: C4_22  and  O14_23 
REMARK    9  A    between atoms: O14_23  and  PA4_24 
REMARK   10  A    between atoms: C3_28  and  O13_29 
REMARK   11  A    between atoms: O13_29  and  PA3_30 
REMARK   12  A    between atoms: C2_34  and  O12_35 
REMARK   13  A    between atoms: O12_35  and  CA2_36 
REMARK   14  A    between atoms: CA2_36  and  CB2_37 
ROOT
ATOM      1  C5  2OV d   1      -6.751  17.475  14.736  0.00  0.00     0.095 C 
ATOM      2  C6  2OV d   1      -7.219  17.068  16.147  0.00  0.00     0.107 C 
ATOM      3  C1  2OV d   1      -6.480  17.824  17.259  0.00  0.00     0.107 C 
ATOM      4  C4  2OV d   1      -6.693  18.990  14.549  0.00  0.00     0.107 C 
ATOM      5  C3  2OV d   1      -5.804  19.576  15.616  0.00  0.00     0.107 C 
ATOM      6  C2  2OV d   1      -6.486  19.341  16.993  0.00  0.00     0.095 C 
ATOM      7  H   2OV d   1      -5.750  17.056  14.559  0.00  0.00     0.091 H 
ATOM      8  H   2OV d   1      -8.296  17.273  16.233  0.00  0.00     0.092 H 
ATOM      9  H   2OV d   1      -5.436  17.481  17.308  0.00  0.00     0.092 H 
ATOM     10  H   2OV d   1      -7.706  19.413  14.621  0.00  0.00     0.092 H 
ATOM     11  H   2OV d   1      -4.848  19.031  15.627  0.00  0.00     0.092 H 
ATOM     12  H   2OV d   1      -5.915  19.865  17.773  0.00  0.00     0.091 H 
ENDROOT
BRANCH   1  13
ATOM     13  O15 2OV d   1      -7.677  16.941  13.776  0.00  0.00    -0.376 OA
BRANCH  13  14
ATOM     14  CA5 2OV d   1      -7.111  15.901  12.982  0.00  0.00     0.044 C 
ATOM     15  H   2OV d   1      -6.209  16.272  12.473  0.00  0.00     0.081 H 
ATOM     16  H   2OV d   1      -6.846  15.047  13.623  0.00  0.00     0.081 H 
BRANCH  14  17
ATOM     17  CB5 2OV d   1      -8.054  15.505  12.038  0.00  0.00    -0.035 A 
ATOM     18  CD5 2OV d   1      -9.204  14.836  12.459  0.00  0.00    -0.075 A 
ATOM     19  CE5 2OV d   1     -10.164  14.447  11.530  0.00  0.00    -0.082 A 
ATOM     20  H   2OV d   1      -9.350  14.619  13.511  0.00  0.00     0.084 H 
ATOM     21  CZ5 2OV d   1      -9.970  14.726  10.184  0.00  0.00    -0.083 A 
ATOM     22  H   2OV d   1     -11.059  13.929  11.856  0.00  0.00     0.083 H 
ATOM     23  CE7 2OV d   1      -8.832  15.408   9.752  0.00  0.00    -0.082 A 
ATOM     24  H   2OV d   1     -10.712  14.410   9.460  0.00  0.00     0.083 H 
ATOM     25  CD7 2OV d   1      -7.876  15.805  10.685  0.00  0.00    -0.075 A 
ATOM     26  H   2OV d   1      -8.693  15.627   8.700  0.00  0.00     0.083 H 
ATOM     27  H   2OV d   1      -6.995  16.346  10.361  0.00  0.00     0.084 H 
ENDBRANCH  14  17
ENDBRANCH  13  14
ENDBRANCH   1  13
BRANCH   2  28
ATOM     28  O16 2OV d   1      -6.976  15.646  16.333  0.00  0.00    -0.272 OA
BRANCH  28  29
ATOM     29  PA6 2OV d   1      -8.117  14.575  16.794  0.00  0.00     0.422 P 
ATOM     30  O36 2OV d   1      -8.209  13.550  15.550  0.00  0.00    -0.617 OA
ATOM     31  O46 2OV d   1      -9.410  15.271  16.924  0.00  0.00    -0.617 OA
ATOM     32  O26 2OV d   1      -7.593  13.823  17.956  0.00  0.00    -0.617 OA
ENDBRANCH  28  29
ENDBRANCH   2  28
BRANCH   4  33
ATOM     33  O14 2OV d   1      -6.108  19.318  13.260  0.00  0.00    -0.272 OA
BRANCH  33  34
ATOM     34  PA4 2OV d   1      -6.817  20.227  12.130  0.00  0.00     0.422 P 
ATOM     35  O44 2OV d   1      -7.428  19.152  11.289  0.00  0.00    -0.617 OA
ATOM     36  O34 2OV d   1      -7.740  21.143  12.800  0.00  0.00    -0.617 OA
ATOM     37  O24 2OV d   1      -5.652  20.907  11.533  0.00  0.00    -0.617 OA
ENDBRANCH  33  34
ENDBRANCH   4  33
BRANCH   3  38
ATOM     38  O11 2OV d   1      -7.151  17.499  18.492  0.00  0.00    -0.272 OA
BRANCH  38  39
ATOM     39  PA1 2OV d   1      -6.390  17.027  19.823  0.00  0.00     0.422 P 
ATOM     40  O41 2OV d   1      -7.467  17.022  20.831  0.00  0.00    -0.617 OA
ATOM     41  O31 2OV d   1      -5.336  18.051  19.984  0.00  0.00    -0.617 OA
ATOM     42  O21 2OV d   1      -5.905  15.680  19.433  0.00  0.00    -0.617 OA
ENDBRANCH  38  39
ENDBRANCH   3  38
BRANCH   5  43
ATOM     43  O13 2OV d   1      -5.506  20.980  15.250  0.00  0.00    -0.272 OA
BRANCH  43  44
ATOM     44  PA3 2OV d   1      -4.157  21.509  14.420  0.00  0.00     0.422 P 
ATOM     45  O43 2OV d   1      -4.497  22.925  14.184  0.00  0.00    -0.617 OA
ATOM     46  O33 2OV d   1      -3.167  21.235  15.457  0.00  0.00    -0.617 OA
ATOM     47  O23 2OV d   1      -3.836  20.928  13.117  0.00  0.00    -0.617 OA
ENDBRANCH  43  44
ENDBRANCH   5  43
BRANCH   6  48
ATOM     48  O12 2OV d   1      -7.863  19.797  17.027  0.00  0.00    -0.376 OA
BRANCH  48  49
ATOM     49  CA2 2OV d   1      -8.267  20.187  18.332  0.00  0.00     0.044 C 
ATOM     50  H   2OV d   1      -8.063  21.256  18.490  0.00  0.00     0.081 H 
ATOM     51  H   2OV d   1      -7.731  19.596  19.089  0.00  0.00     0.081 H 
BRANCH  49  52
ATOM     52  CB2 2OV d   1      -9.653  19.938  18.411  0.00  0.00    -0.035 A 
ATOM     53  CD2 2OV d   1     -10.551  20.969  18.117  0.00  0.00    -0.075 A 
ATOM     54  CE2 2OV d   1     -11.927  20.754  18.195  0.00  0.00    -0.082 A 
ATOM     55  H   2OV d   1     -10.175  21.943  17.826  0.00  0.00     0.084 H 
ATOM     56  CZ  2OV d   1     -12.423  19.507  18.573  0.00  0.00    -0.083 A 
ATOM     57  H   2OV d   1     -12.613  21.560  17.961  0.00  0.00     0.083 H 
ATOM     58  CE1 2OV d   1     -11.537  18.475  18.876  0.00  0.00    -0.082 A 
ATOM     59  H   2OV d   1     -13.493  19.341  18.631  0.00  0.00     0.083 H 
ATOM     60  CD1 2OV d   1     -10.157  18.687  18.795  0.00  0.00    -0.075 A 
ATOM     61  H   2OV d   1     -11.918  17.505  19.175  0.00  0.00     0.083 H 
ATOM     62  H   2OV d   1      -9.473  17.880  19.030  0.00  0.00     0.084 H 
ENDBRANCH  49  52
ENDBRANCH  48  49
ENDBRANCH   6  48
TORSDOF 14
