REMARK  13 active torsions:
REMARK  status: ('A' for Active; 'I' for Inactive)
REMARK    1  A    between atoms: C2_2  and  C16_16 
REMARK    2  A    between atoms: C3_3  and  C14_14 
REMARK    3  A    between atoms: C4_4  and  C7_7 
REMARK    4  A    between atoms: C5_5  and  C24_24 
REMARK    5  A    between atoms: C6_6  and  C15_15 
REMARK    6  A    between atoms: C19_19  and  C22_22 
REMARK    7  A    between atoms: C20_20  and  C23_23 
REMARK    8  A    between atoms: C24_24  and  C25_25 
REMARK    9  A    between atoms: C24_24  and  O26_26 
REMARK   10  A    between atoms: O26_26  and  C27_27 
REMARK   11  A    between atoms: C27_27  and  C28_28 
REMARK   12  A    between atoms: C27_27  and  C29_29 
REMARK   13  A    between atoms: C27_27  and  C30_30 
ROOT
ATOM      1  N1  LF8 d   1      48.231 -15.400  28.077  0.00  0.00    -0.252 NA
ATOM      2  C2  LF8 d   1      47.389 -16.458  28.164  0.00  0.00     0.074 A 
ATOM      3  C3  LF8 d   1      46.004 -16.292  28.413  0.00  0.00    -0.021 A 
ATOM      4  C4  LF8 d   1      45.548 -14.972  28.538  0.00  0.00    -0.006 A 
ATOM      5  C5  LF8 d   1      46.448 -13.887  28.412  0.00  0.00     0.017 A 
ATOM      6  C6  LF8 d   1      47.824 -14.132  28.166  0.00  0.00     0.041 A 
ENDROOT
BRANCH   5   7
ATOM      7  C24 LF8 d   1      45.911 -12.508  28.617  0.00  0.00     0.151 C 
ATOM      8  H   LF8 d   1      44.812 -12.517  28.576  0.00  0.00     0.108 H 
BRANCH   7   9
ATOM      9  C25 LF8 d   1      46.408 -12.092  29.989  0.00  0.00     0.208 C 
ATOM     10  O33 LF8 d   1      46.655 -10.898  30.186  0.00  0.00    -0.646 OA
ATOM     11  O34 LF8 d   1      46.586 -12.929  30.903  0.00  0.00    -0.646 OA
ENDBRANCH   7   9
BRANCH   7  12
ATOM     12  O26 LF8 d   1      46.416 -11.584  27.677  0.00  0.00    -0.360 OA
BRANCH  12  13
ATOM     13  C27 LF8 d   1      45.806 -11.418  26.388  0.00  0.00     0.051 C 
BRANCH  13  14
ATOM     14  C28 LF8 d   1      46.016 -12.614  25.507  0.00  0.00    -0.048 C 
ATOM     15  H   LF8 d   1      45.533 -12.442  24.534  0.00  0.00     0.031 H 
ATOM     16  H   LF8 d   1      45.575 -13.502  25.983  0.00  0.00     0.031 H 
ATOM     17  H   LF8 d   1      47.094 -12.775  25.358  0.00  0.00     0.031 H 
ENDBRANCH  13  14
BRANCH  13  18
ATOM     18  C29 LF8 d   1      46.528 -10.223  25.718  0.00  0.00    -0.048 C 
ATOM     19  H   LF8 d   1      46.099 -10.048  24.720  0.00  0.00     0.031 H 
ATOM     20  H   LF8 d   1      47.600 -10.450  25.622  0.00  0.00     0.031 H 
ATOM     21  H   LF8 d   1      46.398  -9.322  26.336  0.00  0.00     0.031 H 
ENDBRANCH  13  18
BRANCH  13  22
ATOM     22  C30 LF8 d   1      44.324 -11.174  26.617  0.00  0.00    -0.048 C 
ATOM     23  H   LF8 d   1      43.820 -11.041  25.648  0.00  0.00     0.031 H 
ATOM     24  H   LF8 d   1      44.191 -10.268  27.226  0.00  0.00     0.031 H 
ATOM     25  H   LF8 d   1      43.887 -12.036  27.142  0.00  0.00     0.031 H 
ENDBRANCH  13  22
ENDBRANCH  12  13
ENDBRANCH   7  12
ENDBRANCH   5   7
BRANCH   4  26
ATOM     26  C7  LF8 d   1      44.123 -14.739  28.748  0.00  0.00    -0.025 A 
ATOM     27  C8  LF8 d   1      43.701 -14.400  30.036  0.00  0.00    -0.071 A 
ATOM     28  C9  LF8 d   1      42.362 -14.160  30.271  0.00  0.00    -0.061 A 
ATOM     29  H   LF8 d   1      44.419 -14.326  30.844  0.00  0.00     0.084 H 
ATOM     30  C10 LF8 d   1      41.486 -14.276  29.191  0.00  0.00     0.034 A 
ATOM     31  H   LF8 d   1      42.004 -13.891  31.258  0.00  0.00     0.086 H 
ATOM     32  C11 LF8 d   1      41.882 -14.564  27.896  0.00  0.00    -0.061 A 
ATOM     33 CL   LF8 d   1      39.792 -13.933  29.582  0.00  0.00    -0.084 Cl
ATOM     34  C12 LF8 d   1      43.242 -14.844  27.668  0.00  0.00    -0.071 A 
ATOM     35  H   LF8 d   1      41.166 -14.573  27.082  0.00  0.00     0.086 H 
ATOM     36  H   LF8 d   1      43.596 -15.132  26.685  0.00  0.00     0.084 H 
ENDBRANCH   4  26
BRANCH   6  37
ATOM     37  C15 LF8 d   1      48.977 -13.131  28.078  0.00  0.00    -0.035 C 
ATOM     38  H   LF8 d   1      48.581 -12.108  28.157  0.00  0.00     0.035 H 
ATOM     39  H   LF8 d   1      49.494 -13.251  27.114  0.00  0.00     0.035 H 
ATOM     40  H   LF8 d   1      49.685 -13.315  28.899  0.00  0.00     0.035 H 
ENDBRANCH   6  37
BRANCH   3  41
ATOM     41  C14 LF8 d   1      45.038 -17.476  28.518  0.00  0.00    -0.048 C 
ATOM     42  H   LF8 d   1      45.595 -18.416  28.392  0.00  0.00     0.033 H 
ATOM     43  H   LF8 d   1      44.273 -17.396  27.732  0.00  0.00     0.033 H 
ATOM     44  H   LF8 d   1      44.553 -17.467  29.505  0.00  0.00     0.033 H 
ENDBRANCH   3  41
BRANCH   2  45
ATOM     45  C16 LF8 d   1      48.062 -17.799  28.012  0.00  0.00    -0.006 A 
ATOM     46  C17 LF8 d   1      48.177 -18.473  26.802  0.00  0.00    -0.070 A 
ATOM     47  C18 LF8 d   1      48.837 -19.729  26.775  0.00  0.00    -0.076 A 
ATOM     48  H   LF8 d   1      47.769 -18.046  25.893  0.00  0.00     0.084 H 
ATOM     49  C19 LF8 d   1      49.399 -20.272  27.945  0.00  0.00    -0.056 A 
ATOM     50  H   LF8 d   1      48.909 -20.276  25.842  0.00  0.00     0.084 H 
ATOM     51  C20 LF8 d   1      49.308 -19.565  29.150  0.00  0.00    -0.055 A 
ATOM     52  C21 LF8 d   1      48.640 -18.333  29.149  0.00  0.00    -0.065 A 
ATOM     53  H   LF8 d   1      48.574 -17.776  30.077  0.00  0.00     0.085 H 
BRANCH  49  54
ATOM     54  C22 LF8 d   1      50.106 -21.616  27.908  0.00  0.00    -0.051 C 
ATOM     55  H   LF8 d   1      50.077 -22.017  26.884  0.00  0.00     0.033 H 
ATOM     56  H   LF8 d   1      49.600 -22.315  28.590  0.00  0.00     0.033 H 
ATOM     57  H   LF8 d   1      51.152 -21.489  28.223  0.00  0.00     0.033 H 
ENDBRANCH  49  54
BRANCH  51  58
ATOM     58  C23 LF8 d   1      49.893 -20.089  30.457  0.00  0.00    -0.051 C 
ATOM     59  H   LF8 d   1      50.378 -21.060  30.278  0.00  0.00     0.033 H 
ATOM     60  H   LF8 d   1      49.088 -20.212  31.196  0.00  0.00     0.033 H 
ATOM     61  H   LF8 d   1      50.635 -19.373  30.840  0.00  0.00     0.033 H 
ENDBRANCH  51  58
ENDBRANCH   2  45
TORSDOF 13
