REMARK  11 active torsions:
REMARK  status: ('A' for Active; 'I' for Inactive)
REMARK    1  A    between atoms: C3_3  and  N7_7 
REMARK    2  A    between atoms: C5_5  and  C10_10 
REMARK    3  A    between atoms: C5_5  and  C11_11 
REMARK    4  A    between atoms: N7_7  and  C12_12 
REMARK       I    between atoms: N9_9  and  C13_13 
REMARK       I    between atoms: C13_13  and  N16_16 
REMARK    5  A    between atoms: N16_16  and  C21_21 
REMARK    6  A    between atoms: C20_20  and  C25_25 
REMARK    7  A    between atoms: C21_21  and  C26_26 
REMARK    8  A    between atoms: C21_21  and  C27_27 
REMARK    9  A    between atoms: C27_27  and  N30_30 
REMARK   10  A    between atoms: N30_30  and  C34_34 
REMARK   11  A    between atoms: N30_30  and  C35_35 
ROOT
ATOM      1  C1  X4Z d   1      16.059 -16.960  15.072  0.00  0.00     0.034 A 
ATOM      2  C2  X4Z d   1      17.197 -17.703  14.750  0.00  0.00     0.094 A 
ATOM      3  C3  X4Z d   1      15.450 -17.568  16.143  0.00  0.00     0.133 A 
ATOM      4  C4  X4Z d   1      15.989 -15.795  14.115  0.00  0.00     0.030 A 
ATOM      5  C5  X4Z d   1      17.895 -17.072  13.569  0.00  0.00     0.077 A 
ATOM      6  N6  X4Z d   1      17.276 -18.713  15.580  0.00  0.00    -0.174 NA
ATOM      7  N8  X4Z d   1      16.197 -18.651  16.457  0.00  0.00    -0.262 N 
ATOM      8  N9  X4Z d   1      17.125 -15.878  13.192  0.00  0.00    -0.315 N 
ATOM      9  C13 X4Z d   1      17.371 -15.001  12.193  0.00  0.00     0.320 C 
ATOM     10  N16 X4Z d   1      16.533 -13.962  12.018  0.00  0.00    -0.333 N 
ATOM     11  O17 X4Z d   1      18.326 -15.125  11.452  0.00  0.00    -0.247 OA
ATOM     12  H   X4Z d   1      16.037 -14.851  14.677  0.00  0.00     0.072 H 
ATOM     13  H   X4Z d   1      15.047 -15.837  13.548  0.00  0.00     0.072 H 
ATOM     14  H   X4Z d   1      16.000 -19.318  17.217  0.00  0.00     0.191 HD
ATOM     15  H   X4Z d   1      15.753 -13.846  12.633  0.00  0.00     0.165 HD
ENDROOT
BRANCH   5  16
ATOM     16  C10 X4Z d   1      17.929 -18.094  12.421  0.00  0.00    -0.048 C 
ATOM     17  H   X4Z d   1      18.511 -18.975  12.731  0.00  0.00     0.031 H 
ATOM     18  H   X4Z d   1      18.398 -17.637  11.537  0.00  0.00     0.031 H 
ATOM     19  H   X4Z d   1      16.902 -18.401  12.173  0.00  0.00     0.031 H 
ENDBRANCH   5  16
BRANCH   5  20
ATOM     20  C11 X4Z d   1      19.318 -16.687  13.981  0.00  0.00    -0.048 C 
ATOM     21  H   X4Z d   1      19.877 -17.593  14.259  0.00  0.00     0.031 H 
ATOM     22  H   X4Z d   1      19.278 -16.002  14.841  0.00  0.00     0.031 H 
ATOM     23  H   X4Z d   1      19.822 -16.189  13.139  0.00  0.00     0.031 H 
ENDBRANCH   5  20
BRANCH  10  24
ATOM     24  C21 X4Z d   1      16.752 -13.003  10.938  0.00  0.00     0.062 C 
ATOM     25  H   X4Z d   1      17.760 -13.125  10.515  0.00  0.00     0.083 H 
BRANCH  24  26
ATOM     26  C26 X4Z d   1      15.688 -13.289   9.916  0.00  0.00    -0.034 A 
ATOM     27  C28 X4Z d   1      14.368 -13.355  10.330  0.00  0.00    -0.075 A 
ATOM     28  C31 X4Z d   1      13.365 -13.612   9.415  0.00  0.00    -0.082 A 
ATOM     29  H   X4Z d   1      14.121 -13.205  11.375  0.00  0.00     0.084 H 
ATOM     30  C33 X4Z d   1      13.689 -13.802   8.085  0.00  0.00    -0.083 A 
ATOM     31  H   X4Z d   1      12.332 -13.664   9.738  0.00  0.00     0.083 H 
ATOM     32  C32 X4Z d   1      15.009 -13.734   7.672  0.00  0.00    -0.082 A 
ATOM     33  H   X4Z d   1      12.907 -14.005   7.362  0.00  0.00     0.083 H 
ATOM     34  C29 X4Z d   1      16.012 -13.478   8.588  0.00  0.00    -0.075 A 
ATOM     35  H   X4Z d   1      15.257 -13.882   6.627  0.00  0.00     0.083 H 
ATOM     36  H   X4Z d   1      17.046 -13.426   8.265  0.00  0.00     0.084 H 
ENDBRANCH  24  26
BRANCH  24  37
ATOM     37  C27 X4Z d   1      16.543 -11.558  11.401  0.00  0.00     0.105 C 
ATOM     38  H   X4Z d   1      15.532 -11.475  11.825  0.00  0.00     0.079 H 
ATOM     39  H   X4Z d   1      16.628 -10.899  10.524  0.00  0.00     0.079 H 
BRANCH  37  40
ATOM     40  N30 X4Z d   1      17.507 -11.105  12.414  0.00  0.00    -0.076 N 
ATOM     41  H   X4Z d   1      17.191 -11.397  13.326  0.00  0.00     0.279 HD
BRANCH  40  42
ATOM     42  C34 X4Z d   1      18.849 -11.644  12.173  0.00  0.00     0.066 C 
ATOM     43  H   X4Z d   1      19.535 -11.281  12.952  0.00  0.00     0.068 H 
ATOM     44  H   X4Z d   1      19.206 -11.313  11.187  0.00  0.00     0.068 H 
ATOM     45  H   X4Z d   1      18.813 -12.743  12.200  0.00  0.00     0.068 H 
ENDBRANCH  40  42
BRANCH  40  46
ATOM     46  C35 X4Z d   1      17.587  -9.641  12.357  0.00  0.00     0.066 C 
ATOM     47  H   X4Z d   1      16.590  -9.212  12.535  0.00  0.00     0.068 H 
ATOM     48  H   X4Z d   1      17.947  -9.332  11.365  0.00  0.00     0.068 H 
ATOM     49  H   X4Z d   1      18.284  -9.281  13.128  0.00  0.00     0.068 H 
ENDBRANCH  40  46
ENDBRANCH  37  40
ENDBRANCH  24  37
ENDBRANCH  10  24
BRANCH   3  50
ATOM     50  N7  X4Z d   1      14.287 -17.214  16.838  0.00  0.00    -0.324 N 
ATOM     51  H   X4Z d   1      14.282 -17.354  17.858  0.00  0.00     0.169 HD
BRANCH  50  52
ATOM     52  C12 X4Z d   1      13.138 -16.688  16.257  0.00  0.00     0.150 A 
ATOM     53  C14 X4Z d   1      11.998 -16.451  17.050  0.00  0.00     0.079 A 
ATOM     54  C18 X4Z d   1      10.851 -15.918  16.452  0.00  0.00     0.080 A 
ATOM     55  S19 X4Z d   1      11.700 -16.708  18.765  0.00  0.00    -0.096 SA
ATOM     56  N22 X4Z d   1      10.898 -15.655  15.124  0.00  0.00    -0.233 NA
ATOM     57  C23 X4Z d   1       9.796 -15.733  17.368  0.00  0.00    -0.047 A 
ATOM     58  C20 X4Z d   1      11.984 -15.893  14.425  0.00  0.00     0.125 A 
ATOM     59  N15 X4Z d   1      13.076 -16.400  14.963  0.00  0.00    -0.215 NA
ATOM     60  C24 X4Z d   1      10.059 -16.086  18.617  0.00  0.00    -0.042 A 
ATOM     61  H   X4Z d   1       8.831 -15.328  17.069  0.00  0.00     0.087 H 
ATOM     62  H   X4Z d   1       9.354 -16.003  19.443  0.00  0.00     0.095 H 
BRANCH  58  63
ATOM     63  C25 X4Z d   1      11.999 -15.587  12.947  0.00  0.00    -0.019 C 
ATOM     64  H   X4Z d   1      12.982 -15.848  12.529  0.00  0.00     0.037 H 
ATOM     65  H   X4Z d   1      11.807 -14.515  12.793  0.00  0.00     0.037 H 
ATOM     66  H   X4Z d   1      11.218 -16.175  12.443  0.00  0.00     0.037 H 
ENDBRANCH  58  63
ENDBRANCH  50  52
ENDBRANCH   3  50
TORSDOF 11
