REMARK  10 active torsions:
REMARK  status: ('A' for Active; 'I' for Inactive)
REMARK    1  A    between atoms: C1_1  and  O2_2 
REMARK    2  A    between atoms: O2_2  and  C3_3 
REMARK    3  A    between atoms: C3_3  and  C4_4 
REMARK    4  A    between atoms: C4_4  and  N5_5 
REMARK    5  A    between atoms: N5_5  and  C6_6 
REMARK    6  A    between atoms: C11_11  and  C22_22 
REMARK    7  A    between atoms: N14_14  and  C15_15 
REMARK    8  A    between atoms: C19_19  and  N21_21 
REMARK    9  A    between atoms: C23_23  and  C24_24 
REMARK   10  A    between atoms: C24_24  and  O30_30 
ROOT
ATOM      1  C6  2OL d   1      15.016 -15.351  12.992  0.00  0.00     0.709 A 
ATOM      2  N7  2OL d   1      15.204 -14.545  11.974  0.00  0.00    -0.062 NA
ATOM      3  C8  2OL d   1      16.520 -14.533  11.624  0.00  0.00     0.103 A 
ATOM      4  C9  2OL d   1      17.246 -13.859  10.626  0.00  0.00    -0.051 A 
ATOM      5  C10 2OL d   1      18.595 -14.040  10.508  0.00  0.00    -0.062 A 
ATOM      6  C11 2OL d   1      19.258 -14.914  11.373  0.00  0.00     0.020 A 
ATOM      7  C12 2OL d   1      18.553 -15.584  12.369  0.00  0.00    -0.036 A 
ATOM      8  C13 2OL d   1      17.185 -15.409  12.508  0.00  0.00     0.089 A 
ATOM      9  N14 2OL d   1      16.207 -15.921  13.368  0.00  0.00    -0.126 N 
ATOM     10  H   2OL d   1      16.731 -13.191   9.945  0.00  0.00     0.087 H 
ATOM     11  H   2OL d   1      19.150 -13.507   9.745  0.00  0.00     0.085 H 
ATOM     12  H   2OL d   1      19.080 -16.250  13.043  0.00  0.00     0.089 H 
ENDROOT
BRANCH   6  13
ATOM     13  C22 2OL d   1      20.673 -15.114  11.283  0.00  0.00    -0.064 C 
ATOM     14  C23 2OL d   1      21.817 -15.351  11.255  0.00  0.00    -0.063 C 
BRANCH  14  15
ATOM     15  C24 2OL d   1      23.264 -15.624  11.219  0.00  0.00     0.121 C 
ATOM     16  C25 2OL d   1      23.765 -15.806  12.649  0.00  0.00    -0.026 C 
ATOM     17  C26 2OL d   1      25.226 -16.255  12.660  0.00  0.00    -0.061 C 
ATOM     18  H   2OL d   1      23.150 -16.567  13.152  0.00  0.00     0.038 H 
ATOM     19  H   2OL d   1      23.678 -14.850  13.186  0.00  0.00     0.038 H 
ATOM     20  C27 2OL d   1      25.374 -17.567  11.895  0.00  0.00    -0.065 C 
ATOM     21  H   2OL d   1      25.555 -16.400  13.700  0.00  0.00     0.033 H 
ATOM     22  H   2OL d   1      25.848 -15.483  12.183  0.00  0.00     0.033 H 
ATOM     23  C28 2OL d   1      24.925 -17.360  10.450  0.00  0.00    -0.061 C 
ATOM     24  H   2OL d   1      24.750 -18.340  12.367  0.00  0.00     0.033 H 
ATOM     25  H   2OL d   1      26.427 -17.885  11.911  0.00  0.00     0.033 H 
ATOM     26  C29 2OL d   1      23.464 -16.917  10.421  0.00  0.00    -0.026 C 
ATOM     27  H   2OL d   1      25.031 -18.304   9.896  0.00  0.00     0.033 H 
ATOM     28  H   2OL d   1      25.550 -16.587   9.980  0.00  0.00     0.033 H 
ATOM     29  H   2OL d   1      23.161 -16.746   9.377  0.00  0.00     0.038 H 
ATOM     30  H   2OL d   1      22.840 -17.710  10.859  0.00  0.00     0.038 H 
BRANCH  15  31
ATOM     31  O30 2OL d   1      23.966 -14.554  10.589  0.00  0.00    -0.378 OA
ATOM     32  H   2OL d   1      23.648 -14.448   9.700  0.00  0.00     0.211 HD
ENDBRANCH  15  31
ENDBRANCH  14  15
ENDBRANCH   6  13
BRANCH   9  33
ATOM     33  C15 2OL d   1      16.347 -16.826  14.433  0.00  0.00     0.171 A 
ATOM     34  C16 2OL d   1      17.415 -17.720  14.562  0.00  0.00    -0.019 A 
ATOM     35  C17 2OL d   1      17.462 -18.574  15.653  0.00  0.00     0.025 A 
ATOM     36  H   2OL d   1      18.200 -17.745  13.815  0.00  0.00     0.091 H 
ATOM     37  N18 2OL d   1      16.491 -18.531  16.552  0.00  0.00    -0.075 NA
ATOM     38  H   2OL d   1      18.285 -19.270  15.769  0.00  0.00     0.115 H 
ATOM     39  C19 2OL d   1      15.489 -17.676  16.411  0.00  0.00     0.721 A 
ATOM     40  N20 2OL d   1      15.419 -16.845  15.379  0.00  0.00    -0.044 NA
BRANCH  39  41
ATOM     41  N21 2OL d   1      14.487 -17.648  17.364  0.00  0.00    -0.231 N 
ATOM     42  H   2OL d   1      14.526 -18.286  18.171  0.00  0.00     0.174 HD
ATOM     43  H   2OL d   1      13.702 -16.989  17.266  0.00  0.00     0.174 HD
ENDBRANCH  39  41
ENDBRANCH   9  33
BRANCH   1  44
ATOM     44  N5  2OL d   1      13.813 -15.612  13.615  0.00  0.00    -0.222 N 
ATOM     45  H   2OL d   1      13.747 -16.425  14.244  0.00  0.00     0.177 HD
BRANCH  44  46
ATOM     46  C4  2OL d   1      12.624 -14.775  13.416  0.00  0.00     0.029 C 
ATOM     47  H   2OL d   1      12.761 -14.159  12.515  0.00  0.00     0.068 H 
ATOM     48  H   2OL d   1      11.743 -15.421  13.287  0.00  0.00     0.068 H 
BRANCH  46  49
ATOM     49  C3  2OL d   1      12.407 -13.860  14.626  0.00  0.00     0.034 C 
ATOM     50  H   2OL d   1      11.329 -13.729  14.803  0.00  0.00     0.076 H 
ATOM     51  H   2OL d   1      12.873 -14.306  15.517  0.00  0.00     0.076 H 
BRANCH  49  52
ATOM     52  O2  2OL d   1      13.008 -12.591  14.352  0.00  0.00    -0.394 OA
BRANCH  52  53
ATOM     53  C1  2OL d   1      13.355 -11.834  15.513  0.00  0.00     0.004 C 
ATOM     54  H   2OL d   1      13.808 -10.880  15.207  0.00  0.00     0.066 H 
ATOM     55  H   2OL d   1      14.074 -12.403  16.120  0.00  0.00     0.066 H 
ATOM     56  H   2OL d   1      12.450 -11.637  16.106  0.00  0.00     0.066 H 
ENDBRANCH  52  53
ENDBRANCH  49  52
ENDBRANCH  46  49
ENDBRANCH  44  46
ENDBRANCH   1  44
TORSDOF 10
