REMARK  10 active torsions:
REMARK  status: ('A' for Active; 'I' for Inactive)
REMARK    1  A    between atoms: C1_1  and  O2_2 
REMARK    2  A    between atoms: O2_2  and  C3_3 
REMARK    3  A    between atoms: C3_3  and  C4_4 
REMARK    4  A    between atoms: C4_4  and  N5_5 
REMARK    5  A    between atoms: N5_5  and  C6_6 
REMARK    6  A    between atoms: C11_11  and  C22_22 
REMARK    7  A    between atoms: N14_14  and  C15_15 
REMARK    8  A    between atoms: C19_19  and  N21_21 
REMARK    9  A    between atoms: C23_23  and  C24_24 
REMARK   10  A    between atoms: C24_24  and  O30_30 
ROOT
ATOM      1  C6  2OL d   1     -37.025  13.441 -13.432  0.00  0.00     0.709 A 
ATOM      2  N7  2OL d   1     -36.052  14.134 -12.892  0.00  0.00    -0.062 NA
ATOM      3  C8  2OL d   1     -34.854  13.659 -13.320  0.00  0.00     0.103 A 
ATOM      4  C9  2OL d   1     -33.533  14.033 -13.055  0.00  0.00    -0.051 A 
ATOM      5  C10 2OL d   1     -32.502  13.358 -13.643  0.00  0.00    -0.062 A 
ATOM      6  C11 2OL d   1     -32.758  12.292 -14.511  0.00  0.00     0.020 A 
ATOM      7  C12 2OL d   1     -34.064  11.907 -14.780  0.00  0.00    -0.036 A 
ATOM      8  C13 2OL d   1     -35.122  12.584 -14.193  0.00  0.00     0.089 A 
ATOM      9  N14 2OL d   1     -36.511  12.464 -14.250  0.00  0.00    -0.126 N 
ATOM     10  H   2OL d   1     -33.328  14.858 -12.383  0.00  0.00     0.087 H 
ATOM     11  H   2OL d   1     -31.479  13.650 -13.436  0.00  0.00     0.085 H 
ATOM     12  H   2OL d   1     -34.257  11.076 -15.449  0.00  0.00     0.089 H 
ENDROOT
BRANCH   6  13
ATOM     13  C22 2OL d   1     -31.668  11.592 -15.129  0.00  0.00    -0.064 C 
ATOM     14  C23 2OL d   1     -30.794  10.998 -15.635  0.00  0.00    -0.063 C 
BRANCH  14  15
ATOM     15  C24 2OL d   1     -29.695  10.252 -16.278  0.00  0.00     0.121 C 
ATOM     16  C25 2OL d   1     -30.023   8.758 -16.279  0.00  0.00    -0.026 C 
ATOM     17  C26 2OL d   1     -28.970   7.969 -17.081  0.00  0.00    -0.061 C 
ATOM     18  H   2OL d   1     -31.012   8.606 -16.735  0.00  0.00     0.038 H 
ATOM     19  H   2OL d   1     -30.037   8.391 -15.242  0.00  0.00     0.038 H 
ATOM     20  C27 2OL d   1     -28.888   8.506 -18.510  0.00  0.00    -0.065 C 
ATOM     21  H   2OL d   1     -29.253   6.907 -17.107  0.00  0.00     0.033 H 
ATOM     22  H   2OL d   1     -27.988   8.075 -16.596  0.00  0.00     0.033 H 
ATOM     23  C28 2OL d   1     -28.480   9.976 -18.469  0.00  0.00    -0.061 C 
ATOM     24  H   2OL d   1     -29.870   8.410 -18.997  0.00  0.00     0.033 H 
ATOM     25  H   2OL d   1     -28.140   7.932 -19.077  0.00  0.00     0.033 H 
ATOM     26  C29 2OL d   1     -29.553  10.768 -17.725  0.00  0.00    -0.026 C 
ATOM     27  H   2OL d   1     -28.382  10.361 -19.495  0.00  0.00     0.033 H 
ATOM     28  H   2OL d   1     -27.517  10.077 -17.946  0.00  0.00     0.033 H 
ATOM     29  H   2OL d   1     -29.270  11.831 -17.705  0.00  0.00     0.038 H 
ATOM     30  H   2OL d   1     -30.515  10.654 -18.247  0.00  0.00     0.038 H 
BRANCH  15  31
ATOM     31  O30 2OL d   1     -28.479  10.499 -15.581  0.00  0.00    -0.378 OA
ATOM     32  H   2OL d   1     -28.293  11.431 -15.591  0.00  0.00     0.211 HD
ENDBRANCH  15  31
ENDBRANCH  14  15
ENDBRANCH   6  13
BRANCH   9  33
ATOM     33  C15 2OL d   1     -37.259  11.532 -14.988  0.00  0.00     0.171 A 
ATOM     34  C16 2OL d   1     -36.762  10.961 -16.166  0.00  0.00    -0.019 A 
ATOM     35  C17 2OL d   1     -37.542  10.045 -16.848  0.00  0.00     0.025 A 
ATOM     36  H   2OL d   1     -35.781  11.233 -16.538  0.00  0.00     0.091 H 
ATOM     37  N18 2OL d   1     -38.740   9.734 -16.373  0.00  0.00    -0.075 NA
ATOM     38  H   2OL d   1     -37.178   9.587 -17.760  0.00  0.00     0.115 H 
ATOM     39  C19 2OL d   1     -39.191  10.286 -15.257  0.00  0.00     0.721 A 
ATOM     40  N20 2OL d   1     -38.471  11.167 -14.571  0.00  0.00    -0.044 NA
BRANCH  39  41
ATOM     41  N21 2OL d   1     -40.446   9.926 -14.798  0.00  0.00    -0.231 N 
ATOM     42  H   2OL d   1     -41.011   9.244 -15.324  0.00  0.00     0.174 HD
ATOM     43  H   2OL d   1     -40.816  10.340 -13.930  0.00  0.00     0.174 HD
ENDBRANCH  39  41
ENDBRANCH   9  33
BRANCH   1  44
ATOM     44  N5  2OL d   1     -38.365  13.669 -13.206  0.00  0.00    -0.222 N 
ATOM     45  H   2OL d   1     -39.065  13.399 -13.912  0.00  0.00     0.177 HD
BRANCH  44  46
ATOM     46  C4  2OL d   1     -38.785  14.299 -11.951  0.00  0.00     0.029 C 
ATOM     47  H   2OL d   1     -37.905  14.702 -11.428  0.00  0.00     0.068 H 
ATOM     48  H   2OL d   1     -39.490  15.116 -12.166  0.00  0.00     0.068 H 
BRANCH  46  49
ATOM     49  C3  2OL d   1     -39.469  13.249 -11.070  0.00  0.00     0.034 C 
ATOM     50  H   2OL d   1     -38.726  12.513 -10.729  0.00  0.00     0.076 H 
ATOM     51  H   2OL d   1     -39.925  13.740 -10.198  0.00  0.00     0.076 H 
BRANCH  49  52
ATOM     52  O2  2OL d   1     -40.483  12.588 -11.832  0.00  0.00    -0.394 OA
BRANCH  52  53
ATOM     53  C1  2OL d   1     -40.926  11.353 -11.270  0.00  0.00     0.004 C 
ATOM     54  H   2OL d   1     -41.701  10.914 -11.915  0.00  0.00     0.066 H 
ATOM     55  H   2OL d   1     -41.342  11.534 -10.268  0.00  0.00     0.066 H 
ATOM     56  H   2OL d   1     -40.076  10.659 -11.194  0.00  0.00     0.066 H 
ENDBRANCH  52  53
ENDBRANCH  49  52
ENDBRANCH  46  49
ENDBRANCH  44  46
ENDBRANCH   1  44
TORSDOF 10
