REMARK  5 active torsions:
REMARK  status: ('A' for Active; 'I' for Inactive)
REMARK    1  A    between atoms: C6_6  and  C10_10 
REMARK       I    between atoms: C10_10  and  N12_12 
REMARK    2  A    between atoms: N12_12  and  C13_13 
REMARK    3  A    between atoms: C13_13  and  C14_14 
REMARK    4  A    between atoms: C17_17  and  S20_20 
REMARK    5  A    between atoms: S20_20  and  C23_23 
ROOT
ATOM      1  C14 2RM d   1      16.417   8.423   0.712  0.00  0.00    -0.040 A 
ATOM      2  C15 2RM d   1      16.058   7.204   1.239  0.00  0.00    -0.074 A 
ATOM      3  C16 2RM d   1      15.332   6.314   0.476  0.00  0.00    -0.061 A 
ATOM      4  C17 2RM d   1      14.951   6.638  -0.811  0.00  0.00     0.064 A 
ATOM      5  C18 2RM d   1      15.328   7.852  -1.359  0.00  0.00    -0.061 A 
ATOM      6  C19 2RM d   1      16.059   8.743  -0.588  0.00  0.00    -0.074 A 
ATOM      7  H   2RM d   1      16.345   6.944   2.251  0.00  0.00     0.084 H 
ATOM      8  H   2RM d   1      15.058   5.351   0.891  0.00  0.00     0.085 H 
ATOM      9  H   2RM d   1      15.055   8.103  -2.378  0.00  0.00     0.085 H 
ATOM     10  H   2RM d   1      16.353   9.699  -1.006  0.00  0.00     0.084 H 
ENDROOT
BRANCH   1  11
ATOM     11  C13 2RM d   1      17.233   9.387   1.529  0.00  0.00     0.019 C 
ATOM     12  H   2RM d   1      18.236   8.958   1.667  0.00  0.00     0.071 H 
ATOM     13  H   2RM d   1      17.312  10.331   0.970  0.00  0.00     0.071 H 
BRANCH  11  14
ATOM     14  N12 2RM d   1      16.676   9.680   2.846  0.00  0.00    -0.353 N 
ATOM     15  C10 2RM d   1      15.541  10.394   2.953  0.00  0.00     0.253 C 
ATOM     16  O11 2RM d   1      14.954  10.777   1.955  0.00  0.00    -0.268 OA
ATOM     17  H   2RM d   1      17.138   9.350   3.669  0.00  0.00     0.163 HD
BRANCH  15  18
ATOM     18  C6  2RM d   1      15.019  10.677   4.300  0.00  0.00     0.048 A 
ATOM     19  C5  2RM d   1      13.854  11.545   4.473  0.00  0.00    -0.064 A 
ATOM     20  C4  2RM d   1      13.405  11.777   5.731  0.00  0.00    -0.056 A 
ATOM     21  H   2RM d   1      13.360  11.994   3.612  0.00  0.00     0.085 H 
ATOM     22  C3  2RM d   1      14.054  11.190   6.838  0.00  0.00     0.038 A 
ATOM     23  H   2RM d   1      12.540  12.419   5.888  0.00  0.00     0.087 H 
ATOM     24  C2  2RM d   1      13.800  11.262   8.198  0.00  0.00    -0.055 A 
ATOM     25  N8  2RM d   1      15.150  10.373   6.652  0.00  0.00    -0.332 N 
ATOM     26  C1  2RM d   1      14.763  10.468   8.829  0.00  0.00    -0.065 A 
ATOM     27  H   2RM d   1      13.005  11.827   8.682  0.00  0.00     0.087 H 
ATOM     28  C9  2RM d   1      15.573   9.941   7.880  0.00  0.00    -0.015 A 
ATOM     29  H   2RM d   1      14.847  10.302   9.902  0.00  0.00     0.085 H 
ATOM     30  H   2RM d   1      16.421   9.283   8.064  0.00  0.00     0.112 H 
ATOM     31  C7  2RM d   1      15.624  10.126   5.392  0.00  0.00    -0.000 A 
ATOM     32  H   2RM d   1      16.493   9.483   5.260  0.00  0.00     0.113 H 
ENDBRANCH  15  18
ENDBRANCH  11  14
ENDBRANCH   1  11
BRANCH   4  33
ATOM     33  S20 2RM d   1      14.056   5.453  -1.758  0.00  0.00     0.207 S 
ATOM     34  O21 2RM d   1      13.614   4.430  -0.873  0.00  0.00    -0.217 OA
ATOM     35  O22 2RM d   1      13.197   6.121  -2.669  0.00  0.00    -0.217 OA
BRANCH  33  36
ATOM     36  C23 2RM d   1      15.469   4.816  -2.604  0.00  0.00     0.070 A 
ATOM     37  C24 2RM d   1      16.372   4.068  -1.868  0.00  0.00    -0.024 A 
ATOM     38  C25 2RM d   1      17.514   3.551  -2.455  0.00  0.00     0.120 A 
ATOM     39  H   2RM d   1      16.182   3.885  -0.817  0.00  0.00     0.090 H 
ATOM     40  C26 2RM d   1      17.761   3.799  -3.789  0.00  0.00    -0.008 A 
ATOM     41  F30 2RM d   1      18.379   2.814  -1.725  0.00  0.00    -0.206 F 
ATOM     42  C27 2RM d   1      16.870   4.559  -4.529  0.00  0.00     0.120 A 
ATOM     43  H   2RM d   1      18.652   3.399  -4.258  0.00  0.00     0.092 H 
ATOM     44  C28 2RM d   1      15.723   5.079  -3.941  0.00  0.00    -0.024 A 
ATOM     45  F29 2RM d   1      17.136   4.791  -5.831  0.00  0.00    -0.206 F 
ATOM     46  H   2RM d   1      15.035   5.683  -4.521  0.00  0.00     0.090 H 
ENDBRANCH  33  36
ENDBRANCH   4  33
TORSDOF 5
