REMARK  5 active torsions:
REMARK  status: ('A' for Active; 'I' for Inactive)
REMARK    1  A    between atoms: C10_5  and  C5_2 
REMARK       I    between atoms: N12_6  and  C10_5 
REMARK    2  A    between atoms: C13_7  and  N12_6 
REMARK    3  A    between atoms: C14_19  and  C13_7 
REMARK    4  A    between atoms: S20_23  and  C17_9 
REMARK    5  A    between atoms: S20_23  and  C23_26 
ROOT
ATOM      1  C15 2QF d   1      15.888   7.349   1.460  0.00  0.00    -0.074 A 
ATOM      2  C17 2QF d   1      14.955   6.742  -0.668  0.00  0.00     0.064 A 
ATOM      3  C14 2QF d   1      16.464   8.469   0.941  0.00  0.00    -0.040 A 
ATOM      4  C16 2QF d   1      15.145   6.493   0.682  0.00  0.00    -0.061 A 
ATOM      5  C18 2QF d   1      15.551   7.876  -1.211  0.00  0.00    -0.061 A 
ATOM      6  C19 2QF d   1      16.295   8.731  -0.413  0.00  0.00    -0.074 A 
ATOM      7  H   2QF d   1      16.019   7.127   2.513  0.00  0.00     0.084 H 
ATOM      8  H   2QF d   1      14.702   5.611   1.131  0.00  0.00     0.085 H 
ATOM      9  H   2QF d   1      15.432   8.093  -2.267  0.00  0.00     0.085 H 
ATOM     10  H   2QF d   1      16.750   9.613  -0.850  0.00  0.00     0.084 H 
ENDROOT
BRANCH   3  11
ATOM     11  C13 2QF d   1      17.328   9.367   1.773  0.00  0.00     0.019 C 
ATOM     12  H   2QF d   1      18.330   8.917   1.840  0.00  0.00     0.071 H 
ATOM     13  H   2QF d   1      17.397  10.343   1.270  0.00  0.00     0.071 H 
BRANCH  11  14
ATOM     14  N12 2QF d   1      16.833   9.584   3.126  0.00  0.00    -0.353 N 
ATOM     15  C10 2QF d   1      15.758  10.361   3.206  0.00  0.00     0.252 C 
ATOM     16  O11 2QF d   1      15.226  10.830   2.192  0.00  0.00    -0.268 OA
ATOM     17  H   2QF d   1      17.268   9.180   3.931  0.00  0.00     0.163 HD
BRANCH  15  18
ATOM     18  C5  2QF d   1      15.215  10.610   4.542  0.00  0.00     0.035 A 
ATOM     19  C4  2QF d   1      15.739   9.998   5.675  0.00  0.00    -0.042 A 
ATOM     20  C3  2QF d   1      15.151  10.314   6.929  0.00  0.00     0.039 A 
ATOM     21  H   2QF d   1      16.572   9.300   5.604  0.00  0.00     0.088 H 
ATOM     22  C2  2QF d   1      15.389   9.913   8.233  0.00  0.00    -0.055 A 
ATOM     23  N8  2QF d   1      14.085  11.184   7.008  0.00  0.00    -0.333 N 
ATOM     24  C1  2QF d   1      14.451  10.537   9.066  0.00  0.00    -0.065 A 
ATOM     25  H   2QF d   1      16.172   9.229   8.556  0.00  0.00     0.087 H 
ATOM     26  C9  2QF d   1      13.658  11.332   8.297  0.00  0.00    -0.015 A 
ATOM     27  H   2QF d   1      14.370  10.408  10.144  0.00  0.00     0.085 H 
ATOM     28  H   2QF d   1      12.841  11.964   8.643  0.00  0.00     0.112 H 
ATOM     29  C7  2QF d   1      13.588  11.766   5.879  0.00  0.00    -0.014 A 
ATOM     30  C6  2QF d   1      14.102  11.532   4.676  0.00  0.00    -0.052 A 
ATOM     31  H   2QF d   1      12.741  12.445   5.966  0.00  0.00     0.112 H 
ATOM     32  H   2QF d   1      13.691  12.028   3.798  0.00  0.00     0.087 H 
ENDBRANCH  15  18
ENDBRANCH  11  14
ENDBRANCH   3  11
BRANCH   2  33
ATOM     33  S20 2QF d   1      14.073   5.548  -1.617  0.00  0.00     0.207 S 
ATOM     34  O21 2QF d   1      13.539   4.522  -0.759  0.00  0.00    -0.217 OA
ATOM     35  O22 2QF d   1      13.272   6.186  -2.607  0.00  0.00    -0.217 OA
BRANCH  33  36
ATOM     36  C23 2QF d   1      15.510   4.825  -2.379  0.00  0.00     0.070 A 
ATOM     37  C24 2QF d   1      15.763   5.017  -3.725  0.00  0.00    -0.024 A 
ATOM     38  C25 2QF d   1      16.903   4.449  -4.294  0.00  0.00     0.120 A 
ATOM     39  H   2QF d   1      15.082   5.603  -4.332  0.00  0.00     0.090 H 
ATOM     40  C26 2QF d   1      17.826   3.712  -3.571  0.00  0.00    -0.008 A 
ATOM     41  F30 2QF d   1      17.109   4.646  -5.614  0.00  0.00    -0.206 F 
ATOM     42  C27 2QF d   1      17.592   3.545  -2.206  0.00  0.00     0.120 A 
ATOM     43  H   2QF d   1      18.698   3.281  -4.048  0.00  0.00     0.092 H 
ATOM     44  C28 2QF d   1      16.445   4.097  -1.636  0.00  0.00    -0.024 A 
ATOM     45  F29 2QF d   1      18.474   2.843  -1.454  0.00  0.00    -0.206 F 
ATOM     46  H   2QF d   1      16.271   3.956  -0.575  0.00  0.00     0.090 H 
ENDBRANCH  33  36
ENDBRANCH   2  33
TORSDOF 5
