REMARK  9 active torsions:
REMARK  status: ('A' for Active; 'I' for Inactive)
REMARK    1  A    between atoms: O7_17  and  C6_6 
REMARK    2  A    between atoms: C9_8  and  C8_7 
REMARK    3  A    between atoms: C8_7  and  O7_17 
REMARK    4  A    between atoms: C10_9  and  C9_8 
REMARK    5  A    between atoms: C11_10  and  C10_9 
REMARK    6  A    between atoms: C12_11  and  C11_10 
REMARK    7  A    between atoms: C13_12  and  C12_11 
REMARK    8  A    between atoms: N14_18  and  C13_12 
REMARK       I    between atoms: C15_13  and  N14_18 
REMARK       I    between atoms: N19_21  and  C15_13 
REMARK    9  A    between atoms: C20_15  and  N19_21 
ROOT
ATOM      1  C15 2QG d   1      15.752   9.861   3.897  0.00  0.00     0.687 C 
ATOM      2  C17 2QG d   1      14.011  10.395   2.285  0.00  0.00     0.196 C 
ATOM      3  N14 2QG d   1      16.703   9.288   3.071  0.00  0.00    -0.225 N 
ATOM      4  N16 2QG d   1      14.562  10.349   3.523  0.00  0.00    -0.126 N 
ATOM      5  N18 2QG d   1      13.550  10.427   1.243  0.00  0.00    -0.171 NA
ATOM      6  N19 2QG d   1      16.132   9.919   5.225  0.00  0.00    -0.191 N 
ATOM      7  H   2QG d   1      17.609   9.088   3.518  0.00  0.00     0.177 HD
ATOM      8  H   2QG d   1      13.986  10.744   4.280  0.00  0.00     0.197 HD
ATOM      9  H   2QG d   1      17.117   9.685   5.413  0.00  0.00     0.184 HD
ENDROOT
BRANCH   3  10
ATOM     10  C13 2QG d   1      16.611   8.921   1.646  0.00  0.00     0.009 C 
ATOM     11  H   2QG d   1      16.075   9.713   1.103  0.00  0.00     0.064 H 
ATOM     12  H   2QG d   1      17.625   8.816   1.234  0.00  0.00     0.064 H 
BRANCH  10  13
ATOM     13  C12 2QG d   1      15.859   7.597   1.475  0.00  0.00    -0.050 C 
ATOM     14  H   2QG d   1      16.246   6.856   2.189  0.00  0.00     0.035 H 
ATOM     15  H   2QG d   1      14.785   7.754   1.655  0.00  0.00     0.035 H 
BRANCH  13  16
ATOM     16  C11 2QG d   1      16.075   7.095   0.040  0.00  0.00    -0.064 C 
ATOM     17  H   2QG d   1      16.070   7.956  -0.644  0.00  0.00     0.033 H 
ATOM     18  H   2QG d   1      17.048   6.586  -0.018  0.00  0.00     0.033 H 
BRANCH  16  19
ATOM     19  C10 2QG d   1      14.976   6.117  -0.384  0.00  0.00    -0.063 C 
ATOM     20  H   2QG d   1      15.200   5.116   0.013  0.00  0.00     0.033 H 
ATOM     21  H   2QG d   1      14.007   6.459   0.008  0.00  0.00     0.033 H 
BRANCH  19  22
ATOM     22  C9  2QG d   1      14.920   6.062  -1.916  0.00  0.00    -0.045 C 
ATOM     23  H   2QG d   1      14.499   7.005  -2.295  0.00  0.00     0.036 H 
ATOM     24  H   2QG d   1      15.939   5.931  -2.309  0.00  0.00     0.036 H 
BRANCH  22  25
ATOM     25  C8  2QG d   1      14.048   4.900  -2.389  0.00  0.00     0.026 C 
ATOM     26  H   2QG d   1      13.965   4.931  -3.485  0.00  0.00     0.075 H 
ATOM     27  H   2QG d   1      13.047   4.992  -1.943  0.00  0.00     0.075 H 
BRANCH  25  28
ATOM     28  O7  2QG d   1      14.629   3.649  -1.993  0.00  0.00    -0.351 OA
BRANCH  28  29
ATOM     29  C6  2QG d   1      15.900   3.364  -2.399  0.00  0.00     0.068 A 
ATOM     30  C1  2QG d   1      16.229   3.357  -3.753  0.00  0.00    -0.049 A 
ATOM     31  C2  2QG d   1      17.517   3.061  -4.145  0.00  0.00    -0.059 A 
ATOM     32  H   2QG d   1      15.474   3.584  -4.497  0.00  0.00     0.087 H 
ATOM     33  C3  2QG d   1      18.486   2.768  -3.197  0.00  0.00     0.034 A 
ATOM     34  H   2QG d   1      17.773   3.057  -5.198  0.00  0.00     0.086 H 
ATOM     35  C4  2QG d   1      18.159   2.770  -1.853  0.00  0.00    -0.059 A 
ATOM     36 CL1  2QG d   1      20.108   2.398  -3.690  0.00  0.00    -0.084 Cl
ATOM     37  C5  2QG d   1      16.869   3.065  -1.455  0.00  0.00    -0.049 A 
ATOM     38  H   2QG d   1      18.915   2.540  -1.111  0.00  0.00     0.086 H 
ATOM     39  H   2QG d   1      16.614   3.062  -0.401  0.00  0.00     0.087 H 
ENDBRANCH  28  29
ENDBRANCH  25  28
ENDBRANCH  22  25
ENDBRANCH  19  22
ENDBRANCH  16  19
ENDBRANCH  13  16
ENDBRANCH  10  13
ENDBRANCH   3  10
BRANCH   6  40
ATOM     40  C20 2QG d   1      15.366  10.252   6.356  0.00  0.00     0.051 A 
ATOM     41  C21 2QG d   1      14.124  10.900   6.327  0.00  0.00    -0.040 A 
ATOM     42  C22 2QG d   1      13.463  11.180   7.508  0.00  0.00     0.004 A 
ATOM     43  H   2QG d   1      13.682  11.182   5.378  0.00  0.00     0.089 H 
ATOM     44  N23 2QG d   1      13.993  10.848   8.669  0.00  0.00    -0.273 NA
ATOM     45  H   2QG d   1      12.500  11.677   7.480  0.00  0.00     0.114 H 
ATOM     46  C24 2QG d   1      15.162  10.242   8.753  0.00  0.00     0.004 A 
ATOM     47  C25 2QG d   1      15.879   9.934   7.613  0.00  0.00    -0.040 A 
ATOM     48  H   2QG d   1      15.564   9.983   9.726  0.00  0.00     0.114 H 
ATOM     49  H   2QG d   1      16.842   9.444   7.696  0.00  0.00     0.089 H 
ENDBRANCH   6  40
TORSDOF 9
