REMARK  6 active torsions:
REMARK  status: ('A' for Active; 'I' for Inactive)
REMARK    1  A    between atoms: C3_3  and  C30_29 
REMARK    2  A    between atoms: C5_5  and  S7_7 
REMARK    3  A    between atoms: S7_7  and  C10_10 
REMARK    4  A    between atoms: C13_13  and  C16_16 
REMARK    5  A    between atoms: C16_16  and  N17_17 
REMARK       I    between atoms: N17_17  and  C18_18 
REMARK    6  A    between atoms: C18_18  and  C20_20 
ROOT
ATOM      1  C10 2P1 d   1      15.038   6.717  -0.695  0.00  0.00     0.064 A 
ATOM      2  C11 2P1 d   1      15.416   6.338   0.576  0.00  0.00    -0.061 A 
ATOM      3  C12 2P1 d   1      16.143   7.194   1.374  0.00  0.00    -0.074 A 
ATOM      4  C13 2P1 d   1      16.500   8.442   0.920  0.00  0.00    -0.040 A 
ATOM      5  C14 2P1 d   1      16.136   8.826  -0.361  0.00  0.00    -0.074 A 
ATOM      6  C15 2P1 d   1      15.408   7.965  -1.169  0.00  0.00    -0.061 A 
ATOM      7  H   2P1 d   1      15.139   5.359   0.950  0.00  0.00     0.085 H 
ATOM      8  H   2P1 d   1      16.436   6.881   2.369  0.00  0.00     0.084 H 
ATOM      9  H   2P1 d   1      16.421   9.803  -0.733  0.00  0.00     0.084 H 
ATOM     10  H   2P1 d   1      15.129   8.269  -2.171  0.00  0.00     0.085 H 
ENDROOT
BRANCH   4  11
ATOM     11  C16 2P1 d   1      17.321   9.373   1.783  0.00  0.00     0.019 C 
ATOM     12  H   2P1 d   1      17.365  10.353   1.286  0.00  0.00     0.071 H 
ATOM     13  H   2P1 d   1      18.336   8.958   1.866  0.00  0.00     0.071 H 
BRANCH  11  14
ATOM     14  N17 2P1 d   1      16.795   9.570   3.136  0.00  0.00    -0.353 N 
ATOM     15  C18 2P1 d   1      15.703  10.337   3.253  0.00  0.00     0.253 C 
ATOM     16  O19 2P1 d   1      15.177  10.806   2.251  0.00  0.00    -0.268 OA
ATOM     17  H   2P1 d   1      17.230   9.152   3.934  0.00  0.00     0.163 HD
BRANCH  15  18
ATOM     18  C20 2P1 d   1      15.128  10.598   4.580  0.00  0.00     0.050 A 
ATOM     19  C21 2P1 d   1      15.699  10.065   5.744  0.00  0.00    -0.051 A 
ATOM     20  C22 2P1 d   1      15.081  10.375   6.959  0.00  0.00     0.031 A 
ATOM     21  H   2P1 d   1      16.583   9.439   5.704  0.00  0.00     0.086 H 
ATOM     22  C23 2P1 d   1      15.328  10.037   8.356  0.00  0.00     0.035 A 
ATOM     23  C27 2P1 d   1      13.934  11.207   6.958  0.00  0.00     0.155 A 
ATOM     24  N24 2P1 d   1      14.396  10.608   9.071  0.00  0.00    -0.185 NA
ATOM     25  H   2P1 d   1      16.142   9.420   8.734  0.00  0.00     0.118 H 
ATOM     26  N25 2P1 d   1      13.540  11.351   8.257  0.00  0.00    -0.261 N 
ATOM     27  H   2P1 d   1      12.742  11.915   8.583  0.00  0.00     0.191 HD
ATOM     28  N28 2P1 d   1      13.454  11.688   5.822  0.00  0.00    -0.240 NA
ATOM     29  C29 2P1 d   1      14.001  11.413   4.662  0.00  0.00     0.020 A 
ATOM     30  H   2P1 d   1      13.571  11.825   3.756  0.00  0.00     0.116 H 
ENDBRANCH  15  18
ENDBRANCH  11  14
ENDBRANCH   4  11
BRANCH   1  31
ATOM     31  S7  2P1 d   1      14.144   5.570  -1.685  0.00  0.00     0.206 S 
ATOM     32  O8  2P1 d   1      13.285   6.249  -2.597  0.00  0.00    -0.217 OA
ATOM     33  O9  2P1 d   1      13.715   4.484  -0.881  0.00  0.00    -0.217 OA
BRANCH  31  34
ATOM     34  C5  2P1 d   1      15.471   4.894  -2.651  0.00  0.00     0.065 A 
ATOM     35  C4  2P1 d   1      16.479   4.163  -2.029  0.00  0.00    -0.047 A 
ATOM     36  C3  2P1 d   1      17.524   3.630  -2.773  0.00  0.00     0.049 A 
ATOM     37  H   2P1 d   1      16.448   4.008  -0.957  0.00  0.00     0.087 H 
ATOM     38  C2  2P1 d   1      17.567   3.828  -4.137  0.00  0.00    -0.068 A 
ATOM     39  C1  2P1 d   1      16.569   4.550  -4.775  0.00  0.00    -0.081 A 
ATOM     40  H   2P1 d   1      18.387   3.417  -4.715  0.00  0.00     0.084 H 
ATOM     41  C6  2P1 d   1      15.527   5.080  -4.028  0.00  0.00    -0.062 A 
ATOM     42  H   2P1 d   1      16.603   4.699  -5.848  0.00  0.00     0.083 H 
ATOM     43  H   2P1 d   1      14.747   5.646  -4.524  0.00  0.00     0.085 H 
BRANCH  36  44
ATOM     44  C30 2P1 d   1      18.637   2.842  -2.123  0.00  0.00     0.417 C 
ATOM     45  F31 2P1 d   1      19.739   3.669  -1.894  0.00  0.00    -0.166 F 
ATOM     46  F32 2P1 d   1      18.239   2.339  -0.893  0.00  0.00    -0.166 F 
ATOM     47  F33 2P1 d   1      18.997   1.787  -2.966  0.00  0.00    -0.166 F 
ENDBRANCH  36  44
ENDBRANCH  31  34
ENDBRANCH   1  31
TORSDOF 6
