REMARK  6 active torsions:
REMARK  status: ('A' for Active; 'I' for Inactive)
REMARK    1  A    between atoms: C3_3  and  C30_29 
REMARK    2  A    between atoms: C5_5  and  S7_7 
REMARK    3  A    between atoms: S7_7  and  C10_10 
REMARK    4  A    between atoms: C13_13  and  C16_16 
REMARK    5  A    between atoms: C16_16  and  N17_17 
REMARK       I    between atoms: N17_17  and  C18_18 
REMARK    6  A    between atoms: C18_18  and  C20_20 
ROOT
ATOM      1  C10 2P1 d   1      15.138   7.158  -0.584  0.00  0.00     0.064 A 
ATOM      2  C11 2P1 d   1      15.682   8.315  -1.109  0.00  0.00    -0.061 A 
ATOM      3  C12 2P1 d   1      16.367   9.179  -0.278  0.00  0.00    -0.074 A 
ATOM      4  C13 2P1 d   1      16.518   8.879   1.063  0.00  0.00    -0.040 A 
ATOM      5  C14 2P1 d   1      15.983   7.719   1.587  0.00  0.00    -0.074 A 
ATOM      6  C15 2P1 d   1      15.298   6.856   0.753  0.00  0.00    -0.061 A 
ATOM      7  H   2P1 d   1      15.572   8.542  -2.163  0.00  0.00     0.085 H 
ATOM      8  H   2P1 d   1      16.787  10.095  -0.678  0.00  0.00     0.084 H 
ATOM      9  H   2P1 d   1      16.099   7.488   2.640  0.00  0.00     0.084 H 
ATOM     10  H   2P1 d   1      14.884   5.937   1.151  0.00  0.00     0.085 H 
ENDROOT
BRANCH   4  11
ATOM     11  C16 2P1 d   1      17.296   9.839   1.927  0.00  0.00     0.019 C 
ATOM     12  H   2P1 d   1      17.268  10.828   1.446  0.00  0.00     0.071 H 
ATOM     13  H   2P1 d   1      18.336   9.484   1.977  0.00  0.00     0.071 H 
BRANCH  11  14
ATOM     14  N17 2P1 d   1      16.804   9.990   3.297  0.00  0.00    -0.353 N 
ATOM     15  C18 2P1 d   1      15.686  10.718   3.427  0.00  0.00     0.253 C 
ATOM     16  O19 2P1 d   1      15.172  11.179   2.420  0.00  0.00    -0.268 OA
ATOM     17  H   2P1 d   1      17.269   9.579   4.081  0.00  0.00     0.163 HD
BRANCH  15  18
ATOM     18  C20 2P1 d   1      15.089  10.977   4.750  0.00  0.00     0.050 A 
ATOM     19  C21 2P1 d   1      15.626  10.460   5.937  0.00  0.00    -0.051 A 
ATOM     20  C22 2P1 d   1      14.968  10.791   7.134  0.00  0.00     0.031 A 
ATOM     21  H   2P1 d   1      16.510   9.832   5.932  0.00  0.00     0.086 H 
ATOM     22  C23 2P1 d   1      15.182  10.472   8.542  0.00  0.00     0.035 A 
ATOM     23  C27 2P1 d   1      13.824  11.622   7.099  0.00  0.00     0.155 A 
ATOM     24  N24 2P1 d   1      14.241  11.058   9.233  0.00  0.00    -0.185 NA
ATOM     25  H   2P1 d   1      15.984   9.855   8.945  0.00  0.00     0.118 H 
ATOM     26  N25 2P1 d   1      13.393  11.774   8.390  0.00  0.00    -0.261 N 
ATOM     27  H   2P1 d   1      12.577  12.326   8.689  0.00  0.00     0.191 HD
ATOM     28  N28 2P1 d   1      13.373  12.083   5.943  0.00  0.00    -0.240 NA
ATOM     29  C29 2P1 d   1      13.955  11.795   4.809  0.00  0.00     0.020 A 
ATOM     30  H   2P1 d   1      13.549  12.200   3.889  0.00  0.00     0.116 H 
ENDBRANCH  15  18
ENDBRANCH  11  14
ENDBRANCH   4  11
BRANCH   1  31
ATOM     31  S7  2P1 d   1      14.310   6.032  -1.654  0.00  0.00     0.206 S 
ATOM     32  O8  2P1 d   1      13.504   6.750  -2.578  0.00  0.00    -0.217 OA
ATOM     33  O9  2P1 d   1      13.847   4.941  -0.860  0.00  0.00    -0.217 OA
BRANCH  31  34
ATOM     34  C5  2P1 d   1      15.715   5.402  -2.531  0.00  0.00     0.065 A 
ATOM     35  C4  2P1 d   1      16.668   4.644  -1.857  0.00  0.00    -0.047 A 
ATOM     36  C3  2P1 d   1      17.781   4.159  -2.530  0.00  0.00     0.049 A 
ATOM     37  H   2P1 d   1      16.541   4.431  -0.802  0.00  0.00     0.087 H 
ATOM     38  C2  2P1 d   1      17.934   4.437  -3.876  0.00  0.00    -0.068 A 
ATOM     39  C1  2P1 d   1      16.992   5.193  -4.551  0.00  0.00    -0.081 A 
ATOM     40  H   2P1 d   1      18.800   4.059  -4.407  0.00  0.00     0.084 H 
ATOM     41  C6  2P1 d   1      15.888   5.679  -3.877  0.00  0.00    -0.062 A 
ATOM     42  H   2P1 d   1      17.120   5.404  -5.607  0.00  0.00     0.083 H 
ATOM     43  H   2P1 d   1      15.155   6.279  -4.404  0.00  0.00     0.085 H 
BRANCH  36  44
ATOM     44  C30 2P1 d   1      18.834   3.330  -1.826  0.00  0.00     0.417 C 
ATOM     45  F31 2P1 d   1      19.958   4.099  -1.530  0.00  0.00    -0.166 F 
ATOM     46  F32 2P1 d   1      18.329   2.806  -0.645  0.00  0.00    -0.166 F 
ATOM     47  F33 2P1 d   1      19.253   2.286  -2.649  0.00  0.00    -0.166 F 
ENDBRANCH  36  44
ENDBRANCH  31  34
ENDBRANCH   1  31
TORSDOF 6
