REMARK  9 active torsions:
REMARK  status: ('A' for Active; 'I' for Inactive)
REMARK    1  A    between atoms: CBA_6  and  CAY_7 
REMARK       I    between atoms: CAY_7  and  NBC_9 
REMARK    2  A    between atoms: CBB_14  and  CAQ_15 
REMARK    3  A    between atoms: CAQ_15  and  CAO_16 
REMARK    4  A    between atoms: CAO_16  and  CAN_17 
REMARK    5  A    between atoms: CAN_17  and  CAP_18 
REMARK    6  A    between atoms: CAP_18  and  NAW_19 
REMARK       I    between atoms: NAW_19  and  CAX_20 
REMARK    7  A    between atoms: CAX_20  and  CAC_22 
REMARK    8  A    between atoms: CAC_22  and  CAD_23 
REMARK    9  A    between atoms: CAD_23  and  CAZ_24 
ROOT
ATOM      1  CAQ DGB d   1      14.645   5.975  -2.847  0.00  0.00    -0.061 C 
ATOM      2  H   DGB d   1      15.706   5.837  -3.103  0.00  0.00     0.033 H 
ATOM      3  H   DGB d   1      14.336   5.198  -2.132  0.00  0.00     0.033 H 
ENDROOT
BRANCH   1   4
ATOM      4  CBB DGB d   1      13.794   5.842  -4.135  0.00  0.00    -0.051 C 
ATOM      5  CAS DGB d   1      12.335   5.553  -3.747  0.00  0.00    -0.047 C 
ATOM      6  CAU DGB d   1      11.446   5.402  -5.000  0.00  0.00    -0.002 C 
ATOM      7  H   DGB d   1      12.296   4.621  -3.164  0.00  0.00     0.035 H 
ATOM      8  H   DGB d   1      11.955   6.384  -3.135  0.00  0.00     0.035 H 
ATOM      9  NBC DGB d   1      12.019   4.289  -5.771  0.00  0.00    -0.348 N 
ATOM     10  H   DGB d   1      10.411   5.172  -4.709  0.00  0.00     0.064 H 
ATOM     11  H   DGB d   1      11.463   6.327  -5.594  0.00  0.00     0.064 H 
ATOM     12  CAY DGB d   1      11.323   3.136  -5.940  0.00  0.00     0.253 C 
ATOM     13  CAT DGB d   1      13.397   4.477  -6.258  0.00  0.00    -0.002 C 
ATOM     14  OAB DGB d   1      10.195   3.029  -5.484  0.00  0.00    -0.267 OA
ATOM     15  CAR DGB d   1      14.313   4.703  -5.038  0.00  0.00    -0.047 C 
ATOM     16  H   DGB d   1      13.441   5.352  -6.923  0.00  0.00     0.064 H 
ATOM     17  H   DGB d   1      13.723   3.582  -6.808  0.00  0.00     0.064 H 
ATOM     18  H   DGB d   1      15.322   4.962  -5.393  0.00  0.00     0.035 H 
ATOM     19  H   DGB d   1      14.358   3.775  -4.450  0.00  0.00     0.035 H 
ATOM     20  H   DGB d   1      13.842   6.789  -4.693  0.00  0.00     0.040 H 
BRANCH  12  21
ATOM     21  CBA DGB d   1      11.890   1.980  -6.680  0.00  0.00     0.032 A 
ATOM     22  CAK DGB d   1      11.984   1.980  -8.072  0.00  0.00    -0.068 A 
ATOM     23  CAF DGB d   1      12.516   0.886  -8.724  0.00  0.00    -0.082 A 
ATOM     24  H   DGB d   1      11.640   2.837  -8.640  0.00  0.00     0.085 H 
ATOM     25  CAE DGB d   1      12.941  -0.219  -8.013  0.00  0.00    -0.083 A 
ATOM     26  H   DGB d   1      12.601   0.894  -9.805  0.00  0.00     0.083 H 
ATOM     27  CAG DGB d   1      12.846  -0.230  -6.631  0.00  0.00    -0.082 A 
ATOM     28  H   DGB d   1      13.348  -1.077  -8.536  0.00  0.00     0.083 H 
ATOM     29  CAL DGB d   1      12.317   0.857  -5.967  0.00  0.00    -0.068 A 
ATOM     30  H   DGB d   1      13.188  -1.093  -6.071  0.00  0.00     0.083 H 
ATOM     31  H   DGB d   1      12.232   0.840  -4.886  0.00  0.00     0.085 H 
ENDBRANCH  12  21
ENDBRANCH   1   4
BRANCH   1  32
ATOM     32  CAO DGB d   1      14.462   7.362  -2.193  0.00  0.00    -0.063 C 
ATOM     33  H   DGB d   1      13.390   7.610  -2.207  0.00  0.00     0.033 H 
ATOM     34  H   DGB d   1      15.017   8.100  -2.791  0.00  0.00     0.033 H 
BRANCH  32  35
ATOM     35  CAN DGB d   1      14.960   7.451  -0.732  0.00  0.00    -0.050 C 
ATOM     36  H   DGB d   1      15.858   6.827  -0.615  0.00  0.00     0.035 H 
ATOM     37  H   DGB d   1      14.171   7.089  -0.056  0.00  0.00     0.035 H 
BRANCH  35  38
ATOM     38  CAP DGB d   1      15.304   8.912  -0.378  0.00  0.00    -0.004 C 
ATOM     39  H   DGB d   1      14.458   9.551  -0.670  0.00  0.00     0.064 H 
ATOM     40  H   DGB d   1      16.200   9.208  -0.944  0.00  0.00     0.064 H 
BRANCH  38  41
ATOM     41  NAW DGB d   1      15.568   9.112   1.052  0.00  0.00    -0.358 N 
ATOM     42  CAX DGB d   1      14.897   9.989   1.839  0.00  0.00     0.241 C 
ATOM     43  OAA DGB d   1      13.973  10.673   1.414  0.00  0.00    -0.269 OA
ATOM     44  H   DGB d   1      16.291   8.565   1.474  0.00  0.00     0.162 HD
BRANCH  42  45
ATOM     45  CAC DGB d   1      15.250  10.015   3.265  0.00  0.00    -0.017 C 
ATOM     46  H   DGB d   1      16.135   9.488   3.619  0.00  0.00     0.092 H 
BRANCH  45  47
ATOM     47  CAD DGB d   1      14.469  10.699   4.140  0.00  0.00    -0.067 C 
ATOM     48  H   DGB d   1      13.624  11.287   3.786  0.00  0.00     0.085 H 
BRANCH  47  49
ATOM     49  CAZ DGB d   1      14.786  10.631   5.578  0.00  0.00    -0.018 A 
ATOM     50  CAJ DGB d   1      15.924   9.964   6.063  0.00  0.00    -0.070 A 
ATOM     51  CAH DGB d   1      16.152   9.877   7.376  0.00  0.00    -0.065 A 
ATOM     52  H   DGB d   1      16.623   9.516   5.365  0.00  0.00     0.084 H 
ATOM     53  CAI DGB d   1      15.320  10.403   8.268  0.00  0.00     0.002 A 
ATOM     54  H   DGB d   1      17.041   9.363   7.723  0.00  0.00     0.085 H 
ATOM     55  NAV DGB d   1      14.177  11.053   7.847  0.00  0.00    -0.272 NA
ATOM     56  H   DGB d   1      15.539  10.322   9.327  0.00  0.00     0.114 H 
ATOM     57  CAM DGB d   1      13.891  11.170   6.499  0.00  0.00     0.012 A 
ATOM     58  H   DGB d   1      12.989  11.671   6.166  0.00  0.00     0.116 H 
ENDBRANCH  47  49
ENDBRANCH  45  47
ENDBRANCH  42  45
ENDBRANCH  38  41
ENDBRANCH  35  38
ENDBRANCH  32  35
ENDBRANCH   1  32
TORSDOF 9
