REMARK  9 active torsions:
REMARK  status: ('A' for Active; 'I' for Inactive)
REMARK    1  A    between atoms: CBA_6  and  CAY_7 
REMARK       I    between atoms: CAY_7  and  NBC_9 
REMARK    2  A    between atoms: CBB_14  and  CAQ_15 
REMARK    3  A    between atoms: CAQ_15  and  CAO_16 
REMARK    4  A    between atoms: CAO_16  and  CAN_17 
REMARK    5  A    between atoms: CAN_17  and  CAP_18 
REMARK    6  A    between atoms: CAP_18  and  NAW_19 
REMARK       I    between atoms: NAW_19  and  CAX_20 
REMARK    7  A    between atoms: CAX_20  and  CAC_22 
REMARK    8  A    between atoms: CAC_22  and  CAD_23 
REMARK    9  A    between atoms: CAD_23  and  CAZ_24 
ROOT
ATOM      1  CAQ DGB d   1      15.101   6.645  -2.771  0.00  0.00    -0.061 C 
ATOM      2  H   DGB d   1      15.371   7.602  -3.241  0.00  0.00     0.033 H 
ATOM      3  H   DGB d   1      16.016   6.096  -2.504  0.00  0.00     0.033 H 
ENDROOT
BRANCH   1   4
ATOM      4  CBB DGB d   1      14.298   5.809  -3.775  0.00  0.00    -0.051 C 
ATOM      5  CAS DGB d   1      15.049   5.930  -5.099  0.00  0.00    -0.047 C 
ATOM      6  CAU DGB d   1      14.299   5.132  -6.170  0.00  0.00    -0.002 C 
ATOM      7  H   DGB d   1      15.104   6.987  -5.397  0.00  0.00     0.035 H 
ATOM      8  H   DGB d   1      16.067   5.528  -4.984  0.00  0.00     0.035 H 
ATOM      9  NBC DGB d   1      14.511   3.778  -5.696  0.00  0.00    -0.348 N 
ATOM     10  H   DGB d   1      13.230   5.390  -6.193  0.00  0.00     0.064 H 
ATOM     11  H   DGB d   1      14.735   5.285  -7.168  0.00  0.00     0.064 H 
ATOM     12  CAY DGB d   1      15.383   2.951  -6.331  0.00  0.00     0.253 C 
ATOM     13  CAT DGB d   1      13.792   3.405  -4.457  0.00  0.00    -0.002 C 
ATOM     14  OAB DGB d   1      15.585   1.823  -5.911  0.00  0.00    -0.267 OA
ATOM     15  CAR DGB d   1      14.193   4.351  -3.309  0.00  0.00    -0.047 C 
ATOM     16  H   DGB d   1      14.050   2.371  -4.184  0.00  0.00     0.064 H 
ATOM     17  H   DGB d   1      12.708   3.480  -4.628  0.00  0.00     0.064 H 
ATOM     18  H   DGB d   1      15.169   4.034  -2.912  0.00  0.00     0.035 H 
ATOM     19  H   DGB d   1      13.435   4.286  -2.514  0.00  0.00     0.035 H 
ATOM     20  H   DGB d   1      13.284   6.221  -3.882  0.00  0.00     0.040 H 
BRANCH  12  21
ATOM     21  CBA DGB d   1      16.106   3.383  -7.557  0.00  0.00     0.032 A 
ATOM     22  CAK DGB d   1      15.482   3.383  -8.806  0.00  0.00    -0.068 A 
ATOM     23  CAF DGB d   1      16.169   3.791  -9.935  0.00  0.00    -0.082 A 
ATOM     24  H   DGB d   1      14.451   3.061  -8.892  0.00  0.00     0.085 H 
ATOM     25  CAE DGB d   1      17.487   4.194  -9.842  0.00  0.00    -0.083 A 
ATOM     26  H   DGB d   1      15.671   3.795 -10.898  0.00  0.00     0.083 H 
ATOM     27  CAG DGB d   1      18.118   4.188  -8.611  0.00  0.00    -0.082 A 
ATOM     28  H   DGB d   1      18.023   4.513 -10.728  0.00  0.00     0.083 H 
ATOM     29  CAL DGB d   1      17.440   3.792  -7.473  0.00  0.00    -0.068 A 
ATOM     30  H   DGB d   1      19.154   4.497  -8.538  0.00  0.00     0.083 H 
ATOM     31  H   DGB d   1      17.944   3.799  -6.513  0.00  0.00     0.085 H 
ENDBRANCH  12  21
ENDBRANCH   1   4
BRANCH   1  32
ATOM     32  CAO DGB d   1      14.311   6.927  -1.505  0.00  0.00    -0.063 C 
ATOM     33  H   DGB d   1      13.802   6.009  -1.176  0.00  0.00     0.033 H 
ATOM     34  H   DGB d   1      13.564   7.710  -1.703  0.00  0.00     0.033 H 
BRANCH  32  35
ATOM     35  CAN DGB d   1      15.272   7.400  -0.413  0.00  0.00    -0.050 C 
ATOM     36  H   DGB d   1      16.283   7.034  -0.644  0.00  0.00     0.035 H 
ATOM     37  H   DGB d   1      14.945   6.989   0.553  0.00  0.00     0.035 H 
BRANCH  35  38
ATOM     38  CAP DGB d   1      15.306   8.927  -0.317  0.00  0.00    -0.004 C 
ATOM     39  H   DGB d   1      14.343   9.356  -0.632  0.00  0.00     0.064 H 
ATOM     40  H   DGB d   1      16.112   9.336  -0.943  0.00  0.00     0.064 H 
BRANCH  38  41
ATOM     41  NAW DGB d   1      15.556   9.210   1.087  0.00  0.00    -0.358 N 
ATOM     42  CAX DGB d   1      14.833  10.059   1.848  0.00  0.00     0.241 C 
ATOM     43  OAA DGB d   1      13.841  10.632   1.414  0.00  0.00    -0.269 OA
ATOM     44  H   DGB d   1      16.323   8.739   1.523  0.00  0.00     0.162 HD
BRANCH  42  45
ATOM     45  CAC DGB d   1      15.214  10.126   3.265  0.00  0.00    -0.017 C 
ATOM     46  H   DGB d   1      16.109   9.601   3.596  0.00  0.00     0.092 H 
BRANCH  45  47
ATOM     47  CAD DGB d   1      14.491  10.816   4.169  0.00  0.00    -0.067 C 
ATOM     48  H   DGB d   1      13.662  11.442   3.842  0.00  0.00     0.085 H 
BRANCH  47  49
ATOM     49  CAZ DGB d   1      14.826  10.720   5.601  0.00  0.00    -0.018 A 
ATOM     50  CAJ DGB d   1      15.966  10.030   6.068  0.00  0.00    -0.070 A 
ATOM     51  CAH DGB d   1      16.169   9.924   7.396  0.00  0.00    -0.065 A 
ATOM     52  H   DGB d   1      16.668   9.592   5.368  0.00  0.00     0.084 H 
ATOM     53  CAI DGB d   1      15.333  10.436   8.281  0.00  0.00     0.002 A 
ATOM     54  H   DGB d   1      17.049   9.400   7.750  0.00  0.00     0.085 H 
ATOM     55  NAV DGB d   1      14.178  11.089   7.872  0.00  0.00    -0.272 NA
ATOM     56  H   DGB d   1      15.551  10.345   9.339  0.00  0.00     0.114 H 
ATOM     57  CAM DGB d   1      13.913  11.229   6.528  0.00  0.00     0.012 A 
ATOM     58  H   DGB d   1      13.010  11.727   6.194  0.00  0.00     0.116 H 
ENDBRANCH  47  49
ENDBRANCH  45  47
ENDBRANCH  42  45
ENDBRANCH  38  41
ENDBRANCH  35  38
ENDBRANCH  32  35
ENDBRANCH   1  32
TORSDOF 9
