REMARK  7 active torsions:
REMARK  status: ('A' for Active; 'I' for Inactive)
REMARK    1  A    between atoms: C10_2  and  C7_3 
REMARK    2  A    between atoms: C6_6  and  N6_7 
REMARK    3  A    between atoms: N9_12  and  C1'_13 
REMARK    4  A    between atoms: C4'_15  and  C5'_16 
REMARK    5  A    between atoms: C5'_16  and  O5'_17 
REMARK    6  A    between atoms: C3'_18  and  O3'_19 
REMARK    7  A    between atoms: C2'_20  and  O2'_21 
ROOT
ATOM      1  C11 HO4 d   1      16.210  22.557  14.003  0.00  0.00    -0.149 C 
ATOM      2  C10 HO4 d   1      16.605  21.684  14.554  0.00  0.00    -0.075 C 
ATOM      3  H   HO4 d   1      15.833  23.391  13.477  0.00  0.00     0.166 H 
ENDROOT
BRANCH   2   4
ATOM      4  C7  HO4 d   1      17.114  20.655  15.104  0.00  0.00     0.050 A 
ATOM      5  C8  HO4 d   1      18.451  20.616  15.138  0.00  0.00     0.003 A 
ATOM      6  N9  HO4 d   1      18.774  19.508  15.786  0.00  0.00    -0.309 N 
ATOM      7  H   HO4 d   1      19.137  21.350  14.717  0.00  0.00     0.114 H 
ATOM      8  C4  HO4 d   1      17.640  18.901  16.182  0.00  0.00     0.148 A 
ATOM      9  C5  HO4 d   1      16.563  19.618  15.773  0.00  0.00     0.076 A 
ATOM     10  N3  HO4 d   1      17.487  17.770  16.841  0.00  0.00    -0.223 NA
ATOM     11  C6  HO4 d   1      15.292  19.174  16.076  0.00  0.00     0.138 A 
ATOM     12  N1  HO4 d   1      15.102  18.066  16.781  0.00  0.00    -0.224 NA
ATOM     13  C2  HO4 d   1      16.217  17.335  17.199  0.00  0.00     0.091 A 
ATOM     14  H   HO4 d   1      16.093  16.439  17.796  0.00  0.00     0.146 H 
BRANCH   6  15
ATOM     15  C1' HO4 d   1      20.119  18.973  16.050  0.00  0.00     0.138 C 
ATOM     16  O4' HO4 d   1      20.875  19.888  16.759  0.00  0.00    -0.353 OA
ATOM     17  C4' HO4 d   1      22.268  19.405  16.598  0.00  0.00     0.088 C 
ATOM     18  C3' HO4 d   1      22.327  18.892  15.177  0.00  0.00     0.091 C 
ATOM     19  H   HO4 d   1      22.491  18.609  17.323  0.00  0.00     0.090 H 
ATOM     20  C2' HO4 d   1      20.871  18.814  14.756  0.00  0.00     0.105 C 
ATOM     21  H   HO4 d   1      22.894  19.569  14.521  0.00  0.00     0.091 H 
ATOM     22  H   HO4 d   1      20.610  19.597  14.029  0.00  0.00     0.093 H 
ATOM     23  H   HO4 d   1      20.044  18.017  16.589  0.00  0.00     0.122 H 
BRANCH  17  24
ATOM     24  C5' HO4 d   1      23.253  20.509  16.736  0.00  0.00     0.043 C 
ATOM     25  H   HO4 d   1      22.862  21.440  16.299  0.00  0.00     0.078 H 
ATOM     26  H   HO4 d   1      24.205  20.248  16.250  0.00  0.00     0.078 H 
BRANCH  24  27
ATOM     27  O5' HO4 d   1      23.418  20.638  18.118  0.00  0.00    -0.398 OA
ATOM     28  H   HO4 d   1      23.743  19.820  18.475  0.00  0.00     0.209 HD
ENDBRANCH  24  27
ENDBRANCH  17  24
BRANCH  18  29
ATOM     29  O3' HO4 d   1      22.933  17.600  15.198  0.00  0.00    -0.390 OA
ATOM     30  H   HO4 d   1      22.980  17.259  14.313  0.00  0.00     0.210 HD
ENDBRANCH  18  29
BRANCH  20  31
ATOM     31  O2' HO4 d   1      20.610  17.511  14.220  0.00  0.00    -0.388 OA
ATOM     32  H   HO4 d   1      21.170  17.361  13.467  0.00  0.00     0.210 HD
ENDBRANCH  20  31
ENDBRANCH   6  15
BRANCH  11  33
ATOM     33  N6  HO4 d   1      14.226  19.861  15.654  0.00  0.00    -0.383 N 
ATOM     34  H   HO4 d   1      13.277  19.530  15.880  0.00  0.00     0.157 HD
ATOM     35  H   HO4 d   1      14.353  20.722  15.103  0.00  0.00     0.157 HD
ENDBRANCH  11  33
ENDBRANCH   2   4
TORSDOF 7
