REMARK  6 active torsions:
REMARK  status: ('A' for Active; 'I' for Inactive)
REMARK    1  A    between atoms: CAA_1  and  CAR_2 
REMARK    2  A    between atoms: CAR_2  and  CAB_3 
REMARK    3  A    between atoms: CAR_2  and  CAK_4 
REMARK    4  A    between atoms: CAK_4  and  NAS_5 
REMARK    5  A    between atoms: CAF_12  and  CAN_13 
REMARK    6  A    between atoms: CAM_16  and  OAD_17 
ROOT
ATOM      1  NAS 2Q0 d   1       0.256 457.446 106.131  0.00  0.00    -0.298 N 
ATOM      2  CAO 2Q0 d   1       1.019 458.244 105.344  0.00  0.00     0.266 A 
ATOM      3  OAC 2Q0 d   1       1.964 457.842 104.671  0.00  0.00    -0.266 OA
ATOM      4  CAP 2Q0 d   1      -0.697 458.148 106.757  0.00  0.00     0.148 A 
ATOM      5  SAE 2Q0 d   1      -1.856 457.483 107.848  0.00  0.00    -0.052 SA
ATOM      6  SAL 2Q0 d   1      -0.623 459.717 106.346  0.00  0.00    -0.055 SA
ATOM      7  CAQ 2Q0 d   1       0.676 459.536 105.327  0.00  0.00     0.076 A 
ATOM      8  CAF 2Q0 d   1       1.363 460.413 104.571  0.00  0.00    -0.051 C 
ATOM      9  H   2Q0 d   1       2.201 460.024 103.994  0.00  0.00     0.087 H 
ENDROOT
BRANCH   8  10
ATOM     10  CAN 2Q0 d   1       1.091 461.787 104.463  0.00  0.00    -0.035 A 
ATOM     11  CAI 2Q0 d   1       1.918 462.507 103.605  0.00  0.00    -0.070 A 
ATOM     12  CAG 2Q0 d   1       1.744 463.872 103.412  0.00  0.00    -0.050 A 
ATOM     13  H   2Q0 d   1       2.713 461.993 103.077  0.00  0.00     0.084 H 
ATOM     14  CAM 2Q0 d   1       0.725 464.540 104.077  0.00  0.00     0.065 A 
ATOM     15  H   2Q0 d   1       2.403 464.414 102.743  0.00  0.00     0.087 H 
ATOM     16  CAH 2Q0 d   1      -0.113 463.838 104.935  0.00  0.00    -0.050 A 
ATOM     17  CAJ 2Q0 d   1       0.071 462.473 105.120  0.00  0.00    -0.070 A 
ATOM     18  H   2Q0 d   1      -0.909 464.354 105.459  0.00  0.00     0.087 H 
ATOM     19  H   2Q0 d   1      -0.591 461.932 105.787  0.00  0.00     0.084 H 
BRANCH  14  20
ATOM     20  OAD 2Q0 d   1       0.551 465.876 103.892  0.00  0.00    -0.361 OA
ATOM     21  H   2Q0 d   1      -0.183 466.174 104.416  0.00  0.00     0.217 HD
ENDBRANCH  14  20
ENDBRANCH   8  10
BRANCH   1  22
ATOM     22  CAK 2Q0 d   1       0.242 455.980 106.482  0.00  0.00     0.007 C 
ATOM     23  H   2Q0 d   1       1.169 455.767 107.034  0.00  0.00     0.065 H 
ATOM     24  H   2Q0 d   1      -0.624 455.809 107.139  0.00  0.00     0.065 H 
BRANCH  22  25
ATOM     25  CAR 2Q0 d   1       0.150 454.956 105.324  0.00  0.00    -0.045 C 
ATOM     26  H   2Q0 d   1       0.072 453.950 105.762  0.00  0.00     0.041 H 
BRANCH  25  27
ATOM     27  CAA 2Q0 d   1       1.348 454.981 104.380  0.00  0.00    -0.072 C 
ATOM     28  H   2Q0 d   1       1.208 454.229 103.589  0.00  0.00     0.028 H 
ATOM     29  H   2Q0 d   1       2.264 454.753 104.944  0.00  0.00     0.028 H 
ATOM     30  H   2Q0 d   1       1.436 455.979 103.926  0.00  0.00     0.028 H 
ENDBRANCH  25  27
BRANCH  25  31
ATOM     31  CAB 2Q0 d   1      -1.101 455.247 104.491  0.00  0.00    -0.072 C 
ATOM     32  H   2Q0 d   1      -1.987 455.236 105.143  0.00  0.00     0.028 H 
ATOM     33  H   2Q0 d   1      -1.210 454.478 103.712  0.00  0.00     0.028 H 
ATOM     34  H   2Q0 d   1      -1.005 456.236 104.019  0.00  0.00     0.028 H 
ENDBRANCH  25  31
ENDBRANCH  22  25
ENDBRANCH   1  22
TORSDOF 6
