REMARK  5 active torsions:
REMARK  status: ('A' for Active; 'I' for Inactive)
REMARK    1  A    between atoms: C6_3  and  C7_4 
REMARK    2  A    between atoms: C7_4  and  N8_13 
REMARK    3  A    between atoms: S20_23  and  C3_12 
REMARK       I    between atoms: N8_13  and  C9_14 
REMARK    4  A    between atoms: C9_14  and  C11_16 
REMARK    5  A    between atoms: S20_23  and  C23_26 
ROOT
ATOM      1  C4  1QS d   1      15.404   8.139  -1.325  0.00  0.00    -0.061 A 
ATOM      2  C5  1QS d   1      16.136   8.998  -0.525  0.00  0.00    -0.074 A 
ATOM      3  C6  1QS d   1      16.382   8.685   0.798  0.00  0.00    -0.040 A 
ATOM      4  C1  1QS d   1      15.893   7.505   1.313  0.00  0.00    -0.074 A 
ATOM      5  C2  1QS d   1      15.162   6.645   0.517  0.00  0.00    -0.061 A 
ATOM      6  C3  1QS d   1      14.896   6.965  -0.801  0.00  0.00     0.064 A 
ATOM      7  H   1QS d   1      15.228   8.387  -2.365  0.00  0.00     0.085 H 
ATOM      8  H   1QS d   1      16.519   9.924  -0.939  0.00  0.00     0.084 H 
ATOM      9  H   1QS d   1      16.083   7.250   2.349  0.00  0.00     0.084 H 
ATOM     10  H   1QS d   1      14.794   5.712   0.929  0.00  0.00     0.085 H 
ENDROOT
BRANCH   3  11
ATOM     11  C7  1QS d   1      17.209   9.621   1.639  0.00  0.00     0.019 C 
ATOM     12  H   1QS d   1      17.225  10.602   1.141  0.00  0.00     0.071 H 
ATOM     13  H   1QS d   1      18.232   9.219   1.690  0.00  0.00     0.071 H 
BRANCH  11  14
ATOM     14  N8  1QS d   1      16.731   9.815   3.004  0.00  0.00    -0.353 N 
ATOM     15  C9  1QS d   1      15.651  10.591   3.128  0.00  0.00     0.253 C 
ATOM     16  O10 1QS d   1      15.145  11.062   2.121  0.00  0.00    -0.268 OA
ATOM     17  H   1QS d   1      17.181   9.396   3.792  0.00  0.00     0.163 HD
BRANCH  15  18
ATOM     18  C11 1QS d   1      15.099  10.844   4.465  0.00  0.00     0.048 A 
ATOM     19  C12 1QS d   1      13.859  11.516   4.599  0.00  0.00    -0.063 A 
ATOM     20  C13 1QS d   1      13.366  11.730   5.845  0.00  0.00    -0.037 A 
ATOM     21  H   1QS d   1      13.312  11.854   3.720  0.00  0.00     0.085 H 
ATOM     22  C14 1QS d   1      14.086  11.281   6.978  0.00  0.00     0.133 A 
ATOM     23  H   1QS d   1      12.416  12.247   5.973  0.00  0.00     0.089 H 
ATOM     24  N15 1QS d   1      13.834  11.355   8.283  0.00  0.00    -0.241 NA
ATOM     25  N18 1QS d   1      15.287  10.627   6.813  0.00  0.00    -0.315 N 
ATOM     26  C16 1QS d   1      14.837  10.775   8.956  0.00  0.00     0.020 A 
ATOM     27  C17 1QS d   1      15.751  10.317   8.067  0.00  0.00     0.003 A 
ATOM     28  H   1QS d   1      14.906  10.686  10.039  0.00  0.00     0.117 H 
ATOM     29  H   1QS d   1      16.680   9.800   8.303  0.00  0.00     0.114 H 
ATOM     30  C19 1QS d   1      15.783  10.410   5.571  0.00  0.00     0.001 A 
ATOM     31  H   1QS d   1      16.731   9.888   5.450  0.00  0.00     0.113 H 
ENDBRANCH  15  18
ENDBRANCH  11  14
ENDBRANCH   3  11
BRANCH   6  32
ATOM     32  S20 1QS d   1      14.013   5.844  -1.843  0.00  0.00     0.207 S 
ATOM     33  O21 1QS d   1      13.242   6.576  -2.784  0.00  0.00    -0.217 OA
ATOM     34  O22 1QS d   1      13.511   4.762  -1.081  0.00  0.00    -0.217 OA
BRANCH  32  35
ATOM     35  C23 1QS d   1      15.479   5.214  -2.610  0.00  0.00     0.070 A 
ATOM     36  C24 1QS d   1      16.393   4.529  -1.823  0.00  0.00    -0.024 A 
ATOM     37  C25 1QS d   1      17.568   4.021  -2.352  0.00  0.00     0.120 A 
ATOM     38  H   1QS d   1      16.183   4.388  -0.769  0.00  0.00     0.090 H 
ATOM     39  C26 1QS d   1      17.841   4.221  -3.692  0.00  0.00    -0.008 A 
ATOM     40  F30 1QS d   1      18.440   3.346  -1.562  0.00  0.00    -0.206 F 
ATOM     41  C27 1QS d   1      16.937   4.924  -4.477  0.00  0.00     0.120 A 
ATOM     42  H   1QS d   1      18.754   3.832  -4.127  0.00  0.00     0.092 H 
ATOM     43  C28 1QS d   1      15.761   5.428  -3.940  0.00  0.00    -0.024 A 
ATOM     44  F29 1QS d   1      17.197   5.128  -5.781  0.00  0.00    -0.206 F 
ATOM     45  H   1QS d   1      15.070   5.985  -4.562  0.00  0.00     0.090 H 
ENDBRANCH  32  35
ENDBRANCH   6  32
TORSDOF 5
