REMARK  8 active torsions:
REMARK  status: ('A' for Active; 'I' for Inactive)
REMARK    1  A    between atoms: C20_1  and  C21_2 
REMARK    2  A    between atoms: N1_13  and  C20_1 
REMARK    3  A    between atoms: C21_2  and  C22_9 
REMARK    4  A    between atoms: C25_4  and  N28_10 
REMARK    5  A    between atoms: C10_23  and  C2_11 
REMARK    6  A    between atoms: N15_27  and  C14_21 
REMARK    7  A    between atoms: C16_28  and  N15_27 
REMARK    8  A    between atoms: C16_28  and  C17_29 
ROOT
ATOM      1  C18 2RR d   1      17.259  70.239  46.718  0.00  0.00     0.060 C 
ATOM      2  N19 2RR d   1      16.278  70.108  47.288  0.00  0.00    -0.197 NA
ATOM      3  C17 2RR d   1      18.523  70.397  45.983  0.00  0.00     0.029 C 
ATOM      4  H   2RR d   1      18.962  71.378  46.217  0.00  0.00     0.057 H 
ATOM      5  H   2RR d   1      18.328  70.331  44.902  0.00  0.00     0.057 H 
ENDROOT
BRANCH   3   6
ATOM      6  C16 2RR d   1      19.500  69.292  46.392  0.00  0.00     0.005 C 
ATOM      7  H   2RR d   1      20.401  69.350  45.763  0.00  0.00     0.065 H 
ATOM      8  H   2RR d   1      19.780  69.424  47.447  0.00  0.00     0.065 H 
BRANCH   6   9
ATOM      9  N15 2RR d   1      18.864  67.974  46.216  0.00  0.00    -0.370 N 
ATOM     10  H   2RR d   1      18.231  67.565  46.919  0.00  0.00     0.161 HD
BRANCH   9  11
ATOM     11  C14 2RR d   1      19.187  67.318  45.016  0.00  0.00     0.188 A 
ATOM     12  N13 2RR d   1      19.564  67.970  43.950  0.00  0.00    -0.085 NA
ATOM     13  O12 2RR d   1      19.191  67.197  42.898  0.00  0.00    -0.104 OA
ATOM     14  N11 2RR d   1      18.570  66.080  43.307  0.00  0.00    -0.097 NA
ATOM     15  C10 2RR d   1      18.551  66.139  44.614  0.00  0.00     0.180 A 
BRANCH  15  16
ATOM     16  C2  2RR d   1      17.973  65.133  45.506  0.00  0.00     0.166 A 
ATOM     17  N1  2RR d   1      17.371  63.988  45.002  0.00  0.00    -0.320 N 
ATOM     18  C9  2RR d   1      16.929  63.239  46.083  0.00  0.00     0.065 A 
ATOM     19  C4  2RR d   1      17.287  63.982  47.196  0.00  0.00     0.086 A 
ATOM     20  C8  2RR d   1      16.259  62.005  46.111  0.00  0.00    -0.055 A 
ATOM     21  C5  2RR d   1      16.967  63.480  48.476  0.00  0.00    -0.053 A 
ATOM     22  N3  2RR d   1      17.922  65.132  46.840  0.00  0.00    -0.226 NA
ATOM     23  C6  2RR d   1      16.307  62.265  48.539  0.00  0.00    -0.081 A 
ATOM     24  H   2RR d   1      17.228  64.025  49.376  0.00  0.00     0.087 H 
ATOM     25  C7  2RR d   1      15.955  61.532  47.373  0.00  0.00    -0.081 A 
ATOM     26  H   2RR d   1      16.050  61.859  49.511  0.00  0.00     0.083 H 
ATOM     27  H   2RR d   1      15.439  60.584  47.476  0.00  0.00     0.083 H 
ATOM     28  H   2RR d   1      15.999  61.463  45.209  0.00  0.00     0.087 H 
BRANCH  17  29
ATOM     29  C20 2RR d   1      17.336  63.576  43.586  0.00  0.00     0.061 C 
ATOM     30  H   2RR d   1      18.297  63.823  43.111  0.00  0.00     0.077 H 
ATOM     31  H   2RR d   1      17.166  62.491  43.526  0.00  0.00     0.077 H 
BRANCH  29  32
ATOM     32  C21 2RR d   1      16.228  64.293  42.870  0.00  0.00     0.177 C 
ATOM     33  O21 2RR d   1      15.681  65.245  43.422  0.00  0.00    -0.291 OA
BRANCH  32  34
ATOM     34  C22 2RR d   1      15.954  63.961  41.484  0.00  0.00     0.011 A 
ATOM     35  C27 2RR d   1      16.595  62.866  40.885  0.00  0.00    -0.067 A 
ATOM     36  C26 2RR d   1      16.334  62.544  39.565  0.00  0.00    -0.057 A 
ATOM     37  H   2RR d   1      17.297  62.271  41.458  0.00  0.00     0.085 H 
ATOM     38  C25 2RR d   1      15.421  63.327  38.840  0.00  0.00     0.025 A 
ATOM     39  H   2RR d   1      16.827  61.700  39.097  0.00  0.00     0.086 H 
ATOM     40  C24 2RR d   1      14.771  64.424  39.427  0.00  0.00    -0.057 A 
ATOM     41  C23 2RR d   1      15.041  64.734  40.748  0.00  0.00    -0.067 A 
ATOM     42  H   2RR d   1      14.069  65.019  38.854  0.00  0.00     0.086 H 
ATOM     43  H   2RR d   1      14.546  65.577  41.217  0.00  0.00     0.085 H 
BRANCH  38  44
ATOM     44  N28 2RR d   1      15.157  63.007  37.514  0.00  0.00    -0.399 N 
ATOM     45  H   2RR d   1      15.629  62.204  37.074  0.00  0.00     0.156 HD
ATOM     46  H   2RR d   1      14.489  63.573  36.971  0.00  0.00     0.156 HD
ENDBRANCH  38  44
ENDBRANCH  32  34
ENDBRANCH  29  32
ENDBRANCH  17  29
ENDBRANCH  15  16
ENDBRANCH   9  11
ENDBRANCH   6   9
ENDBRANCH   3   6
TORSDOF 8
