REMARK WARNING: 32 MAX_TORS EXCEEDED!!!
REMARK  39 active torsions:
REMARK  status: ('A' for Active; 'I' for Inactive)
REMARK    1  A    between atoms: N_1  and  CA_2 
REMARK    2  A    between atoms: CA_2  and  C_3 
REMARK    3  A    between atoms: CA_2  and  CB_5 
REMARK       I    between atoms: C_3  and  N_7 
REMARK    4  A    between atoms: CB_5  and  OG_6 
REMARK    5  A    between atoms: N_7  and  CA_8 
REMARK    6  A    between atoms: CA_8  and  C_9 
REMARK    7  A    between atoms: CA_8  and  CB_11 
REMARK       I    between atoms: C_9  and  N_17 
REMARK    8  A    between atoms: CB_11  and  CG_12 
REMARK    9  A    between atoms: N_17  and  CA_18 
REMARK   10  A    between atoms: CA_18  and  C_19 
REMARK   11  A    between atoms: CA_18  and  CB_21 
REMARK       I    between atoms: C_19  and  N_24 
REMARK   12  A    between atoms: CB_21  and  CG1_22 
REMARK   13  A    between atoms: CB_21  and  CG2_23 
REMARK   14  A    between atoms: N_24  and  CA_25 
REMARK   15  A    between atoms: CA_25  and  C_26 
REMARK   16  A    between atoms: CA_25  and  CB_28 
REMARK       I    between atoms: C_26  and  N_29 
REMARK   17  A    between atoms: N_29  and  CA_30 
REMARK   18  A    between atoms: CA_30  and  C_31 
REMARK   19  A    between atoms: CA_30  and  CB_33 
REMARK       I    between atoms: C_31  and  N_36 
REMARK   20  A    between atoms: CB_33  and  CG1_34 
REMARK   21  A    between atoms: CB_33  and  CG2_35 
REMARK   22  A    between atoms: N_36  and  CA_37 
REMARK   23  A    between atoms: CA_37  and  C_38 
REMARK   24  A    between atoms: CA_37  and  CB_40 
REMARK       I    between atoms: C_38  and  N_45 
REMARK   25  A    between atoms: CB_40  and  CG_41 
REMARK   26  A    between atoms: CG_41  and  CD_42 
REMARK   27  A    between atoms: N_45  and  CA_46 
REMARK   28  A    between atoms: CA_46  and  C_47 
REMARK   29  A    between atoms: CA_46  and  CB_49 
REMARK       I    between atoms: C_47  and  N_53 
REMARK   30  A    between atoms: CB_49  and  CG_50 
REMARK       I    between atoms: CG_50  and  ND2_52 
REMARK   31  A    between atoms: N_53  and  CA_54 
REMARK   32  A    between atoms: CA_54  and  C_55 
REMARK   33  A    between atoms: CA_54  and  CB_57 
REMARK       I    between atoms: C_55  and  N_58 
REMARK   34  A    between atoms: N_58  and  CA_59 
REMARK   35  A    between atoms: CA_59  and  C_60 
REMARK   36  A    between atoms: CA_59  and  CB_62 
REMARK   37  A    between atoms: CB_62  and  CG_63 
REMARK   38  A    between atoms: CG_63  and  CD1_64 
REMARK   39  A    between atoms: CG_63  and  CD2_65 
ROOT
ATOM      1  CA  VAL d   1      20.786 -21.285   0.874  0.00  0.00     0.092 C 
ATOM      2  H   VAL d   1      20.616 -21.693   1.881  0.00  0.00     0.088 H 
ENDROOT
BRANCH   1   3
ATOM      3  N   VAL d   1      22.221 -21.280   0.615  0.00  0.00    -0.346 N 
ATOM      4  C   ALA d   1      23.026 -22.202   1.131  0.00  0.00     0.240 C 
ATOM      5  O   ALA d   1      22.628 -23.103   1.868  0.00  0.00    -0.271 OA
ATOM      6  H   VAL d   1      22.609 -20.564   0.034  0.00  0.00     0.163 HD
BRANCH   4   7
ATOM      7  CA  ALA d   1      24.499 -22.093   0.756  0.00  0.00     0.086 C 
ATOM      8  H   ALA d   1      24.755 -22.972   0.147  0.00  0.00     0.086 H 
BRANCH   7   9
ATOM      9  N   ALA d   1      24.778 -20.902  -0.044  0.00  0.00    -0.346 N 
ATOM     10  C   VAL d   1      24.705 -20.926  -1.371  0.00  0.00     0.241 C 
ATOM     11  O   VAL d   1      24.320 -21.913  -1.997  0.00  0.00    -0.271 OA
ATOM     12  H   ALA d   1      25.029 -20.051   0.417  0.00  0.00     0.163 HD
BRANCH  10  13
ATOM     13  CA  VAL d   1      25.146 -19.663  -2.108  0.00  0.00     0.092 C 
ATOM     14  H   VAL d   1      25.764 -19.057  -1.429  0.00  0.00     0.088 H 
BRANCH  13  15
ATOM     15  N   VAL d   1      25.965 -20.049  -3.252  0.00  0.00    -0.346 N 
ATOM     16  C   HIS d   1      27.169 -20.536  -3.068  0.00  0.00     0.241 C 
ATOM     17  O   HIS d   1      27.625 -20.710  -1.985  0.00  0.00    -0.271 OA
ATOM     18  H   VAL d   1      25.607 -19.942  -4.180  0.00  0.00     0.163 HD
BRANCH  16  19
ATOM     19  CA  HIS d   1      27.912 -20.985  -4.320  0.00  0.00     0.094 C 
ATOM     20  H   HIS d   1      27.614 -20.376  -5.186  0.00  0.00     0.088 H 
BRANCH  19  21
ATOM     21  N   HIS d   1      29.348 -20.851  -4.132  0.00  0.00    -0.346 N 
ATOM     22  C   SER d   1      29.966 -19.676  -4.193  0.00  0.00     0.251 C 
ATOM     23  O   SER d   1      29.368 -18.608  -4.274  0.00  0.00    -0.271 OA
ATOM     24  H   HIS d   1      29.889 -21.672  -3.950  0.00  0.00     0.163 HD
BRANCH  22  25
ATOM     25  CA  SER d   1      31.491 -19.715  -4.154  0.00  0.00     0.195 C 
ATOM     26  H   SER d   1      31.822 -20.663  -4.603  0.00  0.00     0.102 H 
BRANCH  25  27
ATOM     27  N   SER d   1      32.063 -18.622  -4.930  0.00  0.00    -0.064 N 
ATOM     28  H   SER d   1      33.069 -18.671  -4.888  0.00  0.00     0.275 HD
ATOM     29  H   SER d   1      31.753 -17.742  -4.550  0.00  0.00     0.275 HD
ATOM     30  H   SER d   1      31.763 -18.698  -5.889  0.00  0.00     0.275 HD
ENDBRANCH  25  27
BRANCH  25  31
ATOM     31  CB  SER d   1      31.987 -19.671  -2.709  0.00  0.00     0.051 C 
ATOM     32  H   SER d   1      31.209 -19.223  -2.074  0.00  0.00     0.077 H 
ATOM     33  H   SER d   1      32.899 -19.058  -2.659  0.00  0.00     0.077 H 
BRANCH  31  34
ATOM     34  OG  SER d   1      32.278 -20.974  -2.236  0.00  0.00    -0.398 OA
ATOM     35  H   SER d   1      31.492 -21.506  -2.274  0.00  0.00     0.209 HD
ENDBRANCH  31  34
ENDBRANCH  25  31
ENDBRANCH  22  25
ENDBRANCH  19  21
BRANCH  19  36
ATOM     36  CB  HIS d   1      27.453 -22.411  -4.513  0.00  0.00     0.004 C 
ATOM     37  H   HIS d   1      26.356 -22.424  -4.436  0.00  0.00     0.046 H 
ATOM     38  H   HIS d   1      27.885 -23.016  -3.702  0.00  0.00     0.046 H 
BRANCH  36  39
ATOM     39  CG  HIS d   1      27.826 -23.047  -5.802  0.00  0.00     0.053 A 
ATOM     40  ND1 HIS d   1      29.087 -23.504  -6.046  0.00  0.00    -0.247 NA
ATOM     41  CE1 HIS d   1      29.130 -24.067  -7.226  0.00  0.00     0.064 A 
ATOM     42  NE2 HIS d   1      27.941 -23.979  -7.762  0.00  0.00    -0.359 N 
ATOM     43  H   HIS d   1      30.004 -24.529  -7.682  0.00  0.00     0.143 H 
ATOM     44  CD2 HIS d   1      27.105 -23.347  -6.891  0.00  0.00     0.002 A 
ATOM     45  H   HIS d   1      27.678 -24.331  -8.694  0.00  0.00     0.166 HD
ATOM     46  H   HIS d   1      26.050 -23.127  -7.050  0.00  0.00     0.114 H 
ENDBRANCH  36  39
ENDBRANCH  19  36
ENDBRANCH  16  19
ENDBRANCH  13  15
BRANCH  13  47
ATOM     47  CB  VAL d   1      23.927 -18.816  -2.523  0.00  0.00    -0.033 C 
ATOM     48  H   VAL d   1      24.291 -17.924  -3.054  0.00  0.00     0.042 H 
BRANCH  47  49
ATOM     49  CG1 VAL d   1      23.026 -19.598  -3.469  0.00  0.00    -0.071 C 
ATOM     50  H   VAL d   1      22.164 -18.976  -3.752  0.00  0.00     0.028 H 
ATOM     51  H   VAL d   1      22.671 -20.510  -2.967  0.00  0.00     0.028 H 
ATOM     52  H   VAL d   1      23.592 -19.873  -4.371  0.00  0.00     0.028 H 
ENDBRANCH  47  49
BRANCH  47  53
ATOM     53  CG2 VAL d   1      23.154 -18.356  -1.292  0.00  0.00    -0.071 C 
ATOM     54  H   VAL d   1      23.826 -17.795  -0.626  0.00  0.00     0.028 H 
ATOM     55  H   VAL d   1      22.758 -19.233  -0.759  0.00  0.00     0.028 H 
ATOM     56  H   VAL d   1      22.321 -17.709  -1.603  0.00  0.00     0.028 H 
ENDBRANCH  47  53
ENDBRANCH  13  47
ENDBRANCH  10  13
ENDBRANCH   7   9
BRANCH   7  57
ATOM     57  CB  ALA d   1      25.374 -22.115   2.009  0.00  0.00    -0.049 C 
ATOM     58  H   ALA d   1      25.150 -23.017   2.597  0.00  0.00     0.030 H 
ATOM     59  H   ALA d   1      25.168 -21.221   2.616  0.00  0.00     0.030 H 
ATOM     60  H   ALA d   1      26.434 -22.122   1.716  0.00  0.00     0.030 H 
ENDBRANCH   7  57
ENDBRANCH   4   7
ENDBRANCH   1   3
BRANCH   1  61
ATOM     61  C   VAL d   1      20.074 -22.174  -0.142  0.00  0.00     0.241 C 
ATOM     62  O   VAL d   1      20.390 -22.145  -1.330  0.00  0.00    -0.271 OA
ATOM     63  N   GLU d   1      19.098 -22.949   0.294  0.00  0.00    -0.346 N 
ATOM     64  H   GLU d   1      18.808 -22.836   1.244  0.00  0.00     0.163 HD
BRANCH  63  65
ATOM     65  CA  GLU d   1      18.418 -23.947  -0.496  0.00  0.00     0.090 C 
ATOM     66  H   GLU d   1      18.600 -23.743  -1.562  0.00  0.00     0.087 H 
BRANCH  65  67
ATOM     67  C   GLU d   1      16.909 -23.914  -0.238  0.00  0.00     0.241 C 
ATOM     68  O   GLU d   1      16.492 -24.115   0.852  0.00  0.00    -0.271 OA
ATOM     69  N   ASN d   1      16.105 -23.650  -1.259  0.00  0.00    -0.346 N 
ATOM     70  H   ASN d   1      16.507 -23.475  -2.158  0.00  0.00     0.163 HD
BRANCH  69  71
ATOM     71  CA  ASN d   1      14.653 -23.606  -1.114  0.00  0.00     0.097 C 
ATOM     72  H   ASN d   1      14.378 -24.248  -0.264  0.00  0.00     0.088 H 
BRANCH  71  73
ATOM     73  C   ASN d   1      13.936 -24.125  -2.352  0.00  0.00     0.241 C 
ATOM     74  O   ASN d   1      14.040 -23.541  -3.430  0.00  0.00    -0.271 OA
ATOM     75  N   ALA d   1      13.211 -25.226  -2.196  0.00  0.00    -0.346 N 
ATOM     76  H   ALA d   1      13.211 -25.693  -1.312  0.00  0.00     0.163 HD
BRANCH  75  77
ATOM     77  CA  ALA d   1      12.417 -25.765  -3.289  0.00  0.00     0.086 C 
ATOM     78  H   ALA d   1      13.089 -26.027  -4.120  0.00  0.00     0.086 H 
BRANCH  77  79
ATOM     79  C   ALA d   1      11.427 -24.712  -3.772  0.00  0.00     0.240 C 
ATOM     80  O   ALA d   1      10.938 -23.903  -2.987  0.00  0.00    -0.271 OA
ATOM     81  N   LEU d   1      11.138 -24.715  -5.067  0.00  0.00    -0.345 N 
ATOM     82  H   LEU d   1      11.622 -25.338  -5.681  0.00  0.00     0.163 HD
BRANCH  81  83
ATOM     83  CA  LEU d   1      10.122 -23.818  -5.602  0.00  0.00     0.096 C 
ATOM     84  H   LEU d   1      10.249 -22.826  -5.144  0.00  0.00     0.089 H 
BRANCH  83  85
ATOM     85  C   LEU d   1       8.744 -24.356  -5.234  0.00  0.00     0.196 C 
ATOM     86  O   LEU d   1       7.719 -23.699  -5.409  0.00  0.00    -0.646 OA
ATOM     87  OXT LEU d   1       8.631 -25.479  -4.747  0.00  0.00    -0.646 OA
ENDBRANCH  83  85
BRANCH  83  88
ATOM     88  CB  LEU d   1      10.265 -23.672  -7.120  0.00  0.00    -0.034 C 
ATOM     89  H   LEU d   1       9.329 -23.237  -7.501  0.00  0.00     0.037 H 
ATOM     90  H   LEU d   1      10.398 -24.680  -7.539  0.00  0.00     0.037 H 
BRANCH  88  91
ATOM     91  CG  LEU d   1      11.421 -22.803  -7.630  0.00  0.00    -0.059 C 
ATOM     92  H   LEU d   1      11.353 -21.826  -7.128  0.00  0.00     0.038 H 
BRANCH  91  93
ATOM     93  CD1 LEU d   1      12.781 -23.408  -7.290  0.00  0.00    -0.073 C 
ATOM     94  H   LEU d   1      13.579 -22.755  -7.673  0.00  0.00     0.028 H 
ATOM     95  H   LEU d   1      12.867 -24.402  -7.754  0.00  0.00     0.028 H 
ATOM     96  H   LEU d   1      12.877 -23.503  -6.198  0.00  0.00     0.028 H 
ENDBRANCH  91  93
BRANCH  91  97
ATOM     97  CD2 LEU d   1      11.300 -22.571  -9.132  0.00  0.00    -0.073 C 
ATOM     98  H   LEU d   1      10.315 -22.136  -9.358  0.00  0.00     0.028 H 
ATOM     99  H   LEU d   1      11.407 -23.530  -9.661  0.00  0.00     0.028 H 
ATOM    100  H   LEU d   1      12.090 -21.881  -9.461  0.00  0.00     0.028 H 
ENDBRANCH  91  97
ENDBRANCH  88  91
ENDBRANCH  83  88
ENDBRANCH  81  83
ENDBRANCH  77  79
BRANCH  77 101
ATOM    101  CB  ALA d   1      11.686 -27.017  -2.845  0.00  0.00    -0.049 C 
ATOM    102  H   ALA d   1      11.091 -27.411  -3.682  0.00  0.00     0.030 H 
ATOM    103  H   ALA d   1      11.019 -26.774  -2.005  0.00  0.00     0.030 H 
ATOM    104  H   ALA d   1      12.417 -27.775  -2.526  0.00  0.00     0.030 H 
ENDBRANCH  77 101
ENDBRANCH  75  77
ENDBRANCH  71  73
BRANCH  71 105
ATOM    105  CB  ASN d   1      14.184 -22.181  -0.817  0.00  0.00     0.036 C 
ATOM    106  H   ASN d   1      13.094 -22.193  -0.667  0.00  0.00     0.051 H 
ATOM    107  H   ASN d   1      14.429 -21.543  -1.679  0.00  0.00     0.051 H 
BRANCH 105 108
ATOM    108  CG  ASN d   1      14.836 -21.597   0.418  0.00  0.00     0.217 C 
ATOM    109  OD1 ASN d   1      14.389 -21.832   1.542  0.00  0.00    -0.274 OA
ATOM    110  ND2 ASN d   1      15.899 -20.828   0.216  0.00  0.00    -0.370 N 
ATOM    111  H   ASN d   1      16.372 -20.414   0.994  0.00  0.00     0.159 HD
ATOM    112  H   ASN d   1      16.227 -20.663  -0.714  0.00  0.00     0.159 HD
ENDBRANCH 105 108
ENDBRANCH  71 105
ENDBRANCH  69  71
ENDBRANCH  65  67
BRANCH  65 113
ATOM    113  CB  GLU d   1      18.980 -25.345  -0.145  0.00  0.00    -0.029 C 
ATOM    114  H   GLU d   1      19.588 -25.236   0.765  0.00  0.00     0.037 H 
ATOM    115  H   GLU d   1      19.623 -25.660  -0.980  0.00  0.00     0.037 H 
BRANCH 113 116
ATOM    116  CG  GLU d   1      17.972 -26.475   0.110  0.00  0.00     0.018 C 
ATOM    117  H   GLU d   1      17.951 -27.121  -0.780  0.00  0.00     0.049 H 
ATOM    118  H   GLU d   1      16.981 -26.022   0.258  0.00  0.00     0.049 H 
BRANCH 116 119
ATOM    119  CD  GLU d   1      18.277 -27.342   1.313  0.00  0.00     0.172 C 
ATOM    120  OE1 GLU d   1      17.415 -28.138   1.716  0.00  0.00    -0.648 OA
ATOM    121  OE2 GLU d   1      19.372 -27.284   1.872  0.00  0.00    -0.648 OA
ENDBRANCH 116 119
ENDBRANCH 113 116
ENDBRANCH  65 113
ENDBRANCH  63  65
ENDBRANCH   1  61
BRANCH   1 122
ATOM    122  CB  VAL d   1      20.203 -19.860   0.818  0.00  0.00    -0.033 C 
ATOM    123  H   VAL d   1      20.329 -19.472  -0.203  0.00  0.00     0.042 H 
BRANCH 122 124
ATOM    124  CG1 VAL d   1      18.717 -19.877   1.146  0.00  0.00    -0.071 C 
ATOM    125  H   VAL d   1      18.320 -18.852   1.101  0.00  0.00     0.028 H 
ATOM    126  H   VAL d   1      18.569 -20.283   2.158  0.00  0.00     0.028 H 
ATOM    127  H   VAL d   1      18.188 -20.508   0.417  0.00  0.00     0.028 H 
ENDBRANCH 122 124
BRANCH 122 128
ATOM    128  CG2 VAL d   1      20.953 -18.946   1.777  0.00  0.00    -0.071 C 
ATOM    129  H   VAL d   1      22.023 -18.948   1.524  0.00  0.00     0.028 H 
ATOM    130  H   VAL d   1      20.820 -19.307   2.808  0.00  0.00     0.028 H 
ATOM    131  H   VAL d   1      20.558 -17.923   1.693  0.00  0.00     0.028 H 
ENDBRANCH 122 128
ENDBRANCH   1 122
TORSDOF 39
