REMARK WARNING: 32 MAX_TORS EXCEEDED!!!
REMARK  35 active torsions:
REMARK  status: ('A' for Active; 'I' for Inactive)
REMARK    1  A    between atoms: N_1  and  CA_2 
REMARK    2  A    between atoms: CA_2  and  C_3 
REMARK    3  A    between atoms: CA_2  and  CB_5 
REMARK       I    between atoms: C_3  and  N_11 
REMARK    4  A    between atoms: CB_5  and  CG_6 
REMARK    5  A    between atoms: N_11  and  CA_12 
REMARK    6  A    between atoms: CA_12  and  C_13 
REMARK    7  A    between atoms: CA_12  and  CB_15 
REMARK       I    between atoms: C_13  and  N_18 
REMARK    8  A    between atoms: CB_15  and  CG1_16 
REMARK    9  A    between atoms: CB_15  and  CG2_17 
REMARK   10  A    between atoms: N_18  and  CA_19 
REMARK   11  A    between atoms: CA_19  and  C_20 
REMARK   12  A    between atoms: CA_19  and  CB_22 
REMARK       I    between atoms: C_20  and  N_23 
REMARK   13  A    between atoms: N_23  and  CA_24 
REMARK   14  A    between atoms: CA_24  and  C_25 
REMARK   15  A    between atoms: CA_24  and  CB_27 
REMARK       I    between atoms: C_25  and  N_30 
REMARK   16  A    between atoms: CB_27  and  CG1_28 
REMARK   17  A    between atoms: CB_27  and  CG2_29 
REMARK   18  A    between atoms: N_30  and  CA_31 
REMARK   19  A    between atoms: CA_31  and  C_32 
REMARK   20  A    between atoms: CA_31  and  CB_34 
REMARK       I    between atoms: C_32  and  N_39 
REMARK   21  A    between atoms: CB_34  and  CG_35 
REMARK   22  A    between atoms: CG_35  and  CD_36 
REMARK   23  A    between atoms: N_39  and  CA_40 
REMARK   24  A    between atoms: CA_40  and  C_41 
REMARK   25  A    between atoms: CA_40  and  CB_43 
REMARK       I    between atoms: C_41  and  N_47 
REMARK   26  A    between atoms: CB_43  and  CG_44 
REMARK       I    between atoms: CG_44  and  ND2_46 
REMARK   27  A    between atoms: N_47  and  CA_48 
REMARK   28  A    between atoms: CA_48  and  C_49 
REMARK   29  A    between atoms: CA_48  and  CB_51 
REMARK       I    between atoms: C_49  and  N_52 
REMARK   30  A    between atoms: N_52  and  CA_53 
REMARK   31  A    between atoms: CA_53  and  C_54 
REMARK   32  A    between atoms: CA_53  and  CB_56 
REMARK   33  A    between atoms: CB_56  and  CG_57 
REMARK   34  A    between atoms: CG_57  and  CD1_58 
REMARK   35  A    between atoms: CG_57  and  CD2_59 
ROOT
ATOM      1  C   VAL d   1      19.225 -19.091   0.140  0.00  0.00     0.241 C 
ATOM      2  O   VAL d   1      19.216 -19.215  -1.087  0.00  0.00    -0.271 OA
ATOM      3  N   GLU d   1      18.445 -19.839   0.874  0.00  0.00    -0.346 N 
ATOM      4  H   GLU d   1      18.318 -19.596   1.836  0.00  0.00     0.163 HD
ENDROOT
BRANCH   1   5
ATOM      5  CA  VAL d   1      20.140 -18.075   0.810  0.00  0.00     0.092 C 
ATOM      6  H   VAL d   1      20.087 -18.222   1.899  0.00  0.00     0.088 H 
BRANCH   5   7
ATOM      7  N   VAL d   1      21.514 -18.308   0.383  0.00  0.00    -0.346 N 
ATOM      8  C   ALA d   1      22.467 -18.653   1.243  0.00  0.00     0.240 C 
ATOM      9  O   ALA d   1      22.272 -18.771   2.452  0.00  0.00    -0.271 OA
ATOM     10  H   VAL d   1      21.746 -18.205  -0.584  0.00  0.00     0.163 HD
BRANCH   8  11
ATOM     11  CA  ALA d   1      23.849 -18.899   0.649  0.00  0.00     0.086 C 
ATOM     12  H   ALA d   1      23.802 -19.816   0.043  0.00  0.00     0.086 H 
BRANCH  11  13
ATOM     13  N   ALA d   1      24.249 -17.798  -0.222  0.00  0.00    -0.346 N 
ATOM     14  C   VAL d   1      24.059 -17.851  -1.536  0.00  0.00     0.241 C 
ATOM     15  O   VAL d   1      23.510 -18.801  -2.092  0.00  0.00    -0.271 OA
ATOM     16  H   ALA d   1      24.675 -16.987   0.179  0.00  0.00     0.163 HD
BRANCH  14  17
ATOM     17  CA  VAL d   1      24.573 -16.664  -2.342  0.00  0.00     0.092 C 
ATOM     18  H   VAL d   1      25.263 -16.084  -1.712  0.00  0.00     0.088 H 
BRANCH  17  19
ATOM     19  N   VAL d   1      25.313 -17.159  -3.496  0.00  0.00    -0.346 N 
ATOM     20  C   HIS d   1      26.576 -17.563  -3.378  0.00  0.00     0.249 C 
ATOM     21  O   HIS d   1      27.214 -17.478  -2.327  0.00  0.00    -0.271 OA
ATOM     22  H   VAL d   1      24.865 -17.196  -4.389  0.00  0.00     0.163 HD
BRANCH  20  23
ATOM     23  CA  HIS d   1      27.216 -18.151  -4.624  0.00  0.00     0.181 C 
ATOM     24  H   HIS d   1      26.772 -17.672  -5.510  0.00  0.00     0.099 H 
BRANCH  23  25
ATOM     25  N   HIS d   1      28.653 -17.899  -4.632  0.00  0.00    -0.066 N 
ATOM     26  H   HIS d   1      29.059 -18.296  -5.465  0.00  0.00     0.275 HD
ATOM     27  H   HIS d   1      29.073 -18.322  -3.819  0.00  0.00     0.275 HD
ATOM     28  H   HIS d   1      28.820 -16.905  -4.618  0.00  0.00     0.275 HD
ENDBRANCH  23  25
BRANCH  23  29
ATOM     29  CB  HIS d   1      26.930 -19.655  -4.681  0.00  0.00     0.011 C 
ATOM     30  H   HIS d   1      25.851 -19.808  -4.536  0.00  0.00     0.046 H 
ATOM     31  H   HIS d   1      27.483 -20.144  -3.865  0.00  0.00     0.046 H 
BRANCH  29  32
ATOM     32  CG  HIS d   1      27.328 -20.299  -5.973  0.00  0.00     0.053 A 
ATOM     33  ND1 HIS d   1      28.620 -20.688  -6.243  0.00  0.00    -0.247 NA
ATOM     34  CE1 HIS d   1      28.672 -21.224  -7.454  0.00  0.00     0.064 A 
ATOM     35  NE2 HIS d   1      27.459 -21.198  -7.971  0.00  0.00    -0.359 N 
ATOM     36  H   HIS d   1      29.564 -21.618  -7.939  0.00  0.00     0.143 H 
ATOM     37  CD2 HIS d   1      26.597 -20.624  -7.068  0.00  0.00     0.002 A 
ATOM     38  H   HIS d   1      27.199 -21.552  -8.903  0.00  0.00     0.166 HD
ATOM     39  H   HIS d   1      25.529 -20.461  -7.206  0.00  0.00     0.114 H 
ENDBRANCH  29  32
ENDBRANCH  23  29
ENDBRANCH  20  23
ENDBRANCH  17  19
BRANCH  17  40
ATOM     40  CB  VAL d   1      23.415 -15.745  -2.748  0.00  0.00    -0.033 C 
ATOM     41  H   VAL d   1      23.828 -14.910  -3.333  0.00  0.00     0.042 H 
BRANCH  40  42
ATOM     42  CG1 VAL d   1      22.411 -16.491  -3.625  0.00  0.00    -0.071 C 
ATOM     43  H   VAL d   1      21.591 -15.812  -3.903  0.00  0.00     0.028 H 
ATOM     44  H   VAL d   1      22.004 -17.349  -3.069  0.00  0.00     0.028 H 
ATOM     45  H   VAL d   1      22.914 -16.849  -4.535  0.00  0.00     0.028 H 
ENDBRANCH  40  42
BRANCH  40  46
ATOM     46  CG2 VAL d   1      22.733 -15.171  -1.515  0.00  0.00    -0.071 C 
ATOM     47  H   VAL d   1      23.474 -14.639  -0.900  0.00  0.00     0.028 H 
ATOM     48  H   VAL d   1      22.288 -15.988  -0.928  0.00  0.00     0.028 H 
ATOM     49  H   VAL d   1      21.944 -14.470  -1.825  0.00  0.00     0.028 H 
ENDBRANCH  40  46
ENDBRANCH  17  40
ENDBRANCH  14  17
ENDBRANCH  11  13
BRANCH  11  50
ATOM     50  CB  ALA d   1      24.875 -19.109   1.749  0.00  0.00    -0.049 C 
ATOM     51  H   ALA d   1      24.556 -19.941   2.394  0.00  0.00     0.030 H 
ATOM     52  H   ALA d   1      24.961 -18.192   2.350  0.00  0.00     0.030 H 
ATOM     53  H   ALA d   1      25.851 -19.346   1.300  0.00  0.00     0.030 H 
ENDBRANCH  11  50
ENDBRANCH   8  11
ENDBRANCH   5   7
BRANCH   5  54
ATOM     54  CB  VAL d   1      19.684 -16.639   0.502  0.00  0.00    -0.033 C 
ATOM     55  H   VAL d   1      19.785 -16.463  -0.579  0.00  0.00     0.042 H 
BRANCH  54  56
ATOM     56  CG1 VAL d   1      18.229 -16.451   0.890  0.00  0.00    -0.071 C 
ATOM     57  H   VAL d   1      17.919 -15.420   0.663  0.00  0.00     0.028 H 
ATOM     58  H   VAL d   1      18.109 -16.642   1.967  0.00  0.00     0.028 H 
ATOM     59  H   VAL d   1      17.604 -17.155   0.321  0.00  0.00     0.028 H 
ENDBRANCH  54  56
BRANCH  54  60
ATOM     60  CG2 VAL d   1      20.559 -15.642   1.240  0.00  0.00    -0.071 C 
ATOM     61  H   VAL d   1      21.609 -15.790   0.949  0.00  0.00     0.028 H 
ATOM     62  H   VAL d   1      20.454 -15.794   2.324  0.00  0.00     0.028 H 
ATOM     63  H   VAL d   1      20.248 -14.619   0.981  0.00  0.00     0.028 H 
ENDBRANCH  54  60
ENDBRANCH   5  54
ENDBRANCH   1   5
BRANCH   3  64
ATOM     64  CA  GLU d   1      17.759 -20.999   0.360  0.00  0.00     0.090 C 
ATOM     65  H   GLU d   1      18.007 -21.095  -0.707  0.00  0.00     0.087 H 
BRANCH  64  66
ATOM     66  C   GLU d   1      16.278 -20.891   0.484  0.00  0.00     0.241 C 
ATOM     67  O   GLU d   1      15.740 -20.985   1.538  0.00  0.00    -0.271 OA
ATOM     68  N   ASN d   1      15.626 -20.711  -0.632  0.00  0.00    -0.346 N 
ATOM     69  H   ASN d   1      16.149 -20.676  -1.483  0.00  0.00     0.163 HD
BRANCH  68  70
ATOM     70  CA  ASN d   1      14.175 -20.558  -0.709  0.00  0.00     0.097 C 
ATOM     71  H   ASN d   1      13.740 -21.112   0.136  0.00  0.00     0.088 H 
BRANCH  70  72
ATOM     72  C   ASN d   1      13.568 -21.122  -1.991  0.00  0.00     0.241 C 
ATOM     73  O   ASN d   1      13.776 -20.587  -3.079  0.00  0.00    -0.271 OA
ATOM     74  N   ALA d   1      12.805 -22.201  -1.856  0.00  0.00    -0.346 N 
ATOM     75  H   ALA d   1      12.704 -22.623  -0.955  0.00  0.00     0.163 HD
BRANCH  74  76
ATOM     76  CA  ALA d   1      12.113 -22.779  -3.002  0.00  0.00     0.086 C 
ATOM     77  H   ALA d   1      12.845 -22.933  -3.808  0.00  0.00     0.086 H 
BRANCH  76  78
ATOM     78  C   ALA d   1      11.033 -21.829  -3.509  0.00  0.00     0.240 C 
ATOM     79  O   ALA d   1      10.426 -21.095  -2.728  0.00  0.00    -0.271 OA
ATOM     80  N   LEU d   1      10.799 -21.840  -4.818  0.00  0.00    -0.345 N 
ATOM     81  H   LEU d   1      11.378 -22.394  -5.416  0.00  0.00     0.163 HD
BRANCH  80  82
ATOM     82  CA  LEU d   1       9.714 -21.059  -5.396  0.00  0.00     0.096 C 
ATOM     83  H   LEU d   1       9.790 -20.026  -5.025  0.00  0.00     0.089 H 
BRANCH  82  84
ATOM     84  C   LEU d   1       8.371 -21.637  -4.965  0.00  0.00     0.196 C 
ATOM     85  O   LEU d   1       7.323 -21.009  -5.115  0.00  0.00    -0.646 OA
ATOM     86  OXT LEU d   1       8.312 -22.757  -4.460  0.00  0.00    -0.646 OA
ENDBRANCH  82  84
BRANCH  82  87
ATOM     87  CB  LEU d   1       9.807 -21.035  -6.923  0.00  0.00    -0.034 C 
ATOM     88  H   LEU d   1       8.817 -20.750  -7.309  0.00  0.00     0.037 H 
ATOM     89  H   LEU d   1      10.050 -22.055  -7.254  0.00  0.00     0.037 H 
BRANCH  87  90
ATOM     90  CG  LEU d   1      10.833 -20.092  -7.554  0.00  0.00    -0.059 C 
ATOM     91  H   LEU d   1      10.647 -19.078  -7.171  0.00  0.00     0.038 H 
BRANCH  90  92
ATOM     92  CD1 LEU d   1      12.254 -20.489  -7.172  0.00  0.00    -0.073 C 
ATOM     93  H   LEU d   1      12.967 -19.794  -7.640  0.00  0.00     0.028 H 
ATOM     94  H   LEU d   1      12.456 -21.512  -7.522  0.00  0.00     0.028 H 
ATOM     95  H   LEU d   1      12.365 -20.447  -6.078  0.00  0.00     0.028 H 
ENDBRANCH  90  92
BRANCH  90  96
ATOM     96  CD2 LEU d   1      10.673 -20.066  -9.068  0.00  0.00    -0.073 C 
ATOM     97  H   LEU d   1       9.643 -19.778  -9.323  0.00  0.00     0.028 H 
ATOM     98  H   LEU d   1      10.886 -21.065  -9.476  0.00  0.00     0.028 H 
ATOM     99  H   LEU d   1      11.375 -19.337  -9.498  0.00  0.00     0.028 H 
ENDBRANCH  90  96
ENDBRANCH  87  90
ENDBRANCH  82  87
ENDBRANCH  80  82
ENDBRANCH  76  78
BRANCH  76 100
ATOM    100  CB  ALA d   1      11.512 -24.124  -2.638  0.00  0.00    -0.049 C 
ATOM    101  H   ALA d   1      10.995 -24.544  -3.514  0.00  0.00     0.030 H 
ATOM    102  H   ALA d   1      10.793 -23.994  -1.815  0.00  0.00     0.030 H 
ATOM    103  H   ALA d   1      12.312 -24.809  -2.321  0.00  0.00     0.030 H 
ENDBRANCH  76 100
ENDBRANCH  74  76
ENDBRANCH  70  72
BRANCH  70 104
ATOM    104  CB  ASN d   1      13.789 -19.086  -0.564  0.00  0.00     0.036 C 
ATOM    105  H   ASN d   1      12.693 -19.014  -0.499  0.00  0.00     0.051 H 
ATOM    106  H   ASN d   1      14.140 -18.540  -1.452  0.00  0.00     0.051 H 
BRANCH 104 107
ATOM    107  CG  ASN d   1      14.392 -18.446   0.669  0.00  0.00     0.217 C 
ATOM    108  OD1 ASN d   1      13.881 -18.603   1.779  0.00  0.00    -0.274 OA
ATOM    109  ND2 ASN d   1      15.493 -17.729   0.483  0.00  0.00    -0.370 N 
ATOM    110  H   ASN d   1      15.936 -17.282   1.260  0.00  0.00     0.159 HD
ATOM    111  H   ASN d   1      15.880 -17.635  -0.434  0.00  0.00     0.159 HD
ENDBRANCH 104 107
ENDBRANCH  70 104
ENDBRANCH  68  70
ENDBRANCH  64  66
BRANCH  64 112
ATOM    112  CB  GLU d   1      18.237 -22.253   1.087  0.00  0.00    -0.029 C 
ATOM    113  H   GLU d   1      19.052 -21.967   1.768  0.00  0.00     0.037 H 
ATOM    114  H   GLU d   1      18.618 -22.962   0.337  0.00  0.00     0.037 H 
BRANCH 112 115
ATOM    115  CG  GLU d   1      17.183 -22.939   1.883  0.00  0.00     0.018 C 
ATOM    116  H   GLU d   1      16.207 -22.517   1.603  0.00  0.00     0.049 H 
ATOM    117  H   GLU d   1      17.373 -22.746   2.949  0.00  0.00     0.049 H 
BRANCH 115 118
ATOM    118  CD  GLU d   1      17.133 -24.436   1.671  0.00  0.00     0.172 C 
ATOM    119  OE1 GLU d   1      17.844 -25.169   2.379  0.00  0.00    -0.648 OA
ATOM    120  OE2 GLU d   1      16.349 -24.890   0.821  0.00  0.00    -0.648 OA
ENDBRANCH 115 118
ENDBRANCH 112 115
ENDBRANCH  64 112
ENDBRANCH   3  64
TORSDOF 35
