REMARK WARNING: 32 MAX_TORS EXCEEDED!!!
REMARK  59 active torsions:
REMARK  status: ('A' for Active; 'I' for Inactive)
REMARK    1  A    between atoms: N_1  and  CA_2 
REMARK    2  A    between atoms: CA_2  and  C_3 
REMARK    3  A    between atoms: CA_2  and  CB_5 
REMARK       I    between atoms: C_3  and  N_10 
REMARK    4  A    between atoms: CB_5  and  CG_6 
REMARK    5  A    between atoms: CG_6  and  CD_7 
REMARK    6  A    between atoms: N_10  and  CA_11 
REMARK    7  A    between atoms: CA_11  and  C_12 
REMARK    8  A    between atoms: CA_11  and  CB_14 
REMARK       I    between atoms: C_12  and  N_17 
REMARK    9  A    between atoms: CB_14  and  OG1_15 
REMARK   10  A    between atoms: CB_14  and  CG2_16 
REMARK   11  A    between atoms: N_17  and  CA_18 
REMARK   12  A    between atoms: CA_18  and  C_19 
REMARK   13  A    between atoms: CA_18  and  CB_21 
REMARK       I    between atoms: C_19  and  N_22 
REMARK   14  A    between atoms: N_22  and  CA_23 
REMARK   15  A    between atoms: CA_23  and  C_24 
REMARK   16  A    between atoms: CA_23  and  CB_26 
REMARK       I    between atoms: C_24  and  N_27 
REMARK   17  A    between atoms: N_27  and  CA_28 
REMARK   18  A    between atoms: CA_28  and  C_29 
REMARK   19  A    between atoms: CA_28  and  CB_31 
REMARK       I    between atoms: C_29  and  N_32 
REMARK   20  A    between atoms: N_32  and  CA_33 
REMARK   21  A    between atoms: CA_33  and  C_34 
REMARK   22  A    between atoms: CA_33  and  CB_36 
REMARK       I    between atoms: C_34  and  N_42 
REMARK   23  A    between atoms: CB_36  and  CG_37 
REMARK   24  A    between atoms: N_42  and  CA_43 
REMARK   25  A    between atoms: CA_43  and  C_44 
REMARK   26  A    between atoms: CA_43  and  CB_46 
REMARK       I    between atoms: C_44  and  N_53 
REMARK   27  A    between atoms: CB_46  and  CG_47 
REMARK   28  A    between atoms: N_53  and  CA_54 
REMARK   29  A    between atoms: CA_54  and  C_55 
REMARK   30  A    between atoms: CA_54  and  CB_57 
REMARK       I    between atoms: C_55  and  N_62 
REMARK   31  A    between atoms: CB_57  and  CG_58 
REMARK   32  A    between atoms: CG_58  and  CD_59 
REMARK   33  A    between atoms: N_62  and  CA_63 
REMARK   34  A    between atoms: CA_63  and  C_64 
REMARK   35  A    between atoms: CA_63  and  CB_66 
REMARK       I    between atoms: C_64  and  N_71 
REMARK   36  A    between atoms: CB_66  and  CG_67 
REMARK   37  A    between atoms: CG_67  and  CD_68 
REMARK       I    between atoms: CD_68  and  NE2_70 
REMARK   38  A    between atoms: N_71  and  CA_72 
REMARK   39  A    between atoms: CA_72  and  C_73 
REMARK   40  A    between atoms: CA_72  and  CB_75 
REMARK       I    between atoms: C_73  and  N_81 
REMARK   41  A    between atoms: CB_75  and  CG_76 
REMARK   42  A    between atoms: N_81  and  CA_82 
REMARK   43  A    between atoms: CA_82  and  C_83 
REMARK   44  A    between atoms: CA_82  and  CB_85 
REMARK       I    between atoms: C_83  and  N_91 
REMARK   45  A    between atoms: CB_85  and  CG_86 
REMARK   46  A    between atoms: N_91  and  CA_92 
REMARK   47  A    between atoms: CA_92  and  C_93 
REMARK   48  A    between atoms: CA_92  and  CB_95 
REMARK       I    between atoms: C_93  and  N_99 
REMARK   49  A    between atoms: CB_95  and  CG_96 
REMARK   50  A    between atoms: CG_96  and  SD_97 
REMARK   51  A    between atoms: SD_97  and  CE_98 
REMARK   52  A    between atoms: N_99  and  CA_100 
REMARK   53  A    between atoms: CA_100  and  C_101 
REMARK   54  A    between atoms: CA_100  and  CB_103 
REMARK       I    between atoms: C_101  and  N_107 
REMARK   55  A    between atoms: CB_103  and  CG_104 
REMARK   56  A    between atoms: N_107  and  CA_108 
REMARK   57  A    between atoms: CA_108  and  C_109 
REMARK   58  A    between atoms: CA_108  and  CB_111 
REMARK   59  A    between atoms: CB_111  and  OG_112 
ROOT
ATOM      1  CA  GLU d   1     -16.044  -5.679  14.876  0.00  0.00     0.090 C 
ATOM      2  H   GLU d   1     -15.847  -6.728  14.610  0.00  0.00     0.087 H 
ENDROOT
BRANCH   1   3
ATOM      3  N   GLU d   1     -14.856  -4.889  14.604  0.00  0.00    -0.346 N 
ATOM      4  C   PHE d   1     -14.326  -4.932  13.379  0.00  0.00     0.241 C 
ATOM      5  O   PHE d   1     -14.829  -5.546  12.427  0.00  0.00    -0.271 OA
ATOM      6  H   GLU d   1     -14.444  -4.325  15.319  0.00  0.00     0.163 HD
BRANCH   4   7
ATOM      7  CA  PHE d   1     -13.016  -4.113  13.188  0.00  0.00     0.093 C 
ATOM      8  H   PHE d   1     -12.838  -4.015  12.107  0.00  0.00     0.088 H 
BRANCH   7   9
ATOM      9  N   PHE d   1     -13.111  -2.757  13.752  0.00  0.00    -0.346 N 
ATOM     10  C   HIS d   1     -14.083  -1.963  13.333  0.00  0.00     0.241 C 
ATOM     11  O   HIS d   1     -14.858  -2.285  12.411  0.00  0.00    -0.271 OA
ATOM     12  H   PHE d   1     -12.455  -2.442  14.438  0.00  0.00     0.163 HD
BRANCH  10  13
ATOM     13  CA  HIS d   1     -14.105  -0.584  13.973  0.00  0.00     0.094 C 
ATOM     14  H   HIS d   1     -15.100  -0.144  13.812  0.00  0.00     0.088 H 
BRANCH  13  15
ATOM     15  N   HIS d   1     -13.901  -0.686  15.370  0.00  0.00    -0.346 N 
ATOM     16  C   ALA d   1     -14.767  -1.357  16.136  0.00  0.00     0.240 C 
ATOM     17  O   ALA d   1     -15.748  -1.954  15.658  0.00  0.00    -0.271 OA
ATOM     18  H   HIS d   1     -13.102  -0.253  15.787  0.00  0.00     0.163 HD
BRANCH  16  19
ATOM     19  CA  ALA d   1     -14.440  -1.465  17.597  0.00  0.00     0.086 C 
ATOM     20  H   ALA d   1     -14.989  -2.326  18.007  0.00  0.00     0.086 H 
BRANCH  19  21
ATOM     21  N   ALA d   1     -12.951  -1.707  17.800  0.00  0.00    -0.346 N 
ATOM     22  C   ALA d   1     -12.355  -2.811  17.412  0.00  0.00     0.240 C 
ATOM     23  O   ALA d   1     -12.984  -3.738  16.875  0.00  0.00    -0.271 OA
ATOM     24  H   ALA d   1     -12.405  -0.998  18.246  0.00  0.00     0.163 HD
BRANCH  22  25
ATOM     25  CA  ALA d   1     -10.862  -2.877  17.650  0.00  0.00     0.086 C 
ATOM     26  H   ALA d   1     -10.462  -3.668  16.998  0.00  0.00     0.086 H 
BRANCH  25  27
ATOM     27  N   ALA d   1     -10.170  -1.624  17.292  0.00  0.00    -0.346 N 
ATOM     28  C   ALA d   1     -10.153  -1.179  16.060  0.00  0.00     0.240 C 
ATOM     29  O   ALA d   1     -10.767  -1.742  15.113  0.00  0.00    -0.271 OA
ATOM     30  H   ALA d   1      -9.703  -1.103  18.006  0.00  0.00     0.163 HD
BRANCH  28  31
ATOM     31  CA  ALA d   1      -9.485   0.163  15.832  0.00  0.00     0.086 C 
ATOM     32  H   ALA d   1      -9.903   0.602  14.914  0.00  0.00     0.086 H 
BRANCH  31  33
ATOM     33  N   ALA d   1      -9.754   1.088  16.943  0.00  0.00    -0.346 N 
ATOM     34  C   THR d   1     -10.992   1.488  17.221  0.00  0.00     0.243 C 
ATOM     35  O   THR d   1     -11.930   1.058  16.622  0.00  0.00    -0.271 OA
ATOM     36  H   ALA d   1      -8.993   1.422  17.499  0.00  0.00     0.163 HD
BRANCH  34  37
ATOM     37  CA  THR d   1     -11.142   2.292  18.460  0.00  0.00     0.113 C 
ATOM     38  H   THR d   1     -10.347   3.052  18.476  0.00  0.00     0.091 H 
BRANCH  37  39
ATOM     39  N   THR d   1     -12.438   3.007  18.447  0.00  0.00    -0.344 N 
ATOM     40  C   GLU d   1     -12.709   3.954  17.546  0.00  0.00     0.249 C 
ATOM     41  O   GLU d   1     -11.866   4.376  16.756  0.00  0.00    -0.271 OA
ATOM     42  H   THR d   1     -13.129   2.774  19.131  0.00  0.00     0.163 HD
BRANCH  40  43
ATOM     43  CA  GLU d   1     -14.170   4.471  17.478  0.00  0.00     0.176 C 
ATOM     44  H   GLU d   1     -14.554   4.596  18.501  0.00  0.00     0.099 H 
BRANCH  43  45
ATOM     45  N   GLU d   1     -14.344   5.790  16.742  0.00  0.00    -0.066 N 
ATOM     46  H   GLU d   1     -15.318   6.051  16.745  0.00  0.00     0.275 HD
ATOM     47  H   GLU d   1     -14.027   5.688  15.791  0.00  0.00     0.275 HD
ATOM     48  H   GLU d   1     -13.803   6.505  17.202  0.00  0.00     0.275 HD
ENDBRANCH  43  45
BRANCH  43  49
ATOM     49  CB  GLU d   1     -14.952   3.375  16.755  0.00  0.00    -0.021 C 
ATOM     50  H   GLU d   1     -14.813   2.429  17.298  0.00  0.00     0.037 H 
ATOM     51  H   GLU d   1     -14.553   3.274  15.735  0.00  0.00     0.037 H 
BRANCH  49  52
ATOM     52  CG  GLU d   1     -16.445   3.668  16.665  0.00  0.00     0.018 C 
ATOM     53  H   GLU d   1     -16.580   4.580  16.065  0.00  0.00     0.049 H 
ATOM     54  H   GLU d   1     -16.823   3.840  17.684  0.00  0.00     0.049 H 
BRANCH  52  55
ATOM     55  CD  GLU d   1     -17.266   2.565  16.037  0.00  0.00     0.172 C 
ATOM     56  OE1 GLU d   1     -16.713   1.646  15.303  0.00  0.00    -0.648 OA
ATOM     57  OE2 GLU d   1     -18.490   2.516  16.354  0.00  0.00    -0.648 OA
ENDBRANCH  52  55
ENDBRANCH  49  52
ENDBRANCH  43  49
ENDBRANCH  40  43
ENDBRANCH  37  39
BRANCH  37  58
ATOM     58  CB  THR d   1     -10.943   1.383  19.699  0.00  0.00     0.060 C 
ATOM     59  H   THR d   1      -9.940   0.935  19.647  0.00  0.00     0.086 H 
BRANCH  58  60
ATOM     60  OG1 THR d   1     -11.922   0.352  19.630  0.00  0.00    -0.393 OA
ATOM     61  H   THR d   1     -11.826  -0.225  20.379  0.00  0.00     0.210 HD
ENDBRANCH  58  60
BRANCH  58  62
ATOM     62  CG2 THR d   1     -11.059   2.111  21.002  0.00  0.00    -0.050 C 
ATOM     63  H   THR d   1     -10.907   1.405  21.831  0.00  0.00     0.031 H 
ATOM     64  H   THR d   1     -12.059   2.561  21.083  0.00  0.00     0.031 H 
ATOM     65  H   THR d   1     -10.296   2.902  21.049  0.00  0.00     0.031 H 
ENDBRANCH  58  62
ENDBRANCH  37  58
ENDBRANCH  34  37
ENDBRANCH  31  33
BRANCH  31  66
ATOM     66  CB  ALA d   1      -7.997  -0.015  15.635  0.00  0.00    -0.049 C 
ATOM     67  H   ALA d   1      -7.818  -0.709  14.801  0.00  0.00     0.030 H 
ATOM     68  H   ALA d   1      -7.552  -0.424  16.554  0.00  0.00     0.030 H 
ATOM     69  H   ALA d   1      -7.538   0.958  15.407  0.00  0.00     0.030 H 
ENDBRANCH  31  66
ENDBRANCH  28  31
ENDBRANCH  25  27
BRANCH  25  70
ATOM     70  CB  ALA d   1     -10.562  -3.269  19.087  0.00  0.00    -0.049 C 
ATOM     71  H   ALA d   1     -11.088  -4.204  19.329  0.00  0.00     0.030 H 
ATOM     72  H   ALA d   1     -10.902  -2.471  19.763  0.00  0.00     0.030 H 
ATOM     73  H   ALA d   1      -9.479  -3.416  19.209  0.00  0.00     0.030 H 
ENDBRANCH  25  70
ENDBRANCH  22  25
ENDBRANCH  19  21
BRANCH  19  74
ATOM     74  CB  ALA d   1     -14.872  -0.238  18.339  0.00  0.00    -0.049 C 
ATOM     75  H   ALA d   1     -15.949  -0.076  18.183  0.00  0.00     0.030 H 
ATOM     76  H   ALA d   1     -14.312   0.632  17.966  0.00  0.00     0.030 H 
ATOM     77  H   ALA d   1     -14.672  -0.369  19.413  0.00  0.00     0.030 H 
ENDBRANCH  19  74
ENDBRANCH  16  19
ENDBRANCH  13  15
BRANCH  13  78
ATOM     78  CB  HIS d   1     -13.080   0.317  13.289  0.00  0.00     0.004 C 
ATOM     79  H   HIS d   1     -12.963  -0.016  12.247  0.00  0.00     0.046 H 
ATOM     80  H   HIS d   1     -12.120   0.216  13.816  0.00  0.00     0.046 H 
BRANCH  78  81
ATOM     81  CG  HIS d   1     -13.463   1.742  13.284  0.00  0.00     0.053 A 
ATOM     82  ND1 HIS d   1     -12.577   2.747  13.503  0.00  0.00    -0.247 NA
ATOM     83  CE1 HIS d   1     -13.198   3.906  13.429  0.00  0.00     0.064 A 
ATOM     84  NE2 HIS d   1     -14.460   3.677  13.151  0.00  0.00    -0.359 N 
ATOM     85  H   HIS d   1     -12.743   4.885  13.573  0.00  0.00     0.143 H 
ATOM     86  CD2 HIS d   1     -14.666   2.323  13.094  0.00  0.00     0.002 A 
ATOM     87  H   HIS d   1     -15.180   4.398  13.000  0.00  0.00     0.166 HD
ATOM     88  H   HIS d   1     -15.615   1.815  12.928  0.00  0.00     0.114 H 
ENDBRANCH  78  81
ENDBRANCH  13  78
ENDBRANCH  10  13
ENDBRANCH   7   9
BRANCH   7  89
ATOM     89  CB  PHE d   1     -11.806  -4.868  13.813  0.00  0.00    -0.014 C 
ATOM     90  H   PHE d   1     -11.909  -4.853  14.908  0.00  0.00     0.043 H 
ATOM     91  H   PHE d   1     -10.880  -4.349  13.525  0.00  0.00     0.043 H 
BRANCH  89  92
ATOM     92  CG  PHE d   1     -11.716  -6.321  13.350  0.00  0.00    -0.056 A 
ATOM     93  CD1 PHE d   1     -10.854  -6.646  12.298  0.00  0.00    -0.077 A 
ATOM     94  CE1 PHE d   1     -10.748  -7.936  11.886  0.00  0.00    -0.082 A 
ATOM     95  H   PHE d   1     -10.272  -5.871  11.813  0.00  0.00     0.084 H 
ATOM     96  CZ  PHE d   1     -11.568  -8.892  12.451  0.00  0.00    -0.083 A 
ATOM     97  H   PHE d   1     -10.029  -8.211  11.123  0.00  0.00     0.083 H 
ATOM     98  CE2 PHE d   1     -12.451  -8.601  13.485  0.00  0.00    -0.082 A 
ATOM     99  H   PHE d   1     -11.522  -9.908  12.075  0.00  0.00     0.083 H 
ATOM    100  CD2 PHE d   1     -12.457  -7.276  13.919  0.00  0.00    -0.077 A 
ATOM    101  H   PHE d   1     -13.093  -9.355  13.925  0.00  0.00     0.083 H 
ATOM    102  H   PHE d   1     -13.092  -7.009  14.756  0.00  0.00     0.084 H 
ENDBRANCH  89  92
ENDBRANCH   7  89
ENDBRANCH   4   7
ENDBRANCH   1   3
BRANCH   1 103
ATOM    103  C   GLU d   1     -17.241  -5.156  14.068  0.00  0.00     0.241 C 
ATOM    104  O   GLU d   1     -17.956  -5.943  13.462  0.00  0.00    -0.271 OA
ATOM    105  N   GLN d   1     -17.401  -3.836  14.010  0.00  0.00    -0.346 N 
ATOM    106  H   GLN d   1     -16.773  -3.249  14.521  0.00  0.00     0.163 HD
BRANCH 105 107
ATOM    107  CA  GLN d   1     -18.464  -3.219  13.224  0.00  0.00     0.090 C 
ATOM    108  H   GLN d   1     -19.428  -3.616  13.575  0.00  0.00     0.087 H 
BRANCH 107 109
ATOM    109  C   GLN d   1     -18.342  -3.513  11.724  0.00  0.00     0.241 C 
ATOM    110  O   GLN d   1     -19.355  -3.703  11.017  0.00  0.00    -0.271 OA
ATOM    111  N   HIS d   1     -17.109  -3.560  11.207  0.00  0.00    -0.346 N 
ATOM    112  H   HIS d   1     -16.314  -3.509  11.811  0.00  0.00     0.163 HD
BRANCH 111 113
ATOM    113  CA  HIS d   1     -16.923  -3.684   9.788  0.00  0.00     0.094 C 
ATOM    114  H   HIS d   1     -17.760  -3.173   9.290  0.00  0.00     0.088 H 
BRANCH 113 115
ATOM    115  C   HIS d   1     -16.920  -5.150   9.313  0.00  0.00     0.241 C 
ATOM    116  O   HIS d   1     -17.149  -5.359   8.162  0.00  0.00    -0.271 OA
ATOM    117  N   HIS d   1     -16.602  -6.063  10.194  0.00  0.00    -0.346 N 
ATOM    118  H   HIS d   1     -16.466  -5.811  11.152  0.00  0.00     0.163 HD
BRANCH 117 119
ATOM    119  CA  HIS d   1     -16.447  -7.451   9.772  0.00  0.00     0.094 C 
ATOM    120  H   HIS d   1     -16.701  -7.473   8.702  0.00  0.00     0.088 H 
BRANCH 119 121
ATOM    121  C   HIS d   1     -17.314  -8.486  10.410  0.00  0.00     0.241 C 
ATOM    122  O   HIS d   1     -17.423  -9.585   9.876  0.00  0.00    -0.271 OA
ATOM    123  N   MET d   1     -17.822  -8.280  11.601  0.00  0.00    -0.346 N 
ATOM    124  H   MET d   1     -17.708  -7.392  12.047  0.00  0.00     0.163 HD
BRANCH 123 125
ATOM    125  CA  MET d   1     -18.560  -9.356  12.281  0.00  0.00     0.090 C 
ATOM    126  H   MET d   1     -18.124 -10.314  11.962  0.00  0.00     0.087 H 
BRANCH 125 127
ATOM    127  C   MET d   1     -20.049  -9.406  11.956  0.00  0.00     0.241 C 
ATOM    128  O   MET d   1     -20.708  -8.373  11.993  0.00  0.00    -0.271 OA
ATOM    129  N   ASP d   1     -20.509 -10.575  11.632  0.00  0.00    -0.346 N 
ATOM    130  H   ASP d   1     -19.873 -11.339  11.522  0.00  0.00     0.163 HD
BRANCH 129 131
ATOM    131  CA  ASP d   1     -21.951 -10.799  11.423  0.00  0.00     0.098 C 
ATOM    132  H   ASP d   1     -22.503 -10.009  11.953  0.00  0.00     0.088 H 
BRANCH 131 133
ATOM    133  C   ASP d   1     -22.346 -12.127  11.992  0.00  0.00     0.241 C 
ATOM    134  O   ASP d   1     -22.577 -13.071  11.278  0.00  0.00    -0.271 OA
ATOM    135  N   SER d   1     -22.342 -12.222  13.298  0.00  0.00    -0.343 N 
ATOM    136  H   SER d   1     -22.264 -11.393  13.852  0.00  0.00     0.163 HD
BRANCH 135 137
ATOM    137  CA  SER d   1     -22.449 -13.519  13.957  0.00  0.00     0.116 C 
ATOM    138  H   SER d   1     -21.562 -14.113  13.692  0.00  0.00     0.093 H 
BRANCH 137 139
ATOM    139  C   SER d   1     -23.690 -14.328  13.556  0.00  0.00     0.198 C 
ATOM    140  O   SER d   1     -24.749 -13.608  13.492  0.00  0.00    -0.646 OA
ATOM    141  OXT SER d   1     -23.657 -15.601  13.269  0.00  0.00    -0.646 OA
ENDBRANCH 137 139
BRANCH 137 142
ATOM    142  CB  SER d   1     -22.451 -13.281  15.414  0.00  0.00     0.045 C 
ATOM    143  H   SER d   1     -22.493 -14.241  15.950  0.00  0.00     0.077 H 
ATOM    144  H   SER d   1     -23.321 -12.668  15.692  0.00  0.00     0.077 H 
BRANCH 142 145
ATOM    145  OG  SER d   1     -21.268 -12.605  15.738  0.00  0.00    -0.398 OA
ATOM    146  H   SER d   1     -20.522 -13.139  15.491  0.00  0.00     0.209 HD
ENDBRANCH 142 145
ENDBRANCH 137 142
ENDBRANCH 135 137
ENDBRANCH 131 133
BRANCH 131 147
ATOM    147  CB  ASP d   1     -22.326 -10.739   9.957  0.00  0.00     0.043 C 
ATOM    148  H   ASP d   1     -21.858 -11.589   9.440  0.00  0.00     0.052 H 
ATOM    149  H   ASP d   1     -21.944  -9.798   9.535  0.00  0.00     0.052 H 
BRANCH 147 150
ATOM    150  CG  ASP d   1     -23.825 -10.799   9.730  0.00  0.00     0.175 C 
ATOM    151  OD1 ASP d   1     -24.596 -10.495  10.682  0.00  0.00    -0.648 OA
ATOM    152  OD2 ASP d   1     -24.191 -11.005   8.596  0.00  0.00    -0.648 OA
ENDBRANCH 147 150
ENDBRANCH 131 147
ENDBRANCH 129 131
ENDBRANCH 125 127
BRANCH 125 153
ATOM    153  CB  MET d   1     -18.349  -9.205  13.781  0.00  0.00    -0.030 C 
ATOM    154  H   MET d   1     -18.938  -9.979  14.296  0.00  0.00     0.037 H 
ATOM    155  H   MET d   1     -18.706  -8.210  14.085  0.00  0.00     0.037 H 
BRANCH 153 156
ATOM    156  CG  MET d   1     -16.898  -9.345  14.202  0.00  0.00    -0.021 C 
ATOM    157  H   MET d   1     -16.842  -9.201  15.291  0.00  0.00     0.049 H 
ATOM    158  H   MET d   1     -16.318  -8.558  13.698  0.00  0.00     0.049 H 
BRANCH 156 159
ATOM    159  SD  MET d   1     -16.151 -10.923  13.811  0.00  0.00    -0.173 SA
BRANCH 159 160
ATOM    160  CE  MET d   1     -17.549 -11.986  14.345  0.00  0.00    -0.035 C 
ATOM    161  H   MET d   1     -17.289 -13.043  14.184  0.00  0.00     0.041 H 
ATOM    162  H   MET d   1     -18.445 -11.736  13.758  0.00  0.00     0.041 H 
ATOM    163  H   MET d   1     -17.751 -11.817  15.413  0.00  0.00     0.041 H 
ENDBRANCH 159 160
ENDBRANCH 156 159
ENDBRANCH 153 156
ENDBRANCH 125 153
ENDBRANCH 123 125
ENDBRANCH 119 121
BRANCH 119 164
ATOM    164  CB  HIS d   1     -14.989  -7.822   9.901  0.00  0.00     0.004 C 
ATOM    165  H   HIS d   1     -14.870  -8.854   9.540  0.00  0.00     0.046 H 
ATOM    166  H   HIS d   1     -14.720  -7.772  10.967  0.00  0.00     0.046 H 
BRANCH 164 167
ATOM    167  CG  HIS d   1     -14.017  -6.945   9.134  0.00  0.00     0.053 A 
ATOM    168  ND1 HIS d   1     -13.932  -6.943   7.769  0.00  0.00    -0.247 NA
ATOM    169  CE1 HIS d   1     -13.104  -6.023   7.353  0.00  0.00     0.064 A 
ATOM    170  NE2 HIS d   1     -12.606  -5.442   8.407  0.00  0.00    -0.359 N 
ATOM    171  H   HIS d   1     -12.873  -5.785   6.316  0.00  0.00     0.143 H 
ATOM    172  CD2 HIS d   1     -13.134  -5.997   9.532  0.00  0.00     0.002 A 
ATOM    173  H   HIS d   1     -11.916  -4.677   8.392  0.00  0.00     0.166 HD
ATOM    174  H   HIS d   1     -12.892  -5.729  10.560  0.00  0.00     0.114 H 
ENDBRANCH 164 167
ENDBRANCH 119 164
ENDBRANCH 117 119
ENDBRANCH 113 115
BRANCH 113 175
ATOM    175  CB  HIS d   1     -15.645  -2.997   9.391  0.00  0.00     0.002 C 
ATOM    176  H   HIS d   1     -15.439  -3.232   8.336  0.00  0.00     0.046 H 
ATOM    177  H   HIS d   1     -14.832  -3.389  10.020  0.00  0.00     0.046 H 
BRANCH 175 178
ATOM    178  CG  HIS d   1     -15.681  -1.503   9.543  0.00  0.00     0.030 A 
ATOM    179  ND1 HIS d   1     -14.523  -0.763   9.706  0.00  0.00    -0.353 N 
ATOM    180  CE1 HIS d   1     -14.865   0.504   9.850  0.00  0.00     0.063 A 
ATOM    181  H   HIS d   1     -13.563  -1.135   9.714  0.00  0.00     0.166 HD
ATOM    182  NE2 HIS d   1     -16.173   0.597   9.752  0.00  0.00    -0.254 NA
ATOM    183  H   HIS d   1     -14.179   1.333  10.021  0.00  0.00     0.143 H 
ATOM    184  CD2 HIS d   1     -16.711  -0.636   9.604  0.00  0.00     0.025 A 
ATOM    185  H   HIS d   1     -17.771  -0.880   9.546  0.00  0.00     0.117 H 
ENDBRANCH 175 178
ENDBRANCH 113 175
ENDBRANCH 111 113
ENDBRANCH 107 109
BRANCH 107 186
ATOM    186  CB  GLN d   1     -18.437  -1.698  13.450  0.00  0.00    -0.030 C 
ATOM    187  H   GLN d   1     -17.471  -1.311  13.093  0.00  0.00     0.037 H 
ATOM    188  H   GLN d   1     -18.532  -1.506  14.529  0.00  0.00     0.037 H 
BRANCH 186 189
ATOM    189  CG  GLN d   1     -19.544  -0.954  12.733  0.00  0.00     0.011 C 
ATOM    190  H   GLN d   1     -20.509  -1.332  13.102  0.00  0.00     0.047 H 
ATOM    191  H   GLN d   1     -19.457  -1.160  11.656  0.00  0.00     0.047 H 
BRANCH 189 192
ATOM    192  CD  GLN d   1     -19.513   0.543  12.934  0.00  0.00     0.215 C 
ATOM    193  OE1 GLN d   1     -19.505   1.308  11.966  0.00  0.00    -0.274 OA
ATOM    194  NE2 GLN d   1     -19.340   0.940  14.149  0.00  0.00    -0.370 N 
ATOM    195  H   GLN d   1     -19.309   1.918  14.356  0.00  0.00     0.159 HD
ATOM    196  H   GLN d   1     -19.237   0.270  14.884  0.00  0.00     0.159 HD
ENDBRANCH 189 192
ENDBRANCH 186 189
ENDBRANCH 107 186
ENDBRANCH 105 107
ENDBRANCH   1 103
BRANCH   1 197
ATOM    197  CB  GLU d   1     -16.422  -5.583  16.357  0.00  0.00    -0.029 C 
ATOM    198  H   GLU d   1     -17.366  -6.130  16.500  0.00  0.00     0.037 H 
ATOM    199  H   GLU d   1     -16.574  -4.521  16.597  0.00  0.00     0.037 H 
BRANCH 197 200
ATOM    200  CG  GLU d   1     -15.406  -6.142  17.342  0.00  0.00     0.018 C 
ATOM    201  H   GLU d   1     -14.432  -5.675  17.136  0.00  0.00     0.049 H 
ATOM    202  H   GLU d   1     -15.333  -7.228  17.184  0.00  0.00     0.049 H 
BRANCH 200 203
ATOM    203  CD  GLU d   1     -15.757  -5.893  18.807  0.00  0.00     0.172 C 
ATOM    204  OE1 GLU d   1     -14.976  -5.246  19.539  0.00  0.00    -0.648 OA
ATOM    205  OE2 GLU d   1     -16.838  -6.301  19.241  0.00  0.00    -0.648 OA
ENDBRANCH 200 203
ENDBRANCH 197 200
ENDBRANCH   1 197
TORSDOF 59
