REMARK WARNING: 32 MAX_TORS EXCEEDED!!!
REMARK  67 active torsions:
REMARK  status: ('A' for Active; 'I' for Inactive)
REMARK    1  A    between atoms: N_1  and  CA_2 
REMARK    2  A    between atoms: CA_2  and  C_3 
REMARK    3  A    between atoms: CA_2  and  CB_5 
REMARK       I    between atoms: C_3  and  N_10 
REMARK    4  A    between atoms: CB_5  and  CG_6 
REMARK    5  A    between atoms: CG_6  and  CD_7 
REMARK    6  A    between atoms: CD_7  and  CE_8 
REMARK    7  A    between atoms: CE_8  and  NZ_9 
REMARK    8  A    between atoms: N_10  and  CA_11 
REMARK    9  A    between atoms: CA_11  and  C_12 
REMARK   10  A    between atoms: CA_11  and  CB_14 
REMARK       I    between atoms: C_12  and  N_19 
REMARK   11  A    between atoms: CB_14  and  CG_15 
REMARK   12  A    between atoms: CG_15  and  CD_16 
REMARK   13  A    between atoms: N_19  and  CA_20 
REMARK   14  A    between atoms: CA_20  and  C_21 
REMARK   15  A    between atoms: CA_20  and  CB_23 
REMARK       I    between atoms: C_21  and  N_26 
REMARK   16  A    between atoms: CB_23  and  OG1_24 
REMARK   17  A    between atoms: CB_23  and  CG2_25 
REMARK   18  A    between atoms: N_26  and  CA_27 
REMARK   19  A    between atoms: CA_27  and  C_28 
REMARK   20  A    between atoms: CA_27  and  CB_30 
REMARK       I    between atoms: C_28  and  N_31 
REMARK   21  A    between atoms: N_31  and  CA_32 
REMARK   22  A    between atoms: CA_32  and  C_33 
REMARK   23  A    between atoms: CA_32  and  CB_35 
REMARK       I    between atoms: C_33  and  N_36 
REMARK   24  A    between atoms: N_36  and  CA_37 
REMARK   25  A    between atoms: CA_37  and  C_38 
REMARK   26  A    between atoms: CA_37  and  CB_40 
REMARK       I    between atoms: C_38  and  N_41 
REMARK   27  A    between atoms: N_41  and  CA_42 
REMARK   28  A    between atoms: CA_42  and  C_43 
REMARK   29  A    between atoms: CA_42  and  CB_45 
REMARK       I    between atoms: C_43  and  N_52 
REMARK   30  A    between atoms: CB_45  and  C6_46 
REMARK   31  A    between atoms: N_52  and  CA_53 
REMARK   32  A    between atoms: CA_53  and  C_54 
REMARK   33  A    between atoms: CA_53  and  CB_56 
REMARK       I    between atoms: C_54  and  N_63 
REMARK   34  A    between atoms: CB_56  and  CG_57 
REMARK   35  A    between atoms: N_63  and  CA_64 
REMARK   36  A    between atoms: CA_64  and  C_65 
REMARK   37  A    between atoms: CA_64  and  CB_67 
REMARK       I    between atoms: C_65  and  N_72 
REMARK   38  A    between atoms: CB_67  and  CG_68 
REMARK   39  A    between atoms: CG_68  and  CD_69 
REMARK   40  A    between atoms: N_72  and  CA_73 
REMARK   41  A    between atoms: CA_73  and  C_74 
REMARK   42  A    between atoms: CA_73  and  CB_76 
REMARK       I    between atoms: C_74  and  N_83 
REMARK   43  A    between atoms: CB_76  and  CG_77 
REMARK   44  A    between atoms: CG_77  and  CD_78 
REMARK   45  A    between atoms: CD_78  and  NE_79 
REMARK       I    between atoms: NE_79  and  CZ_80 
REMARK       I    between atoms: CZ_80  and  NH1_81 
REMARK   46  A    between atoms: N_83  and  CA_84 
REMARK   47  A    between atoms: CA_84  and  C_85 
REMARK   48  A    between atoms: CA_84  and  CB_87 
REMARK       I    between atoms: C_85  and  N_94 
REMARK   49  A    between atoms: CB_87  and  C6_88 
REMARK   50  A    between atoms: N_94  and  CA_95 
REMARK   51  A    between atoms: CA_95  and  C_96 
REMARK   52  A    between atoms: CA_95  and  CB_98 
REMARK       I    between atoms: C_96  and  N_104 
REMARK   53  A    between atoms: CB_98  and  CG_99 
REMARK   54  A    between atoms: N_104  and  CA_105 
REMARK   55  A    between atoms: CA_105  and  C_106 
REMARK   56  A    between atoms: CA_105  and  CB_108 
REMARK       I    between atoms: C_106  and  N_112 
REMARK   57  A    between atoms: CB_108  and  CG_109 
REMARK   58  A    between atoms: CG_109  and  CD_110 
REMARK   59  A    between atoms: CD_110  and  CE_111 
REMARK   60  A    between atoms: N_112  and  CA_113 
REMARK   61  A    between atoms: CA_113  and  C_114 
REMARK   62  A    between atoms: CA_113  and  CB_116 
REMARK       I    between atoms: C_114  and  N_120 
REMARK   63  A    between atoms: CB_116  and  CG_117 
REMARK   64  A    between atoms: N_120  and  CA_121 
REMARK   65  A    between atoms: CA_121  and  C_122 
REMARK   66  A    between atoms: CA_121  and  CB_124 
REMARK   67  A    between atoms: CB_124  and  OG_125 
ROOT
ATOM      1  CA  PHE d   1     -12.827  -3.918  13.010  0.00  0.00     0.093 C 
ATOM      2  H   PHE d   1     -12.560  -3.864  11.944  0.00  0.00     0.088 H 
ENDROOT
BRANCH   1   3
ATOM      3  N   PHE d   1     -12.858  -2.544  13.621  0.00  0.00    -0.346 N 
ATOM      4  C   1MH d   1     -13.849  -1.666  13.079  0.00  0.00     0.241 C 
ATOM      5  O   1MH d   1     -14.554  -1.976  12.145  0.00  0.00    -0.271 OA
ATOM      6  H   PHE d   1     -12.233  -2.265  14.351  0.00  0.00     0.163 HD
BRANCH   4   7
ATOM      7  CA  1MH d   1     -13.760  -0.291  13.767  0.00  0.00     0.093 C 
ATOM      8  H   1MH d   1     -14.679   0.246  13.488  0.00  0.00     0.088 H 
BRANCH   7   9
ATOM      9  N   1MH d   1     -13.741  -0.389  15.230  0.00  0.00    -0.346 N 
ATOM     10  C   ALA d   1     -14.719  -1.059  15.821  0.00  0.00     0.240 C 
ATOM     11  O   ALA d   1     -15.677  -1.583  15.261  0.00  0.00    -0.271 OA
ATOM     12  H   1MH d   1     -13.012   0.037  15.765  0.00  0.00     0.163 HD
BRANCH  10  13
ATOM     13  CA  ALA d   1     -14.547  -1.228  17.334  0.00  0.00     0.086 C 
ATOM     14  H   ALA d   1     -15.146  -2.091  17.660  0.00  0.00     0.086 H 
BRANCH  13  15
ATOM     15  N   ALA d   1     -13.155  -1.445  17.737  0.00  0.00    -0.346 N 
ATOM     16  C   ALA d   1     -12.555  -2.609  17.403  0.00  0.00     0.240 C 
ATOM     17  O   ALA d   1     -13.212  -3.502  16.862  0.00  0.00    -0.271 OA
ATOM     18  H   ALA d   1     -12.658  -0.745  18.250  0.00  0.00     0.163 HD
BRANCH  16  19
ATOM     19  CA  ALA d   1     -11.118  -2.754  17.814  0.00  0.00     0.086 C 
ATOM     20  H   ALA d   1     -10.647  -3.526  17.188  0.00  0.00     0.086 H 
BRANCH  19  21
ATOM     21  N   ALA d   1     -10.394  -1.501  17.622  0.00  0.00    -0.346 N 
ATOM     22  C   ALA d   1     -10.177  -1.069  16.392  0.00  0.00     0.240 C 
ATOM     23  O   ALA d   1     -10.715  -1.617  15.411  0.00  0.00    -0.271 OA
ATOM     24  H   ALA d   1     -10.067  -0.978  18.409  0.00  0.00     0.163 HD
BRANCH  22  25
ATOM     25  CA  ALA d   1      -9.421   0.242  16.189  0.00  0.00     0.086 C 
ATOM     26  H   ALA d   1      -9.736   0.687  15.234  0.00  0.00     0.086 H 
BRANCH  25  27
ATOM     27  N   ALA d   1      -9.781   1.202  17.308  0.00  0.00    -0.346 N 
ATOM     28  C   THR d   1     -11.008   1.670  17.447  0.00  0.00     0.243 C 
ATOM     29  O   THR d   1     -11.919   1.332  16.682  0.00  0.00    -0.271 OA
ATOM     30  H   ALA d   1      -9.073   1.486  17.955  0.00  0.00     0.163 HD
BRANCH  28  31
ATOM     31  CA  THR d   1     -11.276   2.572  18.665  0.00  0.00     0.113 C 
ATOM     32  H   THR d   1     -10.478   3.322  18.767  0.00  0.00     0.091 H 
BRANCH  31  33
ATOM     33  N   THR d   1     -12.570   3.254  18.515  0.00  0.00    -0.344 N 
ATOM     34  C   GLU d   1     -12.636   4.283  17.673  0.00  0.00     0.241 C 
ATOM     35  O   GLU d   1     -11.682   4.690  17.046  0.00  0.00    -0.271 OA
ATOM     36  H   THR d   1     -13.374   2.955  19.029  0.00  0.00     0.163 HD
BRANCH  34  37
ATOM     37  CA  GLU d   1     -13.992   4.961  17.485  0.00  0.00     0.090 C 
ATOM     38  H   GLU d   1     -14.694   4.647  18.271  0.00  0.00     0.087 H 
BRANCH  37  39
ATOM     39  N   GLU d   1     -13.758   6.406  17.530  0.00  0.00    -0.346 N 
ATOM     40  C   LYS d   1     -13.524   7.014  18.677  0.00  0.00     0.248 C 
ATOM     41  O   LYS d   1     -13.696   6.460  19.778  0.00  0.00    -0.271 OA
ATOM     42  H   GLU d   1     -13.776   6.937  16.683  0.00  0.00     0.163 HD
BRANCH  40  43
ATOM     43  CA  LYS d   1     -13.105   8.521  18.572  0.00  0.00     0.176 C 
ATOM     44  H   LYS d   1     -13.268   8.864  17.540  0.00  0.00     0.099 H 
BRANCH  43  45
ATOM     45  N   LYS d   1     -13.915   9.362  19.484  0.00  0.00    -0.067 N 
ATOM     46  H   LYS d   1     -13.627  10.324  19.398  0.00  0.00     0.275 HD
ATOM     47  H   LYS d   1     -13.779   9.054  20.434  0.00  0.00     0.275 HD
ATOM     48  H   LYS d   1     -14.890   9.280  19.240  0.00  0.00     0.275 HD
ENDBRANCH  43  45
BRANCH  43  49
ATOM     49  CB  LYS d   1     -11.624   8.655  18.913  0.00  0.00    -0.030 C 
ATOM     50  H   LYS d   1     -11.289   7.720  19.387  0.00  0.00     0.036 H 
ATOM     51  H   LYS d   1     -11.503   9.488  19.621  0.00  0.00     0.036 H 
BRANCH  49  52
ATOM     52  CG  LYS d   1     -10.749   8.921  17.704  0.00  0.00    -0.061 C 
ATOM     53  H   LYS d   1     -10.854   9.975  17.406  0.00  0.00     0.033 H 
ATOM     54  H   LYS d   1     -11.069   8.272  16.876  0.00  0.00     0.033 H 
BRANCH  52  55
ATOM     55  CD  LYS d   1      -9.277   8.633  18.032  0.00  0.00    -0.043 C 
ATOM     56  H   LYS d   1      -8.759   8.360  17.101  0.00  0.00     0.035 H 
ATOM     57  H   LYS d   1      -9.235   7.789  18.736  0.00  0.00     0.035 H 
BRANCH  55  58
ATOM     58  CE  LYS d   1      -8.545   9.831  18.663  0.00  0.00     0.080 C 
ATOM     59  H   LYS d   1      -9.048  10.088  19.607  0.00  0.00     0.075 H 
ATOM     60  H   LYS d   1      -8.610  10.682  17.969  0.00  0.00     0.075 H 
BRANCH  58  61
ATOM     61  NZ  LYS d   1      -7.096   9.566  18.955  0.00  0.00    -0.079 N 
ATOM     62  H   LYS d   1      -6.680  10.388  19.365  0.00  0.00     0.274 HD
ATOM     63  H   LYS d   1      -6.617   9.339  18.098  0.00  0.00     0.274 HD
ATOM     64  H   LYS d   1      -7.019   8.794  19.598  0.00  0.00     0.274 HD
ENDBRANCH  58  61
ENDBRANCH  55  58
ENDBRANCH  52  55
ENDBRANCH  49  52
ENDBRANCH  43  49
ENDBRANCH  40  43
ENDBRANCH  37  39
BRANCH  37  65
ATOM     65  CB  GLU d   1     -14.551   4.643  16.116  0.00  0.00    -0.029 C 
ATOM     66  H   GLU d   1     -13.815   4.939  15.354  0.00  0.00     0.037 H 
ATOM     67  H   GLU d   1     -15.479   5.215  15.970  0.00  0.00     0.037 H 
BRANCH  65  68
ATOM     68  CG  GLU d   1     -14.854   3.170  15.957  0.00  0.00     0.018 C 
ATOM     69  H   GLU d   1     -15.591   2.879  16.720  0.00  0.00     0.049 H 
ATOM     70  H   GLU d   1     -13.924   2.602  16.109  0.00  0.00     0.049 H 
BRANCH  68  71
ATOM     71  CD  GLU d   1     -15.426   2.818  14.557  0.00  0.00     0.172 C 
ATOM     72  OE1 GLU d   1     -14.937   3.303  13.551  0.00  0.00    -0.648 OA
ATOM     73  OE2 GLU d   1     -16.404   2.034  14.491  0.00  0.00    -0.648 OA
ENDBRANCH  68  71
ENDBRANCH  65  68
ENDBRANCH  37  65
ENDBRANCH  34  37
ENDBRANCH  31  33
BRANCH  31  74
ATOM     74  CB  THR d   1     -11.291   1.644  19.890  0.00  0.00     0.060 C 
ATOM     75  H   THR d   1     -10.304   1.169  19.997  0.00  0.00     0.086 H 
BRANCH  74  76
ATOM     76  OG1 THR d   1     -12.283   0.625  19.693  0.00  0.00    -0.393 OA
ATOM     77  H   THR d   1     -12.297   0.048  20.448  0.00  0.00     0.210 HD
ENDBRANCH  74  76
BRANCH  74  78
ATOM     78  CG2 THR d   1     -11.593   2.458  21.163  0.00  0.00    -0.050 C 
ATOM     79  H   THR d   1     -11.602   1.786  22.034  0.00  0.00     0.031 H 
ATOM     80  H   THR d   1     -12.575   2.943  21.064  0.00  0.00     0.031 H 
ATOM     81  H   THR d   1     -10.817   3.226  21.300  0.00  0.00     0.031 H 
ENDBRANCH  74  78
ENDBRANCH  31  74
ENDBRANCH  28  31
ENDBRANCH  25  27
BRANCH  25  82
ATOM     82  CB  ALA d   1      -7.920  -0.016  16.122  0.00  0.00    -0.049 C 
ATOM     83  H   ALA d   1      -7.704  -0.715  15.300  0.00  0.00     0.030 H 
ATOM     84  H   ALA d   1      -7.580  -0.453  17.073  0.00  0.00     0.030 H 
ATOM     85  H   ALA d   1      -7.392   0.933  15.945  0.00  0.00     0.030 H 
ENDBRANCH  25  82
ENDBRANCH  22  25
ENDBRANCH  19  21
BRANCH  19  86
ATOM     86  CB  ALA d   1     -11.057  -3.203  19.280  0.00  0.00    -0.049 C 
ATOM     87  H   ALA d   1     -11.609  -4.147  19.398  0.00  0.00     0.030 H 
ATOM     88  H   ALA d   1     -11.511  -2.431  19.919  0.00  0.00     0.030 H 
ATOM     89  H   ALA d   1     -10.008  -3.353  19.574  0.00  0.00     0.030 H 
ENDBRANCH  19  86
ENDBRANCH  16  19
ENDBRANCH  13  15
BRANCH  13  90
ATOM     90  CB  ALA d   1     -15.066   0.074  18.047  0.00  0.00    -0.049 C 
ATOM     91  H   ALA d   1     -16.112   0.258  17.759  0.00  0.00     0.030 H 
ATOM     92  H   ALA d   1     -14.446   0.930  17.743  0.00  0.00     0.030 H 
ATOM     93  H   ALA d   1     -15.004  -0.055  19.138  0.00  0.00     0.030 H 
ENDBRANCH  13  90
ENDBRANCH  10  13
ENDBRANCH   7   9
BRANCH   7  94
ATOM     94  CB  1MH d   1     -12.614   0.563  13.334  0.00  0.00    -0.013 C 
ATOM     95  H   1MH d   1     -11.698   0.096  13.725  0.00  0.00     0.043 H 
ATOM     96  H   1MH d   1     -12.751   1.549  13.802  0.00  0.00     0.043 H 
BRANCH  94  97
ATOM     97  C6  1MH d   1     -12.398   0.797  11.867  0.00  0.00    -0.038 A 
ATOM     98  C7  1MH d   1     -11.910  -0.233  11.025  0.00  0.00     0.008 A 
ATOM     99  N8  1MH d   1     -11.729  -0.029   9.720  0.00  0.00    -0.273 NA
ATOM    100  H   1MH d   1     -11.680  -1.204  11.449  0.00  0.00     0.115 H 
ATOM    101  C9  1MH d   1     -11.965   1.219   9.124  0.00  0.00     0.002 A 
ATOM    102  C10 1MH d   1     -12.435   2.227   9.951  0.00  0.00    -0.066 A 
ATOM    103  H   1MH d   1     -11.788   1.387   8.068  0.00  0.00     0.114 H 
ATOM    104  C11 1MH d   1     -12.680   2.046  11.303  0.00  0.00    -0.074 A 
ATOM    105  H   1MH d   1     -12.620   3.204   9.520  0.00  0.00     0.085 H 
ATOM    106  H   1MH d   1     -13.080   2.852  11.908  0.00  0.00     0.084 H 
ENDBRANCH  94  97
ENDBRANCH   7  94
ENDBRANCH   4   7
ENDBRANCH   1   3
BRANCH   1 107
ATOM    107  C   PHE d   1     -14.175  -4.590  13.171  0.00  0.00     0.241 C 
ATOM    108  O   PHE d   1     -14.631  -5.266  12.275  0.00  0.00    -0.271 OA
ATOM    109  N   GLU d   1     -14.812  -4.460  14.329  0.00  0.00    -0.346 N 
ATOM    110  H   GLU d   1     -14.415  -3.900  15.056  0.00  0.00     0.163 HD
BRANCH 109 111
ATOM    111  CA  GLU d   1     -16.090  -5.132  14.544  0.00  0.00     0.090 C 
ATOM    112  H   GLU d   1     -15.931  -6.198  14.325  0.00  0.00     0.087 H 
BRANCH 111 113
ATOM    113  C   GLU d   1     -17.193  -4.630  13.612  0.00  0.00     0.241 C 
ATOM    114  O   GLU d   1     -17.967  -5.362  12.960  0.00  0.00    -0.271 OA
ATOM    115  N   ARG d   1     -17.254  -3.293  13.524  0.00  0.00    -0.346 N 
ATOM    116  H   ARG d   1     -16.619  -2.707  14.027  0.00  0.00     0.163 HD
BRANCH 115 117
ATOM    117  CA  ARG d   1     -18.289  -2.732  12.662  0.00  0.00     0.089 C 
ATOM    118  H   ARG d   1     -19.274  -3.095  12.989  0.00  0.00     0.087 H 
BRANCH 117 119
ATOM    119  C   ARG d   1     -18.089  -3.136  11.155  0.00  0.00     0.241 C 
ATOM    120  O   ARG d   1     -19.045  -3.357  10.470  0.00  0.00    -0.271 OA
ATOM    121  N   1MH d   1     -16.787  -3.067  10.790  0.00  0.00    -0.346 N 
ATOM    122  H   1MH d   1     -16.076  -2.740  11.413  0.00  0.00     0.163 HD
BRANCH 121 123
ATOM    123  CA  1MH d   1     -16.475  -3.517   9.377  0.00  0.00     0.093 C 
ATOM    124  H   1MH d   1     -17.163  -2.983   8.705  0.00  0.00     0.088 H 
BRANCH 123 125
ATOM    125  C   1MH d   1     -16.600  -4.994   9.093  0.00  0.00     0.241 C 
ATOM    126  O   1MH d   1     -16.939  -5.414   7.973  0.00  0.00    -0.271 OA
ATOM    127  N   HIS d   1     -16.298  -5.848  10.139  0.00  0.00    -0.346 N 
ATOM    128  H   HIS d   1     -16.232  -5.526  11.084  0.00  0.00     0.163 HD
BRANCH 127 129
ATOM    129  CA  HIS d   1     -16.074  -7.292   9.770  0.00  0.00     0.094 C 
ATOM    130  H   HIS d   1     -16.356  -7.400   8.712  0.00  0.00     0.088 H 
BRANCH 129 131
ATOM    131  C   HIS d   1     -16.881  -8.269  10.522  0.00  0.00     0.241 C 
ATOM    132  O   HIS d   1     -16.744  -9.460  10.117  0.00  0.00    -0.271 OA
ATOM    133  N   NLE d   1     -17.642  -7.947  11.563  0.00  0.00    -0.346 N 
ATOM    134  H   NLE d   1     -17.708  -6.996  11.864  0.00  0.00     0.163 HD
BRANCH 133 135
ATOM    135  CA  NLE d   1     -18.363  -8.968  12.247  0.00  0.00     0.089 C 
ATOM    136  H   NLE d   1     -17.892  -9.937  12.024  0.00  0.00     0.087 H 
BRANCH 135 137
ATOM    137  C   NLE d   1     -19.780  -9.025  11.867  0.00  0.00     0.241 C 
ATOM    138  O   NLE d   1     -20.483  -7.950  11.891  0.00  0.00    -0.271 OA
ATOM    139  N   ASP d   1     -20.354 -10.169  11.548  0.00  0.00    -0.346 N 
ATOM    140  H   ASP d   1     -19.770 -10.971  11.419  0.00  0.00     0.163 HD
BRANCH 139 141
ATOM    141  CA  ASP d   1     -21.789 -10.328  11.373  0.00  0.00     0.098 C 
ATOM    142  H   ASP d   1     -22.301  -9.569  11.982  0.00  0.00     0.088 H 
BRANCH 141 143
ATOM    143  C   ASP d   1     -22.185 -11.693  11.876  0.00  0.00     0.241 C 
ATOM    144  O   ASP d   1     -22.481 -12.572  11.062  0.00  0.00    -0.271 OA
ATOM    145  N   SER d   1     -22.215 -11.870  13.180  0.00  0.00    -0.343 N 
ATOM    146  H   SER d   1     -22.101 -11.073  13.773  0.00  0.00     0.163 HD
BRANCH 145 147
ATOM    147  CA  SER d   1     -22.404 -13.156  13.789  0.00  0.00     0.116 C 
ATOM    148  H   SER d   1     -21.614 -13.833  13.432  0.00  0.00     0.093 H 
BRANCH 147 149
ATOM    149  C   SER d   1     -23.701 -13.741  13.427  0.00  0.00     0.198 C 
ATOM    150  O   SER d   1     -24.745 -13.046  13.424  0.00  0.00    -0.646 OA
ATOM    151  OXT SER d   1     -23.634 -15.005  13.119  0.00  0.00    -0.646 OA
ENDBRANCH 147 149
BRANCH 147 152
ATOM    152  CB  SER d   1     -22.261 -12.994  15.327  0.00  0.00     0.045 C 
ATOM    153  H   SER d   1     -22.330 -13.989  15.792  0.00  0.00     0.077 H 
ATOM    154  H   SER d   1     -23.084 -12.361  15.691  0.00  0.00     0.077 H 
BRANCH 152 155
ATOM    155  OG  SER d   1     -21.028 -12.399  15.712  0.00  0.00    -0.398 OA
ATOM    156  H   SER d   1     -20.308 -12.941  15.411  0.00  0.00     0.209 HD
ENDBRANCH 152 155
ENDBRANCH 147 152
ENDBRANCH 145 147
ENDBRANCH 141 143
BRANCH 141 157
ATOM    157  CB  ASP d   1     -22.213 -10.120   9.894  0.00  0.00     0.043 C 
ATOM    158  H   ASP d   1     -21.725 -10.891   9.280  0.00  0.00     0.052 H 
ATOM    159  H   ASP d   1     -21.874  -9.125   9.571  0.00  0.00     0.052 H 
BRANCH 157 160
ATOM    160  CG  ASP d   1     -23.730 -10.212   9.674  0.00  0.00     0.175 C 
ATOM    161  OD1 ASP d   1     -24.441 -10.014  10.625  0.00  0.00    -0.648 OA
ATOM    162  OD2 ASP d   1     -24.060 -10.521   8.525  0.00  0.00    -0.648 OA
ENDBRANCH 157 160
ENDBRANCH 141 157
ENDBRANCH 139 141
ENDBRANCH 135 137
BRANCH 135 163
ATOM    163  CB  NLE d   1     -18.324  -8.702  13.793  0.00  0.00    -0.038 C 
ATOM    164  H   NLE d   1     -19.074  -9.354  14.265  0.00  0.00     0.036 H 
ATOM    165  H   NLE d   1     -18.596  -7.649  13.960  0.00  0.00     0.036 H 
BRANCH 163 166
ATOM    166  CG  NLE d   1     -16.999  -8.951  14.477  0.00  0.00    -0.063 C 
ATOM    167  H   NLE d   1     -17.094  -8.712  15.546  0.00  0.00     0.033 H 
ATOM    168  H   NLE d   1     -16.232  -8.306  14.024  0.00  0.00     0.033 H 
BRANCH 166 169
ATOM    169  CD  NLE d   1     -16.579 -10.411  14.325  0.00  0.00    -0.068 C 
ATOM    170  H   NLE d   1     -15.713 -10.593  14.978  0.00  0.00     0.032 H 
ATOM    171  H   NLE d   1     -16.291 -10.582  13.277  0.00  0.00     0.032 H 
BRANCH 169 172
ATOM    172  CE  NLE d   1     -17.666 -11.398  14.688  0.00  0.00    -0.077 C 
ATOM    173  H   NLE d   1     -17.290 -12.423  14.554  0.00  0.00     0.027 H 
ATOM    174  H   NLE d   1     -18.538 -11.239  14.037  0.00  0.00     0.027 H 
ATOM    175  H   NLE d   1     -17.960 -11.250  15.738  0.00  0.00     0.027 H 
ENDBRANCH 169 172
ENDBRANCH 166 169
ENDBRANCH 163 166
ENDBRANCH 135 163
ENDBRANCH 133 135
ENDBRANCH 129 131
BRANCH 129 176
ATOM    176  CB  HIS d   1     -14.581  -7.608   9.893  0.00  0.00     0.004 C 
ATOM    177  H   HIS d   1     -14.423  -8.650   9.579  0.00  0.00     0.046 H 
ATOM    178  H   HIS d   1     -14.291  -7.494  10.948  0.00  0.00     0.046 H 
BRANCH 176 179
ATOM    179  CG  HIS d   1     -13.708  -6.744   9.079  0.00  0.00     0.053 A 
ATOM    180  ND1 HIS d   1     -13.726  -6.764   7.703  0.00  0.00    -0.247 NA
ATOM    181  CE1 HIS d   1     -12.872  -5.861   7.238  0.00  0.00     0.064 A 
ATOM    182  NE2 HIS d   1     -12.262  -5.286   8.273  0.00  0.00    -0.359 N 
ATOM    183  H   HIS d   1     -12.699  -5.629   6.188  0.00  0.00     0.143 H 
ATOM    184  CD2 HIS d   1     -12.797  -5.795   9.431  0.00  0.00     0.002 A 
ATOM    185  H   HIS d   1     -11.515  -4.579   8.215  0.00  0.00     0.166 HD
ATOM    186  H   HIS d   1     -12.540  -5.495  10.446  0.00  0.00     0.114 H 
ENDBRANCH 176 179
ENDBRANCH 129 176
ENDBRANCH 127 129
ENDBRANCH 123 125
BRANCH 123 187
ATOM    187  CB  1MH d   1     -15.018  -3.142   9.023  0.00  0.00    -0.013 C 
ATOM    188  H   1MH d   1     -14.656  -3.803   8.222  0.00  0.00     0.043 H 
ATOM    189  H   1MH d   1     -14.384  -3.264   9.914  0.00  0.00     0.043 H 
BRANCH 187 190
ATOM    190  C6  1MH d   1     -14.952  -1.713   8.557  0.00  0.00    -0.038 A 
ATOM    191  C7  1MH d   1     -14.311  -1.551   7.364  0.00  0.00     0.008 A 
ATOM    192  N8  1MH d   1     -14.207  -0.307   6.797  0.00  0.00    -0.273 NA
ATOM    193  H   1MH d   1     -13.882  -2.410   6.862  0.00  0.00     0.115 H 
ATOM    194  C9  1MH d   1     -14.619   0.811   7.453  0.00  0.00     0.002 A 
ATOM    195  C10 1MH d   1     -15.222   0.649   8.719  0.00  0.00    -0.066 A 
ATOM    196  H   1MH d   1     -14.489   1.795   7.018  0.00  0.00     0.114 H 
ATOM    197  C11 1MH d   1     -15.426  -0.642   9.320  0.00  0.00    -0.074 A 
ATOM    198  H   1MH d   1     -15.544   1.532   9.259  0.00  0.00     0.085 H 
ATOM    199  H   1MH d   1     -15.906  -0.773  10.283  0.00  0.00     0.084 H 
ENDBRANCH 187 190
ENDBRANCH 123 187
ENDBRANCH 121 123
ENDBRANCH 117 119
BRANCH 117 200
ATOM    200  CB  ARG d   1     -18.212  -1.181  12.856  0.00  0.00    -0.036 C 
ATOM    201  H   ARG d   1     -17.188  -0.847  12.631  0.00  0.00     0.036 H 
ATOM    202  H   ARG d   1     -18.454  -0.943  13.902  0.00  0.00     0.036 H 
BRANCH 200 203
ATOM    203  CG  ARG d   1     -19.174  -0.440  11.954  0.00  0.00    -0.048 C 
ATOM    204  H   ARG d   1     -20.192  -0.821  12.125  0.00  0.00     0.035 H 
ATOM    205  H   ARG d   1     -18.889  -0.614  10.906  0.00  0.00     0.035 H 
BRANCH 203 206
ATOM    206  CD  ARG d   1     -19.152   1.084  12.236  0.00  0.00     0.009 C 
ATOM    207  H   ARG d   1     -19.533   1.242  13.256  0.00  0.00     0.064 H 
ATOM    208  H   ARG d   1     -19.825   1.569  11.514  0.00  0.00     0.064 H 
BRANCH 206 209
ATOM    209  NE  ARG d   1     -17.857   1.734  12.141  0.00  0.00    -0.227 N 
ATOM    210  CZ  ARG d   1     -17.399   2.365  11.076  0.00  0.00     0.665 C 
ATOM    211  NH1 ARG d   1     -18.162   2.367   9.967  0.00  0.00    -0.235 N 
ATOM    212  NH2 ARG d   1     -16.246   3.029  11.081  0.00  0.00    -0.235 N 
ATOM    213  H   ARG d   1     -17.835   2.850   9.118  0.00  0.00     0.174 HD
ATOM    214  H   ARG d   1     -19.073   1.886   9.967  0.00  0.00     0.174 HD
ATOM    215  H   ARG d   1     -15.657   3.032  11.926  0.00  0.00     0.174 HD
ATOM    216  H   ARG d   1     -15.942   3.540  10.240  0.00  0.00     0.174 HD
ATOM    217  H   ARG d   1     -17.247   1.700  12.971  0.00  0.00     0.177 HD
ENDBRANCH 206 209
ENDBRANCH 203 206
ENDBRANCH 200 203
ENDBRANCH 117 200
ENDBRANCH 115 117
ENDBRANCH 111 113
BRANCH 111 218
ATOM    218  CB  GLU d   1     -16.579  -5.021  16.015  0.00  0.00    -0.029 C 
ATOM    219  H   GLU d   1     -17.592  -5.443  16.094  0.00  0.00     0.037 H 
ATOM    220  H   GLU d   1     -16.599  -3.962  16.313  0.00  0.00     0.037 H 
BRANCH 218 221
ATOM    221  CG  GLU d   1     -15.640  -5.787  16.940  0.00  0.00     0.018 C 
ATOM    222  H   GLU d   1     -14.604  -5.626  16.607  0.00  0.00     0.049 H 
ATOM    223  H   GLU d   1     -15.881  -6.859  16.883  0.00  0.00     0.049 H 
BRANCH 221 224
ATOM    224  CD  GLU d   1     -15.767  -5.336  18.371  0.00  0.00     0.172 C 
ATOM    225  OE1 GLU d   1     -16.209  -4.194  18.678  0.00  0.00    -0.648 OA
ATOM    226  OE2 GLU d   1     -15.201  -6.066  19.219  0.00  0.00    -0.648 OA
ENDBRANCH 221 224
ENDBRANCH 218 221
ENDBRANCH 111 218
ENDBRANCH 109 111
ENDBRANCH   1 107
BRANCH   1 227
ATOM    227  CB  PHE d   1     -11.752  -4.712  13.811  0.00  0.00    -0.014 C 
ATOM    228  H   PHE d   1     -11.971  -4.619  14.885  0.00  0.00     0.043 H 
ATOM    229  H   PHE d   1     -10.762  -4.281  13.600  0.00  0.00     0.043 H 
BRANCH 227 230
ATOM    230  CG  PHE d   1     -11.732  -6.206  13.436  0.00  0.00    -0.056 A 
ATOM    231  CD1 PHE d   1     -12.591  -7.066  14.074  0.00  0.00    -0.077 A 
ATOM    232  CE1 PHE d   1     -12.649  -8.427  13.700  0.00  0.00    -0.082 A 
ATOM    233  H   PHE d   1     -13.229  -6.698  14.870  0.00  0.00     0.084 H 
ATOM    234  CZ  PHE d   1     -11.803  -8.872  12.676  0.00  0.00    -0.083 A 
ATOM    235  H   PHE d   1     -13.331  -9.110  14.193  0.00  0.00     0.083 H 
ATOM    236  CE2 PHE d   1     -10.942  -8.013  12.049  0.00  0.00    -0.082 A 
ATOM    237  H   PHE d   1     -11.831  -9.913  12.376  0.00  0.00     0.083 H 
ATOM    238  CD2 PHE d   1     -10.883  -6.659  12.395  0.00  0.00    -0.077 A 
ATOM    239  H   PHE d   1     -10.292  -8.390  11.268  0.00  0.00     0.083 H 
ATOM    240  H   PHE d   1     -10.211  -5.979  11.884  0.00  0.00     0.084 H 
ENDBRANCH 227 230
ENDBRANCH   1 227
TORSDOF 67
