REMARK  4 active torsions:
REMARK  status: ('A' for Active; 'I' for Inactive)
REMARK    1  A    between atoms: N_1  and  CA_2 
REMARK    2  A    between atoms: CA_2  and  C_3 
REMARK    3  A    between atoms: CA_2  and  CB_5 
REMARK    4  A    between atoms: CB_5  and  CG_6 
ROOT
ATOM      1  CA  ASP d   1     -51.586  13.623  -5.839  0.00  0.00     0.191 C 
ATOM      2  H   ASP d   1     -52.588  13.426  -5.430  0.00  0.00     0.102 H 
ENDROOT
BRANCH   1   3
ATOM      3  N   ASP d   1     -50.787  12.406  -5.640  0.00  0.00    -0.065 N 
ATOM      4  H   ASP d   1     -50.695  12.222  -4.653  0.00  0.00     0.275 HD
ATOM      5  H   ASP d   1     -49.873  12.534  -6.045  0.00  0.00     0.275 HD
ATOM      6  H   ASP d   1     -51.245  11.627  -6.085  0.00  0.00     0.275 HD
ENDBRANCH   1   3
BRANCH   1   7
ATOM      7  C   ASP d   1     -51.755  13.945  -7.321  0.00  0.00     0.205 C 
ATOM      8  O   ASP d   1     -51.500  13.055  -8.142  0.00  0.00    -0.646 OA
ATOM      9  OXT ASP d   1     -52.177  15.061  -7.692  0.00  0.00    -0.646 OA
ENDBRANCH   1   7
BRANCH   1  10
ATOM     10  CB  ASP d   1     -51.007  14.822  -5.070  0.00  0.00     0.051 C 
ATOM     11  H   ASP d   1     -50.684  15.586  -5.793  0.00  0.00     0.053 H 
ATOM     12  H   ASP d   1     -50.140  14.483  -4.484  0.00  0.00     0.053 H 
BRANCH  10  13
ATOM     13  CG  ASP d   1     -52.047  15.450  -4.109  0.00  0.00     0.175 C 
ATOM     14  OD1 ASP d   1     -52.820  16.304  -4.563  0.00  0.00    -0.648 OA
ATOM     15  OD2 ASP d   1     -52.123  15.085  -2.910  0.00  0.00    -0.648 OA
ENDBRANCH  10  13
ENDBRANCH   1  10
TORSDOF 4
