REMARK  5 active torsions:
REMARK  status: ('A' for Active; 'I' for Inactive)
REMARK    1  A    between atoms: N_1  and  CA_2 
REMARK    2  A    between atoms: CA_2  and  C_3 
REMARK    3  A    between atoms: CA_2  and  CB_5 
REMARK    4  A    between atoms: CB_5  and  CG_6 
REMARK    5  A    between atoms: CG_6  and  CD_7 
ROOT
ATOM      1  CA  GLU d   1       9.054 105.358  25.198  0.00  0.00     0.183 C 
ATOM      2  H   GLU d   1       9.983 105.444  24.615  0.00  0.00     0.101 H 
ENDROOT
BRANCH   1   3
ATOM      3  N   GLU d   1       8.540 103.993  25.071  0.00  0.00    -0.065 N 
ATOM      4  H   GLU d   1       8.361 103.790  24.100  0.00  0.00     0.275 HD
ATOM      5  H   GLU d   1       7.684 103.906  25.596  0.00  0.00     0.275 HD
ATOM      6  H   GLU d   1       9.221 103.343  25.430  0.00  0.00     0.275 HD
ENDBRANCH   1   3
BRANCH   1   7
ATOM      7  C   GLU d   1       9.336 105.703  26.638  0.00  0.00     0.204 C 
ATOM      8  O   GLU d   1       9.548 106.882  26.944  0.00  0.00    -0.646 OA
ATOM      9  OXT GLU d   1       9.306 104.815  27.504  0.00  0.00    -0.646 OA
ENDBRANCH   1   7
BRANCH   1  10
ATOM     10  CB  GLU d   1       8.029 106.355  24.673  0.00  0.00    -0.020 C 
ATOM     11  H   GLU d   1       8.194 107.318  25.179  0.00  0.00     0.037 H 
ATOM     12  H   GLU d   1       7.025 105.979  24.918  0.00  0.00     0.037 H 
BRANCH  10  13
ATOM     13  CG  GLU d   1       8.094 106.574  23.257  0.00  0.00     0.018 C 
ATOM     14  H   GLU d   1       7.205 107.143  22.947  0.00  0.00     0.049 H 
ATOM     15  H   GLU d   1       8.100 105.598  22.749  0.00  0.00     0.049 H 
BRANCH  13  16
ATOM     16  CD  GLU d   1       9.310 107.330  22.853  0.00  0.00     0.172 C 
ATOM     17  OE1 GLU d   1       9.644 107.154  21.672  0.00  0.00    -0.648 OA
ATOM     18  OE2 GLU d   1       9.875 108.125  23.675  0.00  0.00    -0.648 OA
ENDBRANCH  13  16
ENDBRANCH  10  13
ENDBRANCH   1  10
TORSDOF 5
