REMARK WARNING: 32 MAX_TORS EXCEEDED!!!
REMARK  35 active torsions:
REMARK  status: ('A' for Active; 'I' for Inactive)
REMARK    1  A    between atoms: N_1  and  CA_2 
REMARK    2  A    between atoms: CA_2  and  C_3 
REMARK    3  A    between atoms: CA_2  and  CB_5 
REMARK       I    between atoms: C_3  and  N_9 
REMARK    4  A    between atoms: CB_5  and  CG1_6 
REMARK    5  A    between atoms: CB_5  and  CG2_7 
REMARK    6  A    between atoms: CG1_6  and  CD1_8 
REMARK    7  A    between atoms: N_9  and  CA_10 
REMARK    8  A    between atoms: CA_10  and  C_11 
REMARK    9  A    between atoms: CA_10  and  CB_13 
REMARK       I    between atoms: C_11  and  N_16 
REMARK   10  A    between atoms: CB_13  and  CG1_14 
REMARK   11  A    between atoms: CB_13  and  CG2_15 
REMARK   12  A    between atoms: N_16  and  CA_17 
REMARK   13  A    between atoms: CA_17  and  C_18 
REMARK       I    between atoms: C_18  and  N_20 
REMARK   14  A    between atoms: N_20  and  CA_21 
REMARK   15  A    between atoms: CA_21  and  C_22 
REMARK       I    between atoms: C_22  and  N_24 
REMARK   16  A    between atoms: N_24  and  CA_25 
REMARK   17  A    between atoms: CA_25  and  C_26 
REMARK   18  A    between atoms: CA_25  and  CB_28 
REMARK       I    between atoms: C_26  and  N_36 
REMARK   19  A    between atoms: CB_28  and  CG_29 
REMARK   20  A    between atoms: CZ_34  and  OH_35 
REMARK   21  A    between atoms: CA_37  and  C_38 
REMARK       I    between atoms: C_38  and  N_43 
REMARK   22  A    between atoms: N_43  and  CA_44 
REMARK   23  A    between atoms: CA_44  and  C_45 
REMARK   24  A    between atoms: CA_44  and  CB_47 
REMARK       I    between atoms: C_45  and  N_57 
REMARK   25  A    between atoms: CB_47  and  CG_48 
REMARK   26  A    between atoms: N_57  and  CA_58 
REMARK   27  A    between atoms: CA_58  and  C_59 
REMARK   28  A    between atoms: CA_58  and  CB_61 
REMARK       I    between atoms: C_59  and  N_71 
REMARK   29  A    between atoms: CB_61  and  CG_62 
REMARK   30  A    between atoms: N_71  and  CA_72 
REMARK   31  A    between atoms: CA_72  and  C_73 
REMARK   32  A    between atoms: CA_72  and  CB_75 
REMARK   33  A    between atoms: CB_75  and  CG_76 
REMARK   34  A    between atoms: CG_76  and  SD_77 
REMARK   35  A    between atoms: SD_77  and  CE_78 
ROOT
ATOM      1  C   TYR d   1     -15.632  24.740   4.312  0.00  0.00     0.243 C 
ATOM      2  O   TYR d   1     -16.652  24.076   4.116  0.00  0.00    -0.271 OA
ATOM      3  N   PRO d   1     -15.006  24.729   5.522  0.00  0.00    -0.337 N 
ATOM      4  CA  PRO d   1     -15.591  23.952   6.627  0.00  0.00     0.091 C 
ATOM      5  CB  PRO d   1     -14.571  24.100   7.762  0.00  0.00    -0.036 C 
ATOM      6  CG  PRO d   1     -13.346  24.655   7.128  0.00  0.00    -0.048 C 
ATOM      7  CD  PRO d   1     -13.802  25.456   5.968  0.00  0.00    -0.001 C 
ATOM      8  H   PRO d   1     -15.713  22.895   6.348  0.00  0.00     0.087 H 
ATOM      9  H   PRO d   1     -14.358  23.122   8.217  0.00  0.00     0.036 H 
ATOM     10  H   PRO d   1     -14.950  24.788   8.532  0.00  0.00     0.036 H 
ATOM     11  H   PRO d   1     -12.688  23.840   6.792  0.00  0.00     0.035 H 
ATOM     12  H   PRO d   1     -12.804  25.293   7.841  0.00  0.00     0.035 H 
ATOM     13  H   PRO d   1     -14.049  26.485   6.269  0.00  0.00     0.064 H 
ATOM     14  H   PRO d   1     -13.037  25.479   5.177  0.00  0.00     0.064 H 
ENDROOT
BRANCH   1  15
ATOM     15  CA  TYR d   1     -15.101  25.592   3.153  0.00  0.00     0.093 C 
ATOM     16  H   TYR d   1     -14.012  25.462   3.073  0.00  0.00     0.088 H 
BRANCH  15  17
ATOM     17  N   TYR d   1     -15.738  25.151   1.919  0.00  0.00    -0.346 N 
ATOM     18  C   GLY d   1     -15.085  24.841   0.798  0.00  0.00     0.236 C 
ATOM     19  O   GLY d   1     -13.855  24.876   0.697  0.00  0.00    -0.272 OA
ATOM     20  H   TYR d   1     -16.735  25.075   1.912  0.00  0.00     0.163 HD
BRANCH  18  21
ATOM     21  CA  GLY d   1     -15.957  24.430  -0.367  0.00  0.00     0.069 C 
ATOM     22  H   GLY d   1     -16.518  23.532  -0.069  0.00  0.00     0.078 H 
ATOM     23  H   GLY d   1     -16.660  25.251  -0.569  0.00  0.00     0.078 H 
BRANCH  21  24
ATOM     24  N   GLY d   1     -15.254  24.128  -1.605  0.00  0.00    -0.351 N 
ATOM     25  C   GLY d   1     -15.195  24.959  -2.643  0.00  0.00     0.235 C 
ATOM     26  O   GLY d   1     -15.714  26.079  -2.658  0.00  0.00    -0.272 OA
ATOM     27  H   GLY d   1     -14.789  23.246  -1.680  0.00  0.00     0.163 HD
BRANCH  25  28
ATOM     28  CA  GLY d   1     -14.450  24.437  -3.855  0.00  0.00     0.069 C 
ATOM     29  H   GLY d   1     -14.848  24.929  -4.755  0.00  0.00     0.078 H 
ATOM     30  H   GLY d   1     -13.383  24.680  -3.747  0.00  0.00     0.078 H 
BRANCH  28  31
ATOM     31  N   GLY d   1     -14.590  22.993  -4.008  0.00  0.00    -0.351 N 
ATOM     32  C   VAL d   1     -15.741  22.387  -4.300  0.00  0.00     0.241 C 
ATOM     33  O   VAL d   1     -16.813  22.979  -4.449  0.00  0.00    -0.271 OA
ATOM     34  H   GLY d   1     -13.776  22.425  -3.887  0.00  0.00     0.163 HD
BRANCH  32  35
ATOM     35  CA  VAL d   1     -15.698  20.857  -4.376  0.00  0.00     0.092 C 
ATOM     36  H   VAL d   1     -14.791  20.513  -3.857  0.00  0.00     0.088 H 
BRANCH  35  37
ATOM     37  N   VAL d   1     -16.864  20.336  -3.652  0.00  0.00    -0.346 N 
ATOM     38  C   ILE d   1     -16.863  20.055  -2.341  0.00  0.00     0.249 C 
ATOM     39  O   ILE d   1     -15.864  20.166  -1.628  0.00  0.00    -0.271 OA
ATOM     40  H   VAL d   1     -17.708  20.182  -4.166  0.00  0.00     0.163 HD
BRANCH  38  41
ATOM     41  CA  ILE d   1     -18.179  19.551  -1.743  0.00  0.00     0.179 C 
ATOM     42  H   ILE d   1     -18.941  19.559  -2.537  0.00  0.00     0.099 H 
BRANCH  41  43
ATOM     43  N   ILE d   1     -17.988  18.173  -1.303  0.00  0.00    -0.066 N 
ATOM     44  H   ILE d   1     -17.651  17.618  -2.074  0.00  0.00     0.275 HD
ATOM     45  H   ILE d   1     -18.866  17.799  -0.978  0.00  0.00     0.275 HD
ATOM     46  H   ILE d   1     -17.315  18.150  -0.553  0.00  0.00     0.275 HD
ENDBRANCH  41  43
BRANCH  41  47
ATOM     47  CB  ILE d   1     -18.704  20.460  -0.575  0.00  0.00    -0.022 C 
ATOM     48  H   ILE d   1     -17.971  20.348   0.237  0.00  0.00     0.043 H 
BRANCH  47  49
ATOM     49  CG1 ILE d   1     -20.067  19.995   0.023  0.00  0.00    -0.063 C 
ATOM     50  H   ILE d   1     -20.224  20.563   0.952  0.00  0.00     0.033 H 
ATOM     51  H   ILE d   1     -19.970  18.925   0.259  0.00  0.00     0.033 H 
BRANCH  49  52
ATOM     52  CD1 ILE d   1     -21.365  20.161  -0.847  0.00  0.00    -0.076 C 
ATOM     53  H   ILE d   1     -22.234  19.788  -0.284  0.00  0.00     0.027 H 
ATOM     54  H   ILE d   1     -21.258  19.587  -1.779  0.00  0.00     0.027 H 
ATOM     55  H   ILE d   1     -21.512  21.224  -1.086  0.00  0.00     0.027 H 
ENDBRANCH  49  52
ENDBRANCH  47  49
BRANCH  47  56
ATOM     56  CG2 ILE d   1     -18.703  21.945  -0.935  0.00  0.00    -0.070 C 
ATOM     57  H   ILE d   1     -17.723  22.221  -1.351  0.00  0.00     0.028 H 
ATOM     58  H   ILE d   1     -18.899  22.541  -0.032  0.00  0.00     0.028 H 
ATOM     59  H   ILE d   1     -19.486  22.142  -1.682  0.00  0.00     0.028 H 
ENDBRANCH  47  56
ENDBRANCH  41  47
ENDBRANCH  38  41
ENDBRANCH  35  37
BRANCH  35  60
ATOM     60  CB  VAL d   1     -15.617  20.338  -5.833  0.00  0.00    -0.033 C 
ATOM     61  H   VAL d   1     -16.494  20.717  -6.378  0.00  0.00     0.042 H 
BRANCH  60  62
ATOM     62  CG1 VAL d   1     -14.363  20.850  -6.536  0.00  0.00    -0.071 C 
ATOM     63  H   VAL d   1     -14.336  20.464  -7.566  0.00  0.00     0.028 H 
ATOM     64  H   VAL d   1     -13.471  20.505  -5.992  0.00  0.00     0.028 H 
ATOM     65  H   VAL d   1     -14.377  21.950  -6.557  0.00  0.00     0.028 H 
ENDBRANCH  60  62
BRANCH  60  66
ATOM     66  CG2 VAL d   1     -15.653  18.815  -5.871  0.00  0.00    -0.071 C 
ATOM     67  H   VAL d   1     -16.560  18.457  -5.362  0.00  0.00     0.028 H 
ATOM     68  H   VAL d   1     -14.764  18.414  -5.361  0.00  0.00     0.028 H 
ATOM     69  H   VAL d   1     -15.661  18.474  -6.917  0.00  0.00     0.028 H 
ENDBRANCH  60  66
ENDBRANCH  35  60
ENDBRANCH  32  35
ENDBRANCH  28  31
ENDBRANCH  25  28
ENDBRANCH  21  24
ENDBRANCH  18  21
ENDBRANCH  15  17
BRANCH  15  70
ATOM     70  CB  TYR d   1     -15.421  27.090   3.393  0.00  0.00    -0.014 C 
ATOM     71  H   TYR d   1     -14.743  27.471   4.171  0.00  0.00     0.043 H 
ATOM     72  H   TYR d   1     -16.461  27.173   3.741  0.00  0.00     0.043 H 
BRANCH  70  73
ATOM     73  CG  TYR d   1     -15.260  27.945   2.157  0.00  0.00    -0.056 A 
ATOM     74  CD1 TYR d   1     -14.009  28.135   1.574  0.00  0.00    -0.074 A 
ATOM     75  CE1 TYR d   1     -13.863  28.855   0.392  0.00  0.00    -0.051 A 
ATOM     76  H   TYR d   1     -13.132  27.713   2.051  0.00  0.00     0.084 H 
ATOM     77  CZ  TYR d   1     -14.972  29.442  -0.195  0.00  0.00     0.065 A 
ATOM     78  H   TYR d   1     -12.886  28.956  -0.067  0.00  0.00     0.087 H 
ATOM     79  CE2 TYR d   1     -16.226  29.272   0.370  0.00  0.00    -0.051 A 
ATOM     80  CD2 TYR d   1     -16.364  28.518   1.535  0.00  0.00    -0.074 A 
ATOM     81  H   TYR d   1     -17.096  29.724  -0.092  0.00  0.00     0.087 H 
ATOM     82  H   TYR d   1     -17.350  28.376   1.964  0.00  0.00     0.084 H 
BRANCH  77  83
ATOM     83  OH  TYR d   1     -14.818  30.195  -1.334  0.00  0.00    -0.361 OA
ATOM     84  H   TYR d   1     -13.901  30.207  -1.583  0.00  0.00     0.217 HD
ENDBRANCH  77  83
ENDBRANCH  70  73
ENDBRANCH  15  70
ENDBRANCH   1  15
BRANCH   4  85
ATOM     85  C   PRO d   1     -16.947  24.542   7.009  0.00  0.00     0.241 C 
ATOM     86  O   PRO d   1     -17.108  25.766   6.998  0.00  0.00    -0.271 OA
ATOM     87  N   TRP d   1     -17.922  23.660   7.296  0.00  0.00    -0.346 N 
ATOM     88  H   TRP d   1     -17.667  22.693   7.275  0.00  0.00     0.163 HD
BRANCH  87  89
ATOM     89  CA  TRP d   1     -19.318  23.960   7.636  0.00  0.00     0.093 C 
ATOM     90  H   TRP d   1     -19.834  24.082   6.672  0.00  0.00     0.088 H 
BRANCH  89  91
ATOM     91  C   TRP d   1     -19.598  25.264   8.412  0.00  0.00     0.241 C 
ATOM     92  O   TRP d   1     -20.614  25.916   8.160  0.00  0.00    -0.271 OA
ATOM     93  N   TRP d   1     -18.704  25.634   9.346  0.00  0.00    -0.346 N 
ATOM     94  H   TRP d   1     -17.899  25.055   9.474  0.00  0.00     0.163 HD
BRANCH  93  95
ATOM     95  CA  TRP d   1     -18.827  26.826  10.190  0.00  0.00     0.093 C 
ATOM     96  H   TRP d   1     -19.897  26.917  10.428  0.00  0.00     0.088 H 
BRANCH  95  97
ATOM     97  C   TRP d   1     -18.443  28.158   9.495  0.00  0.00     0.241 C 
ATOM     98  O   TRP d   1     -18.062  29.114  10.174  0.00  0.00    -0.271 OA
ATOM     99  N   MET d   1     -18.584  28.225   8.148  0.00  0.00    -0.345 N 
ATOM    100  H   MET d   1     -18.921  27.409   7.678  0.00  0.00     0.163 HD
BRANCH  99 101
ATOM    101  CA  MET d   1     -18.280  29.403   7.328  0.00  0.00     0.097 C 
ATOM    102  H   MET d   1     -18.083  30.252   7.999  0.00  0.00     0.089 H 
BRANCH 101 103
ATOM    103  C   MET d   1     -19.463  29.750   6.435  0.00  0.00     0.196 C 
ATOM    104  O   MET d   1     -20.489  30.221   6.919  0.00  0.00    -0.646 OA
ATOM    105  O1  MET d   1     -19.389  29.553   5.193  0.00  0.00    -0.646 OA
ENDBRANCH 101 103
BRANCH 101 106
ATOM    106  CB  MET d   1     -17.033  29.163   6.459  0.00  0.00    -0.029 C 
ATOM    107  H   MET d   1     -16.891  30.040   5.811  0.00  0.00     0.037 H 
ATOM    108  H   MET d   1     -17.212  28.273   5.838  0.00  0.00     0.037 H 
BRANCH 106 109
ATOM    109  CG  MET d   1     -15.754  28.943   7.248  0.00  0.00    -0.021 C 
ATOM    110  H   MET d   1     -15.175  28.150   6.752  0.00  0.00     0.049 H 
ATOM    111  H   MET d   1     -16.026  28.618   8.263  0.00  0.00     0.049 H 
BRANCH 109 112
ATOM    112  SD  MET d   1     -14.706  30.410   7.385  0.00  0.00    -0.173 SA
BRANCH 112 113
ATOM    113  CE  MET d   1     -15.347  31.132   8.874  0.00  0.00    -0.035 C 
ATOM    114  H   MET d   1     -14.798  32.058   9.098  0.00  0.00     0.041 H 
ATOM    115  H   MET d   1     -15.226  30.423   9.707  0.00  0.00     0.041 H 
ATOM    116  H   MET d   1     -16.414  31.362   8.740  0.00  0.00     0.041 H 
ENDBRANCH 112 113
ENDBRANCH 109 112
ENDBRANCH 106 109
ENDBRANCH 101 106
ENDBRANCH  99 101
ENDBRANCH  95  97
BRANCH  95 117
ATOM    117  CB  TRP d   1     -18.099  26.624  11.539  0.00  0.00    -0.012 C 
ATOM    118  H   TRP d   1     -18.743  26.012  12.188  0.00  0.00     0.044 H 
ATOM    119  H   TRP d   1     -17.948  27.612  11.998  0.00  0.00     0.044 H 
BRANCH 117 120
ATOM    120  CG  TRP d   1     -16.760  25.946  11.435  0.00  0.00    -0.028 A 
ATOM    121  CD1 TRP d   1     -16.484  24.631  11.673  0.00  0.00    -0.015 A 
ATOM    122  NE1 TRP d   1     -15.148  24.380  11.459  0.00  0.00    -0.365 N 
ATOM    123  H   TRP d   1     -17.215  23.888  11.987  0.00  0.00     0.112 H 
ATOM    124  CE2 TRP d   1     -14.532  25.542  11.074  0.00  0.00     0.042 A 
ATOM    125  H   TRP d   1     -14.686  23.466  11.570  0.00  0.00     0.165 HD
ATOM    126  CD2 TRP d   1     -15.520  26.554  11.051  0.00  0.00    -0.002 A 
ATOM    127  CZ2 TRP d   1     -13.195  25.795  10.748  0.00  0.00    -0.056 A 
ATOM    128  CE3 TRP d   1     -15.143  27.863  10.698  0.00  0.00    -0.070 A 
ATOM    129  CZ3 TRP d   1     -13.818  28.111  10.371  0.00  0.00    -0.082 A 
ATOM    130  H   TRP d   1     -15.874  28.663  10.682  0.00  0.00     0.084 H 
ATOM    131  CH2 TRP d   1     -12.860  27.087  10.399  0.00  0.00    -0.081 A 
ATOM    132  H   TRP d   1     -13.518  29.114  10.089  0.00  0.00     0.083 H 
ATOM    133  H   TRP d   1     -11.832  27.316  10.140  0.00  0.00     0.083 H 
ATOM    134  H   TRP d   1     -12.451  25.006  10.769  0.00  0.00     0.086 H 
ENDBRANCH 117 120
ENDBRANCH  95 117
ENDBRANCH  93  95
ENDBRANCH  89  91
BRANCH  89 135
ATOM    135  CB  TRP d   1     -19.961  22.751   8.328  0.00  0.00    -0.012 C 
ATOM    136  H   TRP d   1     -19.775  21.859   7.712  0.00  0.00     0.044 H 
ATOM    137  H   TRP d   1     -21.044  22.928   8.399  0.00  0.00     0.044 H 
BRANCH 135 138
ATOM    138  CG  TRP d   1     -19.433  22.491   9.708  0.00  0.00    -0.028 A 
ATOM    139  CD1 TRP d   1     -18.372  21.705  10.048  0.00  0.00    -0.015 A 
ATOM    140  NE1 TRP d   1     -18.193  21.719  11.413  0.00  0.00    -0.365 N 
ATOM    141  H   TRP d   1     -17.756  21.148   9.343  0.00  0.00     0.112 H 
ATOM    142  CE2 TRP d   1     -19.144  22.528  11.980  0.00  0.00     0.042 A 
ATOM    143  H   TRP d   1     -17.462  21.205  11.926  0.00  0.00     0.165 HD
ATOM    144  CD2 TRP d   1     -19.941  23.037  10.932  0.00  0.00    -0.002 A 
ATOM    145  CZ2 TRP d   1     -19.369  22.863  13.319  0.00  0.00    -0.056 A 
ATOM    146  CE3 TRP d   1     -20.979  23.932  11.244  0.00  0.00    -0.070 A 
ATOM    147  CZ3 TRP d   1     -21.210  24.252  12.570  0.00  0.00    -0.082 A 
ATOM    148  H   TRP d   1     -21.588  24.364  10.459  0.00  0.00     0.084 H 
ATOM    149  CH2 TRP d   1     -20.413  23.721  13.592  0.00  0.00    -0.081 A 
ATOM    150  H   TRP d   1     -22.021  24.925  12.822  0.00  0.00     0.083 H 
ATOM    151  H   TRP d   1     -20.622  23.991  14.621  0.00  0.00     0.083 H 
ATOM    152  H   TRP d   1     -18.747  22.463  14.111  0.00  0.00     0.086 H 
ENDBRANCH 135 138
ENDBRANCH  89 135
ENDBRANCH  87  89
ENDBRANCH   4  85
TORSDOF 35
