REMARK WARNING: 32 MAX_TORS EXCEEDED!!!
REMARK  39 active torsions:
REMARK  status: ('A' for Active; 'I' for Inactive)
REMARK    1  A    between atoms: N_1  and  CA_2 
REMARK    2  A    between atoms: CA_2  and  C_3 
REMARK    3  A    between atoms: CA_2  and  CB_5 
REMARK       I    between atoms: C_3  and  N_9 
REMARK    4  A    between atoms: CB_5  and  CG1_6 
REMARK    5  A    between atoms: CB_5  and  CG2_7 
REMARK    6  A    between atoms: CG1_6  and  CD1_8 
REMARK    7  A    between atoms: N_9  and  CA_10 
REMARK    8  A    between atoms: CA_10  and  C_11 
REMARK    9  A    between atoms: CA_10  and  CB_13 
REMARK       I    between atoms: C_11  and  N_17 
REMARK   10  A    between atoms: CB_13  and  CG1_14 
REMARK   11  A    between atoms: CB_13  and  CG2_15 
REMARK   12  A    between atoms: CG1_14  and  CD1_16 
REMARK   13  A    between atoms: N_17  and  CA_18 
REMARK   14  A    between atoms: CA_18  and  C_19 
REMARK       I    between atoms: C_19  and  N_21 
REMARK   15  A    between atoms: N_21  and  CA_22 
REMARK   16  A    between atoms: CA_22  and  C_23 
REMARK       I    between atoms: C_23  and  N_25 
REMARK   17  A    between atoms: N_25  and  CA_26 
REMARK   18  A    between atoms: CA_39  and  CB_42 
REMARK   19  A    between atoms: CB_42  and  CG_43 
REMARK   20  A    between atoms: CZ_48  and  OH_49 
REMARK   21  A    between atoms: CA_51  and  CB_54 
REMARK   22  A    between atoms: CB_54  and  CG_55 
REMARK   23  A    between atoms: CA_65  and  CB_68 
REMARK   24  A    between atoms: CB_68  and  CG_69 
REMARK   25  A    between atoms: CG_69  and  SD_70 
REMARK   26  A    between atoms: SD_70  and  CE_71 
REMARK   27  A    between atoms: CA_73  and  CB_76 
REMARK   28  A    between atoms: CB_76  and  CG_77 
REMARK   29  A    between atoms: CA_81  and  CB_84 
REMARK   30  A    between atoms: CB_84  and  CG_85 
REMARK   31  A    between atoms: CG_85  and  CD_86 
REMARK   32  A    between atoms: CD_86  and  NE_87 
REMARK       I    between atoms: NE_87  and  CZ_88 
REMARK       I    between atoms: CZ_88  and  NH1_89 
REMARK   33  A    between atoms: CA_92  and  CB_95 
REMARK   34  A    between atoms: CB_95  and  CG_96 
REMARK   35  A    between atoms: CG_96  and  CD_97 
REMARK   36  A    between atoms: CA_101  and  CB_104 
REMARK   37  A    between atoms: CB_104  and  CG_105 
REMARK   38  A    between atoms: CG_105  and  CD_106 
REMARK   39  A    between atoms: CA_110  and  C_111 
ROOT
ATOM      1  CA  CYS d   1      28.808  12.493 -44.720  0.00  0.00     0.098 C 
ATOM      2  C   CYS d   1      27.334  12.139 -44.410  0.00  0.00     0.244 C 
ATOM      3  O   CYS d   1      27.004  10.953 -44.394  0.00  0.00    -0.271 OA
ATOM      4  CB  CYS d   1      28.963  13.144 -46.108  0.00  0.00     0.013 C 
ATOM      5  SG  CYS d   1      30.112  12.318 -47.265  0.00  0.00    -0.095 SA
ATOM      6  N   CYS d   1      32.346  15.111 -50.900  0.00  0.00    -0.344 N 
ATOM      7  CA  CYS d   1      33.047  14.382 -49.839  0.00  0.00     0.105 C 
ATOM      8  CB  CYS d   1      32.221  13.199 -49.348  0.00  0.00     0.015 C 
ATOM      9  SG  CYS d   1      30.555  13.631 -48.776  0.00  0.00    -0.095 SA
ATOM     10  H   CYS d   1      29.172  13.210 -43.969  0.00  0.00     0.088 H 
ATOM     11  H   CYS d   1      29.321  14.173 -45.958  0.00  0.00     0.053 H 
ATOM     12  H   CYS d   1      27.970  13.166 -46.581  0.00  0.00     0.053 H 
ATOM     13  H   CYS d   1      32.418  14.741 -51.826  0.00  0.00     0.163 HD
ATOM     14  H   CYS d   1      33.169  15.074 -48.992  0.00  0.00     0.090 H 
ATOM     15  H   CYS d   1      32.759  12.727 -48.513  0.00  0.00     0.054 H 
ATOM     16  H   CYS d   1      32.125  12.480 -50.175  0.00  0.00     0.054 H 
ATOM     17  N   PRO d   1      26.424  13.107 -44.156  0.00  0.00    -0.337 N 
ATOM     18  CA  PRO d   1      25.023  12.741 -43.924  0.00  0.00     0.091 C 
ATOM     19  C   PRO d   1      24.334  12.295 -45.218  0.00  0.00     0.241 C 
ATOM     20  O   PRO d   1      24.695  12.748 -46.298  0.00  0.00    -0.271 OA
ATOM     21  CB  PRO d   1      24.421  14.031 -43.367  0.00  0.00    -0.036 C 
ATOM     22  CG  PRO d   1      25.593  14.917 -43.065  0.00  0.00    -0.048 C 
ATOM     23  CD  PRO d   1      26.582  14.567 -44.087  0.00  0.00    -0.001 C 
ATOM     24  H   PRO d   1      24.951  11.930 -43.185  0.00  0.00     0.087 H 
ATOM     25  H   PRO d   1      23.848  13.825 -42.451  0.00  0.00     0.036 H 
ATOM     26  H   PRO d   1      23.764  14.502 -44.112  0.00  0.00     0.036 H 
ATOM     27  H   PRO d   1      25.985  14.715 -42.057  0.00  0.00     0.035 H 
ATOM     28  H   PRO d   1      25.311  15.977 -43.143  0.00  0.00     0.035 H 
ATOM     29  H   PRO d   1      26.350  15.043 -45.051  0.00  0.00     0.064 H 
ATOM     30  H   PRO d   1      27.599  14.847 -43.775  0.00  0.00     0.064 H 
ATOM     31  N   TYR d   1      23.347  11.406 -45.102  0.00  0.00    -0.346 N 
ATOM     32  CA  TYR d   1      22.622  10.823 -46.232  0.00  0.00     0.093 C 
ATOM     33  C   TYR d   1      22.308  11.775 -47.402  0.00  0.00     0.241 C 
ATOM     34  O   TYR d   1      22.520  11.392 -48.549  0.00  0.00    -0.271 OA
ATOM     35  H   TYR d   1      23.084  11.118 -44.181  0.00  0.00     0.163 HD
ATOM     36  H   TYR d   1      23.320  10.088 -46.659  0.00  0.00     0.088 H 
ATOM     37  N   TRP d   1      21.853  13.022 -47.102  0.00  0.00    -0.346 N 
ATOM     38  CA  TRP d   1      21.460  14.066 -48.069  0.00  0.00     0.093 C 
ATOM     39  C   TRP d   1      22.619  14.741 -48.878  0.00  0.00     0.241 C 
ATOM     40  O   TRP d   1      22.364  15.538 -49.784  0.00  0.00    -0.271 OA
ATOM     41  H   TRP d   1      21.777  13.254 -46.132  0.00  0.00     0.163 HD
ATOM     42  H   TRP d   1      20.838  13.557 -48.821  0.00  0.00     0.088 H 
ATOM     43  N   MET d   1      23.875  14.427 -48.544  0.00  0.00    -0.346 N 
ATOM     44  CA  MET d   1      25.062  14.972 -49.201  0.00  0.00     0.090 C 
ATOM     45  C   MET d   1      25.386  14.137 -50.441  0.00  0.00     0.241 C 
ATOM     46  O   MET d   1      25.353  12.906 -50.368  0.00  0.00    -0.271 OA
ATOM     47  H   MET d   1      24.011  13.777 -47.796  0.00  0.00     0.163 HD
ATOM     48  H   MET d   1      24.869  16.012 -49.503  0.00  0.00     0.087 H 
ATOM     49  N   ASP d   1      25.725  14.800 -51.565  0.00  0.00    -0.346 N 
ATOM     50  CA  ASP d   1      26.113  14.137 -52.817  0.00  0.00     0.098 C 
ATOM     51  C   ASP d   1      27.495  13.530 -52.672  0.00  0.00     0.241 C 
ATOM     52  O   ASP d   1      28.252  13.943 -51.782  0.00  0.00    -0.271 OA
ATOM     53  H   ASP d   1      25.712  15.800 -51.545  0.00  0.00     0.163 HD
ATOM     54  H   ASP d   1      25.395  13.329 -53.017  0.00  0.00     0.088 H 
ATOM     55  N   ARG d   1      27.818  12.524 -53.524  0.00  0.00    -0.346 N 
ATOM     56  CA  ARG d   1      29.107  11.838 -53.461  0.00  0.00     0.089 C 
ATOM     57  C   ARG d   1      30.235  12.831 -53.664  0.00  0.00     0.241 C 
ATOM     58  O   ARG d   1      31.171  12.909 -52.858  0.00  0.00    -0.271 OA
ATOM     59  H   ARG d   1      27.153  12.243 -54.216  0.00  0.00     0.163 HD
ATOM     60  H   ARG d   1      29.213  11.386 -52.464  0.00  0.00     0.087 H 
ATOM     61  N   GLU d   1      30.090  13.640 -54.714  0.00  0.00    -0.346 N 
ATOM     62  CA  GLU d   1      31.075  14.621 -55.123  0.00  0.00     0.090 C 
ATOM     63  C   GLU d   1      31.402  15.721 -54.123  0.00  0.00     0.241 C 
ATOM     64  O   GLU d   1      32.441  16.357 -54.281  0.00  0.00    -0.271 OA
ATOM     65  N   GLU d   1      30.609  15.893 -53.046  0.00  0.00    -0.346 N 
ATOM     66  CA  GLU d   1      31.054  16.861 -52.053  0.00  0.00     0.090 C 
ATOM     67  C   GLU d   1      31.608  16.240 -50.747  0.00  0.00     0.241 C 
ATOM     68  O   GLU d   1      31.437  16.785 -49.660  0.00  0.00    -0.271 OA
ATOM     69  H   GLU d   1      29.250  13.565 -55.252  0.00  0.00     0.163 HD
ATOM     70  H   GLU d   1      32.010  14.043 -55.165  0.00  0.00     0.087 H 
ATOM     71  H   GLU d   1      29.757  15.381 -52.935  0.00  0.00     0.163 HD
ATOM     72  H   GLU d   1      31.964  17.273 -52.514  0.00  0.00     0.087 H 
ENDROOT
BRANCH   1  73
ATOM     73  N   CYS d   1      29.559  11.250 -44.592  0.00  0.00    -0.346 N 
ATOM     74  C   GLY d   1      30.376  10.972 -43.572  0.00  0.00     0.236 C 
ATOM     75  O   GLY d   1      30.630  11.773 -42.664  0.00  0.00    -0.272 OA
ATOM     76  H   CYS d   1      29.456  10.563 -45.312  0.00  0.00     0.163 HD
BRANCH  74  77
ATOM     77  CA  GLY d   1      31.028   9.608 -43.604  0.00  0.00     0.069 C 
ATOM     78  H   GLY d   1      30.252   8.840 -43.471  0.00  0.00     0.078 H 
ATOM     79  H   GLY d   1      31.516   9.471 -44.580  0.00  0.00     0.078 H 
BRANCH  77  80
ATOM     80  N   GLY d   1      32.025   9.455 -42.555  0.00  0.00    -0.351 N 
ATOM     81  C   GLY d   1      33.311   9.625 -42.791  0.00  0.00     0.235 C 
ATOM     82  O   GLY d   1      33.757   9.903 -43.902  0.00  0.00    -0.272 OA
ATOM     83  H   GLY d   1      31.727   9.215 -41.631  0.00  0.00     0.163 HD
BRANCH  81  84
ATOM     84  CA  GLY d   1      34.244   9.470 -41.617  0.00  0.00     0.069 C 
ATOM     85  H   GLY d   1      35.178   9.025 -41.992  0.00  0.00     0.078 H 
ATOM     86  H   GLY d   1      34.450  10.476 -41.221  0.00  0.00     0.078 H 
BRANCH  84  87
ATOM     87  N   GLY d   1      33.779   8.648 -40.508  0.00  0.00    -0.351 N 
ATOM     88  C   ILE d   1      33.668   7.327 -40.572  0.00  0.00     0.241 C 
ATOM     89  O   ILE d   1      33.850   6.692 -41.606  0.00  0.00    -0.271 OA
ATOM     90  H   GLY d   1      33.530   9.103 -39.653  0.00  0.00     0.163 HD
BRANCH  88  91
ATOM     91  CA  ILE d   1      33.211   6.583 -39.272  0.00  0.00     0.092 C 
ATOM     92  H   ILE d   1      32.804   7.323 -38.567  0.00  0.00     0.088 H 
BRANCH  91  93
ATOM     93  N   ILE d   1      32.138   5.650 -39.651  0.00  0.00    -0.346 N 
ATOM     94  C   ILE d   1      30.877   6.072 -39.817  0.00  0.00     0.249 C 
ATOM     95  O   ILE d   1      30.541   7.238 -39.605  0.00  0.00    -0.271 OA
ATOM     96  H   ILE d   1      32.354   4.683 -39.787  0.00  0.00     0.163 HD
BRANCH  94  97
ATOM     97  CA  ILE d   1      29.839   5.058 -40.324  0.00  0.00     0.179 C 
ATOM     98  H   ILE d   1      30.391   4.177 -40.685  0.00  0.00     0.099 H 
BRANCH  97  99
ATOM     99  N   ILE d   1      28.963   4.616 -39.254  0.00  0.00    -0.066 N 
ATOM    100  H   ILE d   1      29.517   4.260 -38.492  0.00  0.00     0.275 HD
ATOM    101  H   ILE d   1      28.355   3.888 -39.596  0.00  0.00     0.275 HD
ATOM    102  H   ILE d   1      28.408   5.393 -38.931  0.00  0.00     0.275 HD
ENDBRANCH  97  99
BRANCH  97 103
ATOM    103  CB  ILE d   1      29.014   5.620 -41.530  0.00  0.00    -0.022 C 
ATOM    104  H   ILE d   1      28.440   6.469 -41.130  0.00  0.00     0.043 H 
BRANCH 103 105
ATOM    105  CG1 ILE d   1      27.951   4.620 -42.097  0.00  0.00    -0.063 C 
ATOM    106  H   ILE d   1      27.372   5.157 -42.863  0.00  0.00     0.033 H 
ATOM    107  H   ILE d   1      27.288   4.340 -41.265  0.00  0.00     0.033 H 
BRANCH 105 108
ATOM    108  CD1 ILE d   1      28.461   3.314 -42.738  0.00  0.00    -0.076 C 
ATOM    109  H   ILE d   1      27.605   2.718 -43.087  0.00  0.00     0.027 H 
ATOM    110  H   ILE d   1      29.029   2.737 -41.993  0.00  0.00     0.027 H 
ATOM    111  H   ILE d   1      29.113   3.554 -43.591  0.00  0.00     0.027 H 
ENDBRANCH 105 108
ENDBRANCH 103 105
BRANCH 103 112
ATOM    112  CG2 ILE d   1      29.913   6.193 -42.617  0.00  0.00    -0.070 C 
ATOM    113  H   ILE d   1      30.638   6.886 -42.166  0.00  0.00     0.028 H 
ATOM    114  H   ILE d   1      29.299   6.732 -43.354  0.00  0.00     0.028 H 
ATOM    115  H   ILE d   1      30.451   5.374 -43.117  0.00  0.00     0.028 H 
ENDBRANCH 103 112
ENDBRANCH  97 103
ENDBRANCH  94  97
ENDBRANCH  91  93
BRANCH  91 116
ATOM    116  CB  ILE d   1      34.387   5.851 -38.568  0.00  0.00    -0.030 C 
ATOM    117  H   ILE d   1      34.673   4.996 -39.198  0.00  0.00     0.043 H 
BRANCH 116 118
ATOM    118  CG1 ILE d   1      33.956   5.308 -37.208  0.00  0.00    -0.063 C 
ATOM    119  H   ILE d   1      32.857   5.278 -37.175  0.00  0.00     0.033 H 
ATOM    120  H   ILE d   1      34.328   5.986 -36.426  0.00  0.00     0.033 H 
BRANCH 118 121
ATOM    121  CD1 ILE d   1      34.446   4.021 -36.954  0.00  0.00    -0.076 C 
ATOM    122  H   ILE d   1      34.103   3.687 -35.964  0.00  0.00     0.027 H 
ATOM    123  H   ILE d   1      35.546   4.037 -36.975  0.00  0.00     0.027 H 
ATOM    124  H   ILE d   1      34.074   3.329 -37.724  0.00  0.00     0.027 H 
ENDBRANCH 118 121
ENDBRANCH 116 118
BRANCH 116 125
ATOM    125  CG2 ILE d   1      35.614   6.755 -38.426  0.00  0.00    -0.071 C 
ATOM    126  H   ILE d   1      35.907   7.134 -39.416  0.00  0.00     0.028 H 
ATOM    127  H   ILE d   1      36.446   6.179 -37.994  0.00  0.00     0.028 H 
ATOM    128  H   ILE d   1      35.372   7.601 -37.766  0.00  0.00     0.028 H 
ENDBRANCH 116 125
ENDBRANCH  91 116
ENDBRANCH  88  91
ENDBRANCH  84  87
ENDBRANCH  81  84
ENDBRANCH  77  80
ENDBRANCH  74  77
ENDBRANCH   1  73
BRANCH   7 129
ATOM    129  C   CYS d   1      34.465  13.935 -50.275  0.00  0.00     0.197 C 
ATOM    130  O   CYS d   1      34.903  14.118 -51.418  0.00  0.00    -0.646 OA
ATOM    131  O1  CYS d   1      35.203  13.361 -49.431  0.00  0.00    -0.646 OA
ENDBRANCH   7 129
BRANCH  32 132
ATOM    132  CB  TYR d   1      21.396   9.996 -45.772  0.00  0.00    -0.014 C 
ATOM    133  H   TYR d   1      21.683   9.412 -44.885  0.00  0.00     0.043 H 
ATOM    134  H   TYR d   1      21.113   9.312 -46.585  0.00  0.00     0.043 H 
BRANCH 132 135
ATOM    135  CG  TYR d   1      20.200  10.836 -45.421  0.00  0.00    -0.056 A 
ATOM    136  CD1 TYR d   1      19.241  11.142 -46.374  0.00  0.00    -0.074 A 
ATOM    137  CE1 TYR d   1      18.182  11.997 -46.088  0.00  0.00    -0.051 A 
ATOM    138  H   TYR d   1      19.318  10.706 -47.363  0.00  0.00     0.084 H 
ATOM    139  CZ  TYR d   1      18.045  12.520 -44.816  0.00  0.00     0.065 A 
ATOM    140  H   TYR d   1      17.466  12.252 -46.861  0.00  0.00     0.087 H 
ATOM    141  CE2 TYR d   1      18.982  12.218 -43.841  0.00  0.00    -0.051 A 
ATOM    142  CD2 TYR d   1      20.058  11.387 -44.154  0.00  0.00    -0.074 A 
ATOM    143  H   TYR d   1      18.880  12.625 -42.841  0.00  0.00     0.087 H 
ATOM    144  H   TYR d   1      20.798  11.167 -43.393  0.00  0.00     0.084 H 
BRANCH 139 145
ATOM    145  OH  TYR d   1      16.950  13.301 -44.542  0.00  0.00    -0.361 OA
ATOM    146  H   TYR d   1      16.426  13.397 -45.329  0.00  0.00     0.217 HD
ENDBRANCH 139 145
ENDBRANCH 132 135
ENDBRANCH  32 132
BRANCH  66 147
ATOM    147  CB  GLU d   1      30.172  18.111 -51.921  0.00  0.00    -0.029 C 
ATOM    148  H   GLU d   1      29.904  18.434 -52.938  0.00  0.00     0.037 H 
ATOM    149  H   GLU d   1      30.777  18.891 -51.436  0.00  0.00     0.037 H 
BRANCH 147 150
ATOM    150  CG  GLU d   1      28.884  17.980 -51.132  0.00  0.00     0.018 C 
ATOM    151  H   GLU d   1      29.010  17.183 -50.384  0.00  0.00     0.049 H 
ATOM    152  H   GLU d   1      28.074  17.708 -51.825  0.00  0.00     0.049 H 
BRANCH 150 153
ATOM    153  CD  GLU d   1      28.498  19.265 -50.413  0.00  0.00     0.172 C 
ATOM    154  OE1 GLU d   1      29.369  19.865 -49.737  0.00  0.00    -0.648 OA
ATOM    155  OE2 GLU d   1      27.314  19.659 -50.506  0.00  0.00    -0.648 OA
ENDBRANCH 150 153
ENDBRANCH 147 150
ENDBRANCH  66 147
BRANCH  38 156
ATOM    156  CB  TRP d   1      20.560  15.102 -47.384  0.00  0.00    -0.012 C 
ATOM    157  H   TRP d   1      19.618  14.609 -47.101  0.00  0.00     0.044 H 
ATOM    158  H   TRP d   1      20.351  15.908 -48.103  0.00  0.00     0.044 H 
BRANCH 156 159
ATOM    159  CG  TRP d   1      21.160  15.709 -46.158  0.00  0.00    -0.028 A 
ATOM    160  CD1 TRP d   1      20.851  15.421 -44.859  0.00  0.00    -0.015 A 
ATOM    161  NE1 TRP d   1      21.649  16.161 -44.002  0.00  0.00    -0.365 N 
ATOM    162  H   TRP d   1      20.087  14.712 -44.543  0.00  0.00     0.112 H 
ATOM    163  CE2 TRP d   1      22.488  16.946 -44.748  0.00  0.00     0.042 A 
ATOM    164  H   TRP d   1      21.617  16.127 -42.973  0.00  0.00     0.165 HD
ATOM    165  CD2 TRP d   1      22.210  16.687 -46.114  0.00  0.00    -0.002 A 
ATOM    166  CZ2 TRP d   1      23.456  17.864 -44.349  0.00  0.00    -0.056 A 
ATOM    167  CE3 TRP d   1      22.943  17.374 -47.101  0.00  0.00    -0.070 A 
ATOM    168  CZ3 TRP d   1      23.913  18.272 -46.706  0.00  0.00    -0.082 A 
ATOM    169  H   TRP d   1      22.748  17.200 -48.153  0.00  0.00     0.084 H 
ATOM    170  CH2 TRP d   1      24.143  18.534 -45.347  0.00  0.00    -0.081 A 
ATOM    171  H   TRP d   1      24.506  18.782 -47.456  0.00  0.00     0.083 H 
ATOM    172  H   TRP d   1      24.878  19.281 -45.071  0.00  0.00     0.083 H 
ATOM    173  H   TRP d   1      23.663  18.047 -43.301  0.00  0.00     0.086 H 
ENDBRANCH 156 159
ENDBRANCH  38 156
BRANCH  62 174
ATOM    174  CB  GLU d   1      30.868  15.084 -56.574  0.00  0.00    -0.029 C 
ATOM    175  H   GLU d   1      31.492  15.972 -56.754  0.00  0.00     0.037 H 
ATOM    176  H   GLU d   1      29.809  15.346 -56.713  0.00  0.00     0.037 H 
BRANCH 174 177
ATOM    177  CG  GLU d   1      31.246  14.002 -57.595  0.00  0.00     0.018 C 
ATOM    178  H   GLU d   1      32.223  13.598 -57.291  0.00  0.00     0.049 H 
ATOM    179  H   GLU d   1      31.342  14.499 -58.572  0.00  0.00     0.049 H 
BRANCH 177 180
ATOM    180  CD  GLU d   1      30.309  12.813 -57.787  0.00  0.00     0.172 C 
ATOM    181  OE1 GLU d   1      29.088  12.952 -57.536  0.00  0.00    -0.648 OA
ATOM    182  OE2 GLU d   1      30.800  11.742 -58.210  0.00  0.00    -0.648 OA
ENDBRANCH 177 180
ENDBRANCH 174 177
ENDBRANCH  62 174
BRANCH  44 183
ATOM    183  CB  MET d   1      26.249  14.939 -48.216  0.00  0.00    -0.030 C 
ATOM    184  H   MET d   1      26.622  13.905 -48.164  0.00  0.00     0.037 H 
ATOM    185  H   MET d   1      25.881  15.247 -47.226  0.00  0.00     0.037 H 
BRANCH 183 186
ATOM    186  CG  MET d   1      27.403  15.835 -48.586  0.00  0.00    -0.021 C 
ATOM    187  H   MET d   1      27.112  16.487 -49.423  0.00  0.00     0.049 H 
ATOM    188  H   MET d   1      28.267  15.223 -48.882  0.00  0.00     0.049 H 
BRANCH 186 189
ATOM    189  SD  MET d   1      27.835  16.844 -47.150  0.00  0.00    -0.173 SA
BRANCH 189 190
ATOM    190  CE  MET d   1      29.586  16.651 -47.085  0.00  0.00    -0.035 C 
ATOM    191  H   MET d   1      29.987  17.226 -46.238  0.00  0.00     0.041 H 
ATOM    192  H   MET d   1      30.030  17.019 -48.021  0.00  0.00     0.041 H 
ATOM    193  H   MET d   1      29.833  15.587 -46.956  0.00  0.00     0.041 H 
ENDBRANCH 189 190
ENDBRANCH 186 189
ENDBRANCH 183 186
ENDBRANCH  44 183
BRANCH  56 194
ATOM    194  CB  ARG d   1      29.184  10.726 -54.506  0.00  0.00    -0.036 C 
ATOM    195  H   ARG d   1      29.126  11.177 -55.508  0.00  0.00     0.036 H 
ATOM    196  H   ARG d   1      28.333  10.044 -54.361  0.00  0.00     0.036 H 
BRANCH 194 197
ATOM    197  CG  ARG d   1      30.471   9.931 -54.401  0.00  0.00    -0.048 C 
ATOM    198  H   ARG d   1      30.454   9.370 -53.455  0.00  0.00     0.035 H 
ATOM    199  H   ARG d   1      31.314  10.637 -54.394  0.00  0.00     0.035 H 
BRANCH 197 200
ATOM    200  CD  ARG d   1      30.683   8.953 -55.528  0.00  0.00     0.009 C 
ATOM    201  H   ARG d   1      30.679   9.498 -56.484  0.00  0.00     0.064 H 
ATOM    202  H   ARG d   1      29.867   8.215 -55.523  0.00  0.00     0.064 H 
BRANCH 200 203
ATOM    203  NE  ARG d   1      31.964   8.255 -55.377  0.00  0.00    -0.227 N 
ATOM    204  CZ  ARG d   1      32.138   7.139 -54.669  0.00  0.00     0.665 C 
ATOM    205  NH1 ARG d   1      31.108   6.567 -54.053  0.00  0.00    -0.235 N 
ATOM    206  NH2 ARG d   1      33.333   6.569 -54.602  0.00  0.00    -0.235 N 
ATOM    207  H   ARG d   1      31.248   5.705 -53.507  0.00  0.00     0.174 HD
ATOM    208  H   ARG d   1      30.170   6.986 -54.121  0.00  0.00     0.174 HD
ATOM    209  H   ARG d   1      34.138   7.003 -55.075  0.00  0.00     0.174 HD
ATOM    210  H   ARG d   1      33.456   5.692 -54.077  0.00  0.00     0.174 HD
ATOM    211  H   ARG d   1      32.786   8.655 -55.851  0.00  0.00     0.177 HD
ENDBRANCH 200 203
ENDBRANCH 197 200
ENDBRANCH 194 197
ENDBRANCH  56 194
BRANCH  50 212
ATOM    212  CB  ASP d   1      26.082  15.112 -54.002  0.00  0.00     0.043 C 
ATOM    213  H   ASP d   1      26.516  14.604 -54.876  0.00  0.00     0.052 H 
ATOM    214  H   ASP d   1      26.697  15.987 -53.743  0.00  0.00     0.052 H 
BRANCH 212 215
ATOM    215  CG  ASP d   1      24.690  15.604 -54.381  0.00  0.00     0.175 C 
ATOM    216  OD1 ASP d   1      23.877  15.883 -53.455  0.00  0.00    -0.648 OA
ATOM    217  OD2 ASP d   1      24.423  15.756 -55.600  0.00  0.00    -0.648 OA
ENDBRANCH 212 215
ENDBRANCH  50 212
TORSDOF 39
