REMARK WARNING: 32 MAX_TORS EXCEEDED!!!
REMARK  38 active torsions:
REMARK  status: ('A' for Active; 'I' for Inactive)
REMARK    1  A    between atoms: N_1  and  CA_2 
REMARK    2  A    between atoms: CA_2  and  C_3 
REMARK    3  A    between atoms: CA_2  and  CB_5 
REMARK       I    between atoms: C_3  and  N_12 
REMARK    4  A    between atoms: CB_5  and  CG_6 
REMARK    5  A    between atoms: CG_6  and  CD_7 
REMARK    6  A    between atoms: CD_7  and  NE_8 
REMARK       I    between atoms: NE_8  and  CZ_9 
REMARK       I    between atoms: CZ_9  and  NH1_10 
REMARK       I    between atoms: CZ_9  and  NH2_11 
REMARK    7  A    between atoms: N_12  and  CA_13 
REMARK    8  A    between atoms: CA_13  and  C_14 
REMARK    9  A    between atoms: CA_13  and  CB_16 
REMARK       I    between atoms: C_14  and  N_19 
REMARK   10  A    between atoms: CB_16  and  OG1_17 
REMARK   11  A    between atoms: CB_16  and  CG2_18 
REMARK   12  A    between atoms: N_19  and  CA_20 
REMARK   13  A    between atoms: CA_20  and  C_21 
REMARK   14  A    between atoms: CA_20  and  CB_23 
REMARK       I    between atoms: C_21  and  N_24 
REMARK   15  A    between atoms: N_24  and  CA_25 
REMARK   16  A    between atoms: CA_25  and  C_26 
REMARK   17  A    between atoms: CA_25  and  CB_28 
REMARK       I    between atoms: C_26  and  N_35 
REMARK   18  A    between atoms: CB_28  and  CG_29 
REMARK   19  A    between atoms: CG_29  and  CD_30 
REMARK   20  A    between atoms: CD_30  and  NE_31 
REMARK       I    between atoms: NE_31  and  CZ_32 
REMARK       I    between atoms: CZ_32  and  NH1_33 
REMARK   21  A    between atoms: N_35  and  CA_36 
REMARK   22  A    between atoms: CA_36  and  C_37 
REMARK   23  A    between atoms: CA_36  and  CB_39 
REMARK       I    between atoms: C_37  and  N_41 
REMARK   24  A    between atoms: CB_39  and  OG_40 
REMARK   25  A    between atoms: N_41  and  CA_42 
REMARK   26  A    between atoms: CA_42  and  CB_43 
REMARK   27  A    between atoms: CA_42  and  C_50 
REMARK   28  A    between atoms: CB_43  and  CG_44 
REMARK   29  A    between atoms: CG_44  and  CD_45 
REMARK   30  A    between atoms: CD_45  and  CE_46 
REMARK   31  A    between atoms: CE_46  and  NZ_47 
REMARK   32  A    between atoms: NZ_47  and  CH1_48 
REMARK   33  A    between atoms: NZ_47  and  CH2_49 
REMARK       I    between atoms: C_50  and  N_52 
REMARK   34  A    between atoms: N_52  and  CA_53 
REMARK   35  A    between atoms: CA_53  and  C_54 
REMARK   36  A    between atoms: CA_53  and  CB_56 
REMARK   37  A    between atoms: CB_56  and  CG1_57 
REMARK   38  A    between atoms: CB_56  and  CG2_58 
ROOT
ATOM      1  CA  ARG d   1     -16.770   1.560  18.844  0.00  0.00     0.089 C 
ATOM      2  H   ARG d   1     -17.562   2.260  19.148  0.00  0.00     0.087 H 
ENDROOT
BRANCH   1   3
ATOM      3  N   ARG d   1     -15.563   1.778  19.620  0.00  0.00    -0.346 N 
ATOM      4  C   ALA d   1     -15.242   2.923  20.212  0.00  0.00     0.240 C 
ATOM      5  O   ALA d   1     -15.938   3.944  20.199  0.00  0.00    -0.271 OA
ATOM      6  H   ARG d   1     -14.928   1.012  19.716  0.00  0.00     0.163 HD
BRANCH   4   7
ATOM      7  CA  ALA d   1     -13.890   2.881  20.890  0.00  0.00     0.086 C 
ATOM      8  H   ALA d   1     -13.322   2.074  20.405  0.00  0.00     0.086 H 
BRANCH   7   9
ATOM      9  N   ALA d   1     -13.120   4.105  20.660  0.00  0.00    -0.346 N 
ATOM     10  C   THR d   1     -12.421   4.233  19.517  0.00  0.00     0.243 C 
ATOM     11  O   THR d   1     -12.371   3.339  18.646  0.00  0.00    -0.271 OA
ATOM     12  H   ALA d   1     -13.114   4.836  21.343  0.00  0.00     0.163 HD
BRANCH  10  13
ATOM     13  CA  THR d   1     -11.639   5.527  19.289  0.00  0.00     0.113 C 
ATOM     14  H   THR d   1     -11.751   5.805  18.231  0.00  0.00     0.091 H 
BRANCH  13  15
ATOM     15  N   THR d   1     -12.141   6.680  20.087  0.00  0.00    -0.344 N 
ATOM     16  C   ARG d   1     -13.283   7.309  19.778  0.00  0.00     0.249 C 
ATOM     17  O   ARG d   1     -14.003   6.961  18.837  0.00  0.00    -0.271 OA
ATOM     18  H   THR d   1     -11.611   6.993  20.875  0.00  0.00     0.163 HD
BRANCH  16  19
ATOM     19  CA  ARG d   1     -13.676   8.520  20.636  0.00  0.00     0.176 C 
ATOM     20  H   ARG d   1     -12.993   8.581  21.496  0.00  0.00     0.099 H 
BRANCH  19  21
ATOM     21  N   ARG d   1     -13.557   9.767  19.828  0.00  0.00    -0.067 N 
ATOM     22  H   ARG d   1     -13.816  10.560  20.394  0.00  0.00     0.275 HD
ATOM     23  H   ARG d   1     -14.170   9.710  19.030  0.00  0.00     0.275 HD
ATOM     24  H   ARG d   1     -12.605   9.874  19.514  0.00  0.00     0.275 HD
ENDBRANCH  19  21
BRANCH  19  25
ATOM     25  CB  ARG d   1     -15.111   8.386  21.154  0.00  0.00    -0.029 C 
ATOM     26  H   ARG d   1     -15.755   8.088  20.313  0.00  0.00     0.036 H 
ATOM     27  H   ARG d   1     -15.434   9.367  21.533  0.00  0.00     0.036 H 
BRANCH  25  28
ATOM     28  CG  ARG d   1     -15.281   7.364  22.270  0.00  0.00    -0.047 C 
ATOM     29  H   ARG d   1     -14.868   7.785  23.199  0.00  0.00     0.035 H 
ATOM     30  H   ARG d   1     -14.725   6.453  22.002  0.00  0.00     0.035 H 
BRANCH  28  31
ATOM     31  CD  ARG d   1     -16.741   6.993  22.508  0.00  0.00     0.009 C 
ATOM     32  H   ARG d   1     -17.223   6.798  21.539  0.00  0.00     0.064 H 
ATOM     33  H   ARG d   1     -17.247   7.833  23.007  0.00  0.00     0.064 H 
BRANCH  31  34
ATOM     34  NE  ARG d   1     -16.859   5.792  23.353  0.00  0.00    -0.227 N 
ATOM     35  CZ  ARG d   1     -17.522   4.667  23.049  0.00  0.00     0.665 C 
ATOM     36  NH1 ARG d   1     -18.189   4.537  21.903  0.00  0.00    -0.235 N 
ATOM     37  NH2 ARG d   1     -17.536   3.650  23.910  0.00  0.00    -0.235 N 
ATOM     38  H   ARG d   1     -18.690   3.661  21.695  0.00  0.00     0.174 HD
ATOM     39  H   ARG d   1     -18.204   5.312  21.225  0.00  0.00     0.174 HD
ATOM     40  H   ARG d   1     -17.029   3.724  24.803  0.00  0.00     0.174 HD
ATOM     41  H   ARG d   1     -18.054   2.789  23.682  0.00  0.00     0.174 HD
ATOM     42  H   ARG d   1     -16.386   5.819  24.267  0.00  0.00     0.177 HD
ENDBRANCH  31  34
ENDBRANCH  28  31
ENDBRANCH  25  28
ENDBRANCH  19  25
ENDBRANCH  16  19
ENDBRANCH  13  15
BRANCH  13  43
ATOM     43  CB  THR d   1     -10.136   5.206  19.543  0.00  0.00     0.060 C 
ATOM     44  H   THR d   1     -10.035   4.825  20.570  0.00  0.00     0.086 H 
BRANCH  43  45
ATOM     45  OG1 THR d   1      -9.359   6.393  19.411  0.00  0.00    -0.393 OA
ATOM     46  H   THR d   1      -8.444   6.190  19.567  0.00  0.00     0.210 HD
ENDBRANCH  43  45
BRANCH  43  47
ATOM     47  CG2 THR d   1      -9.572   4.118  18.551  0.00  0.00    -0.050 C 
ATOM     48  H   THR d   1      -8.511   3.932  18.776  0.00  0.00     0.031 H 
ATOM     49  H   THR d   1      -9.670   4.479  17.517  0.00  0.00     0.031 H 
ATOM     50  H   THR d   1     -10.141   3.184  18.669  0.00  0.00     0.031 H 
ENDBRANCH  43  47
ENDBRANCH  13  43
ENDBRANCH  10  13
ENDBRANCH   7   9
BRANCH   7  51
ATOM     51  CB  ALA d   1     -14.021   2.481  22.355  0.00  0.00    -0.049 C 
ATOM     52  H   ALA d   1     -14.611   1.556  22.431  0.00  0.00     0.030 H 
ATOM     53  H   ALA d   1     -14.526   3.285  22.911  0.00  0.00     0.030 H 
ATOM     54  H   ALA d   1     -13.021   2.313  22.780  0.00  0.00     0.030 H 
ENDBRANCH   7  51
ENDBRANCH   4   7
ENDBRANCH   1   3
BRANCH   1  55
ATOM     55  C   ARG d   1     -17.194   0.106  19.086  0.00  0.00     0.241 C 
ATOM     56  O   ARG d   1     -16.381  -0.701  19.540  0.00  0.00    -0.271 OA
ATOM     57  N   SER d   1     -18.449  -0.234  18.739  0.00  0.00    -0.344 N 
ATOM     58  H   SER d   1     -19.084   0.494  18.482  0.00  0.00     0.163 HD
BRANCH  57  59
ATOM     59  CA  SER d   1     -18.932  -1.620  18.719  0.00  0.00     0.109 C 
ATOM     60  H   SER d   1     -18.071  -2.304  18.724  0.00  0.00     0.090 H 
BRANCH  59  61
ATOM     61  C   SER d   1     -19.727  -1.816  17.417  0.00  0.00     0.243 C 
ATOM     62  O   SER d   1     -20.134  -0.830  16.791  0.00  0.00    -0.271 OA
ATOM     63  N   MLY d   1     -19.914  -3.065  17.000  0.00  0.00    -0.346 N 
ATOM     64  H   MLY d   1     -19.536  -3.814  17.545  0.00  0.00     0.163 HD
BRANCH  63  65
ATOM     65  CA  MLY d   1     -20.659  -3.393  15.762  0.00  0.00     0.089 C 
ATOM     66  H   MLY d   1     -20.438  -2.617  15.014  0.00  0.00     0.087 H 
BRANCH  65  67
ATOM     67  CB  MLY d   1     -20.269  -4.741  15.188  0.00  0.00    -0.038 C 
ATOM     68  H   MLY d   1     -20.890  -4.960  14.306  0.00  0.00     0.036 H 
ATOM     69  H   MLY d   1     -20.422  -5.523  15.947  0.00  0.00     0.036 H 
BRANCH  67  70
ATOM     70  CG  MLY d   1     -18.808  -4.704  14.784  0.00  0.00    -0.061 C 
ATOM     71  H   MLY d   1     -18.215  -5.238  15.541  0.00  0.00     0.033 H 
ATOM     72  H   MLY d   1     -18.479  -3.656  14.733  0.00  0.00     0.033 H 
BRANCH  70  73
ATOM     73  CD  MLY d   1     -18.585  -5.348  13.450  0.00  0.00    -0.042 C 
ATOM     74  H   MLY d   1     -19.497  -5.242  12.845  0.00  0.00     0.035 H 
ATOM     75  H   MLY d   1     -18.366  -6.415  13.600  0.00  0.00     0.035 H 
BRANCH  73  76
ATOM     76  CE  MLY d   1     -17.430  -4.708  12.714  0.00  0.00     0.083 C 
ATOM     77  H   MLY d   1     -16.778  -5.513  12.344  0.00  0.00     0.075 H 
ATOM     78  H   MLY d   1     -16.874  -4.087  13.432  0.00  0.00     0.075 H 
BRANCH  76  79
ATOM     79  NZ  MLY d   1     -17.795  -3.854  11.563  0.00  0.00    -0.079 N 
ATOM     80  H   MLY d   1     -18.341  -3.059  11.856  0.00  0.00     0.278 HD
BRANCH  79  81
ATOM     81  CH1 MLY d   1     -16.503  -3.460  10.988  0.00  0.00     0.066 C 
ATOM     82  H   MLY d   1     -16.672  -2.814  10.114  0.00  0.00     0.068 H 
ATOM     83  H   MLY d   1     -15.950  -4.359  10.678  0.00  0.00     0.068 H 
ATOM     84  H   MLY d   1     -15.918  -2.912  11.741  0.00  0.00     0.068 H 
ENDBRANCH  79  81
BRANCH  79  85
ATOM     85  CH2 MLY d   1     -18.507  -4.623  10.521  0.00  0.00     0.066 C 
ATOM     86  H   MLY d   1     -19.487  -4.942  10.906  0.00  0.00     0.068 H 
ATOM     87  H   MLY d   1     -17.914  -5.508  10.249  0.00  0.00     0.068 H 
ATOM     88  H   MLY d   1     -18.651  -3.991   9.633  0.00  0.00     0.068 H 
ENDBRANCH  79  85
ENDBRANCH  76  79
ENDBRANCH  73  76
ENDBRANCH  70  73
ENDBRANCH  67  70
ENDBRANCH  65  67
BRANCH  65  89
ATOM     89  C   MLY d   1     -22.132  -3.408  16.028  0.00  0.00     0.241 C 
ATOM     90  O   MLY d   1     -22.627  -4.183  16.893  0.00  0.00    -0.271 OA
ATOM     91  N   VAL d   1     -22.830  -2.579  15.242  0.00  0.00    -0.344 N 
ATOM     92  H   VAL d   1     -22.362  -2.182  14.453  0.00  0.00     0.163 HD
BRANCH  91  93
ATOM     93  CA  VAL d   1     -24.236  -2.212  15.459  0.00  0.00     0.099 C 
ATOM     94  H   VAL d   1     -24.556  -2.617  16.431  0.00  0.00     0.090 H 
BRANCH  93  95
ATOM     95  C   VAL d   1     -25.119  -2.813  14.365  0.00  0.00     0.197 C 
ATOM     96  O   VAL d   1     -24.788  -2.699  13.187  0.00  0.00    -0.646 OA
ATOM     97  O1  VAL d   1     -26.180  -3.421  14.669  0.00  0.00    -0.646 OA
ENDBRANCH  93  95
BRANCH  93  98
ATOM     98  CB  VAL d   1     -24.406  -0.658  15.487  0.00  0.00    -0.032 C 
ATOM     99  H   VAL d   1     -25.437  -0.434  15.799  0.00  0.00     0.042 H 
BRANCH  98 100
ATOM    100  CG1 VAL d   1     -23.447  -0.043  16.504  0.00  0.00    -0.071 C 
ATOM    101  H   VAL d   1     -23.575   1.049  16.515  0.00  0.00     0.028 H 
ATOM    102  H   VAL d   1     -22.411  -0.288  16.226  0.00  0.00     0.028 H 
ATOM    103  H   VAL d   1     -23.664  -0.448  17.504  0.00  0.00     0.028 H 
ENDBRANCH  98 100
BRANCH  98 104
ATOM    104  CG2 VAL d   1     -24.176  -0.022  14.108  0.00  0.00    -0.071 C 
ATOM    105  H   VAL d   1     -24.869  -0.468  13.379  0.00  0.00     0.028 H 
ATOM    106  H   VAL d   1     -23.139  -0.204  13.788  0.00  0.00     0.028 H 
ATOM    107  H   VAL d   1     -24.355   1.062  14.169  0.00  0.00     0.028 H 
ENDBRANCH  98 104
ENDBRANCH  93  98
ENDBRANCH  91  93
ENDBRANCH  65  89
ENDBRANCH  63  65
ENDBRANCH  59  61
BRANCH  59 108
ATOM    108  CB  SER d   1     -19.801  -1.921  19.952  0.00  0.00     0.044 C 
ATOM    109  H   SER d   1     -20.385  -2.835  19.768  0.00  0.00     0.077 H 
ATOM    110  H   SER d   1     -20.485  -1.078  20.126  0.00  0.00     0.077 H 
BRANCH 108 111
ATOM    111  OG  SER d   1     -18.991  -2.109  21.103  0.00  0.00    -0.398 OA
ATOM    112  H   SER d   1     -19.545  -2.293  21.852  0.00  0.00     0.209 HD
ENDBRANCH 108 111
ENDBRANCH  59 108
ENDBRANCH  57  59
ENDBRANCH   1  55
BRANCH   1 113
ATOM    113  CB  ARG d   1     -16.451   1.720  17.345  0.00  0.00    -0.036 C 
ATOM    114  H   ARG d   1     -17.407   1.739  16.802  0.00  0.00     0.036 H 
ATOM    115  H   ARG d   1     -15.870   0.840  17.033  0.00  0.00     0.036 H 
BRANCH 113 116
ATOM    116  CG  ARG d   1     -15.664   2.961  16.938  0.00  0.00    -0.048 C 
ATOM    117  H   ARG d   1     -14.789   3.052  17.598  0.00  0.00     0.035 H 
ATOM    118  H   ARG d   1     -16.311   3.842  17.063  0.00  0.00     0.035 H 
BRANCH 116 119
ATOM    119  CD  ARG d   1     -15.180   2.915  15.493  0.00  0.00     0.009 C 
ATOM    120  H   ARG d   1     -14.940   3.940  15.174  0.00  0.00     0.064 H 
ATOM    121  H   ARG d   1     -15.992   2.517  14.867  0.00  0.00     0.064 H 
BRANCH 119 122
ATOM    122  NE  ARG d   1     -13.990   2.078  15.296  0.00  0.00    -0.227 N 
ATOM    123  CZ  ARG d   1     -13.381   1.865  14.116  0.00  0.00     0.665 C 
ATOM    124  NH1 ARG d   1     -12.311   1.078  14.043  0.00  0.00    -0.235 N 
ATOM    125  NH2 ARG d   1     -13.839   2.413  12.998  0.00  0.00    -0.235 N 
ATOM    126  H   ARG d   1     -11.849   0.919  13.136  0.00  0.00     0.174 HD
ATOM    127  H   ARG d   1     -11.944   0.627  14.893  0.00  0.00     0.174 HD
ATOM    128  H   ARG d   1     -14.666   3.026  13.026  0.00  0.00     0.174 HD
ATOM    129  H   ARG d   1     -13.368   2.225  12.102  0.00  0.00     0.174 HD
ATOM    130  H   ARG d   1     -13.590   1.618  16.126  0.00  0.00     0.177 HD
ENDBRANCH 119 122
ENDBRANCH 116 119
ENDBRANCH 113 116
ENDBRANCH   1 113
TORSDOF 38
