REMARK  7 active torsions:
REMARK  status: ('A' for Active; 'I' for Inactive)
REMARK    1  A    between atoms: CAA_1  and  CAK_2 
REMARK    2  A    between atoms: CAK_2  and  CAR_3 
REMARK    3  A    between atoms: CAR_3  and  CAB_4 
REMARK    4  A    between atoms: CAR_3  and  NAS_5 
REMARK    5  A    between atoms: CAQ_11  and  CAF_12 
REMARK    6  A    between atoms: CAF_12  and  CAN_13 
REMARK    7  A    between atoms: CAM_16  and  OAD_17 
ROOT
ATOM      1  NAS 2PW d   1      14.891 457.574  26.405  0.00  0.00    -0.294 N 
ATOM      2  CAO 2PW d   1      15.231 458.758  25.839  0.00  0.00     0.266 A 
ATOM      3  OAC 2PW d   1      16.062 458.797  24.937  0.00  0.00    -0.266 OA
ATOM      4  CAP 2PW d   1      13.973 457.726  27.363  0.00  0.00     0.149 A 
ATOM      5  SAE 2PW d   1      13.303 456.456  28.305  0.00  0.00    -0.052 SA
ATOM      6  SAL 2PW d   1      13.580 459.269  27.512  0.00  0.00    -0.055 SA
ATOM      7  CAQ 2PW d   1      14.577 459.832  26.347  0.00  0.00     0.076 A 
ENDROOT
BRANCH   7   8
ATOM      8  CAF 2PW d   1      14.570 461.163  26.114  0.00  0.00    -0.051 C 
ATOM      9  H   2PW d   1      13.890 461.744  26.735  0.00  0.00     0.087 H 
BRANCH   8  10
ATOM     10  CAN 2PW d   1      15.318 461.902  25.181  0.00  0.00    -0.035 A 
ATOM     11  CAI 2PW d   1      15.064 463.270  25.170  0.00  0.00    -0.070 A 
ATOM     12  CAG 2PW d   1      15.726 464.125  24.297  0.00  0.00    -0.050 A 
ATOM     13  H   2PW d   1      14.333 463.678  25.858  0.00  0.00     0.084 H 
ATOM     14  CAM 2PW d   1      16.664 463.616  23.408  0.00  0.00     0.065 A 
ATOM     15  H   2PW d   1      15.511 465.187  24.310  0.00  0.00     0.087 H 
ATOM     16  CAH 2PW d   1      16.931 462.254  23.400  0.00  0.00    -0.050 A 
ATOM     17  CAJ 2PW d   1      16.257 461.414  24.278  0.00  0.00    -0.070 A 
ATOM     18  H   2PW d   1      17.663 461.847  22.711  0.00  0.00     0.087 H 
ATOM     19  H   2PW d   1      16.468 460.351  24.259  0.00  0.00     0.084 H 
BRANCH  14  20
ATOM     20  OAD 2PW d   1      17.316 464.447  22.552  0.00  0.00    -0.361 OA
ATOM     21  H   2PW d   1      17.917 463.941  22.018  0.00  0.00     0.217 HD
ENDBRANCH  14  20
ENDBRANCH   8  10
ENDBRANCH   7   8
BRANCH   1  22
ATOM     22  CAR 2PW d   1      15.364 456.164  26.151  0.00  0.00     0.018 C 
ATOM     23  H   2PW d   1      15.115 455.589  27.055  0.00  0.00     0.072 H 
BRANCH  22  24
ATOM     24  CAK 2PW d   1      14.650 455.474  24.974  0.00  0.00    -0.049 C 
ATOM     25  H   2PW d   1      15.033 454.447  24.878  0.00  0.00     0.035 H 
ATOM     26  H   2PW d   1      13.570 455.444  25.181  0.00  0.00     0.035 H 
BRANCH  24  27
ATOM     27  CAA 2PW d   1      14.880 456.213  23.655  0.00  0.00    -0.075 C 
ATOM     28  H   2PW d   1      14.354 455.688  22.844  0.00  0.00     0.027 H 
ATOM     29  H   2PW d   1      15.957 456.243  23.434  0.00  0.00     0.027 H 
ATOM     30  H   2PW d   1      14.494 457.240  23.738  0.00  0.00     0.027 H 
ENDBRANCH  24  27
ENDBRANCH  22  24
BRANCH  22  31
ATOM     31  CAB 2PW d   1      16.883 456.067  25.963  0.00  0.00    -0.057 C 
ATOM     32  H   2PW d   1      17.389 456.561  26.806  0.00  0.00     0.030 H 
ATOM     33  H   2PW d   1      17.169 456.562  25.023  0.00  0.00     0.030 H 
ATOM     34  H   2PW d   1      17.181 455.009  25.926  0.00  0.00     0.030 H 
ENDBRANCH  22  31
ENDBRANCH   1  22
TORSDOF 7
