REMARK  12 active torsions:
REMARK  status: ('A' for Active; 'I' for Inactive)
REMARK    1  A    between atoms: CAP_7  and  NBI_6 
REMARK    2  A    between atoms: CAL_8  and  CAP_7 
REMARK    3  A    between atoms: CAM_9  and  CAL_8 
REMARK    4  A    between atoms: OAY_10  and  CAM_9 
REMARK    5  A    between atoms: CBG_22  and  OAY_10 
REMARK    6  A    between atoms: NAV_11  and  CBD_12 
REMARK    7  A    between atoms: CBE_25  and  NAV_11 
REMARK    8  A    between atoms: CBF_21  and  NAW_26 
REMARK    9  A    between atoms: NAW_26  and  CBH_27 
REMARK   10  A    between atoms: CBB_28  and  CAB_29 
REMARK   11  A    between atoms: CAZ_31  and  CAA_32 
REMARK   12  A    between atoms: CBC_34  and  CAC_35 
ROOT
ATOM      1  CBD 2RS d   1      44.585 -29.289  22.209  0.00  0.00     0.049 A 
ATOM      2  CAH 2RS d   1      44.596 -30.614  21.666  0.00  0.00    -0.055 A 
ATOM      3  CAF 2RS d   1      45.052 -31.709  22.450  0.00  0.00    -0.061 A 
ATOM      4  CBA 2RS d   1      45.509 -31.487  23.766  0.00  0.00     0.044 A 
ATOM      5  CAE 2RS d   1      45.985 -32.561  24.608  0.00  0.00     0.099 C 
ATOM      6  NAD 2RS d   1      46.404 -33.428  25.242  0.00  0.00    -0.191 NA
ATOM      7  CAG 2RS d   1      45.515 -30.185  24.306  0.00  0.00    -0.061 A 
ATOM      8  CAI 2RS d   1      45.065 -29.111  23.532  0.00  0.00    -0.055 A 
ATOM      9  H   2RS d   1      44.255 -30.783  20.651  0.00  0.00     0.087 H 
ATOM     10  H   2RS d   1      45.048 -32.712  22.038  0.00  0.00     0.085 H 
ATOM     11  H   2RS d   1      45.867 -30.017  25.317  0.00  0.00     0.085 H 
ATOM     12  H   2RS d   1      45.084 -28.113  23.955  0.00  0.00     0.087 H 
ENDROOT
BRANCH   1  13
ATOM     13  NAV 2RS d   1      44.201 -28.104  21.549  0.00  0.00    -0.188 N 
ATOM     14  H   2RS d   1      43.200 -27.949  21.363  0.00  0.00     0.184 HD
BRANCH  13  15
ATOM     15  CBE 2RS d   1      45.120 -27.123  21.132  0.00  0.00     0.746 A 
ATOM     16  NAS 2RS d   1      45.987 -26.575  21.997  0.00  0.00     0.131 NA
ATOM     17  CBF 2RS d   1      46.869 -25.662  21.564  0.00  0.00     0.746 A 
ATOM     18  NAU 2RS d   1      46.929 -25.281  20.279  0.00  0.00    -0.017 NA
ATOM     19  CBG 2RS d   1      46.060 -25.852  19.429  0.00  0.00     0.302 A 
ATOM     20  NAT 2RS d   1      45.140 -26.784  19.822  0.00  0.00    -0.017 NA
BRANCH  17  21
ATOM     21  NAW 2RS d   1      47.769 -25.051  22.430  0.00  0.00    -0.186 N 
ATOM     22  H   2RS d   1      48.479 -24.444  21.996  0.00  0.00     0.184 HD
BRANCH  21  23
ATOM     23  CBH 2RS d   1      47.822 -25.166  23.828  0.00  0.00     0.061 A 
ATOM     24  CBB 2RS d   1      47.079 -24.279  24.684  0.00  0.00    -0.034 A 
ATOM     25  CAJ 2RS d   1      47.184 -24.406  26.094  0.00  0.00    -0.069 A 
ATOM     26  CAZ 2RS d   1      48.021 -25.386  26.673  0.00  0.00    -0.061 A 
ATOM     27  H   2RS d   1      46.615 -23.742  26.735  0.00  0.00     0.085 H 
ATOM     28  CAK 2RS d   1      48.759 -26.241  25.837  0.00  0.00    -0.069 A 
ATOM     29  CBC 2RS d   1      48.672 -26.142  24.429  0.00  0.00    -0.034 A 
ATOM     30  H   2RS d   1      49.406 -26.990  26.279  0.00  0.00     0.085 H 
BRANCH  24  31
ATOM     31  CAB 2RS d   1      46.149 -23.191  24.156  0.00  0.00    -0.049 C 
ATOM     32  H   2RS d   1      45.700 -22.650  25.002  0.00  0.00     0.033 H 
ATOM     33  H   2RS d   1      45.354 -23.650  23.551  0.00  0.00     0.033 H 
ATOM     34  H   2RS d   1      46.723 -22.488  23.535  0.00  0.00     0.033 H 
ENDBRANCH  24  31
BRANCH  26  35
ATOM     35  CAA 2RS d   1      48.149 -25.540  28.172  0.00  0.00    -0.051 C 
ATOM     36  H   2RS d   1      48.849 -26.358  28.398  0.00  0.00     0.033 H 
ATOM     37  H   2RS d   1      47.163 -25.771  28.602  0.00  0.00     0.033 H 
ATOM     38  H   2RS d   1      48.528 -24.603  28.606  0.00  0.00     0.033 H 
ENDBRANCH  26  35
BRANCH  29  39
ATOM     39  CAC 2RS d   1      49.515 -27.111  23.611  0.00  0.00    -0.049 C 
ATOM     40  H   2RS d   1      49.352 -26.924  22.539  0.00  0.00     0.033 H 
ATOM     41  H   2RS d   1      49.224 -28.144  23.852  0.00  0.00     0.033 H 
ATOM     42  H   2RS d   1      50.578 -26.965  23.851  0.00  0.00     0.033 H 
ENDBRANCH  29  39
ENDBRANCH  21  23
ENDBRANCH  17  21
BRANCH  19  43
ATOM     43  OAY 2RS d   1      46.187 -25.385  18.128  0.00  0.00    -0.318 OA
BRANCH  43  44
ATOM     44  CAM 2RS d   1      45.006 -25.072  17.385  0.00  0.00     0.030 C 
ATOM     45  H   2RS d   1      44.473 -26.009  17.166  0.00  0.00     0.075 H 
ATOM     46  H   2RS d   1      44.368 -24.422  18.002  0.00  0.00     0.075 H 
BRANCH  44  47
ATOM     47  CAL 2RS d   1      45.295 -24.350  16.051  0.00  0.00    -0.022 C 
ATOM     48  H   2RS d   1      45.949 -23.492  16.267  0.00  0.00     0.038 H 
ATOM     49  H   2RS d   1      45.823 -25.056  15.393  0.00  0.00     0.038 H 
BRANCH  47  50
ATOM     50  CAP 2RS d   1      44.054 -23.820  15.281  0.00  0.00     0.086 C 
ATOM     51  H   2RS d   1      43.639 -24.664  14.710  0.00  0.00     0.076 H 
ATOM     52  H   2RS d   1      43.321 -23.489  16.031  0.00  0.00     0.076 H 
BRANCH  50  53
ATOM     53  NBI 2RS d   1      44.248 -22.696  14.329  0.00  0.00    -0.067 N 
ATOM     54  CAQ 2RS d   1      45.101 -22.911  13.127  0.00  0.00     0.103 C 
ATOM     55  CAN 2RS d   1      45.408 -21.611  12.331  0.00  0.00     0.042 C 
ATOM     56  H   2RS d   1      46.055 -23.351  13.454  0.00  0.00     0.079 H 
ATOM     57  H   2RS d   1      44.584 -23.613  12.457  0.00  0.00     0.079 H 
ATOM     58  OAX 2RS d   1      44.371 -20.650  12.534  0.00  0.00    -0.388 OA
ATOM     59  H   2RS d   1      45.477 -21.849  11.259  0.00  0.00     0.076 H 
ATOM     60  H   2RS d   1      46.364 -21.191  12.676  0.00  0.00     0.076 H 
ATOM     61  CAO 2RS d   1      44.393 -20.176  13.881  0.00  0.00     0.042 C 
ATOM     62  CAR 2RS d   1      44.067 -21.321  14.874  0.00  0.00     0.103 C 
ATOM     63  H   2RS d   1      43.645 -19.377  13.994  0.00  0.00     0.076 H 
ATOM     64  H   2RS d   1      45.393 -19.777  14.107  0.00  0.00     0.076 H 
ATOM     65  H   2RS d   1      43.018 -21.213  15.187  0.00  0.00     0.079 H 
ATOM     66  H   2RS d   1      44.724 -21.211  15.749  0.00  0.00     0.079 H 
ATOM     67  H   2RS d   1      43.359 -22.766  13.860  0.00  0.00     0.280 HD
ENDBRANCH  50  53
ENDBRANCH  47  50
ENDBRANCH  44  47
ENDBRANCH  43  44
ENDBRANCH  19  43
ENDBRANCH  13  15
ENDBRANCH   1  13
TORSDOF 12
