REMARK  7 active torsions:
REMARK  status: ('A' for Active; 'I' for Inactive)
REMARK    1  A    between atoms: NAV_1  and  CBD_2 
REMARK    2  A    between atoms: CBE_15  and  NAV_1 
REMARK    3  A    between atoms: CBF_11  and  NAW_16 
REMARK    4  A    between atoms: NAW_16  and  CBH_17 
REMARK    5  A    between atoms: CBB_18  and  CAB_19 
REMARK    6  A    between atoms: CAZ_21  and  CAA_22 
REMARK    7  A    between atoms: CBC_24  and  CAC_25 
ROOT
ATOM      1  CBD 2RT d   1     214.913 -28.598  34.115  0.00  0.00     0.049 A 
ATOM      2  CAH 2RT d   1     214.497 -29.785  33.425  0.00  0.00    -0.055 A 
ATOM      3  CAF 2RT d   1     213.771 -30.802  34.078  0.00  0.00    -0.061 A 
ATOM      4  CBA 2RT d   1     213.440 -30.675  35.449  0.00  0.00     0.044 A 
ATOM      5  CAE 2RT d   1     212.684 -31.722  36.101  0.00  0.00     0.099 C 
ATOM      6  NAD 2RT d   1     212.060 -32.535  36.636  0.00  0.00    -0.191 NA
ATOM      7  CAG 2RT d   1     213.833 -29.521  36.156  0.00  0.00    -0.061 A 
ATOM      8  CAI 2RT d   1     214.553 -28.506  35.490  0.00  0.00    -0.055 A 
ATOM      9  H   2RT d   1     214.747 -29.903  32.377  0.00  0.00     0.087 H 
ATOM     10  H   2RT d   1     213.465 -31.685  33.528  0.00  0.00     0.085 H 
ATOM     11  H   2RT d   1     213.584 -29.413  37.206  0.00  0.00     0.085 H 
ATOM     12  H   2RT d   1     214.843 -27.622  36.047  0.00  0.00     0.087 H 
ENDROOT
BRANCH   1  13
ATOM     13  NAV 2RT d   1     215.640 -27.518  33.543  0.00  0.00    -0.188 N 
ATOM     14  H   2RT d   1     215.745 -27.586  32.521  0.00  0.00     0.184 HD
BRANCH  13  15
ATOM     15  CBE 2RT d   1     216.244 -26.375  34.098  0.00  0.00     0.744 A 
ATOM     16  NAS 2RT d   1     216.104 -26.068  35.395  0.00  0.00     0.130 NA
ATOM     17  CBF 2RT d   1     216.684 -24.980  35.915  0.00  0.00     0.744 A 
ATOM     18  NAU 2RT d   1     217.418 -24.151  35.160  0.00  0.00    -0.055 NA
ATOM     19  CBG 2RT d   1     217.549 -24.470  33.858  0.00  0.00     0.124 A 
ATOM     20  NAT 2RT d   1     216.975 -25.572  33.284  0.00  0.00    -0.055 NA
ATOM     21  H   2RT d   1     218.143 -23.817  33.229  0.00  0.00     0.148 H 
BRANCH  17  22
ATOM     22  NAW 2RT d   1     216.504 -24.713  37.268  0.00  0.00    -0.186 N 
ATOM     23  H   2RT d   1     217.206 -24.172  37.792  0.00  0.00     0.184 HD
BRANCH  22  24
ATOM     24  CBH 2RT d   1     215.355 -25.191  37.906  0.00  0.00     0.061 A 
ATOM     25  CBB 2RT d   1     214.237 -24.307  38.005  0.00  0.00    -0.034 A 
ATOM     26  CAJ 2RT d   1     213.044 -24.742  38.629  0.00  0.00    -0.069 A 
ATOM     27  CAZ 2RT d   1     212.943 -26.049  39.156  0.00  0.00    -0.061 A 
ATOM     28  H   2RT d   1     212.200 -24.066  38.703  0.00  0.00     0.085 H 
ATOM     29  CAK 2RT d   1     214.044 -26.929  39.055  0.00  0.00    -0.069 A 
ATOM     30  CBC 2RT d   1     215.254 -26.519  38.436  0.00  0.00    -0.034 A 
ATOM     31  H   2RT d   1     213.963 -27.933  39.456  0.00  0.00     0.085 H 
BRANCH  25  32
ATOM     32  CAB 2RT d   1     214.284 -22.883  37.457  0.00  0.00    -0.049 C 
ATOM     33  H   2RT d   1     213.320 -22.387  37.642  0.00  0.00     0.033 H 
ATOM     34  H   2RT d   1     214.480 -22.913  36.375  0.00  0.00     0.033 H 
ATOM     35  H   2RT d   1     215.086 -22.323  37.959  0.00  0.00     0.033 H 
ENDBRANCH  25  32
BRANCH  27  36
ATOM     36  CAA 2RT d   1     211.657 -26.496  39.824  0.00  0.00    -0.051 C 
ATOM     37  H   2RT d   1     211.765 -27.535  40.169  0.00  0.00     0.033 H 
ATOM     38  H   2RT d   1     210.828 -26.434  39.103  0.00  0.00     0.033 H 
ATOM     39  H   2RT d   1     211.445 -25.844  40.684  0.00  0.00     0.033 H 
ENDBRANCH  27  36
BRANCH  30  40
ATOM     40  CAC 2RT d   1     216.399 -27.530  38.368  0.00  0.00    -0.049 C 
ATOM     41  H   2RT d   1     217.263 -27.072  37.865  0.00  0.00     0.033 H 
ATOM     42  H   2RT d   1     216.073 -28.416  37.803  0.00  0.00     0.033 H 
ATOM     43  H   2RT d   1     216.685 -27.830  39.387  0.00  0.00     0.033 H 
ENDBRANCH  30  40
ENDBRANCH  22  24
ENDBRANCH  17  22
ENDBRANCH  13  15
ENDBRANCH   1  13
TORSDOF 7
