REMARK  4 active torsions:
REMARK  status: ('A' for Active; 'I' for Inactive)
REMARK    1  A    between atoms: CAM_4  and  NAA_5 
REMARK    2  A    between atoms: CAO_7  and  CAD_8 
REMARK    3  A    between atoms: CAD_8  and  CAL_9 
REMARK    4  A    between atoms: CAK_12  and  OAC_13 
ROOT
ATOM      1  CAL 2PK d   1      11.084 461.092  29.136  0.00  0.00    -0.035 A 
ATOM      2  CAG 2PK d   1      11.597 460.338  28.083  0.00  0.00    -0.070 A 
ATOM      3  CAE 2PK d   1      11.795 458.966  28.200  0.00  0.00    -0.050 A 
ATOM      4  CAK 2PK d   1      11.478 458.323  29.390  0.00  0.00     0.065 A 
ATOM      5  CAF 2PK d   1      10.966 459.049  30.454  0.00  0.00    -0.050 A 
ATOM      6  CAH 2PK d   1      10.778 460.414  30.313  0.00  0.00    -0.070 A 
ATOM      7  H   2PK d   1      11.848 460.832  27.151  0.00  0.00     0.084 H 
ATOM      8  H   2PK d   1      12.195 458.401  27.366  0.00  0.00     0.087 H 
ATOM      9  H   2PK d   1      10.716 458.554  31.386  0.00  0.00     0.087 H 
ATOM     10  H   2PK d   1      10.378 460.975  31.150  0.00  0.00     0.084 H 
ENDROOT
BRANCH   1  11
ATOM     11  CAD 2PK d   1      10.929 462.469  28.879  0.00  0.00    -0.051 C 
ATOM     12  H   2PK d   1      11.219 462.802  27.884  0.00  0.00     0.087 H 
BRANCH  11  13
ATOM     13  CAO 2PK d   1      10.467 463.428  29.710  0.00  0.00     0.077 A 
ATOM     14  CAN 2PK d   1      10.048 463.452  30.994  0.00  0.00     0.264 A 
ATOM     15  OAB 2PK d   1      10.062 462.510  31.766  0.00  0.00    -0.267 OA
ATOM     16  NAI 2PK d   1       9.626 464.641  31.455  0.00  0.00    -0.303 N 
ATOM     17  CAM 2PK d   1       9.666 465.593  30.533  0.00  0.00     0.145 A 
ATOM     18  H   2PK d   1       9.315 464.792  32.393  0.00  0.00     0.171 HD
ATOM     19  SAJ 2PK d   1      10.244 464.954  29.133  0.00  0.00    -0.049 SA
BRANCH  17  20
ATOM     20  NAA 2PK d   1       9.286 466.849  30.744  0.00  0.00    -0.380 N 
ATOM     21  H   2PK d   1       9.343 467.539  29.982  0.00  0.00     0.158 HD
ATOM     22  H   2PK d   1       8.934 467.132  31.670  0.00  0.00     0.158 HD
ENDBRANCH  17  20
ENDBRANCH  11  13
ENDBRANCH   1  11
BRANCH   4  23
ATOM     23  OAC 2PK d   1      11.669 456.986  29.513  0.00  0.00    -0.361 OA
ATOM     24  H   2PK d   1      11.404 456.708  30.382  0.00  0.00     0.217 HD
ENDBRANCH   4  23
TORSDOF 4
