REMARK  24 active torsions:
REMARK  status: ('A' for Active; 'I' for Inactive)
REMARK    1  A    between atoms: CA_2  and  C_3 
REMARK       I    between atoms: C_3  and  N_8 
REMARK    2  A    between atoms: N_8  and  CA_9 
REMARK    3  A    between atoms: CA_9  and  C_10 
REMARK    4  A    between atoms: CA_9  and  CB_12 
REMARK       I    between atoms: C_10  and  N_13 
REMARK    5  A    between atoms: CA_14  and  C_15 
REMARK       I    between atoms: C_15  and  N_20 
REMARK    6  A    between atoms: N_20  and  CA_21 
REMARK    7  A    between atoms: CA_21  and  C_22 
REMARK    8  A    between atoms: CA_21  and  CB_24 
REMARK       I    between atoms: C_22  and  N_29 
REMARK    9  A    between atoms: CB_24  and  CG_25 
REMARK   10  A    between atoms: CG_25  and  CD_26 
REMARK   11  A    between atoms: N_29  and  CA_30 
REMARK   12  A    between atoms: CA_30  and  C_31 
REMARK   13  A    between atoms: CA_30  and  CB_33 
REMARK       I    between atoms: C_31  and  N_37 
REMARK   14  A    between atoms: CB_33  and  CG_34 
REMARK   15  A    between atoms: CG_34  and  CD1_35 
REMARK   16  A    between atoms: CG_34  and  CD2_36 
REMARK   17  A    between atoms: N_37  and  CA_38 
REMARK   18  A    between atoms: CA_38  and  C_39 
REMARK   19  A    between atoms: CA_38  and  CB_41 
REMARK       I    between atoms: C_39  and  N_45 
REMARK   20  A    between atoms: CB_41  and  CG_42 
REMARK   21  A    between atoms: CG_42  and  CD1_43 
REMARK   22  A    between atoms: CG_42  and  CD2_44 
REMARK   23  A    between atoms: N_45  and  CA_46 
REMARK   24  A    between atoms: CA_46  and  C_47 
ROOT
ATOM      1  CA  GLU d   1       1.706  24.867 -49.547  0.00  0.00     0.090 C 
ATOM      2  H   GLU d   1       1.056  24.262 -50.196  0.00  0.00     0.087 H 
ENDROOT
BRANCH   1   3
ATOM      3  N   GLU d   1       1.998  26.136 -50.220  0.00  0.00    -0.346 N 
ATOM      4  C   PRO d   1       1.433  26.466 -51.374  0.00  0.00     0.242 C 
ATOM      5  O   PRO d   1       0.715  25.703 -52.037  0.00  0.00    -0.271 OA
ATOM      6  H   GLU d   1       2.643  26.772 -49.796  0.00  0.00     0.163 HD
BRANCH   4   7
ATOM      7  CA  PRO d   1       1.740  27.874 -51.886  0.00  0.00     0.099 C 
ATOM      8  N   PRO d   1       1.878  27.942 -53.339  0.00  0.00    -0.313 N 
ATOM      9  C   ALA d   1       2.788  27.166 -53.951  0.00  0.00     0.247 C 
ATOM     10  CD  PRO d   1       1.113  29.052 -53.939  0.00  0.00    -0.020 C 
ATOM     11  O   ALA d   1       3.476  26.350 -53.342  0.00  0.00    -0.271 OA
ATOM     12  CG  PRO d   1       0.279  29.563 -52.818  0.00  0.00    -0.086 C 
ATOM     13  H   PRO d   1       1.150  29.414 -54.965  0.00  0.00     0.111 H 
ATOM     14  CB  PRO d   1       0.560  28.804 -51.576  0.00  0.00    -0.021 C 
ATOM     15  H   PRO d   1      -0.437  30.380 -52.898  0.00  0.00     0.079 H 
ATOM     16  H   PRO d   1       0.825  29.494 -50.761  0.00  0.00     0.042 H 
ATOM     17  H   PRO d   1      -0.322  28.214 -51.285  0.00  0.00     0.042 H 
ATOM     18  H   PRO d   1       2.659  28.237 -51.403  0.00  0.00     0.088 H 
BRANCH   9  19
ATOM     19  CA  ALA d   1       2.914  27.289 -55.457  0.00  0.00     0.086 C 
ATOM     20  H   ALA d   1       2.483  28.252 -55.767  0.00  0.00     0.087 H 
BRANCH  19  21
ATOM     21  N   ALA d   1       4.319  27.259 -55.875  0.00  0.00    -0.346 N 
ATOM     22  C   PRO d   1       5.144  28.274 -55.623  0.00  0.00     0.249 C 
ATOM     23  O   PRO d   1       4.849  29.192 -54.866  0.00  0.00    -0.271 OA
ATOM     24  H   ALA d   1       4.666  26.457 -56.361  0.00  0.00     0.163 HD
BRANCH  22  25
ATOM     25  CA  PRO d   1       6.513  28.279 -56.348  0.00  0.00     0.178 C 
ATOM     26  N   PRO d   1       6.530  29.177 -57.504  0.00  0.00    -0.062 N 
ATOM     27  CD  PRO d   1       7.070  30.501 -57.157  0.00  0.00     0.083 C 
ATOM     28  H   PRO d   1       5.588  29.288 -57.846  0.00  0.00     0.278 HD
ATOM     29  H   PRO d   1       7.103  28.769 -58.226  0.00  0.00     0.278 HD
ATOM     30  CG  PRO d   1       8.070  30.178 -56.093  0.00  0.00    -0.040 C 
ATOM     31  H   PRO d   1       6.281  31.163 -56.772  0.00  0.00     0.075 H 
ATOM     32  H   PRO d   1       7.553  30.973 -58.026  0.00  0.00     0.075 H 
ATOM     33  CB  PRO d   1       7.647  28.838 -55.458  0.00  0.00    -0.028 C 
ATOM     34  H   PRO d   1       9.073  30.085 -56.535  0.00  0.00     0.035 H 
ATOM     35  H   PRO d   1       8.077  30.971 -55.330  0.00  0.00     0.035 H 
ATOM     36  H   PRO d   1       8.497  28.140 -55.439  0.00  0.00     0.036 H 
ATOM     37  H   PRO d   1       7.283  29.000 -54.433  0.00  0.00     0.036 H 
ATOM     38  H   PRO d   1       6.745  27.250 -56.661  0.00  0.00     0.099 H 
ENDBRANCH  22  25
ENDBRANCH  19  21
BRANCH  19  39
ATOM     39  CB  ALA d   1       2.129  26.172 -56.117  0.00  0.00    -0.049 C 
ATOM     40  H   ALA d   1       1.080  26.216 -55.788  0.00  0.00     0.030 H 
ATOM     41  H   ALA d   1       2.562  25.202 -55.832  0.00  0.00     0.030 H 
ATOM     42  H   ALA d   1       2.175  26.288 -57.210  0.00  0.00     0.030 H 
ENDBRANCH  19  39
ENDBRANCH   9  19
ENDBRANCH   4   7
ENDBRANCH   1   3
BRANCH   1  43
ATOM     43  C   GLU d   1       0.951  25.185 -48.251  0.00  0.00     0.241 C 
ATOM     44  O   GLU d   1       1.482  25.814 -47.327  0.00  0.00    -0.271 OA
ATOM     45  N   LEU d   1      -0.321  24.793 -48.222  0.00  0.00    -0.346 N 
ATOM     46  H   LEU d   1      -0.698  24.305 -49.009  0.00  0.00     0.163 HD
BRANCH  45  47
ATOM     47  CA  LEU d   1      -1.183  25.059 -47.066  0.00  0.00     0.089 C 
ATOM     48  H   LEU d   1      -0.602  25.607 -46.309  0.00  0.00     0.087 H 
BRANCH  47  49
ATOM     49  C   LEU d   1      -1.674  23.756 -46.437  0.00  0.00     0.241 C 
ATOM     50  O   LEU d   1      -2.013  22.827 -47.158  0.00  0.00    -0.271 OA
ATOM     51  N   LEU d   1      -1.776  23.725 -45.103  0.00  0.00    -0.346 N 
ATOM     52  H   LEU d   1      -1.651  24.573 -44.588  0.00  0.00     0.163 HD
BRANCH  51  53
ATOM     53  CA  LEU d   1      -2.063  22.500 -44.379  0.00  0.00     0.089 C 
ATOM     54  H   LEU d   1      -2.196  21.702 -45.124  0.00  0.00     0.087 H 
BRANCH  53  55
ATOM     55  C   LEU d   1      -3.354  22.572 -43.552  0.00  0.00     0.240 C 
ATOM     56  O   LEU d   1      -3.503  21.875 -42.579  0.00  0.00    -0.271 OA
ATOM     57  N   GLY d   1      -4.285  23.418 -43.948  0.00  0.00    -0.349 N 
ATOM     58  H   GLY d   1      -4.128  23.997 -44.748  0.00  0.00     0.163 HD
BRANCH  57  59
ATOM     59  CA  GLY d   1      -5.566  23.508 -43.204  0.00  0.00     0.075 C 
ATOM     60  H   GLY d   1      -5.844  24.567 -43.102  0.00  0.00     0.080 H 
ATOM     61  H   GLY d   1      -5.429  23.067 -42.206  0.00  0.00     0.080 H 
BRANCH  59  62
ATOM     62  C   GLY d   1      -6.677  22.780 -43.909  0.00  0.00     0.191 C 
ATOM     63  O   GLY d   1      -6.451  22.181 -44.965  0.00  0.00    -0.647 OA
ATOM     64  OXT GLY d   1      -7.820  22.780 -43.458  0.00  0.00    -0.647 OA
ENDBRANCH  59  62
ENDBRANCH  57  59
ENDBRANCH  53  55
BRANCH  53  65
ATOM     65  CB  LEU d   1      -0.865  22.117 -43.482  0.00  0.00    -0.035 C 
ATOM     66  H   LEU d   1      -1.266  21.853 -42.492  0.00  0.00     0.037 H 
ATOM     67  H   LEU d   1      -0.224  23.006 -43.392  0.00  0.00     0.037 H 
BRANCH  65  68
ATOM     68  CG  LEU d   1       0.024  20.955 -43.941  0.00  0.00    -0.059 C 
ATOM     69  H   LEU d   1      -0.605  20.065 -44.091  0.00  0.00     0.038 H 
BRANCH  68  70
ATOM     70  CD1 LEU d   1       0.685  21.283 -45.203  0.00  0.00    -0.073 C 
ATOM     71  H   LEU d   1       1.317  20.439 -45.516  0.00  0.00     0.028 H 
ATOM     72  H   LEU d   1       1.309  22.178 -45.068  0.00  0.00     0.028 H 
ATOM     73  H   LEU d   1      -0.074  21.478 -45.975  0.00  0.00     0.028 H 
ENDBRANCH  68  70
BRANCH  68  74
ATOM     74  CD2 LEU d   1       1.082  20.646 -42.858  0.00  0.00    -0.073 C 
ATOM     75  H   LEU d   1       0.577  20.400 -41.912  0.00  0.00     0.028 H 
ATOM     76  H   LEU d   1       1.726  21.526 -42.712  0.00  0.00     0.028 H 
ATOM     77  H   LEU d   1       1.696  19.792 -43.179  0.00  0.00     0.028 H 
ENDBRANCH  68  74
ENDBRANCH  65  68
ENDBRANCH  53  65
ENDBRANCH  51  53
ENDBRANCH  47  49
BRANCH  47  78
ATOM     78  CB  LEU d   1      -2.344  25.942 -47.525  0.00  0.00    -0.035 C 
ATOM     79  H   LEU d   1      -3.005  26.145 -46.669  0.00  0.00     0.037 H 
ATOM     80  H   LEU d   1      -2.910  25.417 -48.309  0.00  0.00     0.037 H 
BRANCH  78  81
ATOM     81  CG  LEU d   1      -1.818  27.279 -48.088  0.00  0.00    -0.059 C 
ATOM     82  H   LEU d   1      -0.816  27.095 -48.504  0.00  0.00     0.038 H 
BRANCH  81  83
ATOM     83  CD1 LEU d   1      -2.694  27.799 -49.234  0.00  0.00    -0.073 C 
ATOM     84  H   LEU d   1      -2.285  28.750 -49.605  0.00  0.00     0.028 H 
ATOM     85  H   LEU d   1      -3.719  27.958 -48.869  0.00  0.00     0.028 H 
ATOM     86  H   LEU d   1      -2.706  27.062 -50.050  0.00  0.00     0.028 H 
ENDBRANCH  81  83
BRANCH  81  87
ATOM     87  CD2 LEU d   1      -1.665  28.299 -46.947  0.00  0.00    -0.073 C 
ATOM     88  H   LEU d   1      -1.029  27.873 -46.157  0.00  0.00     0.028 H 
ATOM     89  H   LEU d   1      -2.656  28.537 -46.532  0.00  0.00     0.028 H 
ATOM     90  H   LEU d   1      -1.200  29.217 -47.336  0.00  0.00     0.028 H 
ENDBRANCH  81  87
ENDBRANCH  78  81
ENDBRANCH  47  78
ENDBRANCH  45  47
ENDBRANCH   1  43
BRANCH   1  91
ATOM     91  CB  GLU d   1       2.982  24.071 -49.278  0.00  0.00    -0.029 C 
ATOM     92  H   GLU d   1       3.683  24.704 -48.714  0.00  0.00     0.037 H 
ATOM     93  H   GLU d   1       3.434  23.791 -50.241  0.00  0.00     0.037 H 
BRANCH  91  94
ATOM     94  CG  GLU d   1       2.709  22.797 -48.471  0.00  0.00     0.018 C 
ATOM     95  H   GLU d   1       1.620  22.651 -48.416  0.00  0.00     0.049 H 
ATOM     96  H   GLU d   1       3.112  22.938 -47.457  0.00  0.00     0.049 H 
BRANCH  94  97
ATOM     97  CD  GLU d   1       3.320  21.558 -49.051  0.00  0.00     0.172 C 
ATOM     98  OE1 GLU d   1       4.215  21.677 -49.886  0.00  0.00    -0.648 OA
ATOM     99  OE2 GLU d   1       2.943  20.454 -48.640  0.00  0.00    -0.648 OA
ENDBRANCH  94  97
ENDBRANCH  91  94
ENDBRANCH   1  91
TORSDOF 24
