REMARK  11 active torsions:
REMARK  status: ('A' for Active; 'I' for Inactive)
REMARK    1  A    between atoms: C1_1  and  C24_24 
REMARK    2  A    between atoms: C2_2  and  C13_13 
REMARK    3  A    between atoms: C3_3  and  C7_7 
REMARK    4  A    between atoms: C4_4  and  C15_15 
REMARK    5  A    between atoms: C5_5  and  C14_14 
REMARK    6  A    between atoms: C15_15  and  C16_16 
REMARK    7  A    between atoms: C15_15  and  O17_17 
REMARK    8  A    between atoms: O17_17  and  C20_20 
REMARK    9  A    between atoms: C20_20  and  C21_21 
REMARK   10  A    between atoms: C20_20  and  C22_22 
REMARK   11  A    between atoms: C20_20  and  C23_23 
ROOT
ATOM      1  C1  LF9 d   1     -37.565  32.579 -28.033  0.00  0.00     0.109 A 
ATOM      2  C2  LF9 d   1     -36.775  31.451 -28.330  0.00  0.00    -0.018 A 
ATOM      3  C3  LF9 d   1     -35.420  31.633 -28.620  0.00  0.00    -0.006 A 
ATOM      4  C4  LF9 d   1     -34.884  32.949 -28.613  0.00  0.00     0.017 A 
ATOM      5  C5  LF9 d   1     -35.722  34.039 -28.300  0.00  0.00     0.042 A 
ATOM      6  N1  LF9 d   1     -37.017  33.816 -28.031  0.00  0.00    -0.249 NA
ENDROOT
BRANCH   4   7
ATOM      7  C15 LF9 d   1     -33.433  33.199 -28.922  0.00  0.00     0.151 C 
ATOM      8  H   LF9 d   1     -32.919  32.229 -28.850  0.00  0.00     0.108 H 
BRANCH   7   9
ATOM      9  C16 LF9 d   1     -33.250  33.718 -30.341  0.00  0.00     0.208 C 
ATOM     10  O18 LF9 d   1     -34.026  33.301 -31.230  0.00  0.00    -0.646 OA
ATOM     11  O19 LF9 d   1     -32.303  34.494 -30.595  0.00  0.00    -0.646 OA
ENDBRANCH   7   9
BRANCH   7  12
ATOM     12  O17 LF9 d   1     -32.785  34.099 -27.992  0.00  0.00    -0.360 OA
BRANCH  12  13
ATOM     13  C20 LF9 d   1     -32.388  33.554 -26.718  0.00  0.00     0.051 C 
BRANCH  13  14
ATOM     14  C21 LF9 d   1     -33.550  33.177 -25.826  0.00  0.00    -0.048 C 
ATOM     15  H   LF9 d   1     -33.168  32.771 -24.878  0.00  0.00     0.031 H 
ATOM     16  H   LF9 d   1     -34.166  32.417 -26.328  0.00  0.00     0.031 H 
ATOM     17  H   LF9 d   1     -34.161  34.069 -25.623  0.00  0.00     0.031 H 
ENDBRANCH  13  14
BRANCH  13  18
ATOM     18  C22 LF9 d   1     -31.641  34.701 -26.044  0.00  0.00    -0.048 C 
ATOM     19  H   LF9 d   1     -31.293  34.379 -25.051  0.00  0.00     0.031 H 
ATOM     20  H   LF9 d   1     -32.315  35.563 -25.934  0.00  0.00     0.031 H 
ATOM     21  H   LF9 d   1     -30.776  34.988 -26.660  0.00  0.00     0.031 H 
ENDBRANCH  13  18
BRANCH  13  22
ATOM     22  C23 LF9 d   1     -31.548  32.293 -26.861  0.00  0.00    -0.048 C 
ATOM     23  H   LF9 d   1     -31.273  31.920 -25.863  0.00  0.00     0.031 H 
ATOM     24  H   LF9 d   1     -30.635  32.523 -27.430  0.00  0.00     0.031 H 
ATOM     25  H   LF9 d   1     -32.128  31.524 -27.393  0.00  0.00     0.031 H 
ENDBRANCH  13  22
ENDBRANCH  12  13
ENDBRANCH   7  12
ENDBRANCH   4   7
BRANCH   3  26
ATOM     26  C7  LF9 d   1     -34.572  30.442 -28.925  0.00  0.00    -0.025 A 
ATOM     27  C8  LF9 d   1     -34.112  29.606 -27.897  0.00  0.00    -0.072 A 
ATOM     28  C9  LF9 d   1     -33.295  28.505 -28.188  0.00  0.00    -0.082 A 
ATOM     29  H   LF9 d   1     -34.390  29.813 -26.870  0.00  0.00     0.084 H 
ATOM     30  C10 LF9 d   1     -32.938  28.202 -29.504  0.00  0.00    -0.083 A 
ATOM     31  H   LF9 d   1     -32.935  27.879 -27.380  0.00  0.00     0.083 H 
ATOM     32  C11 LF9 d   1     -33.400  29.040 -30.522  0.00  0.00    -0.082 A 
ATOM     33  H   LF9 d   1     -32.320  27.341 -29.729  0.00  0.00     0.083 H 
ATOM     34  C12 LF9 d   1     -34.214  30.153 -30.236  0.00  0.00    -0.072 A 
ATOM     35  H   LF9 d   1     -33.127  28.830 -31.550  0.00  0.00     0.083 H 
ATOM     36  H   LF9 d   1     -34.563  30.787 -31.043  0.00  0.00     0.084 H 
ENDBRANCH   3  26
BRANCH   5  37
ATOM     37  C14 LF9 d   1     -35.301  35.487 -28.281  0.00  0.00    -0.035 C 
ATOM     38  H   LF9 d   1     -36.160  36.115 -28.003  0.00  0.00     0.035 H 
ATOM     39  H   LF9 d   1     -34.942  35.778 -29.279  0.00  0.00     0.035 H 
ATOM     40  H   LF9 d   1     -34.494  35.625 -27.547  0.00  0.00     0.035 H 
ENDBRANCH   5  37
BRANCH   2  41
ATOM     41  C13 LF9 d   1     -37.415  30.074 -28.332  0.00  0.00    -0.048 C 
ATOM     42  H   LF9 d   1     -38.481  30.165 -28.078  0.00  0.00     0.033 H 
ATOM     43  H   LF9 d   1     -36.915  29.436 -27.589  0.00  0.00     0.033 H 
ATOM     44  H   LF9 d   1     -37.313  29.623 -29.330  0.00  0.00     0.033 H 
ENDBRANCH   2  41
BRANCH   1  45
ATOM     45  C24 LF9 d   1     -39.022  32.422 -27.723  0.00  0.00     0.158 A 
ATOM     46  N2  LF9 d   1     -40.012  32.367 -28.627  0.00  0.00    -0.227 NA
ATOM     47  C26 LF9 d   1     -41.188  32.193 -27.983  0.00  0.00     0.086 A 
ATOM     48  C27 LF9 d   1     -40.889  32.128 -26.628  0.00  0.00     0.064 A 
ATOM     49  C29 LF9 d   1     -42.521  32.073 -28.416  0.00  0.00    -0.051 A 
ATOM     50  N3  LF9 d   1     -39.555  32.270 -26.502  0.00  0.00    -0.337 N 
ATOM     51  C30 LF9 d   1     -41.916  31.945 -25.695  0.00  0.00    -0.034 A 
ATOM     52  H   LF9 d   1     -39.032  32.263 -25.615  0.00  0.00     0.167 HD
ATOM     53  C32 LF9 d   1     -43.251  31.817 -26.108  0.00  0.00     0.036 A 
ATOM     54  H   LF9 d   1     -41.677  31.901 -24.639  0.00  0.00     0.089 H 
ATOM     55  C31 LF9 d   1     -43.547  31.885 -27.481  0.00  0.00    -0.060 A 
ATOM     56 CL   LF9 d   1     -44.554  31.570 -24.870  0.00  0.00    -0.084 Cl
ATOM     57  H   LF9 d   1     -44.573  31.792 -27.817  0.00  0.00     0.086 H 
ATOM     58  H   LF9 d   1     -42.754  32.126 -29.473  0.00  0.00     0.087 H 
ENDBRANCH   1  45
TORSDOF 11
