REMARK  11 active torsions:
REMARK  status: ('A' for Active; 'I' for Inactive)
REMARK    1  A    between atoms: C1_1  and  C24_24 
REMARK    2  A    between atoms: C2_2  and  C13_13 
REMARK    3  A    between atoms: C3_3  and  C7_7 
REMARK    4  A    between atoms: C4_4  and  C15_15 
REMARK    5  A    between atoms: C5_5  and  C14_14 
REMARK    6  A    between atoms: C15_15  and  C16_16 
REMARK    7  A    between atoms: C15_15  and  O17_17 
REMARK    8  A    between atoms: O17_17  and  C20_20 
REMARK    9  A    between atoms: C20_20  and  C21_21 
REMARK   10  A    between atoms: C20_20  and  C22_22 
REMARK   11  A    between atoms: C20_20  and  C23_23 
ROOT
ATOM      1  C1  LF9 d   1      37.715 -32.578 -27.556  0.00  0.00     0.109 A 
ATOM      2  C2  LF9 d   1      36.937 -31.467 -27.884  0.00  0.00    -0.018 A 
ATOM      3  C3  LF9 d   1      35.641 -31.656 -28.293  0.00  0.00    -0.006 A 
ATOM      4  C4  LF9 d   1      35.144 -32.950 -28.346  0.00  0.00     0.017 A 
ATOM      5  C5  LF9 d   1      35.973 -34.032 -28.041  0.00  0.00     0.042 A 
ATOM      6  N1  LF9 d   1      37.226 -33.817 -27.649  0.00  0.00    -0.249 NA
ENDROOT
BRANCH   4   7
ATOM      7  C15 LF9 d   1      33.723 -33.154 -28.738  0.00  0.00     0.151 C 
ATOM      8  H   LF9 d   1      33.210 -32.184 -28.661  0.00  0.00     0.108 H 
BRANCH   7   9
ATOM      9  C16 LF9 d   1      33.540 -33.654 -30.163  0.00  0.00     0.208 C 
ATOM     10  O18 LF9 d   1      34.321 -33.175 -31.038  0.00  0.00    -0.646 OA
ATOM     11  O19 LF9 d   1      32.612 -34.500 -30.391  0.00  0.00    -0.646 OA
ENDBRANCH   7   9
BRANCH   7  12
ATOM     12  O17 LF9 d   1      33.110 -34.077 -27.794  0.00  0.00    -0.360 OA
BRANCH  12  13
ATOM     13  C20 LF9 d   1      32.489 -33.606 -26.571  0.00  0.00     0.051 C 
BRANCH  13  14
ATOM     14  C21 LF9 d   1      33.568 -33.356 -25.551  0.00  0.00    -0.048 C 
ATOM     15  H   LF9 d   1      33.113 -32.998 -24.616  0.00  0.00     0.031 H 
ATOM     16  H   LF9 d   1      34.266 -32.596 -25.934  0.00  0.00     0.031 H 
ATOM     17  H   LF9 d   1      34.114 -34.291 -25.358  0.00  0.00     0.031 H 
ENDBRANCH  13  14
BRANCH  13  18
ATOM     18  C22 LF9 d   1      31.554 -34.679 -25.995  0.00  0.00    -0.048 C 
ATOM     19  H   LF9 d   1      31.093 -34.305 -25.069  0.00  0.00     0.031 H 
ATOM     20  H   LF9 d   1      32.132 -35.589 -25.775  0.00  0.00     0.031 H 
ATOM     21  H   LF9 d   1      30.768 -34.912 -26.728  0.00  0.00     0.031 H 
ENDBRANCH  13  18
BRANCH  13  22
ATOM     22  C23 LF9 d   1      31.737 -32.303 -26.780  0.00  0.00    -0.048 C 
ATOM     23  H   LF9 d   1      31.284 -31.985 -25.829  0.00  0.00     0.031 H 
ATOM     24  H   LF9 d   1      30.947 -32.452 -27.531  0.00  0.00     0.031 H 
ATOM     25  H   LF9 d   1      32.435 -31.529 -27.131  0.00  0.00     0.031 H 
ENDBRANCH  13  22
ENDBRANCH  12  13
ENDBRANCH   7  12
ENDBRANCH   4   7
BRANCH   3  26
ATOM     26  C7  LF9 d   1      34.764 -30.499 -28.642  0.00  0.00    -0.025 A 
ATOM     27  C8  LF9 d   1      34.184 -29.684 -27.637  0.00  0.00    -0.072 A 
ATOM     28  C9  LF9 d   1      33.327 -28.612 -27.992  0.00  0.00    -0.082 A 
ATOM     29  H   LF9 d   1      34.397 -29.881 -26.593  0.00  0.00     0.084 H 
ATOM     30  C10 LF9 d   1      33.071 -28.324 -29.337  0.00  0.00    -0.083 A 
ATOM     31  H   LF9 d   1      32.867 -28.011 -27.216  0.00  0.00     0.083 H 
ATOM     32  C11 LF9 d   1      33.654 -29.166 -30.324  0.00  0.00    -0.082 A 
ATOM     33  H   LF9 d   1      32.447 -27.484 -29.619  0.00  0.00     0.083 H 
ATOM     34  C12 LF9 d   1      34.486 -30.255 -29.990  0.00  0.00    -0.072 A 
ATOM     35  H   LF9 d   1      33.452 -28.964 -31.370  0.00  0.00     0.083 H 
ATOM     36  H   LF9 d   1      34.902 -30.890 -30.764  0.00  0.00     0.084 H 
ENDBRANCH   3  26
BRANCH   5  37
ATOM     37  C14 LF9 d   1      35.570 -35.484 -28.075  0.00  0.00    -0.035 C 
ATOM     38  H   LF9 d   1      36.428 -36.109 -27.788  0.00  0.00     0.035 H 
ATOM     39  H   LF9 d   1      35.246 -35.751 -29.092  0.00  0.00     0.035 H 
ATOM     40  H   LF9 d   1      34.742 -35.651 -27.370  0.00  0.00     0.035 H 
ENDBRANCH   5  37
BRANCH   2  41
ATOM     41  C13 LF9 d   1      37.519 -30.068 -27.811  0.00  0.00    -0.048 C 
ATOM     42  H   LF9 d   1      38.562 -30.122 -27.465  0.00  0.00     0.033 H 
ATOM     43  H   LF9 d   1      36.930 -29.462 -27.107  0.00  0.00     0.033 H 
ATOM     44  H   LF9 d   1      37.488 -29.605 -28.808  0.00  0.00     0.033 H 
ENDBRANCH   2  41
BRANCH   1  45
ATOM     45  C24 LF9 d   1      39.129 -32.402 -27.130  0.00  0.00     0.158 A 
ATOM     46  N2  LF9 d   1      40.183 -32.627 -27.899  0.00  0.00    -0.337 N 
ATOM     47  C26 LF9 d   1      41.288 -32.333 -27.192  0.00  0.00     0.063 A 
ATOM     48  H   LF9 d   1      40.160 -32.968 -28.871  0.00  0.00     0.167 HD
ATOM     49  C27 LF9 d   1      40.893 -31.910 -25.928  0.00  0.00     0.087 A 
ATOM     50  C29 LF9 d   1      42.640 -32.393 -27.535  0.00  0.00    -0.053 A 
ATOM     51  N3  LF9 d   1      39.548 -31.969 -25.921  0.00  0.00    -0.227 NA
ATOM     52  C30 LF9 d   1      41.856 -31.536 -24.978  0.00  0.00    -0.032 A 
ATOM     53  C32 LF9 d   1      43.215 -31.596 -25.329  0.00  0.00     0.036 A 
ATOM     54  H   LF9 d   1      41.556 -31.206 -23.990  0.00  0.00     0.089 H 
ATOM     55  C31 LF9 d   1      43.604 -32.025 -26.598  0.00  0.00    -0.060 A 
ATOM     56 CL   LF9 d   1      44.522 -31.140 -24.193  0.00  0.00    -0.084 Cl
ATOM     57  H   LF9 d   1      44.656 -32.072 -26.855  0.00  0.00     0.086 H 
ATOM     58  H   LF9 d   1      42.938 -32.724 -28.523  0.00  0.00     0.087 H 
ENDBRANCH   1  45
TORSDOF 11
