REMARK WARNING: 32 MAX_TORS EXCEEDED!!!
REMARK  34 active torsions:
REMARK  status: ('A' for Active; 'I' for Inactive)
REMARK    1  A    between atoms: N_1  and  CA_2 
REMARK    2  A    between atoms: CA_2  and  C_3 
REMARK    3  A    between atoms: CA_2  and  CB_5 
REMARK       I    between atoms: C_3  and  N_6 
REMARK    4  A    between atoms: N_6  and  CA_7 
REMARK    5  A    between atoms: CA_7  and  C_8 
REMARK    6  A    between atoms: CA_7  and  CB_10 
REMARK       I    between atoms: C_8  and  N_17 
REMARK    7  A    between atoms: CB_10  and  CG_11 
REMARK    8  A    between atoms: CG_11  and  CD_12 
REMARK    9  A    between atoms: CD_12  and  NE_13 
REMARK       I    between atoms: NE_13  and  CZ_14 
REMARK       I    between atoms: CZ_14  and  NH1_15 
REMARK   10  A    between atoms: N_17  and  CA_18 
REMARK   11  A    between atoms: CA_18  and  C_19 
REMARK   12  A    between atoms: CA_18  and  CB_21 
REMARK       I    between atoms: C_19  and  N_24 
REMARK   13  A    between atoms: CB_21  and  OG1_22 
REMARK   14  A    between atoms: CB_21  and  CG2_23 
REMARK   15  A    between atoms: N_24  and  CA_25 
REMARK   16  A    between atoms: CA_25  and  CB_26 
REMARK   17  A    between atoms: CA_25  and  C_31 
REMARK   18  A    between atoms: CB_26  and  CG_27 
REMARK   19  A    between atoms: CG_27  and  CD_28 
REMARK   20  A    between atoms: CD_28  and  CE_29 
REMARK   21  A    between atoms: CE_29  and  NZ_30 
REMARK   22  A    between atoms: NZ_30  and  CM1_33 
REMARK   23  A    between atoms: NZ_30  and  CM2_34 
REMARK   24  A    between atoms: NZ_30  and  CM3_35 
REMARK       I    between atoms: C_31  and  N_36 
REMARK   25  A    between atoms: N_36  and  CA_37 
REMARK   26  A    between atoms: CA_37  and  C_38 
REMARK   27  A    between atoms: CA_37  and  CB_40 
REMARK       I    between atoms: C_38  and  N_45 
REMARK   28  A    between atoms: CB_40  and  CG_41 
REMARK   29  A    between atoms: CG_41  and  CD_42 
REMARK       I    between atoms: CD_42  and  NE2_44 
REMARK   30  A    between atoms: N_45  and  CA_46 
REMARK   31  A    between atoms: CA_46  and  C_47 
REMARK   32  A    between atoms: CA_46  and  CB_49 
REMARK   33  A    between atoms: CB_49  and  OG1_50 
REMARK   34  A    between atoms: CB_49  and  CG2_51 
ROOT
ATOM      1  CA  M3L d   1      26.493   4.364  25.897  0.00  0.00     0.089 C 
ATOM      2  H29 M3L d   1      26.768   3.515  25.254  0.00  0.00     0.087 H 
ENDROOT
BRANCH   1   3
ATOM      3  N   M3L d   1      25.069   4.664  25.702  0.00  0.00    -0.346 N 
ATOM      4  C   THR d   1      24.369   4.201  24.662  0.00  0.00     0.243 C 
ATOM      5  O   THR d   1      24.877   3.581  23.728  0.00  0.00    -0.271 OA
ATOM      6  H28 M3L d   1      24.604   5.239  26.375  0.00  0.00     0.163 HD
BRANCH   4   7
ATOM      7  CA  THR d   1      22.856   4.498  24.653  0.00  0.00     0.113 C 
ATOM      8  H22 THR d   1      22.706   5.541  24.970  0.00  0.00     0.091 H 
BRANCH   7   9
ATOM      9  N   THR d   1      22.275   4.350  23.313  0.00  0.00    -0.344 N 
ATOM     10  C   ARG d   1      21.452   5.278  22.791  0.00  0.00     0.241 C 
ATOM     11  O   ARG d   1      21.211   6.376  23.342  0.00  0.00    -0.271 OA
ATOM     12  H21 THR d   1      22.497   3.538  22.774  0.00  0.00     0.163 HD
BRANCH  10  13
ATOM     13  CA  ARG d   1      20.753   4.922  21.495  0.00  0.00     0.089 C 
ATOM     14  H9  ARG d   1      20.982   3.881  21.222  0.00  0.00     0.087 H 
BRANCH  13  15
ATOM     15  N   ARG d   1      19.332   5.081  21.739  0.00  0.00    -0.346 N 
ATOM     16  C   ALA d   1      18.518   4.066  21.996  0.00  0.00     0.248 C 
ATOM     17  O   ALA d   1      18.883   2.890  21.991  0.00  0.00    -0.271 OA
ATOM     18  H8  ARG d   1      18.946   6.003  21.712  0.00  0.00     0.163 HD
BRANCH  16  19
ATOM     19  CA  ALA d   1      17.076   4.437  22.294  0.00  0.00     0.172 C 
ATOM     20  H4  ALA d   1      16.905   5.468  21.951  0.00  0.00     0.098 H 
BRANCH  19  21
ATOM     21  N   ALA d   1      16.128   3.532  21.544  0.00  0.00    -0.067 N 
ATOM     22  H1  ALA d   1      15.177   3.793  21.754  0.00  0.00     0.275 HD
ATOM     23  H2  ALA d   1      16.284   2.576  21.824  0.00  0.00     0.275 HD
ATOM     24  H3  ALA d   1      16.290   3.623  20.553  0.00  0.00     0.275 HD
ENDBRANCH  19  21
BRANCH  19  25
ATOM     25  CB  ALA d   1      16.827   4.388  23.794  0.00  0.00    -0.042 C 
ATOM     26  H5  ALA d   1      17.534   5.058  24.305  0.00  0.00     0.030 H 
ATOM     27  H6  ALA d   1      16.970   3.359  24.156  0.00  0.00     0.030 H 
ATOM     28  H7  ALA d   1      15.797   4.712  24.006  0.00  0.00     0.030 H 
ENDBRANCH  19  25
ENDBRANCH  16  19
ENDBRANCH  13  15
BRANCH  13  29
ATOM     29  CB  ARG d   1      21.165   5.845  20.354  0.00  0.00    -0.036 C 
ATOM     30  H10 ARG d   1      21.159   6.878  20.730  0.00  0.00     0.036 H 
ATOM     31  H11 ARG d   1      20.424   5.744  19.547  0.00  0.00     0.036 H 
BRANCH  29  32
ATOM     32  CG  ARG d   1      22.526   5.565  19.777  0.00  0.00    -0.048 C 
ATOM     33  H12 ARG d   1      22.465   4.696  19.105  0.00  0.00     0.035 H 
ATOM     34  H13 ARG d   1      23.230   5.348  20.594  0.00  0.00     0.035 H 
BRANCH  32  35
ATOM     35  CD  ARG d   1      23.019   6.771  18.995  0.00  0.00     0.009 C 
ATOM     36  H14 ARG d   1      22.867   7.677  19.600  0.00  0.00     0.064 H 
ATOM     37  H15 ARG d   1      22.444   6.853  18.061  0.00  0.00     0.064 H 
BRANCH  35  38
ATOM     38  NE  ARG d   1      24.440   6.646  18.671  0.00  0.00    -0.227 N 
ATOM     39  CZ  ARG d   1      25.196   7.615  18.145  0.00  0.00     0.665 C 
ATOM     40  NH1 ARG d   1      24.685   8.816  17.862  0.00  0.00    -0.235 N 
ATOM     41  NH2 ARG d   1      26.481   7.378  17.895  0.00  0.00    -0.235 N 
ATOM     42  H17 ARG d   1      25.285   9.549  17.457  0.00  0.00     0.174 HD
ATOM     43  H18 ARG d   1      23.691   9.010  18.049  0.00  0.00     0.174 HD
ATOM     44  H19 ARG d   1      26.886   6.455  18.109  0.00  0.00     0.174 HD
ATOM     45  H20 ARG d   1      27.071   8.117  17.487  0.00  0.00     0.174 HD
ATOM     46  H16 ARG d   1      24.893   5.741  18.863  0.00  0.00     0.177 HD
ENDBRANCH  35  38
ENDBRANCH  32  35
ENDBRANCH  29  32
ENDBRANCH  13  29
ENDBRANCH  10  13
ENDBRANCH   7   9
BRANCH   7  47
ATOM     47  CB  THR d   1      22.166   3.576  25.674  0.00  0.00     0.060 C 
ATOM     48  H23 THR d   1      22.611   3.742  26.666  0.00  0.00     0.086 H 
BRANCH  47  49
ATOM     49  OG1 THR d   1      22.374   2.212  25.282  0.00  0.00    -0.393 OA
ATOM     50  H24 THR d   1      22.003   2.072  24.419  0.00  0.00     0.210 HD
ENDBRANCH  47  49
BRANCH  47  51
ATOM     51  CG2 THR d   1      20.667   3.863  25.749  0.00  0.00    -0.050 C 
ATOM     52  H25 THR d   1      20.201   3.191  26.485  0.00  0.00     0.031 H 
ATOM     53  H26 THR d   1      20.212   3.697  24.761  0.00  0.00     0.031 H 
ATOM     54  H27 THR d   1      20.509   4.908  26.055  0.00  0.00     0.031 H 
ENDBRANCH  47  51
ENDBRANCH   7  47
ENDBRANCH   4   7
ENDBRANCH   1   3
BRANCH   1  55
ATOM     55  CB  M3L d   1      27.483   5.533  25.648  0.00  0.00    -0.038 C 
ATOM     56  H30 M3L d   1      28.490   5.169  25.899  0.00  0.00     0.036 H 
ATOM     57  H31 M3L d   1      27.206   6.348  26.333  0.00  0.00     0.036 H 
BRANCH  55  58
ATOM     58  CG  M3L d   1      27.552   6.127  24.236  0.00  0.00    -0.061 C 
ATOM     59  H32 M3L d   1      26.570   6.549  23.976  0.00  0.00     0.033 H 
ATOM     60  H33 M3L d   1      27.809   5.330  23.523  0.00  0.00     0.033 H 
BRANCH  58  61
ATOM     61  CD  M3L d   1      28.618   7.242  24.151  0.00  0.00    -0.042 C 
ATOM     62  H34 M3L d   1      28.781   7.487  23.091  0.00  0.00     0.035 H 
ATOM     63  H35 M3L d   1      29.554   6.863  24.588  0.00  0.00     0.035 H 
BRANCH  61  64
ATOM     64  CE  M3L d   1      28.218   8.544  24.901  0.00  0.00     0.084 C 
ATOM     65  H36 M3L d   1      28.185   8.316  25.977  0.00  0.00     0.076 H 
ATOM     66  H37 M3L d   1      27.214   8.835  24.557  0.00  0.00     0.076 H 
BRANCH  64  67
ATOM     67  NZ  M3L d   1      29.126   9.720  24.710  0.00  0.00    -0.079 N 
BRANCH  67  68
ATOM     68  CM1 M3L d   1      30.543   9.365  24.908  0.00  0.00     0.067 C 
ATOM     69  H38 M3L d   1      31.169  10.257  24.758  0.00  0.00     0.068 H 
ATOM     70  H39 M3L d   1      30.831   8.589  24.184  0.00  0.00     0.068 H 
ATOM     71  H40 M3L d   1      30.686   8.984  25.930  0.00  0.00     0.068 H 
ENDBRANCH  67  68
BRANCH  67  72
ATOM     72  CM2 M3L d   1      28.776  10.749  25.705  0.00  0.00     0.067 C 
ATOM     73  H41 M3L d   1      27.721  11.035  25.581  0.00  0.00     0.068 H 
ATOM     74  H42 M3L d   1      29.415  11.633  25.559  0.00  0.00     0.068 H 
ATOM     75  H43 M3L d   1      28.931  10.348  26.717  0.00  0.00     0.068 H 
ENDBRANCH  67  72
BRANCH  67  76
ATOM     76  CM3 M3L d   1      28.967  10.296  23.361  0.00  0.00     0.067 C 
ATOM     77  H44 M3L d   1      29.225   9.539  22.606  0.00  0.00     0.068 H 
ATOM     78  H45 M3L d   1      29.634  11.164  23.252  0.00  0.00     0.068 H 
ATOM     79  H46 M3L d   1      27.924  10.615  23.219  0.00  0.00     0.068 H 
ENDBRANCH  67  76
ENDBRANCH  64  67
ENDBRANCH  61  64
ENDBRANCH  58  61
ENDBRANCH  55  58
ENDBRANCH   1  55
BRANCH   1  80
ATOM     80  C   M3L d   1      26.659   4.022  27.346  0.00  0.00     0.241 C 
ATOM     81  O   M3L d   1      26.217   4.783  28.228  0.00  0.00    -0.271 OA
ATOM     82  N   GLN d   1      27.317   2.885  27.629  0.00  0.00    -0.346 N 
ATOM     83  H47 GLN d   1      27.610   2.296  26.876  0.00  0.00     0.163 HD
BRANCH  82  84
ATOM     84  CA  GLN d   1      27.627   2.468  29.040  0.00  0.00     0.090 C 
ATOM     85  H48 GLN d   1      26.703   2.527  29.634  0.00  0.00     0.087 H 
BRANCH  84  86
ATOM     86  C   GLN d   1      28.666   3.436  29.641  0.00  0.00     0.241 C 
ATOM     87  O   GLN d   1      29.490   3.965  28.907  0.00  0.00    -0.271 OA
ATOM     88  N   THR d   1      28.624   3.696  30.950  0.00  0.00    -0.343 N 
ATOM     89  H55 THR d   1      27.886   3.321  31.511  0.00  0.00     0.163 HD
BRANCH  88  90
ATOM     90  CA  THR d   1      29.674   4.543  31.573  0.00  0.00     0.120 C 
ATOM     91  H56 THR d   1      30.062   5.212  30.791  0.00  0.00     0.093 H 
BRANCH  90  92
ATOM     92  C   THR d   1      30.839   3.682  32.090  0.00  0.00     0.199 C 
ATOM     93  O   THR d   1      31.982   4.150  32.176  0.00  0.00    -0.646 OA
ATOM     94  O1  THR d   1      30.628   2.487  32.430  0.00  0.00    -0.646 OA
ENDBRANCH  90  92
BRANCH  90  95
ATOM     95  CB  THR d   1      29.143   5.430  32.730  0.00  0.00     0.061 C 
ATOM     96  H57 THR d   1      30.004   5.828  33.287  0.00  0.00     0.086 H 
BRANCH  95  97
ATOM     97  OG1 THR d   1      28.337   4.647  33.625  0.00  0.00    -0.393 OA
ATOM     98  H58 THR d   1      27.600   4.282  33.149  0.00  0.00     0.210 HD
ENDBRANCH  95  97
BRANCH  95  99
ATOM     99  CG2 THR d   1      28.333   6.598  32.194  0.00  0.00    -0.050 C 
ATOM    100  H59 THR d   1      27.970   7.208  33.034  0.00  0.00     0.031 H 
ATOM    101  H60 THR d   1      27.475   6.217  31.620  0.00  0.00     0.031 H 
ATOM    102  H61 THR d   1      28.967   7.215  31.540  0.00  0.00     0.031 H 
ENDBRANCH  95  99
ENDBRANCH  90  95
ENDBRANCH  88  90
ENDBRANCH  84  86
BRANCH  84 103
ATOM    103  CB  GLN d   1      28.153   1.005  29.097  0.00  0.00    -0.030 C 
ATOM    104  H49 GLN d   1      28.329   0.748  30.152  0.00  0.00     0.037 H 
ATOM    105  H50 GLN d   1      29.104   0.964  28.546  0.00  0.00     0.037 H 
BRANCH 103 106
ATOM    106  CG  GLN d   1      27.214  -0.055  28.501  0.00  0.00     0.011 C 
ATOM    107  H51 GLN d   1      27.655  -1.047  28.677  0.00  0.00     0.047 H 
ATOM    108  H52 GLN d   1      27.133   0.123  27.419  0.00  0.00     0.047 H 
BRANCH 106 109
ATOM    109  CD  GLN d   1      25.800  -0.039  29.102  0.00  0.00     0.215 C 
ATOM    110  OE1 GLN d   1      25.619  -0.075  30.348  0.00  0.00    -0.274 OA
ATOM    111  NE2 GLN d   1      24.775   0.003  28.214  0.00  0.00    -0.370 N 
ATOM    112  H53 GLN d   1      23.830   0.015  28.541  0.00  0.00     0.159 HD
ATOM    113  H54 GLN d   1      24.964   0.022  27.232  0.00  0.00     0.159 HD
ENDBRANCH 106 109
ENDBRANCH 103 106
ENDBRANCH  84 103
ENDBRANCH  82  84
ENDBRANCH   1  80
TORSDOF 34
