REMARK  6 active torsions:
REMARK  status: ('A' for Active; 'I' for Inactive)
REMARK    1  A    between atoms: C7_4  and  C6_3 
REMARK    2  A    between atoms: C7_4  and  C9_13 
REMARK    3  A    between atoms: N11_15  and  C7_4 
REMARK    4  A    between atoms: N24_24  and  C20_7 
REMARK    5  A    between atoms: C9_13  and  O10_14 
REMARK       I    between atoms: C12_16  and  N11_15 
REMARK       I    between atoms: N14_18  and  C12_16 
REMARK    6  A    between atoms: N24_24  and  C25_25 
ROOT
ATOM      1  C15 2SH d   1      16.256   5.709  15.826  0.00  0.00     0.003 C 
ATOM      2  C17 2SH d   1      18.482   4.964  15.014  0.00  0.00    -0.011 A 
ATOM      3  C20 2SH d   1      20.654   5.440  13.522  0.00  0.00     0.722 A 
ATOM      4  C22 2SH d   1      18.437   5.899  13.995  0.00  0.00     0.079 A 
ATOM      5  N11 2SH d   1      14.623   7.284  12.923  0.00  0.00    -0.332 N 
ATOM      6  C12 2SH d   1      14.766   6.657  14.113  0.00  0.00     0.319 C 
ATOM      7  O13 2SH d   1      13.784   6.385  14.809  0.00  0.00    -0.247 OA
ATOM      8  N14 2SH d   1      16.028   6.316  14.494  0.00  0.00    -0.328 N 
ATOM      9  C16 2SH d   1      17.291   4.591  15.851  0.00  0.00    -0.023 C 
ATOM     10  C18 2SH d   1      19.668   4.265  15.239  0.00  0.00     0.029 A 
ATOM     11  N19 2SH d   1      20.733   4.534  14.496  0.00  0.00    -0.075 NA
ATOM     12  N21 2SH d   1      19.540   6.123  13.278  0.00  0.00    -0.065 NA
ATOM     13  C23 2SH d   1      17.203   6.701  13.661  0.00  0.00     0.040 C 
ATOM     14  H   2SH d   1      15.300   5.298  16.183  0.00  0.00     0.065 H 
ATOM     15  H   2SH d   1      16.593   6.502  16.510  0.00  0.00     0.065 H 
ATOM     16  H   2SH d   1      15.447   7.421  12.374  0.00  0.00     0.165 HD
ATOM     17  H   2SH d   1      16.841   3.671  15.451  0.00  0.00     0.042 H 
ATOM     18  H   2SH d   1      17.616   4.420  16.888  0.00  0.00     0.042 H 
ATOM     19  H   2SH d   1      19.719   3.509  16.014  0.00  0.00     0.116 H 
ATOM     20  H   2SH d   1      16.953   6.539  12.602  0.00  0.00     0.074 H 
ATOM     21  H   2SH d   1      17.419   7.767  13.828  0.00  0.00     0.074 H 
ENDROOT
BRANCH   5  22
ATOM     22  C7  2SH d   1      13.358   7.778  12.374  0.00  0.00     0.059 C 
ATOM     23  H   2SH d   1      12.498   7.248  12.808  0.00  0.00     0.083 H 
BRANCH  22  24
ATOM     24  C6  2SH d   1      13.323   9.237  12.776  0.00  0.00    -0.032 A 
ATOM     25  C5  2SH d   1      14.383  10.083  12.444  0.00  0.00    -0.051 A 
ATOM     26  C4  2SH d   1      14.398  11.405  12.861  0.00  0.00     0.073 A 
ATOM     27  H   2SH d   1      15.206   9.700  11.851  0.00  0.00     0.087 H 
ATOM     28  C3  2SH d   1      13.377  11.878  13.683  0.00  0.00     0.138 A 
ATOM     29 CL1  2SH d   1      15.715  12.435  12.369  0.00  0.00    -0.081 Cl
ATOM     30  C2  2SH d   1      12.326  11.031  14.039  0.00  0.00    -0.043 A 
ATOM     31  F32 2SH d   1      13.392  13.165  14.104  0.00  0.00    -0.204 F 
ATOM     32  C1  2SH d   1      12.314   9.705  13.611  0.00  0.00    -0.072 A 
ATOM     33  H   2SH d   1      11.515  11.407  14.652  0.00  0.00     0.088 H 
ATOM     34  H   2SH d   1      11.520   9.039  13.928  0.00  0.00     0.084 H 
ENDBRANCH  22  24
BRANCH  22  35
ATOM     35  C9  2SH d   1      13.390   7.541  10.863  0.00  0.00     0.039 C 
ATOM     36  H   2SH d   1      13.505   6.466  10.659  0.00  0.00     0.077 H 
ATOM     37  H   2SH d   1      14.234   8.090  10.420  0.00  0.00     0.077 H 
BRANCH  35  38
ATOM     38  O10 2SH d   1      12.168   8.007  10.302  0.00  0.00    -0.398 OA
ATOM     39  H   2SH d   1      12.177   7.864   9.363  0.00  0.00     0.209 HD
ENDBRANCH  35  38
ENDBRANCH  22  35
ENDBRANCH   5  22
BRANCH   3  40
ATOM     40  N24 2SH d   1      21.798   5.696  12.802  0.00  0.00    -0.218 N 
ATOM     41  H   2SH d   1      22.678   5.258  13.111  0.00  0.00     0.178 HD
BRANCH  40  42
ATOM     42  C25 2SH d   1      21.830   6.559  11.618  0.00  0.00     0.030 C 
ATOM     43  C26 2SH d   1      23.322   6.823  11.306  0.00  0.00    -0.026 C 
ATOM     44  C27 2SH d   1      23.411   7.633  10.005  0.00  0.00     0.021 C 
ATOM     45  H   2SH d   1      23.851   5.866  11.184  0.00  0.00     0.039 H 
ATOM     46  H   2SH d   1      23.778   7.392  12.129  0.00  0.00     0.039 H 
ATOM     47  O28 2SH d   1      22.735   6.899   8.972  0.00  0.00    -0.391 OA
ATOM     48  H   2SH d   1      24.466   7.779   9.729  0.00  0.00     0.074 H 
ATOM     49  H   2SH d   1      22.929   8.612  10.142  0.00  0.00     0.074 H 
ATOM     50  C29 2SH d   1      21.324   6.682   9.149  0.00  0.00     0.021 C 
ATOM     51  C30 2SH d   1      21.112   5.865  10.437  0.00  0.00    -0.026 C 
ATOM     52  H   2SH d   1      20.923   6.127   8.288  0.00  0.00     0.074 H 
ATOM     53  H   2SH d   1      20.808   7.650   9.234  0.00  0.00     0.074 H 
ATOM     54  H   2SH d   1      20.036   5.796  10.653  0.00  0.00     0.039 H 
ATOM     55  H   2SH d   1      21.524   4.854  10.301  0.00  0.00     0.039 H 
ATOM     56  H   2SH d   1      21.323   7.511  11.834  0.00  0.00     0.073 H 
ENDBRANCH  40  42
ENDBRANCH   3  40
TORSDOF 6
