REMARK  10 active torsions:
REMARK  status: ('A' for Active; 'I' for Inactive)
REMARK    1  A    between atoms: N12_2  and  C13_3 
REMARK    2  A    between atoms: C11_19  and  N12_2 
REMARK    3  A    between atoms: C13_3  and  C14_20 
REMARK    4  A    between atoms: C26_8  and  C27_28 
REMARK    5  A    between atoms: C27_28  and  C28_9 
REMARK    6  A    between atoms: C28_9  and  O29_29 
REMARK    7  A    between atoms: C02_11  and  C01_10 
REMARK    8  A    between atoms: C03_12  and  C02_11 
REMARK    9  A    between atoms: C09_18  and  N21_25 
REMARK   10  A    between atoms: N18_22  and  O20_24 
ROOT
ATOM      1  C10 1QK d   1      30.694 -33.634 -21.574  0.00  0.00     0.005 A 
ATOM      2  C03 1QK d   1      29.041 -31.624 -18.434  0.00  0.00     0.009 A 
ATOM      3  C04 1QK d   1      30.171 -31.436 -17.675  0.00  0.00     0.032 A 
ATOM      4  N05 1QK d   1      31.207 -32.021 -18.337  0.00  0.00    -0.176 NA
ATOM      5  N06 1QK d   1      30.702 -32.501 -19.500  0.00  0.00    -0.199 N 
ATOM      6  C07 1QK d   1      29.396 -32.306 -19.570  0.00  0.00     0.163 A 
ATOM      7  N08 1QK d   1      28.685 -32.717 -20.639  0.00  0.00    -0.211 NA
ATOM      8  C09 1QK d   1      29.366 -33.386 -21.612  0.00  0.00     0.132 A 
ATOM      9  C11 1QK d   1      31.360 -33.192 -20.475  0.00  0.00     0.131 A 
ATOM     10  H   1QK d   1      31.203 -34.160 -22.381  0.00  0.00     0.095 H 
ATOM     11  H   1QK d   1      30.227 -30.915 -16.720  0.00  0.00     0.118 H 
ENDROOT
BRANCH   8  12
ATOM     12  N21 1QK d   1      28.508 -33.742 -22.741  0.00  0.00    -0.361 N 
ATOM     13  C22 1QK d   1      28.973 -34.724 -23.678  0.00  0.00    -0.003 C 
ATOM     14  C23 1QK d   1      29.133 -34.064 -25.005  0.00  0.00    -0.050 C 
ATOM     15  H   1QK d   1      28.241 -35.541 -23.755  0.00  0.00     0.064 H 
ATOM     16  H   1QK d   1      29.940 -35.128 -23.344  0.00  0.00     0.064 H 
ATOM     17  C24 1QK d   1      27.900 -33.387 -25.435  0.00  0.00    -0.062 C 
ATOM     18  H   1QK d   1      29.398 -34.827 -25.752  0.00  0.00     0.035 H 
ATOM     19  H   1QK d   1      29.941 -33.321 -24.937  0.00  0.00     0.035 H 
ATOM     20  C25 1QK d   1      27.326 -32.488 -24.413  0.00  0.00    -0.046 C 
ATOM     21  H   1QK d   1      27.151 -34.154 -25.682  0.00  0.00     0.033 H 
ATOM     22  H   1QK d   1      28.126 -32.792 -26.332  0.00  0.00     0.033 H 
ATOM     23  C26 1QK d   1      27.253 -33.069 -23.059  0.00  0.00     0.015 C 
ATOM     24  H   1QK d   1      26.307 -32.218 -24.726  0.00  0.00     0.036 H 
ATOM     25  H   1QK d   1      27.947 -31.581 -24.365  0.00  0.00     0.036 H 
ATOM     26  H   1QK d   1      27.145 -32.224 -22.363  0.00  0.00     0.072 H 
BRANCH  23  27
ATOM     27  C27 1QK d   1      26.077 -33.989 -22.795  0.00  0.00    -0.026 C 
ATOM     28  H   1QK d   1      26.113 -34.819 -23.516  0.00  0.00     0.039 H 
ATOM     29  H   1QK d   1      25.147 -33.419 -22.938  0.00  0.00     0.039 H 
BRANCH  27  30
ATOM     30  C28 1QK d   1      26.078 -34.562 -21.404  0.00  0.00     0.019 C 
ATOM     31  H   1QK d   1      27.023 -35.105 -21.259  0.00  0.00     0.074 H 
ATOM     32  H   1QK d   1      25.235 -35.264 -21.324  0.00  0.00     0.074 H 
BRANCH  30  33
ATOM     33  O29 1QK d   1      25.960 -33.640 -20.398  0.00  0.00    -0.401 OA
ATOM     34  H   1QK d   1      26.687 -33.030 -20.442  0.00  0.00     0.209 HD
ENDBRANCH  30  33
ENDBRANCH  27  30
ENDBRANCH  23  27
ENDBRANCH   8  12
BRANCH   9  35
ATOM     35  N12 1QK d   1      32.746 -33.325 -20.274  0.00  0.00    -0.371 N 
ATOM     36  H   1QK d   1      33.175 -32.956 -19.413  0.00  0.00     0.161 HD
BRANCH  35  37
ATOM     37  C13 1QK d   1      33.587 -33.986 -21.281  0.00  0.00     0.016 C 
ATOM     38  H   1QK d   1      32.950 -34.692 -21.835  0.00  0.00     0.070 H 
ATOM     39  H   1QK d   1      34.371 -34.542 -20.746  0.00  0.00     0.070 H 
BRANCH  37  40
ATOM     40  C14 1QK d   1      34.286 -33.070 -22.320  0.00  0.00    -0.042 A 
ATOM     41  C15 1QK d   1      35.669 -33.269 -22.615  0.00  0.00    -0.076 A 
ATOM     42  C16 1QK d   1      36.238 -32.477 -23.579  0.00  0.00    -0.066 A 
ATOM     43  H   1QK d   1      36.253 -34.025 -22.092  0.00  0.00     0.084 H 
ATOM     44  C17 1QK d   1      35.488 -31.517 -24.193  0.00  0.00     0.003 A 
ATOM     45  H   1QK d   1      37.283 -32.614 -23.853  0.00  0.00     0.085 H 
ATOM     46  N18 1QK d   1      34.157 -31.332 -23.931  0.00  0.00    -0.268 N 
ATOM     47  H   1QK d   1      35.969 -30.869 -24.924  0.00  0.00     0.114 H 
ATOM     48  C19 1QK d   1      33.595 -32.098 -23.000  0.00  0.00     0.041 A 
ATOM     49  H   1QK d   1      33.206 -31.410 -22.235  0.00  0.00     0.074 H 
ATOM     50  H   1QK d   1      32.756 -32.610 -23.494  0.00  0.00     0.074 H 
BRANCH  46  51
ATOM     51  O20 1QK d   1      33.487 -30.387 -24.587  0.00  0.00    -0.288 OA
ATOM     52  H   1QK d   1      32.761 -30.782 -25.056  0.00  0.00     0.244 HD
ENDBRANCH  46  51
ENDBRANCH  37  40
ENDBRANCH  35  37
ENDBRANCH   9  35
BRANCH   2  53
ATOM     53  C02 1QK d   1      27.661 -31.205 -18.189  0.00  0.00    -0.039 C 
ATOM     54  H   1QK d   1      27.236 -30.845 -19.137  0.00  0.00     0.039 H 
ATOM     55  H   1QK d   1      27.091 -32.079 -17.840  0.00  0.00     0.039 H 
BRANCH  53  56
ATOM     56  C01 1QK d   1      27.529 -30.147 -17.197  0.00  0.00    -0.072 C 
ATOM     57  H   1QK d   1      26.466 -29.892 -17.072  0.00  0.00     0.028 H 
ATOM     58  H   1QK d   1      28.083 -29.258 -17.533  0.00  0.00     0.028 H 
ATOM     59  H   1QK d   1      27.938 -30.492 -16.236  0.00  0.00     0.028 H 
ENDBRANCH  53  56
ENDBRANCH   2  53
TORSDOF 10
