REMARK  6 active torsions:
REMARK  status: ('A' for Active; 'I' for Inactive)
REMARK    1  A    between atoms: C1_1  and  N1_2 
REMARK    2  A    between atoms: C14_5  and  C8_8 
REMARK    3  A    between atoms: C13_6  and  O3_28 
REMARK    4  A    between atoms: C2_11  and  C21_21 
REMARK    5  A    between atoms: C5_16  and  O5_17 
REMARK    6  A    between atoms: C7_19  and  O7_20 
ROOT
ATOM      1  C8  CPB d   1      24.459 100.227  32.671  0.00  0.00     0.017 A 
ATOM      2  C9  CPB d   1      23.845  99.114  33.291  0.00  0.00     0.102 A 
ATOM      3  O1  CPB d   1      23.975  97.901  32.692  0.00  0.00    -0.308 OA
ATOM      4  C2  CPB d   1      23.388  96.768  33.169  0.00  0.00     0.091 A 
ATOM      5  C3  CPB d   1      22.653  96.820  34.364  0.00  0.00    -0.000 A 
ATOM      6  C4  CPB d   1      22.506  98.054  35.056  0.00  0.00     0.190 A 
ATOM      7  O4  CPB d   1      21.825  98.131  36.133  0.00  0.00    -0.287 OA
ATOM      8  C10 CPB d   1      23.112  99.215  34.505  0.00  0.00     0.082 A 
ATOM      9  C5  CPB d   1      23.004 100.482  35.098  0.00  0.00     0.085 A 
ATOM     10  C6  CPB d   1      23.604 101.580  34.495  0.00  0.00    -0.017 A 
ATOM     11  C7  CPB d   1      24.328 101.478  33.309  0.00  0.00     0.077 A 
ATOM     12  H   CPB d   1      22.195  95.915  34.761  0.00  0.00     0.094 H 
ATOM     13  H   CPB d   1      23.505 102.552  34.964  0.00  0.00     0.092 H 
ENDROOT
BRANCH   1  14
ATOM     14  C14 CPB d   1      25.195 100.042  31.366  0.00  0.00     0.005 C 
ATOM     15  C15 CPB d   1      24.375 100.619  30.169  0.00  0.00    -0.033 C 
ATOM     16  C16 CPB d   1      25.038 100.295  28.818  0.00  0.00     0.084 C 
ATOM     17  H   CPB d   1      23.366 100.183  30.185  0.00  0.00     0.036 H 
ATOM     18  H   CPB d   1      24.304 101.711  30.279  0.00  0.00     0.036 H 
ATOM     19  N1  CPB d   1      26.467 100.719  28.815  0.00  0.00    -0.072 N 
ATOM     20  H   CPB d   1      24.983  99.211  28.640  0.00  0.00     0.076 H 
ATOM     21  H   CPB d   1      24.503 100.826  28.017  0.00  0.00     0.076 H 
ATOM     22  C12 CPB d   1      27.262 100.083  29.910  0.00  0.00     0.107 C 
ATOM     23  H   CPB d   1      26.490 101.716  28.959  0.00  0.00     0.279 HD
ATOM     24  C13 CPB d   1      26.673 100.474  31.266  0.00  0.00     0.066 C 
ATOM     25  H   CPB d   1      28.305 100.426  29.852  0.00  0.00     0.080 H 
ATOM     26  H   CPB d   1      27.229  98.989  29.798  0.00  0.00     0.080 H 
ATOM     27  H   CPB d   1      27.239  99.966  32.061  0.00  0.00     0.086 H 
ATOM     28  H   CPB d   1      25.218  98.952  31.220  0.00  0.00     0.051 H 
BRANCH  19  29
ATOM     29  C1  CPB d   1      27.090 100.427  27.501  0.00  0.00     0.066 C 
ATOM     30  H   CPB d   1      26.499 100.898  26.702  0.00  0.00     0.068 H 
ATOM     31  H   CPB d   1      27.119  99.339  27.343  0.00  0.00     0.068 H 
ATOM     32  H   CPB d   1      28.114 100.827  27.484  0.00  0.00     0.068 H 
ENDBRANCH  19  29
BRANCH  24  33
ATOM     33  O3  CPB d   1      26.805 101.876  31.433  0.00  0.00    -0.393 OA
ATOM     34  H   CPB d   1      27.724 102.112  31.400  0.00  0.00     0.210 HD
ENDBRANCH  24  33
ENDBRANCH   1  14
BRANCH  11  35
ATOM     35  O7  CPB d   1      24.856 102.601  32.781  0.00  0.00    -0.360 OA
ATOM     36  H   CPB d   1      24.159 103.217  32.589  0.00  0.00     0.217 HD
ENDBRANCH  11  35
BRANCH   4  37
ATOM     37  C21 CPB d   1      23.609  95.600  32.397  0.00  0.00     0.020 A 
ATOM     38  C22 CPB d   1      23.511  95.598  30.972  0.00  0.00     0.047 A 
ATOM     39 CL1  CPB d   1      23.076  96.975  30.081  0.00  0.00    -0.083 Cl
ATOM     40  C23 CPB d   1      23.754  94.415  30.259  0.00  0.00    -0.061 A 
ATOM     41  C24 CPB d   1      24.082  93.238  30.925  0.00  0.00    -0.081 A 
ATOM     42  H   CPB d   1      23.686  94.418  29.177  0.00  0.00     0.086 H 
ATOM     43  C25 CPB d   1      24.178  93.235  32.313  0.00  0.00    -0.082 A 
ATOM     44  H   CPB d   1      24.262  92.328  30.365  0.00  0.00     0.083 H 
ATOM     45  C26 CPB d   1      23.941  94.404  33.030  0.00  0.00    -0.069 A 
ATOM     46  H   CPB d   1      24.438  92.322  32.836  0.00  0.00     0.083 H 
ATOM     47  H   CPB d   1      24.017  94.383  34.111  0.00  0.00     0.085 H 
ENDBRANCH   4  37
BRANCH   9  48
ATOM     48  O5  CPB d   1      22.302 100.652  36.236  0.00  0.00    -0.360 OA
ATOM     49  H   CPB d   1      22.679 100.115  36.923  0.00  0.00     0.217 HD
ENDBRANCH   9  48
TORSDOF 6
