REMARK  2 active torsions:
REMARK  status: ('A' for Active; 'I' for Inactive)
REMARK    1  A    between atoms: C05_5  and  C06_6 
REMARK    2  A    between atoms: C23_23  and  N24_24 
ROOT
ATOM      1  O01 2R4 d   1     129.252  -3.979   0.104  0.00  0.00    -0.287 OA
ATOM      2  C02 2R4 d   1     128.211  -4.658  -0.097  0.00  0.00     0.189 A 
ATOM      3  C03 2R4 d   1     126.997  -4.400   0.589  0.00  0.00     0.049 A 
ATOM      4  C04 2R4 d   1     125.842  -5.180   0.307  0.00  0.00     0.103 A 
ATOM      5  C05 2R4 d   1     124.580  -4.940   0.917  0.00  0.00     0.010 A 
ATOM      6  C19 2R4 d   1     124.519  -3.938   1.896  0.00  0.00    -0.069 A 
ATOM      7  C20 2R4 d   1     125.640  -3.135   2.177  0.00  0.00    -0.081 A 
ATOM      8  C21 2R4 d   1     126.859  -3.355   1.528  0.00  0.00    -0.066 A 
ATOM      9  O22 2R4 d   1     125.964  -6.160  -0.621  0.00  0.00    -0.292 OA
ATOM     10  C23 2R4 d   1     127.076  -6.387  -1.360  0.00  0.00     0.150 A 
ATOM     11  C30 2R4 d   1     128.235  -5.630  -1.101  0.00  0.00     0.016 A 
ATOM     12  H   2R4 d   1     123.597  -3.780   2.443  0.00  0.00     0.085 H 
ATOM     13  H   2R4 d   1     125.558  -2.336   2.905  0.00  0.00     0.083 H 
ATOM     14  H   2R4 d   1     127.707  -2.716   1.748  0.00  0.00     0.085 H 
ATOM     15  H   2R4 d   1     129.143  -5.801  -1.678  0.00  0.00     0.096 H 
ENDROOT
BRANCH   5  16
ATOM     16  C06 2R4 d   1     123.469  -5.771   0.579  0.00  0.00    -0.005 A 
ATOM     17  C07 2R4 d   1     123.025  -5.905  -0.759  0.00  0.00    -0.071 A 
ATOM     18  C08 2R4 d   1     121.941  -6.740  -1.101  0.00  0.00    -0.081 A 
ATOM     19  H   2R4 d   1     123.532  -5.351  -1.541  0.00  0.00     0.084 H 
ATOM     20  C09 2R4 d   1     121.270  -7.470  -0.112  0.00  0.00    -0.071 A 
ATOM     21  H   2R4 d   1     121.626  -6.817  -2.135  0.00  0.00     0.083 H 
ATOM     22  C10 2R4 d   1     121.693  -7.358   1.233  0.00  0.00    -0.007 A 
ATOM     23  H   2R4 d   1     120.437  -8.113  -0.374  0.00  0.00     0.084 H 
ATOM     24  C11 2R4 d   1     122.779  -6.512   1.540  0.00  0.00     0.028 A 
ATOM     25  C14 2R4 d   1     121.175  -8.027   2.363  0.00  0.00    -0.007 A 
ATOM     26  S12 2R4 d   1     123.079  -6.523   3.273  0.00  0.00    -0.088 SA
ATOM     27  C13 2R4 d   1     121.830  -7.713   3.569  0.00  0.00     0.016 A 
ATOM     28  C18 2R4 d   1     121.471  -8.282   4.799  0.00  0.00    -0.066 A 
ATOM     29  C17 2R4 d   1     120.412  -9.192   4.819  0.00  0.00    -0.082 A 
ATOM     30  H   2R4 d   1     122.001  -8.023   5.709  0.00  0.00     0.085 H 
ATOM     31  C16 2R4 d   1     119.736  -9.516   3.631  0.00  0.00    -0.082 A 
ATOM     32  H   2R4 d   1     120.111  -9.650   5.754  0.00  0.00     0.083 H 
ATOM     33  C15 2R4 d   1     120.122  -8.965   2.403  0.00  0.00    -0.071 A 
ATOM     34  H   2R4 d   1     118.900 -10.205   3.666  0.00  0.00     0.083 H 
ATOM     35  H   2R4 d   1     119.616  -9.257   1.490  0.00  0.00     0.084 H 
ENDBRANCH   5  16
BRANCH  10  36
ATOM     36  N24 2R4 d   1     126.927  -7.331  -2.333  0.00  0.00    -0.357 N 
ATOM     37  C25 2R4 d   1     125.675  -8.048  -2.494  0.00  0.00     0.017 C 
ATOM     38  C26 2R4 d   1     125.144  -7.837  -3.923  0.00  0.00     0.034 C 
ATOM     39  H   2R4 d   1     124.939  -7.669  -1.770  0.00  0.00     0.067 H 
ATOM     40  H   2R4 d   1     125.842  -9.121  -2.319  0.00  0.00     0.067 H 
ATOM     41  O27 2R4 d   1     126.177  -8.174  -4.859  0.00  0.00    -0.388 OA
ATOM     42  H   2R4 d   1     124.854  -6.785  -4.057  0.00  0.00     0.076 H 
ATOM     43  H   2R4 d   1     124.269  -8.483  -4.091  0.00  0.00     0.076 H 
ATOM     44  C28 2R4 d   1     127.322  -7.327  -4.701  0.00  0.00     0.034 C 
ATOM     45  C29 2R4 d   1     127.951  -7.588  -3.325  0.00  0.00     0.017 C 
ATOM     46  H   2R4 d   1     127.014  -6.273  -4.772  0.00  0.00     0.076 H 
ATOM     47  H   2R4 d   1     128.056  -7.548  -5.490  0.00  0.00     0.076 H 
ATOM     48  H   2R4 d   1     128.289  -8.633  -3.257  0.00  0.00     0.067 H 
ATOM     49  H   2R4 d   1     128.806  -6.915  -3.167  0.00  0.00     0.067 H 
ENDBRANCH  10  36
TORSDOF 2
