REMARK  11 active torsions:
REMARK  status: ('A' for Active; 'I' for Inactive)
REMARK    1  A    between atoms: N3_2  and  C8_7 
REMARK    2  A    between atoms: C5_4  and  C9_34 
REMARK    3  A    between atoms: N5_28  and  C7_6 
REMARK    4  A    between atoms: C9_34  and  C10_8 
REMARK       I    between atoms: C21_13  and  N6_18 
REMARK    5  A    between atoms: C18_23  and  C21_13 
REMARK    6  A    between atoms: N6_18  and  C22_14 
REMARK    7  A    between atoms: N7_20  and  C30_21 
REMARK    8  A    between atoms: C16_24  and  O3_25 
REMARK    9  A    between atoms: O3_25  and  C31_26 
REMARK   10  A    between atoms: C1_29  and  N5_28 
REMARK   11  A    between atoms: N4_36  and  C11_37 
ROOT
ATOM      1  N5  R78 d   1      -0.154  -5.874 -21.481  0.00  0.00    -0.185 N 
ATOM      2  H   R78 d   1      -0.299  -4.895 -21.197  0.00  0.00     0.184 HD
ENDROOT
BRANCH   1   3
ATOM      3  C7  R78 d   1      -0.825  -6.288 -22.665  0.00  0.00     0.082 A 
ATOM      4  C20 R78 d   1      -0.782  -7.524 -23.241  0.00  0.00    -0.053 A 
ATOM      5  C19 R78 d   1      -1.515  -7.736 -24.412  0.00  0.00    -0.065 A 
ATOM      6  H   R78 d   1      -0.194  -8.322 -22.802  0.00  0.00     0.087 H 
ATOM      7  C18 R78 d   1      -2.272  -6.705 -24.964  0.00  0.00     0.034 A 
ATOM      8  H   R78 d   1      -1.494  -8.707 -24.893  0.00  0.00     0.085 H 
ATOM      9  C17 R78 d   1      -2.288  -5.452 -24.375  0.00  0.00    -0.033 A 
ATOM     10  C16 R78 d   1      -1.577  -5.262 -23.225  0.00  0.00     0.096 A 
ATOM     11  H   R78 d   1      -2.853  -4.639 -24.817  0.00  0.00     0.089 H 
BRANCH   7  12
ATOM     12  C21 R78 d   1      -3.076  -6.887 -26.240  0.00  0.00     0.252 C 
ATOM     13  O2  R78 d   1      -3.809  -5.993 -26.638  0.00  0.00    -0.268 OA
ATOM     14  N6  R78 d   1      -2.934  -8.121 -26.948  0.00  0.00    -0.352 N 
ATOM     15  H   R78 d   1      -2.342  -8.841 -26.586  0.00  0.00     0.163 HD
BRANCH  14  16
ATOM     16  C22 R78 d   1      -3.667  -8.331 -28.221  0.00  0.00     0.015 C 
ATOM     17  C29 R78 d   1      -4.870  -9.113 -28.043  0.00  0.00    -0.023 C 
ATOM     18  C28 R78 d   1      -5.552  -9.343 -29.377  0.00  0.00     0.085 C 
ATOM     19  H   R78 d   1      -5.556  -8.575 -27.373  0.00  0.00     0.038 H 
ATOM     20  H   R78 d   1      -4.609 -10.084 -27.597  0.00  0.00     0.038 H 
ATOM     21  N7  R78 d   1      -4.659  -9.921 -30.298  0.00  0.00    -0.075 N 
ATOM     22  H   R78 d   1      -5.906  -8.380 -29.773  0.00  0.00     0.076 H 
ATOM     23  H   R78 d   1      -6.409 -10.017 -29.233  0.00  0.00     0.076 H 
ATOM     24  C24 R78 d   1      -3.474  -9.103 -30.458  0.00  0.00     0.085 C 
ATOM     25  H   R78 d   1      -4.368 -10.807 -29.916  0.00  0.00     0.279 HD
ATOM     26  C23 R78 d   1      -2.767  -8.901 -29.152  0.00  0.00    -0.023 C 
ATOM     27  H   R78 d   1      -3.768  -8.123 -30.861  0.00  0.00     0.076 H 
ATOM     28  H   R78 d   1      -2.790  -9.599 -31.162  0.00  0.00     0.076 H 
ATOM     29  H   R78 d   1      -2.410  -9.870 -28.773  0.00  0.00     0.038 H 
ATOM     30  H   R78 d   1      -1.911  -8.226 -29.297  0.00  0.00     0.038 H 
ATOM     31  H   R78 d   1      -3.975  -7.347 -28.605  0.00  0.00     0.072 H 
BRANCH  21  32
ATOM     32  C30 R78 d   1      -5.188 -10.149 -31.391  0.00  0.00     0.066 C 
ATOM     33  H   R78 d   1      -4.448 -10.598 -32.070  0.00  0.00     0.068 H 
ATOM     34  H   R78 d   1      -5.557  -9.207 -31.823  0.00  0.00     0.068 H 
ATOM     35  H   R78 d   1      -6.029 -10.844 -31.253  0.00  0.00     0.068 H 
ENDBRANCH  21  32
ENDBRANCH  14  16
ENDBRANCH   7  12
BRANCH  10  36
ATOM     36  O3  R78 d   1      -1.541  -4.023 -22.549  0.00  0.00    -0.354 OA
BRANCH  36  37
ATOM     37  C31 R78 d   1      -2.342  -2.974 -23.148  0.00  0.00     0.010 C 
ATOM     38  H   R78 d   1      -2.248  -2.055 -22.551  0.00  0.00     0.066 H 
ATOM     39  H   R78 d   1      -3.396  -3.287 -23.175  0.00  0.00     0.066 H 
ATOM     40  H   R78 d   1      -1.990  -2.784 -24.173  0.00  0.00     0.066 H 
ENDBRANCH  36  37
ENDBRANCH  10  36
ENDBRANCH   1   3
BRANCH   1  41
ATOM     41  C1  R78 d   1       0.663  -6.622 -20.672  0.00  0.00     0.728 A 
ATOM     42  N1  R78 d   1       1.315  -5.951 -19.677  0.00  0.00    -0.073 NA
ATOM     43  C4  R78 d   1       2.158  -6.594 -18.854  0.00  0.00     0.051 A 
ATOM     44  C3  R78 d   1       2.326  -7.988 -18.995  0.00  0.00     0.102 A 
ATOM     45  H   R78 d   1       2.703  -6.050 -18.091  0.00  0.00     0.119 H 
ATOM     46  C2  R78 d   1       1.605  -8.648 -20.003  0.00  0.00     0.174 A 
ATOM     47  N4  R78 d   1       3.255  -8.715 -18.178  0.00  0.00    -0.316 N 
ATOM     48  N3  R78 d   1       1.758 -10.101 -20.163  0.00  0.00    -0.345 N 
ATOM     49  N2  R78 d   1       0.815  -7.975 -20.842  0.00  0.00    -0.043 NA
ATOM     50  C5  R78 d   1       2.252 -10.855 -19.073  0.00  0.00     0.091 C 
ATOM     51  C6  R78 d   1       3.262 -10.079 -18.180  0.00  0.00     0.247 C 
ATOM     52  H   R78 d   1       2.782 -11.717 -19.503  0.00  0.00     0.087 H 
ATOM     53  O1  R78 d   1       4.048 -10.722 -17.496  0.00  0.00    -0.271 OA
BRANCH  48  54
ATOM     54  C8  R78 d   1       0.998 -10.640 -21.343  0.00  0.00     0.014 C 
ATOM     55  C15 R78 d   1      -0.485 -10.782 -21.276  0.00  0.00    -0.046 C 
ATOM     56  C14 R78 d   1      -0.792 -11.566 -22.533  0.00  0.00    -0.063 C 
ATOM     57  H   R78 d   1      -0.980  -9.800 -21.288  0.00  0.00     0.036 H 
ATOM     58  H   R78 d   1      -0.792 -11.336 -20.377  0.00  0.00     0.036 H 
ATOM     59  C13 R78 d   1       0.478 -12.403 -22.784  0.00  0.00    -0.063 C 
ATOM     60  H   R78 d   1      -1.664 -12.219 -22.381  0.00  0.00     0.033 H 
ATOM     61  H   R78 d   1      -0.984 -10.888 -23.377  0.00  0.00     0.033 H 
ATOM     62  C12 R78 d   1       1.480 -12.007 -21.695  0.00  0.00    -0.046 C 
ATOM     63  H   R78 d   1       0.890 -12.180 -23.779  0.00  0.00     0.033 H 
ATOM     64  H   R78 d   1       0.246 -13.476 -22.715  0.00  0.00     0.033 H 
ATOM     65  H   R78 d   1       1.428 -12.688 -20.832  0.00  0.00     0.036 H 
ATOM     66  H   R78 d   1       2.509 -11.984 -22.083  0.00  0.00     0.036 H 
ATOM     67  H   R78 d   1       1.218  -9.958 -22.177  0.00  0.00     0.072 H 
ENDBRANCH  48  54
BRANCH  50  68
ATOM     68  C9  R78 d   1       1.129 -11.403 -18.145  0.00  0.00    -0.041 C 
ATOM     69  H   R78 d   1       1.594 -12.059 -17.394  0.00  0.00     0.036 H 
ATOM     70  H   R78 d   1       0.431 -11.989 -18.761  0.00  0.00     0.036 H 
BRANCH  68  71
ATOM     71  C10 R78 d   1       0.330 -10.332 -17.410  0.00  0.00    -0.074 C 
ATOM     72  H   R78 d   1      -0.436 -10.812 -16.783  0.00  0.00     0.027 H 
ATOM     73  H   R78 d   1      -0.157  -9.671 -18.142  0.00  0.00     0.027 H 
ATOM     74  H   R78 d   1       1.006  -9.741 -16.775  0.00  0.00     0.027 H 
ENDBRANCH  68  71
ENDBRANCH  50  68
BRANCH  47  75
ATOM     75  C11 R78 d   1       4.221  -7.987 -17.372  0.00  0.00    -0.011 C 
ATOM     76  H   R78 d   1       4.846  -8.701 -16.816  0.00  0.00     0.057 H 
ATOM     77  H   R78 d   1       3.690  -7.335 -16.663  0.00  0.00     0.057 H 
ATOM     78  H   R78 d   1       4.858  -7.375 -18.027  0.00  0.00     0.057 H 
ENDBRANCH  47  75
ENDBRANCH   1  41
TORSDOF 11
