REMARK  15 active torsions:
REMARK  status: ('A' for Active; 'I' for Inactive)
REMARK    1  A    between atoms: C05_5  and  N28_28 
REMARK    2  A    between atoms: C07_7  and  N08_8 
REMARK    3  A    between atoms: N08_8  and  C09_9 
REMARK    4  A    between atoms: N12_12  and  C22_22 
REMARK    5  A    between atoms: C15_15  and  C20_20 
REMARK    6  A    between atoms: C15_15  and  C21_21 
REMARK    7  A    between atoms: C22_22  and  O23_23 
REMARK    8  A    between atoms: O23_23  and  P24_24 
REMARK    9  A    between atoms: N28_28  and  C29_29 
REMARK   10  A    between atoms: C31_31  and  O32_32 
REMARK   11  A    between atoms: O32_32  and  C33_33 
REMARK   12  A    between atoms: C34_34  and  O35_35 
REMARK   13  A    between atoms: O35_35  and  C36_36 
REMARK   14  A    between atoms: C37_37  and  O38_38 
REMARK   15  A    between atoms: O38_38  and  C39_39 
ROOT
ATOM      1  F01 2RC d   1      14.930  -1.928  13.240  0.00  0.00    -0.200 F 
ATOM      2  C02 2RC d   1      14.784  -0.925  12.337  0.00  0.00     0.180 A 
ATOM      3  C03 2RC d   1      13.865   0.089  12.541  0.00  0.00     0.062 A 
ATOM      4  N04 2RC d   1      13.722   1.094  11.610  0.00  0.00    -0.072 NA
ATOM      5  C05 2RC d   1      14.521   1.070  10.524  0.00  0.00     0.728 A 
ATOM      6  N06 2RC d   1      15.435   0.077  10.323  0.00  0.00    -0.042 NA
ATOM      7  C07 2RC d   1      15.598  -0.919  11.188  0.00  0.00     0.188 A 
ATOM      8  H   2RC d   1      13.255   0.092  13.437  0.00  0.00     0.120 H 
ENDROOT
BRANCH   7   9
ATOM      9  N08 2RC d   1      16.566  -1.962  10.952  0.00  0.00    -0.323 N 
ATOM     10  H   2RC d   1      16.380  -2.919  11.285  0.00  0.00     0.169 HD
BRANCH   9  11
ATOM     11  C09 2RC d   1      17.779  -1.674  10.260  0.00  0.00     0.131 A 
ATOM     12  N10 2RC d   1      18.914  -2.249  10.717  0.00  0.00    -0.210 NA
ATOM     13  C11 2RC d   1      20.108  -2.022  10.095  0.00  0.00     0.170 A 
ATOM     14  N12 2RC d   1      21.261  -2.627  10.569  0.00  0.00    -0.274 N 
ATOM     15  C17 2RC d   1      20.188  -1.170   8.982  0.00  0.00     0.117 A 
ATOM     16  C13 2RC d   1      22.457  -2.344  10.170  0.00  0.00     0.262 C 
ATOM     17  O14 2RC d   1      23.388  -2.917  10.630  0.00  0.00    -0.269 OA
ATOM     18  C15 2RC d   1      22.715  -1.304   9.120  0.00  0.00     0.141 C 
ATOM     19  O16 2RC d   1      21.564  -0.898   8.321  0.00  0.00    -0.327 OA
ATOM     20  C18 2RC d   1      19.040  -0.557   8.483  0.00  0.00    -0.043 A 
ATOM     21  C19 2RC d   1      17.817  -0.815   9.144  0.00  0.00    -0.036 A 
ATOM     22  H   2RC d   1      19.083   0.095   7.618  0.00  0.00     0.088 H 
ATOM     23  H   2RC d   1      16.904  -0.350   8.790  0.00  0.00     0.089 H 
BRANCH  14  24
ATOM     24  C22 2RC d   1      21.070  -3.682  11.507  0.00  0.00     0.101 C 
ATOM     25  H   2RC d   1      21.849  -4.440  11.338  0.00  0.00     0.109 H 
ATOM     26  H   2RC d   1      20.080  -4.127  11.330  0.00  0.00     0.109 H 
BRANCH  24  27
ATOM     27  O23 2RC d   1      21.136  -3.276  12.839  0.00  0.00    -0.262 OA
BRANCH  27  28
ATOM     28  P24 2RC d   1      21.280  -4.568  13.730  0.00  0.00     0.423 P 
ATOM     29  O25 2RC d   1      22.719  -5.032  13.678  0.00  0.00    -0.617 OA
ATOM     30  O26 2RC d   1      20.389  -5.659  13.161  0.00  0.00    -0.617 OA
ATOM     31  O27 2RC d   1      20.883  -4.231  15.154  0.00  0.00    -0.617 OA
ENDBRANCH  27  28
ENDBRANCH  24  27
ENDBRANCH  14  24
BRANCH  18  32
ATOM     32  C20 2RC d   1      23.718  -1.818   8.158  0.00  0.00    -0.039 C 
ATOM     33  H   2RC d   1      23.910  -1.058   7.387  0.00  0.00     0.032 H 
ATOM     34  H   2RC d   1      23.335  -2.733   7.683  0.00  0.00     0.032 H 
ATOM     35  H   2RC d   1      24.654  -2.044   8.690  0.00  0.00     0.032 H 
ENDBRANCH  18  32
BRANCH  18  36
ATOM     36  C21 2RC d   1      23.461  -0.098   9.780  0.00  0.00    -0.039 C 
ATOM     37  H   2RC d   1      23.656   0.673   9.020  0.00  0.00     0.032 H 
ATOM     38  H   2RC d   1      24.415  -0.445  10.204  0.00  0.00     0.032 H 
ATOM     39  H   2RC d   1      22.836   0.326  10.580  0.00  0.00     0.032 H 
ENDBRANCH  18  36
ENDBRANCH   9  11
ENDBRANCH   7   9
BRANCH   5  40
ATOM     40  N28 2RC d   1      14.528   2.049   9.455  0.00  0.00    -0.188 N 
ATOM     41  H   2RC d   1      14.923   1.767   8.547  0.00  0.00     0.184 HD
BRANCH  40  42
ATOM     42  C29 2RC d   1      14.028   3.365   9.577  0.00  0.00     0.054 A 
ATOM     43  C30 2RC d   1      13.086   3.761  10.556  0.00  0.00    -0.022 A 
ATOM     44  C31 2RC d   1      12.652   5.093  10.545  0.00  0.00     0.106 A 
ATOM     45  H   2RC d   1      12.712   3.057  11.290  0.00  0.00     0.091 H 
ATOM     46  C34 2RC d   1      13.184   5.936   9.583  0.00  0.00     0.135 A 
ATOM     47  C37 2RC d   1      14.124   5.522   8.626  0.00  0.00     0.106 A 
ATOM     48  C40 2RC d   1      14.554   4.227   8.619  0.00  0.00    -0.022 A 
ATOM     49  H   2RC d   1      15.280   3.881   7.892  0.00  0.00     0.091 H 
BRANCH  44  50
ATOM     50  O32 2RC d   1      11.680   5.681  11.458  0.00  0.00    -0.353 OA
BRANCH  50  51
ATOM     51  C33 2RC d   1      11.062   4.922  12.509  0.00  0.00     0.010 C 
ATOM     52  H   2RC d   1      10.368   5.567  13.068  0.00  0.00     0.066 H 
ATOM     53  H   2RC d   1      11.837   4.541  13.190  0.00  0.00     0.066 H 
ATOM     54  H   2RC d   1      10.508   4.077  12.074  0.00  0.00     0.066 H 
ENDBRANCH  50  51
ENDBRANCH  44  50
BRANCH  46  55
ATOM     55  O35 2RC d   1      12.800   7.286   9.554  0.00  0.00    -0.351 OA
BRANCH  55  56
ATOM     56  C36 2RC d   1      13.556   8.023  10.497  0.00  0.00     0.011 C 
ATOM     57  H   2RC d   1      13.249   9.079  10.468  0.00  0.00     0.067 H 
ATOM     58  H   2RC d   1      14.625   7.945  10.251  0.00  0.00     0.067 H 
ATOM     59  H   2RC d   1      13.381   7.618  11.505  0.00  0.00     0.067 H 
ENDBRANCH  55  56
ENDBRANCH  46  55
BRANCH  47  60
ATOM     60  O38 2RC d   1      14.602   6.436   7.660  0.00  0.00    -0.353 OA
BRANCH  60  61
ATOM     61  C39 2RC d   1      13.982   6.171   6.435  0.00  0.00     0.010 C 
ATOM     62  H   2RC d   1      14.349   6.879   5.678  0.00  0.00     0.066 H 
ATOM     63  H   2RC d   1      12.893   6.282   6.543  0.00  0.00     0.066 H 
ATOM     64  H   2RC d   1      14.216   5.143   6.120  0.00  0.00     0.066 H 
ENDBRANCH  60  61
ENDBRANCH  47  60
ENDBRANCH  40  42
ENDBRANCH   5  40
TORSDOF 15
