REMARK  13 active torsions:
REMARK  status: ('A' for Active; 'I' for Inactive)
REMARK    1  A    between atoms: S1_2  and  N7_4 
REMARK    2  A    between atoms: S1_2  and  C21_9 
REMARK    3  A    between atoms: N7_4  and  C23_5 
REMARK    4  A    between atoms: C23_5  and  C26_6 
REMARK    5  A    between atoms: C23_5  and  C25_7 
REMARK    6  A    between atoms: C23_5  and  C24_8 
REMARK    7  A    between atoms: C17_14  and  N1_15 
REMARK    8  A    between atoms: N1_15  and  C1_16 
REMARK    9  A    between atoms: C4_18  and  N4_23 
REMARK   10  A    between atoms: C2_21  and  C5_22 
REMARK   11  A    between atoms: N4_23  and  C6_24 
REMARK   12  A    between atoms: C9_27  and  N5_30 
REMARK   13  A    between atoms: N6_33  and  C16_34 
ROOT
ATOM      1  C1  1M3 d   1       6.763   7.515 129.109  0.00  0.00     0.154 A 
ATOM      2  N3  1M3 d   1       5.712   6.793 129.553  0.00  0.00    -0.044 NA
ATOM      3  C4  1M3 d   1       4.443   7.000 129.071  0.00  0.00     0.728 A 
ATOM      4  N2  1M3 d   1       4.267   7.903 128.086  0.00  0.00    -0.074 NA
ATOM      5  C3  1M3 d   1       5.270   8.649 127.584  0.00  0.00     0.030 A 
ATOM      6  C2  1M3 d   1       6.561   8.471 128.064  0.00  0.00     0.003 A 
ATOM      7  H   1M3 d   1       5.071   9.383 126.811  0.00  0.00     0.116 H 
ENDROOT
BRANCH   3   8
ATOM      8  N4  1M3 d   1       3.394   6.295 129.566  0.00  0.00    -0.188 N 
ATOM      9  H   1M3 d   1       2.458   6.595 129.260  0.00  0.00     0.184 HD
BRANCH   8  10
ATOM     10  C6  1M3 d   1       3.438   5.240 130.418  0.00  0.00     0.049 A 
ATOM     11  C11 1M3 d   1       4.522   4.383 130.639  0.00  0.00    -0.054 A 
ATOM     12  C10 1M3 d   1       4.424   3.325 131.553  0.00  0.00    -0.055 A 
ATOM     13  H   1M3 d   1       5.448   4.539 130.097  0.00  0.00     0.087 H 
ATOM     14  C9  1M3 d   1       3.249   3.059 132.280  0.00  0.00     0.030 A 
ATOM     15  H   1M3 d   1       5.287   2.687 131.706  0.00  0.00     0.087 H 
ATOM     16  C8  1M3 d   1       2.169   3.923 132.032  0.00  0.00    -0.055 A 
ATOM     17  C7  1M3 d   1       2.262   4.981 131.120  0.00  0.00    -0.054 A 
ATOM     18  H   1M3 d   1       1.237   3.766 132.562  0.00  0.00     0.087 H 
ATOM     19  H   1M3 d   1       1.398   5.615 130.956  0.00  0.00     0.087 H 
BRANCH  14  20
ATOM     20  N5  1M3 d   1       3.133   1.985 133.164  0.00  0.00    -0.378 N 
ATOM     21  C15 1M3 d   1       4.338   1.448 133.762  0.00  0.00     0.018 C 
ATOM     22  C14 1M3 d   1       4.267   0.184 134.646  0.00  0.00     0.098 C 
ATOM     23  H   1M3 d   1       4.766   2.247 134.385  0.00  0.00     0.066 H 
ATOM     24  H   1M3 d   1       5.027   1.219 132.936  0.00  0.00     0.066 H 
ATOM     25  N6  1M3 d   1       2.954  -0.497 134.679  0.00  0.00    -0.072 N 
ATOM     26  H   1M3 d   1       4.524   0.475 135.675  0.00  0.00     0.078 H 
ATOM     27  H   1M3 d   1       5.012  -0.534 134.272  0.00  0.00     0.078 H 
ATOM     28  C13 1M3 d   1       1.793   0.385 134.473  0.00  0.00     0.098 C 
ATOM     29  H   1M3 d   1       2.952  -1.115 133.883  0.00  0.00     0.279 HD
ATOM     30  C12 1M3 d   1       1.937   1.156 133.144  0.00  0.00     0.018 C 
ATOM     31  H   1M3 d   1       1.730   1.103 135.304  0.00  0.00     0.078 H 
ATOM     32  H   1M3 d   1       0.876  -0.222 134.443  0.00  0.00     0.078 H 
ATOM     33  H   1M3 d   1       2.008   0.437 132.314  0.00  0.00     0.066 H 
ATOM     34  H   1M3 d   1       1.055   1.797 133.000  0.00  0.00     0.066 H 
BRANCH  25  35
ATOM     35  C16 1M3 d   1       2.845  -1.380 135.869  0.00  0.00     0.066 C 
ATOM     36  H   1M3 d   1       1.862  -1.874 135.870  0.00  0.00     0.068 H 
ATOM     37  H   1M3 d   1       2.954  -0.778 136.783  0.00  0.00     0.068 H 
ATOM     38  H   1M3 d   1       3.638  -2.142 135.834  0.00  0.00     0.068 H 
ENDBRANCH  25  35
ENDBRANCH  14  20
ENDBRANCH   8  10
ENDBRANCH   3   8
BRANCH   1  39
ATOM     39  N1  1M3 d   1       8.043   7.287 129.547  0.00  0.00    -0.340 N 
ATOM     40  H   1M3 d   1       8.795   7.746 129.014  0.00  0.00     0.167 HD
BRANCH  39  41
ATOM     41  C17 1M3 d   1       8.435   6.522 130.608  0.00  0.00     0.035 A 
ATOM     42  C18 1M3 d   1       9.817   6.233 130.639  0.00  0.00    -0.057 A 
ATOM     43  C19 1M3 d   1      10.344   5.463 131.668  0.00  0.00    -0.079 A 
ATOM     44  H   1M3 d   1      10.467   6.612 129.859  0.00  0.00     0.086 H 
ATOM     45  C20 1M3 d   1       9.519   4.968 132.694  0.00  0.00    -0.060 A 
ATOM     46  H   1M3 d   1      11.405   5.241 131.680  0.00  0.00     0.083 H 
ATOM     47  C21 1M3 d   1       8.162   5.236 132.688  0.00  0.00     0.081 A 
ATOM     48  H   1M3 d   1       9.948   4.374 133.493  0.00  0.00     0.085 H 
ATOM     49  C22 1M3 d   1       7.614   6.000 131.634  0.00  0.00    -0.035 A 
ATOM     50  H   1M3 d   1       6.547   6.189 131.611  0.00  0.00     0.089 H 
BRANCH  47  51
ATOM     51  S1  1M3 d   1       7.174   4.589 133.992  0.00  0.00     0.259 S 
ATOM     52  O2  1M3 d   1       7.891   4.869 135.350  0.00  0.00    -0.201 OA
ATOM     53  O1  1M3 d   1       7.036   3.050 133.630  0.00  0.00    -0.201 OA
BRANCH  51  54
ATOM     54  N7  1M3 d   1       5.593   5.278 133.827  0.00  0.00    -0.307 N 
ATOM     55  H   1M3 d   1       4.956   4.816 133.210  0.00  0.00     0.173 HD
BRANCH  54  56
ATOM     56  C23 1M3 d   1       5.103   6.490 134.520  0.00  0.00     0.029 C 
BRANCH  56  57
ATOM     57  C26 1M3 d   1       4.771   6.064 135.979  0.00  0.00    -0.053 C 
ATOM     58  H   1M3 d   1       4.400   6.935 136.540  0.00  0.00     0.030 H 
ATOM     59  H   1M3 d   1       5.679   5.676 136.463  0.00  0.00     0.030 H 
ATOM     60  H   1M3 d   1       3.999   5.281 135.966  0.00  0.00     0.030 H 
ENDBRANCH  56  57
BRANCH  56  61
ATOM     61  C25 1M3 d   1       3.894   7.031 133.695  0.00  0.00    -0.053 C 
ATOM     62  H   1M3 d   1       3.497   7.936 134.177  0.00  0.00     0.030 H 
ATOM     63  H   1M3 d   1       3.107   6.264 133.651  0.00  0.00     0.030 H 
ATOM     64  H   1M3 d   1       4.226   7.274 132.675  0.00  0.00     0.030 H 
ENDBRANCH  56  61
BRANCH  56  65
ATOM     65  C24 1M3 d   1       6.183   7.604 134.561  0.00  0.00    -0.053 C 
ATOM     66  H   1M3 d   1       5.781   8.485 135.083  0.00  0.00     0.030 H 
ATOM     67  H   1M3 d   1       6.463   7.882 133.534  0.00  0.00     0.030 H 
ATOM     68  H   1M3 d   1       7.071   7.235 135.095  0.00  0.00     0.030 H 
ENDBRANCH  56  65
ENDBRANCH  54  56
ENDBRANCH  51  54
ENDBRANCH  47  51
ENDBRANCH  39  41
ENDBRANCH   1  39
BRANCH   6  69
ATOM     69  C5  1M3 d   1       7.625   9.299 127.460  0.00  0.00    -0.046 C 
ATOM     70  H   1M3 d   1       8.589   9.057 127.930  0.00  0.00     0.033 H 
ATOM     71  H   1M3 d   1       7.396  10.363 127.619  0.00  0.00     0.033 H 
ATOM     72  H   1M3 d   1       7.682   9.093 126.381  0.00  0.00     0.033 H 
ENDBRANCH   6  69
TORSDOF 13
