REMARK  4 active torsions:
REMARK  status: ('A' for Active; 'I' for Inactive)
REMARK    1  A    between atoms: C05_5  and  C06_6 
REMARK    2  A    between atoms: C07_7  and  C08_8 
REMARK    3  A    between atoms: C15_15  and  C16_16 
REMARK    4  A    between atoms: C19_19  and  O20_20 
ROOT
ATOM      1  C06 2RE d   1      -3.939  -9.716 -21.741  0.00  0.00     0.074 A 
ATOM      2  C07 2RE d   1      -3.619  -8.355 -21.627  0.00  0.00     0.097 A 
ATOM      3  N14 2RE d   1      -2.944  -8.218 -20.478  0.00  0.00    -0.227 NA
ATOM      4  C15 2RE d   1      -2.851  -9.408 -19.874  0.00  0.00     0.139 A 
ATOM      5  N23 2RE d   1      -3.439 -10.338 -20.654  0.00  0.00    -0.338 N 
ATOM      6  H   2RE d   1      -3.496 -11.347 -20.454  0.00  0.00     0.167 HD
ENDROOT
BRANCH   4   7
ATOM      7  C16 2RE d   1      -2.175  -9.669 -18.661  0.00  0.00     0.010 A 
ATOM      8  C17 2RE d   1      -1.263  -8.716 -18.133  0.00  0.00    -0.067 A 
ATOM      9  C18 2RE d   1      -0.559  -8.990 -16.942  0.00  0.00    -0.050 A 
ATOM     10  H   2RE d   1      -1.108  -7.775 -18.648  0.00  0.00     0.085 H 
ATOM     11  C19 2RE d   1      -0.755 -10.215 -16.267  0.00  0.00     0.065 A 
ATOM     12  H   2RE d   1       0.135  -8.258 -16.544  0.00  0.00     0.087 H 
ATOM     13  C21 2RE d   1      -1.642 -11.172 -16.794  0.00  0.00    -0.050 A 
ATOM     14  C22 2RE d   1      -2.348 -10.899 -17.986  0.00  0.00    -0.067 A 
ATOM     15  H   2RE d   1      -1.783 -12.119 -16.285  0.00  0.00     0.087 H 
ATOM     16  H   2RE d   1      -3.030 -11.640 -18.388  0.00  0.00     0.085 H 
BRANCH  11  17
ATOM     17  O20 2RE d   1      -0.083 -10.475 -15.114  0.00  0.00    -0.361 OA
ATOM     18  H   2RE d   1      -0.305  -9.818 -14.465  0.00  0.00     0.217 HD
ENDBRANCH  11  17
ENDBRANCH   4   7
BRANCH   2  19
ATOM     19  C08 2RE d   1      -3.874  -7.262 -22.486  0.00  0.00    -0.002 A 
ATOM     20  C09 2RE d   1      -3.672  -7.374 -23.885  0.00  0.00    -0.054 A 
ATOM     21  C10 2RE d   1      -3.908  -6.254 -24.716  0.00  0.00     0.003 A 
ATOM     22  H   2RE d   1      -3.339  -8.312 -24.315  0.00  0.00     0.087 H 
ATOM     23  N11 2RE d   1      -4.304  -5.080 -24.159  0.00  0.00    -0.273 NA
ATOM     24  H   2RE d   1      -3.774  -6.332 -25.789  0.00  0.00     0.114 H 
ATOM     25  C12 2RE d   1      -4.489  -4.926 -22.819  0.00  0.00     0.003 A 
ATOM     26  C13 2RE d   1      -4.269  -6.015 -21.947  0.00  0.00    -0.054 A 
ATOM     27  H   2RE d   1      -4.805  -3.968 -22.422  0.00  0.00     0.114 H 
ATOM     28  H   2RE d   1      -4.401  -5.897 -20.878  0.00  0.00     0.087 H 
ENDBRANCH   2  19
BRANCH   1  29
ATOM     29  C05 2RE d   1      -4.630 -10.411 -22.769  0.00  0.00    -0.007 A 
ATOM     30  C04 2RE d   1      -4.209 -11.722 -23.094  0.00  0.00    -0.068 A 
ATOM     31  C03 2RE d   1      -4.848 -12.458 -24.113  0.00  0.00    -0.045 A 
ATOM     32  H   2RE d   1      -3.383 -12.167 -22.552  0.00  0.00     0.085 H 
ATOM     33  C02 2RE d   1      -5.920 -11.897 -24.829  0.00  0.00     0.116 A 
ATOM     34  H   2RE d   1      -4.511 -13.462 -24.346  0.00  0.00     0.088 H 
ATOM     35  F01 2RE d   1      -6.510 -12.591 -25.778  0.00  0.00    -0.206 F 
ATOM     36  C25 2RE d   1      -6.352 -10.594 -24.516  0.00  0.00    -0.045 A 
ATOM     37  C24 2RE d   1      -5.715  -9.861 -23.489  0.00  0.00    -0.068 A 
ATOM     38  H   2RE d   1      -7.176 -10.152 -25.064  0.00  0.00     0.088 H 
ATOM     39  H   2RE d   1      -6.064  -8.863 -23.250  0.00  0.00     0.085 H 
ENDBRANCH   1  29
TORSDOF 4
