REMARK  11 active torsions:
REMARK  status: ('A' for Active; 'I' for Inactive)
REMARK    1  A    between atoms: N1_1  and  C4_3 
REMARK    2  A    between atoms: C5_4  and  N1_1 
REMARK    3  A    between atoms: N3_2  and  C8_7 
REMARK    4  A    between atoms: C9_19  and  N3_2 
REMARK    5  A    between atoms: C13_9  and  C14_22 
REMARK    6  A    between atoms: C20_12  and  O3_30 
REMARK    7  A    between atoms: O3_30  and  C21_13 
REMARK    8  A    between atoms: O1_15  and  C1_14 
REMARK    9  A    between atoms: C2_16  and  O1_15 
REMARK   10  A    between atoms: C18_27  and  O2_28 
REMARK   11  A    between atoms: O2_28  and  C19_29 
ROOT
ATOM      1  C5  SAV d   1     118.603  -7.659   2.943  0.00  0.00     0.728 A 
ATOM      2  C6  SAV d   1     116.542  -8.420   3.822  0.00  0.00     0.025 A 
ATOM      3  C7  SAV d   1     116.304  -9.135   2.646  0.00  0.00    -0.021 A 
ATOM      4  C8  SAV d   1     117.278  -9.093   1.623  0.00  0.00     0.148 A 
ATOM      5  N2  SAV d   1     117.689  -7.707   3.938  0.00  0.00    -0.075 NA
ATOM      6  N6  SAV d   1     118.397  -8.355   1.801  0.00  0.00    -0.045 NA
ATOM      7  H   SAV d   1     115.820  -8.435   4.630  0.00  0.00     0.115 H 
ATOM      8  H   SAV d   1     115.393  -9.709   2.521  0.00  0.00     0.091 H 
ENDROOT
BRANCH   1   9
ATOM      9  N1  SAV d   1     119.732  -6.952   3.059  0.00  0.00    -0.188 N 
ATOM     10  H   SAV d   1     119.754  -6.321   3.873  0.00  0.00     0.184 HD
BRANCH   9  11
ATOM     11  C4  SAV d   1     120.856  -6.917   2.294  0.00  0.00     0.054 A 
ATOM     12  C17 SAV d   1     121.746  -5.873   2.588  0.00  0.00    -0.022 A 
ATOM     13  C18 SAV d   1     122.965  -5.729   1.917  0.00  0.00     0.106 A 
ATOM     14  H   SAV d   1     121.481  -5.157   3.358  0.00  0.00     0.091 H 
ATOM     15  C20 SAV d   1     123.290  -6.662   0.943  0.00  0.00     0.135 A 
ATOM     16  C2  SAV d   1     122.416  -7.712   0.638  0.00  0.00     0.106 A 
ATOM     17  C3  SAV d   1     121.210  -7.851   1.314  0.00  0.00    -0.022 A 
ATOM     18  H   SAV d   1     120.548  -8.678   1.084  0.00  0.00     0.091 H 
BRANCH  13  19
ATOM     19  O2  SAV d   1     123.863  -4.732   2.146  0.00  0.00    -0.353 OA
BRANCH  19  20
ATOM     20  C19 SAV d   1     123.492  -3.641   3.006  0.00  0.00     0.010 C 
ATOM     21  H   SAV d   1     124.329  -2.931   3.080  0.00  0.00     0.066 H 
ATOM     22  H   SAV d   1     123.251  -4.029   4.007  0.00  0.00     0.066 H 
ATOM     23  H   SAV d   1     122.612  -3.128   2.589  0.00  0.00     0.066 H 
ENDBRANCH  19  20
ENDBRANCH  13  19
BRANCH  15  24
ATOM     24  O3  SAV d   1     124.472  -6.528   0.254  0.00  0.00    -0.351 OA
BRANCH  24  25
ATOM     25  C21 SAV d   1     125.527  -7.374   0.722  0.00  0.00     0.011 C 
ATOM     26  H   SAV d   1     126.430  -7.202   0.118  0.00  0.00     0.067 H 
ATOM     27  H   SAV d   1     125.220  -8.427   0.632  0.00  0.00     0.067 H 
ATOM     28  H   SAV d   1     125.742  -7.144   1.776  0.00  0.00     0.067 H 
ENDBRANCH  24  25
ENDBRANCH  15  24
BRANCH  16  29
ATOM     29  O1  SAV d   1     122.829  -8.564  -0.330  0.00  0.00    -0.353 OA
BRANCH  29  30
ATOM     30  C1  SAV d   1     122.081  -9.762  -0.555  0.00  0.00     0.010 C 
ATOM     31  H   SAV d   1     122.547 -10.338  -1.369  0.00  0.00     0.066 H 
ATOM     32  H   SAV d   1     121.049  -9.503  -0.833  0.00  0.00     0.066 H 
ATOM     33  H   SAV d   1     122.072 -10.367   0.364  0.00  0.00     0.066 H 
ENDBRANCH  29  30
ENDBRANCH  16  29
ENDBRANCH   9  11
ENDBRANCH   1   9
BRANCH   4  34
ATOM     34  N3  SAV d   1     117.085  -9.769   0.475  0.00  0.00    -0.340 N 
ATOM     35  H   SAV d   1     116.248 -10.367   0.428  0.00  0.00     0.167 HD
BRANCH  34  36
ATOM     36  C9  SAV d   1     117.890  -9.745  -0.645  0.00  0.00     0.035 A 
ATOM     37  C10 SAV d   1     118.363  -8.504  -1.155  0.00  0.00    -0.056 A 
ATOM     38  C11 SAV d   1     119.175  -8.470  -2.315  0.00  0.00    -0.067 A 
ATOM     39  H   SAV d   1     118.101  -7.580  -0.653  0.00  0.00     0.086 H 
ATOM     40  C12 SAV d   1     119.514  -9.675  -2.959  0.00  0.00     0.018 A 
ATOM     41  H   SAV d   1     119.533  -7.524  -2.704  0.00  0.00     0.085 H 
ATOM     42  C13 SAV d   1     120.293  -9.998  -4.080  0.00  0.00     0.063 A 
ATOM     43  C15 SAV d   1     119.042 -10.886  -2.465  0.00  0.00     0.064 A 
ATOM     44  N4  SAV d   1     120.254 -11.340  -4.178  0.00  0.00    -0.179 NA
ATOM     45  N5  SAV d   1     119.501 -11.880  -3.256  0.00  0.00    -0.277 N 
ATOM     46  H   SAV d   1     119.295 -12.884  -3.151  0.00  0.00     0.189 HD
ATOM     47  C16 SAV d   1     118.231 -10.936  -1.318  0.00  0.00    -0.029 A 
ATOM     48  H   SAV d   1     117.868 -11.889  -0.951  0.00  0.00     0.090 H 
BRANCH  42  49
ATOM     49  C14 SAV d   1     121.032  -9.116  -5.003  0.00  0.00    -0.033 C 
ATOM     50  H   SAV d   1     121.532  -9.725  -5.770  0.00  0.00     0.035 H 
ATOM     51  H   SAV d   1     121.785  -8.544  -4.440  0.00  0.00     0.035 H 
ATOM     52  H   SAV d   1     120.330  -8.421  -5.487  0.00  0.00     0.035 H 
ENDBRANCH  42  49
ENDBRANCH  34  36
ENDBRANCH   4  34
TORSDOF 11
