REMARK  4 active torsions:
REMARK  status: ('A' for Active; 'I' for Inactive)
REMARK    1  A    between atoms: C03_3  and  C08_8 
REMARK    2  A    between atoms: C09_9  and  N15_15 
REMARK    3  A    between atoms: N15_15  and  C16_16 
REMARK    4  A    between atoms: C19_19  and  O22_22 
ROOT
ATOM      1  C08 2RF d   1     120.151  -7.225  -0.628  0.00  0.00     0.074 A 
ATOM      2  C09 2RF d   1     120.371  -6.640   0.685  0.00  0.00     0.118 A 
ATOM      3  C10 2RF d   1     119.351  -7.200   1.603  0.00  0.00     0.276 A 
ATOM      4  O11 2RF d   1     119.260  -6.919   2.777  0.00  0.00    -0.266 OA
ATOM      5  N12 2RF d   1     118.515  -8.123   0.853  0.00  0.00    -0.288 N 
ATOM      6  C13 2RF d   1     118.974  -8.144  -0.520  0.00  0.00     0.261 A 
ATOM      7  O14 2RF d   1     118.509  -8.835  -1.403  0.00  0.00    -0.267 OA
ATOM      8  H   2RF d   1     117.752  -8.653   1.223  0.00  0.00     0.172 HD
ENDROOT
BRANCH   2   9
ATOM      9  N15 2RF d   1     121.268  -5.702   1.241  0.00  0.00    -0.351 N 
ATOM     10  H   2RF d   1     120.917  -5.173   2.052  0.00  0.00     0.166 HD
BRANCH   9  11
ATOM     11  C16 2RF d   1     122.578  -5.396   0.831  0.00  0.00     0.034 A 
ATOM     12  C17 2RF d   1     123.342  -6.188   0.000  0.00  0.00    -0.034 A 
ATOM     13  C18 2RF d   1     124.631  -5.772  -0.295  0.00  0.00     0.069 A 
ATOM     14  H   2RF d   1     122.946  -7.110  -0.411  0.00  0.00     0.089 H 
ATOM     15  C19 2RF d   1     125.124  -4.596   0.212  0.00  0.00     0.087 A 
ATOM     16 CL2  2RF d   1     125.637  -6.703  -1.354  0.00  0.00    -0.081 Cl
ATOM     17  C20 2RF d   1     124.356  -3.814   1.058  0.00  0.00    -0.047 A 
ATOM     18  C21 2RF d   1     123.086  -4.222   1.355  0.00  0.00    -0.054 A 
ATOM     19  H   2RF d   1     124.754  -2.897   1.476  0.00  0.00     0.087 H 
ATOM     20  H   2RF d   1     122.469  -3.617   2.010  0.00  0.00     0.087 H 
BRANCH  15  21
ATOM     21  O22 2RF d   1     126.431  -4.193  -0.081  0.00  0.00    -0.359 OA
ATOM     22  H   2RF d   1     126.934  -4.145   0.723  0.00  0.00     0.217 HD
ENDBRANCH  15  21
ENDBRANCH   9  11
ENDBRANCH   2   9
BRANCH   1  23
ATOM     23  C03 2RF d   1     120.826  -7.008  -1.946  0.00  0.00    -0.016 A 
ATOM     24  C02 2RF d   1     121.772  -7.881  -2.453  0.00  0.00    -0.072 A 
ATOM     25  C01 2RF d   1     122.329  -7.631  -3.699  0.00  0.00    -0.081 A 
ATOM     26  H   2RF d   1     122.075  -8.752  -1.883  0.00  0.00     0.084 H 
ATOM     27  C06 2RF d   1     121.923  -6.522  -4.432  0.00  0.00    -0.062 A 
ATOM     28  H   2RF d   1     123.081  -8.301  -4.101  0.00  0.00     0.083 H 
ATOM     29  C05 2RF d   1     120.960  -5.668  -3.916  0.00  0.00     0.034 A 
ATOM     30  H   2RF d   1     122.358  -6.325  -5.405  0.00  0.00     0.086 H 
ATOM     31  C04 2RF d   1     120.411  -5.916  -2.676  0.00  0.00    -0.051 A 
ATOM     32 CL1  2RF d   1     120.439  -4.281  -4.818  0.00  0.00    -0.084 Cl
ATOM     33  H   2RF d   1     119.653  -5.252  -2.276  0.00  0.00     0.087 H 
ENDBRANCH   1  23
TORSDOF 4
