REMARK  7 active torsions:
REMARK  status: ('A' for Active; 'I' for Inactive)
REMARK    1  A    between atoms: C01_1  and  C02_2 
REMARK    2  A    between atoms: C03_3  and  C33_33 
REMARK    3  A    between atoms: C04_4  and  O08_8 
REMARK    4  A    between atoms: O08_8  and  C09_9 
REMARK    5  A    between atoms: C13_13  and  C15_15 
REMARK    6  A    between atoms: C16_16  and  C26_26 
REMARK    7  A    between atoms: N19_19  and  C20_20 
ROOT
ATOM      1  C15 2RJ d   1     125.032  -6.111  -0.861  0.00  0.00     0.095 A 
ATOM      2  C16 2RJ d   1     125.996  -5.291  -0.240  0.00  0.00     0.097 A 
ATOM      3  N17 2RJ d   1     127.165  -5.402  -0.898  0.00  0.00    -0.241 NA
ATOM      4  C18 2RJ d   1     126.959  -6.276  -1.887  0.00  0.00     0.067 A 
ATOM      5  N19 2RJ d   1     125.684  -6.723  -1.899  0.00  0.00    -0.333 N 
ATOM      6  H   2RJ d   1     127.724  -6.589  -2.596  0.00  0.00     0.143 H 
ENDROOT
BRANCH   1   7
ATOM      7  C13 2RJ d   1     123.678  -6.326  -0.465  0.00  0.00     0.091 A 
ATOM      8  C12 2RJ d   1     123.285  -6.350   0.907  0.00  0.00    -0.036 A 
ATOM      9  C11 2RJ d   1     121.945  -6.583   1.224  0.00  0.00     0.009 A 
ATOM     10  H   2RJ d   1     124.016  -6.190   1.691  0.00  0.00     0.089 H 
ATOM     11  N10 2RJ d   1     121.060  -6.837   0.223  0.00  0.00    -0.219 NA
ATOM     12  H   2RJ d   1     121.614  -6.562   2.256  0.00  0.00     0.115 H 
ATOM     13  C09 2RJ d   1     121.450  -6.832  -1.067  0.00  0.00     0.274 A 
ATOM     14  N14 2RJ d   1     122.731  -6.593  -1.404  0.00  0.00    -0.205 NA
BRANCH  13  15
ATOM     15  O08 2RJ d   1     120.519  -7.097  -2.015  0.00  0.00    -0.276 OA
BRANCH  15  16
ATOM     16  C04 2RJ d   1     120.920  -7.322  -3.303  0.00  0.00     0.085 A 
ATOM     17  C03 2RJ d   1     121.123  -6.248  -4.207  0.00  0.00    -0.022 A 
ATOM     18  C02 2RJ d   1     121.476  -6.546  -5.564  0.00  0.00    -0.053 A 
ATOM     19  C07 2RJ d   1     121.599  -7.892  -5.949  0.00  0.00    -0.077 A 
ATOM     20  C06 2RJ d   1     121.396  -8.938  -5.042  0.00  0.00    -0.080 A 
ATOM     21  H   2RJ d   1     121.858  -8.126  -6.975  0.00  0.00     0.084 H 
ATOM     22  C05 2RJ d   1     121.035  -8.667  -3.725  0.00  0.00    -0.050 A 
ATOM     23  H   2RJ d   1     121.520  -9.965  -5.367  0.00  0.00     0.083 H 
ATOM     24  H   2RJ d   1     120.844  -9.478  -3.031  0.00  0.00     0.087 H 
BRANCH  17  25
ATOM     25  C33 2RJ d   1     120.967  -4.856  -3.716  0.00  0.00    -0.048 C 
ATOM     26  H   2RJ d   1     121.158  -4.153  -4.540  0.00  0.00     0.033 H 
ATOM     27  H   2RJ d   1     121.684  -4.671  -2.903  0.00  0.00     0.033 H 
ATOM     28  H   2RJ d   1     119.943  -4.712  -3.342  0.00  0.00     0.033 H 
ENDBRANCH  17  25
BRANCH  18  29
ATOM     29  C01 2RJ d   1     121.747  -5.535  -6.615  0.00  0.00    -0.051 C 
ATOM     30  H   2RJ d   1     121.993  -6.044  -7.559  0.00  0.00     0.033 H 
ATOM     31  H   2RJ d   1     122.594  -4.904  -6.307  0.00  0.00     0.033 H 
ATOM     32  H   2RJ d   1     120.855  -4.907  -6.759  0.00  0.00     0.033 H 
ENDBRANCH  18  29
ENDBRANCH  15  16
ENDBRANCH  13  15
ENDBRANCH   1   7
BRANCH   2  33
ATOM     33  C26 2RJ d   1     125.918  -4.368   0.830  0.00  0.00    -0.005 A 
ATOM     34  C27 2RJ d   1     127.089  -4.018   1.531  0.00  0.00    -0.068 A 
ATOM     35  C28 2RJ d   1     127.043  -3.073   2.553  0.00  0.00    -0.045 A 
ATOM     36  H   2RJ d   1     128.032  -4.487   1.273  0.00  0.00     0.085 H 
ATOM     37  C29 2RJ d   1     125.836  -2.434   2.887  0.00  0.00     0.116 A 
ATOM     38  H   2RJ d   1     127.948  -2.827   3.097  0.00  0.00     0.088 H 
ATOM     39  C30 2RJ d   1     124.665  -2.751   2.190  0.00  0.00    -0.045 A 
ATOM     40  F32 2RJ d   1     125.813  -1.554   3.860  0.00  0.00    -0.206 F 
ATOM     41  C31 2RJ d   1     124.718  -3.696   1.151  0.00  0.00    -0.068 A 
ATOM     42  H   2RJ d   1     123.727  -2.273   2.449  0.00  0.00     0.088 H 
ATOM     43  H   2RJ d   1     123.820  -3.913   0.585  0.00  0.00     0.085 H 
ENDBRANCH   2  33
BRANCH   5  44
ATOM     44  C20 2RJ d   1     125.179  -7.691  -2.860  0.00  0.00     0.021 C 
ATOM     45  C21 2RJ d   1     125.672  -9.145  -2.660  0.00  0.00    -0.023 C 
ATOM     46  C22 2RJ d   1     125.131 -10.073  -3.775  0.00  0.00     0.084 C 
ATOM     47  H   2RJ d   1     125.321  -9.513  -1.684  0.00  0.00     0.038 H 
ATOM     48  H   2RJ d   1     126.772  -9.158  -2.683  0.00  0.00     0.038 H 
ATOM     49  N23 2RJ d   1     125.521  -9.582  -5.113  0.00  0.00    -0.075 N 
ATOM     50  H   2RJ d   1     124.033 -10.108  -3.712  0.00  0.00     0.075 H 
ATOM     51  H   2RJ d   1     125.540 -11.084  -3.630  0.00  0.00     0.075 H 
ATOM     52  C24 2RJ d   1     125.036  -8.211  -5.371  0.00  0.00     0.084 C 
ATOM     53  H   2RJ d   1     125.134 -10.199  -5.810  0.00  0.00     0.277 HD
ATOM     54  H   2RJ d   1     126.527  -9.588  -5.180  0.00  0.00     0.277 HD
ATOM     55  C25 2RJ d   1     125.527  -7.201  -4.299  0.00  0.00    -0.023 C 
ATOM     56  H   2RJ d   1     123.936  -8.219  -5.372  0.00  0.00     0.075 H 
ATOM     57  H   2RJ d   1     125.401  -7.886  -6.356  0.00  0.00     0.075 H 
ATOM     58  H   2RJ d   1     126.618  -7.088  -4.386  0.00  0.00     0.038 H 
ATOM     59  H   2RJ d   1     125.043  -6.229  -4.474  0.00  0.00     0.038 H 
ATOM     60  H   2RJ d   1     124.084  -7.708  -2.758  0.00  0.00     0.073 H 
ENDBRANCH   5  44
TORSDOF 7
