REMARK  2 active torsions:
REMARK  status: ('A' for Active; 'I' for Inactive)
REMARK    1  A    between atoms: C06_6  and  C07_7 
REMARK    2  A    between atoms: C14_14  and  N19_19 
ROOT
ATOM      1  C07 2RK d   1     116.553  -8.652   2.031  0.00  0.00     0.109 A 
ATOM      2  N08 2RK d   1     117.712  -8.015   2.202  0.00  0.00    -0.232 NA
ATOM      3  C09 2RK d   1     118.434  -8.113   1.085  0.00  0.00     0.096 A 
ATOM      4  C10 2RK d   1     119.707  -7.540   0.996  0.00  0.00    -0.004 A 
ATOM      5  C11 2RK d   1     120.753  -8.128   0.220  0.00  0.00    -0.070 A 
ATOM      6  C12 2RK d   1     122.047  -7.544   0.181  0.00  0.00    -0.073 A 
ATOM      7  C13 2RK d   1     122.312  -6.363   0.867  0.00  0.00    -0.025 A 
ATOM      8  C14 2RK d   1     123.438  -5.605   0.943  0.00  0.00     0.086 A 
ATOM      9  C15 2RK d   1     123.236  -4.458   1.814  0.00  0.00    -0.035 A 
ATOM     10  C16 2RK d   1     121.770  -4.561   2.243  0.00  0.00    -0.038 A 
ATOM     11  C17 2RK d   1     121.307  -5.781   1.593  0.00  0.00    -0.049 A 
ATOM     12  C18 2RK d   1     120.026  -6.347   1.704  0.00  0.00    -0.064 A 
ATOM     13  C21 2RK d   1     117.702  -8.851   0.147  0.00  0.00     0.074 A 
ATOM     14  C22 2RK d   1     117.964  -9.217  -1.186  0.00  0.00    -0.004 A 
ATOM     15  C23 2RK d   1     118.650  -8.369  -2.042  0.00  0.00    -0.054 A 
ATOM     16  C24 2RK d   1     118.898  -8.711  -3.324  0.00  0.00     0.003 A 
ATOM     17  N25 2RK d   1     118.458  -9.895  -3.793  0.00  0.00    -0.273 NA
ATOM     18  C26 2RK d   1     117.770 -10.738  -2.996  0.00  0.00     0.003 A 
ATOM     19  C27 2RK d   1     117.515 -10.419  -1.707  0.00  0.00    -0.054 A 
ATOM     20  N28 2RK d   1     116.549  -9.168   0.776  0.00  0.00    -0.342 N 
ATOM     21  H   2RK d   1     120.556  -9.031  -0.346  0.00  0.00     0.084 H 
ATOM     22  H   2RK d   1     122.835  -8.023  -0.389  0.00  0.00     0.084 H 
ATOM     23  H   2RK d   1     123.120  -5.030   0.061  0.00  0.00     0.087 H 
ATOM     24  H   2RK d   1     123.418  -3.519   1.270  0.00  0.00     0.037 H 
ATOM     25  H   2RK d   1     123.902  -4.510   2.688  0.00  0.00     0.037 H 
ATOM     26  H   2RK d   1     121.197  -3.689   1.895  0.00  0.00     0.040 H 
ATOM     27  H   2RK d   1     121.686  -4.643   3.337  0.00  0.00     0.040 H 
ATOM     28  H   2RK d   1     119.278  -5.874   2.330  0.00  0.00     0.085 H 
ATOM     29  H   2RK d   1     118.995  -7.410  -1.673  0.00  0.00     0.087 H 
ATOM     30  H   2RK d   1     119.448  -8.038  -3.972  0.00  0.00     0.114 H 
ATOM     31  H   2RK d   1     117.417 -11.683  -3.394  0.00  0.00     0.114 H 
ATOM     32  H   2RK d   1     116.958 -11.106  -1.080  0.00  0.00     0.087 H 
ATOM     33  H   2RK d   1     115.782  -9.719   0.365  0.00  0.00     0.167 HD
ENDROOT
BRANCH   1  34
ATOM     34  C06 2RK d   1     115.502  -8.785   3.074  0.00  0.00     0.007 C 
ATOM     35  C01 2RK d   1     114.137  -8.156   2.665  0.00  0.00    -0.033 C 
ATOM     36  C02 2RK d   1     113.065  -8.427   3.753  0.00  0.00     0.082 C 
ATOM     37  H   2RK d   1     114.261  -7.070   2.542  0.00  0.00     0.036 H 
ATOM     38  H   2RK d   1     113.806  -8.597   1.713  0.00  0.00     0.036 H 
ATOM     39  N03 2RK d   1     112.944  -9.864   4.050  0.00  0.00    -0.075 N 
ATOM     40  H   2RK d   1     112.094  -8.053   3.398  0.00  0.00     0.075 H 
ATOM     41  H   2RK d   1     113.348  -7.895   4.673  0.00  0.00     0.075 H 
ATOM     42  C04 2RK d   1     114.210 -10.452   4.529  0.00  0.00     0.082 C 
ATOM     43  H   2RK d   1     112.662 -10.345   3.210  0.00  0.00     0.277 HD
ATOM     44  H   2RK d   1     112.240  -9.989   4.761  0.00  0.00     0.277 HD
ATOM     45  C05 2RK d   1     115.327 -10.268   3.473  0.00  0.00    -0.033 C 
ATOM     46  H   2RK d   1     114.062 -11.526   4.716  0.00  0.00     0.075 H 
ATOM     47  H   2RK d   1     114.510  -9.954   5.463  0.00  0.00     0.075 H 
ATOM     48  H   2RK d   1     115.068 -10.850   2.576  0.00  0.00     0.036 H 
ATOM     49  H   2RK d   1     116.275 -10.639   3.889  0.00  0.00     0.036 H 
ATOM     50  H   2RK d   1     115.855  -8.240   3.962  0.00  0.00     0.052 H 
ENDBRANCH   1  34
BRANCH   8  51
ATOM     51  N19 2RK d   1     124.569  -5.819   0.348  0.00  0.00    -0.131 NA
ATOM     52  O20 2RK d   1     125.440  -4.967   0.332  0.00  0.00    -0.066 OA
ENDBRANCH   8  51
TORSDOF 2
