REMARK  4 active torsions:
REMARK  status: ('A' for Active; 'I' for Inactive)
REMARK    1  A    between atoms: C04_4  and  C07_7 
REMARK    2  A    between atoms: C09_9  and  C18_18 
REMARK    3  A    between atoms: C10_10  and  C12_12 
REMARK    4  A    between atoms: C20_20  and  O24_24 
ROOT
ATOM      1  C07 2RN d   1      65.266 125.474  33.953  0.00  0.00     0.139 A 
ATOM      2  N08 2RN d   1      65.667 126.635  33.417  0.00  0.00    -0.338 N 
ATOM      3  C09 2RN d   1      65.203 127.613  34.191  0.00  0.00     0.074 A 
ATOM      4  C10 2RN d   1      64.512 127.037  35.234  0.00  0.00     0.097 A 
ATOM      5  N11 2RN d   1      64.559 125.738  35.079  0.00  0.00    -0.227 NA
ATOM      6  H   2RN d   1      66.231 126.749  32.563  0.00  0.00     0.167 HD
ENDROOT
BRANCH   3   7
ATOM      7  C18 2RN d   1      65.460 129.060  33.901  0.00  0.00    -0.004 A 
ATOM      8  C19 2RN d   1      66.776 129.460  33.683  0.00  0.00    -0.039 A 
ATOM      9  C20 2RN d   1      67.050 130.816  33.394  0.00  0.00     0.066 A 
ATOM     10  H   2RN d   1      67.583 128.738  33.734  0.00  0.00     0.089 H 
ATOM     11  C21 2RN d   1      66.010 131.749  33.322  0.00  0.00    -0.051 A 
ATOM     12  C22 2RN d   1      64.678 131.334  33.530  0.00  0.00    -0.080 A 
ATOM     13  H   2RN d   1      66.227 132.789  33.107  0.00  0.00     0.087 H 
ATOM     14  C23 2RN d   1      64.400 129.985  33.819  0.00  0.00    -0.071 A 
ATOM     15  H   2RN d   1      63.870 132.053  33.467  0.00  0.00     0.083 H 
ATOM     16  H   2RN d   1      63.378 129.660  33.977  0.00  0.00     0.084 H 
BRANCH   9  17
ATOM     17  O24 2RN d   1      68.385 131.225  33.185  0.00  0.00    -0.361 OA
ATOM     18  H   2RN d   1      68.962 130.475  33.269  0.00  0.00     0.217 HD
ENDBRANCH   9  17
ENDBRANCH   3   7
BRANCH   4  19
ATOM     19  C12 2RN d   1      63.787 127.703  36.404  0.00  0.00    -0.002 A 
ATOM     20  C13 2RN d   1      64.211 128.947  36.991  0.00  0.00    -0.054 A 
ATOM     21  C14 2RN d   1      63.501 129.461  38.039  0.00  0.00     0.003 A 
ATOM     22  H   2RN d   1      65.081 129.468  36.607  0.00  0.00     0.087 H 
ATOM     23  N15 2RN d   1      62.424 128.819  38.524  0.00  0.00    -0.273 NA
ATOM     24  H   2RN d   1      63.810 130.399  38.486  0.00  0.00     0.114 H 
ATOM     25  C16 2RN d   1      61.988 127.664  38.019  0.00  0.00     0.003 A 
ATOM     26  C17 2RN d   1      62.658 127.078  36.957  0.00  0.00    -0.054 A 
ATOM     27  H   2RN d   1      61.111 127.185  38.439  0.00  0.00     0.114 H 
ATOM     28  H   2RN d   1      62.310 126.135  36.552  0.00  0.00     0.087 H 
ENDBRANCH   4  19
BRANCH   1  29
ATOM     29  C04 2RN d   1      65.570 124.060  33.395  0.00  0.00     0.010 A 
ATOM     30  C03 2RN d   1      64.935 122.938  33.983  0.00  0.00    -0.069 A 
ATOM     31  C02 2RN d   1      65.206 121.671  33.487  0.00  0.00    -0.082 A 
ATOM     32  H   2RN d   1      64.246 123.068  34.810  0.00  0.00     0.085 H 
ATOM     33  C01 2RN d   1      66.092 121.514  32.427  0.00  0.00    -0.083 A 
ATOM     34  H   2RN d   1      64.727 120.803  33.926  0.00  0.00     0.083 H 
ATOM     35  C06 2RN d   1      66.719 122.639  31.841  0.00  0.00    -0.082 A 
ATOM     36  H   2RN d   1      66.304 120.522  32.046  0.00  0.00     0.083 H 
ATOM     37  C05 2RN d   1      66.452 123.913  32.331  0.00  0.00    -0.069 A 
ATOM     38  H   2RN d   1      67.406 122.508  31.012  0.00  0.00     0.083 H 
ATOM     39  H   2RN d   1      66.926 124.781  31.888  0.00  0.00     0.085 H 
ENDBRANCH   1  29
TORSDOF 4
