REMARK  7 active torsions:
REMARK  status: ('A' for Active; 'I' for Inactive)
REMARK    1  A    between atoms: C01_1  and  O02_2 
REMARK    2  A    between atoms: O02_2  and  C03_3 
REMARK    3  A    between atoms: C08_8  and  O09_9 
REMARK    4  A    between atoms: O09_9  and  C10_10 
REMARK    5  A    between atoms: C14_14  and  C16_16 
REMARK    6  A    between atoms: C17_17  and  C27_27 
REMARK    7  A    between atoms: N20_20  and  C21_21 
ROOT
ATOM      1  C16 2RQ d   1      63.157  19.769  19.731  0.00  0.00     0.095 A 
ATOM      2  C17 2RQ d   1      62.324  19.403  18.641  0.00  0.00     0.097 A 
ATOM      3  N18 2RQ d   1      62.292  18.059  18.581  0.00  0.00    -0.241 NA
ATOM      4  C19 2RQ d   1      63.105  17.598  19.519  0.00  0.00     0.067 A 
ATOM      5  N20 2RQ d   1      63.658  18.602  20.235  0.00  0.00    -0.333 N 
ATOM      6  H   2RQ d   1      63.303  16.541  19.692  0.00  0.00     0.143 H 
ENDROOT
BRANCH   1   7
ATOM      7  C14 2RQ d   1      63.513  21.077  20.156  0.00  0.00     0.091 A 
ATOM      8  C13 2RQ d   1      63.527  22.154  19.228  0.00  0.00    -0.036 A 
ATOM      9  C12 2RQ d   1      63.881  23.430  19.658  0.00  0.00     0.009 A 
ATOM     10  H   2RQ d   1      63.263  21.983  18.191  0.00  0.00     0.089 H 
ATOM     11  N11 2RQ d   1      64.251  23.620  20.932  0.00  0.00    -0.219 NA
ATOM     12  H   2RQ d   1      63.858  24.265  18.967  0.00  0.00     0.115 H 
ATOM     13  C10 2RQ d   1      64.292  22.572  21.808  0.00  0.00     0.274 A 
ATOM     14  N15 2RQ d   1      63.924  21.323  21.431  0.00  0.00    -0.205 NA
BRANCH  13  15
ATOM     15  O09 2RQ d   1      64.724  22.857  23.065  0.00  0.00    -0.274 OA
BRANCH  15  16
ATOM     16  C08 2RQ d   1      64.981  21.829  23.947  0.00  0.00     0.112 A 
ATOM     17  C03 2RQ d   1      63.910  21.160  24.553  0.00  0.00     0.102 A 
ATOM     18  C04 2RQ d   1      64.157  20.154  25.514  0.00  0.00    -0.048 A 
ATOM     19  C05 2RQ d   1      65.487  19.821  25.852  0.00  0.00    -0.080 A 
ATOM     20  H   2RQ d   1      63.329  19.640  25.990  0.00  0.00     0.087 H 
ATOM     21  C06 2RQ d   1      66.563  20.505  25.253  0.00  0.00    -0.080 A 
ATOM     22  H   2RQ d   1      65.681  19.037  26.575  0.00  0.00     0.083 H 
ATOM     23  C07 2RQ d   1      66.309  21.497  24.302  0.00  0.00    -0.047 A 
ATOM     24  H   2RQ d   1      67.583  20.263  25.528  0.00  0.00     0.083 H 
ATOM     25  H   2RQ d   1      67.137  22.016  23.833  0.00  0.00     0.087 H 
BRANCH  17  26
ATOM     26  O02 2RQ d   1      62.656  21.555  24.188  0.00  0.00    -0.353 OA
BRANCH  26  27
ATOM     27  C01 2RQ d   1      61.551  21.009  24.945  0.00  0.00     0.010 C 
ATOM     28  H   2RQ d   1      60.604  21.406  24.550  0.00  0.00     0.066 H 
ATOM     29  H   2RQ d   1      61.655  21.293  26.003  0.00  0.00     0.066 H 
ATOM     30  H   2RQ d   1      61.553  19.913  24.858  0.00  0.00     0.066 H 
ENDBRANCH  26  27
ENDBRANCH  17  26
ENDBRANCH  15  16
ENDBRANCH  13  15
ENDBRANCH   1   7
BRANCH   2  31
ATOM     31  C27 2RQ d   1      61.450  20.120  17.777  0.00  0.00    -0.005 A 
ATOM     32  C28 2RQ d   1      61.049  19.602  16.524  0.00  0.00    -0.068 A 
ATOM     33  C29 2RQ d   1      60.119  20.302  15.740  0.00  0.00    -0.045 A 
ATOM     34  H   2RQ d   1      61.460  18.664  16.169  0.00  0.00     0.085 H 
ATOM     35  C30 2RQ d   1      59.514  21.489  16.187  0.00  0.00     0.116 A 
ATOM     36  H   2RQ d   1      59.860  19.916  14.761  0.00  0.00     0.088 H 
ATOM     37  C31 2RQ d   1      59.868  22.000  17.453  0.00  0.00    -0.045 A 
ATOM     38  F33 2RQ d   1      58.644  22.114  15.417  0.00  0.00    -0.206 F 
ATOM     39  C32 2RQ d   1      60.811  21.301  18.230  0.00  0.00    -0.068 A 
ATOM     40  H   2RQ d   1      59.421  22.916  17.822  0.00  0.00     0.088 H 
ATOM     41  H   2RQ d   1      61.058  21.681  19.215  0.00  0.00     0.085 H 
ENDBRANCH   2  31
BRANCH   5  42
ATOM     42  C21 2RQ d   1      64.549  18.370  21.371  0.00  0.00     0.021 C 
ATOM     43  C22 2RQ d   1      65.965  17.803  21.101  0.00  0.00    -0.023 C 
ATOM     44  C23 2RQ d   1      66.722  17.478  22.410  0.00  0.00     0.084 C 
ATOM     45  H   2RQ d   1      66.543  18.547  20.533  0.00  0.00     0.038 H 
ATOM     46  H   2RQ d   1      65.871  16.881  20.508  0.00  0.00     0.038 H 
ATOM     47  N24 2RQ d   1      65.958  16.502  23.213  0.00  0.00    -0.075 N 
ATOM     48  H   2RQ d   1      66.855  18.402  22.992  0.00  0.00     0.075 H 
ATOM     49  H   2RQ d   1      67.707  17.054  22.164  0.00  0.00     0.075 H 
ATOM     50  C25 2RQ d   1      64.635  17.031  23.591  0.00  0.00     0.084 C 
ATOM     51  H   2RQ d   1      66.477  16.289  24.050  0.00  0.00     0.277 HD
ATOM     52  H   2RQ d   1      65.832  15.660  22.673  0.00  0.00     0.277 HD
ATOM     53  C26 2RQ d   1      63.782  17.409  22.344  0.00  0.00    -0.023 C 
ATOM     54  H   2RQ d   1      64.775  17.929  24.211  0.00  0.00     0.075 H 
ATOM     55  H   2RQ d   1      64.098  16.265  24.170  0.00  0.00     0.075 H 
ATOM     56  H   2RQ d   1      63.522  16.489  21.801  0.00  0.00     0.038 H 
ATOM     57  H   2RQ d   1      62.862  17.908  22.682  0.00  0.00     0.038 H 
ATOM     58  H   2RQ d   1      64.693  19.340  21.869  0.00  0.00     0.073 H 
ENDBRANCH   5  42
TORSDOF 7
