REMARK  10 active torsions:
REMARK  status: ('A' for Active; 'I' for Inactive)
REMARK    1  A    between atoms: C01_1  and  C02_2 
REMARK    2  A    between atoms: C05_5  and  C18_18 
REMARK    3  A    between atoms: C07_7  and  O08_8 
REMARK    4  A    between atoms: O08_8  and  C09_9 
REMARK       I    between atoms: C18_18  and  N19_19 
REMARK    5  A    between atoms: N19_19  and  C20_20 
REMARK    6  A    between atoms: C23_23  and  C30_30 
REMARK    7  A    between atoms: C24_24  and  C25_25 
REMARK    8  A    between atoms: C30_30  and  N31_31 
REMARK    9  A    between atoms: N34_34  and  C37_37 
REMARK   10  A    between atoms: C37_37  and  C38_38 
ROOT
ATOM      1  C20 NG2 d   1      -3.922 -49.612 -15.851  0.00  0.00     0.035 A 
ATOM      2  C21 NG2 d   1      -2.813 -50.465 -15.679  0.00  0.00    -0.057 A 
ATOM      3  C22 NG2 d   1      -1.626 -50.238 -16.389  0.00  0.00    -0.072 A 
ATOM      4  C23 NG2 d   1      -1.517 -49.155 -17.272  0.00  0.00    -0.017 A 
ATOM      5  C24 NG2 d   1      -2.640 -48.287 -17.434  0.00  0.00     0.058 A 
ATOM      6  C29 NG2 d   1      -3.815 -48.504 -16.720  0.00  0.00    -0.042 A 
ATOM      7  H   NG2 d   1      -2.879 -51.302 -14.993  0.00  0.00     0.086 H 
ATOM      8  H   NG2 d   1      -0.784 -50.907 -16.254  0.00  0.00     0.084 H 
ATOM      9  H   NG2 d   1      -4.649 -47.821 -16.831  0.00  0.00     0.088 H 
ENDROOT
BRANCH   1  10
ATOM     10  N19 NG2 d   1      -5.121 -49.841 -15.074  0.00  0.00    -0.323 N 
ATOM     11  C18 NG2 d   1      -6.463 -49.673 -15.548  0.00  0.00     0.256 C 
ATOM     12  O39 NG2 d   1      -6.709 -49.331 -16.678  0.00  0.00    -0.267 OA
ATOM     13  H   NG2 d   1      -5.003 -50.142 -14.127  0.00  0.00     0.169 HD
BRANCH  11  14
ATOM     14  C05 NG2 d   1      -7.621 -49.910 -14.579  0.00  0.00     0.035 A 
ATOM     15  C04 NG2 d   1      -7.400 -50.224 -13.230  0.00  0.00    -0.067 A 
ATOM     16  C03 NG2 d   1      -8.495 -50.415 -12.375  0.00  0.00    -0.074 A 
ATOM     17  H   NG2 d   1      -6.389 -50.319 -12.851  0.00  0.00     0.085 H 
ATOM     18  C02 NG2 d   1      -9.796 -50.268 -12.873  0.00  0.00    -0.028 A 
ATOM     19  H   NG2 d   1      -8.336 -50.675 -11.335  0.00  0.00     0.084 H 
ATOM     20  C07 NG2 d   1      -9.994 -49.933 -14.227  0.00  0.00     0.083 A 
ATOM     21  C06 NG2 d   1      -8.916 -49.764 -15.080  0.00  0.00    -0.035 A 
ATOM     22  H   NG2 d   1      -9.076 -49.521 -16.124  0.00  0.00     0.089 H 
BRANCH  18  23
ATOM     23  C01 NG2 d   1     -11.007 -50.467 -11.950  0.00  0.00    -0.049 C 
ATOM     24  H   NG2 d   1     -10.659 -50.722 -10.938  0.00  0.00     0.033 H 
ATOM     25  H   NG2 d   1     -11.634 -51.283 -12.338  0.00  0.00     0.033 H 
ATOM     26  H   NG2 d   1     -11.596 -49.539 -11.912  0.00  0.00     0.033 H 
ENDBRANCH  18  23
BRANCH  20  27
ATOM     27  O08 NG2 d   1     -11.284 -49.824 -14.766  0.00  0.00    -0.309 OA
BRANCH  27  28
ATOM     28  C09 NG2 d   1     -11.878 -48.543 -14.691  0.00  0.00     0.091 A 
ATOM     29  C10 NG2 d   1     -11.237 -47.402 -14.123  0.00  0.00    -0.032 A 
ATOM     30  C11 NG2 d   1     -11.960 -46.194 -14.117  0.00  0.00     0.007 A 
ATOM     31  H   NG2 d   1     -10.235 -47.463 -13.713  0.00  0.00     0.090 H 
ATOM     32  N12 NG2 d   1     -13.199 -46.088 -14.620  0.00  0.00    -0.242 NA
ATOM     33  H   NG2 d   1     -11.496 -45.313 -13.688  0.00  0.00     0.115 H 
ATOM     34  C13 NG2 d   1     -13.823 -47.176 -15.166  0.00  0.00     0.140 A 
ATOM     35  C14 NG2 d   1     -13.206 -48.411 -15.224  0.00  0.00     0.045 A 
ATOM     36  N17 NG2 d   1     -15.076 -47.300 -15.730  0.00  0.00    -0.350 N 
ATOM     37  C15 NG2 d   1     -14.144 -49.302 -15.850  0.00  0.00    -0.052 A 
ATOM     38  C16 NG2 d   1     -15.290 -48.550 -16.146  0.00  0.00    -0.020 A 
ATOM     39  H   NG2 d   1     -13.993 -50.361 -16.056  0.00  0.00     0.087 H 
ATOM     40  H   NG2 d   1     -16.193 -48.920 -16.629  0.00  0.00     0.111 H 
ATOM     41  H   NG2 d   1     -15.755 -46.531 -15.818  0.00  0.00     0.166 HD
ENDBRANCH  27  28
ENDBRANCH  20  27
ENDBRANCH  11  14
ENDBRANCH   1  10
BRANCH   5  42
ATOM     42  C25 NG2 d   1      -2.581 -47.072 -18.394  0.00  0.00     0.418 C 
ATOM     43  F26 NG2 d   1      -3.787 -46.524 -18.451  0.00  0.00    -0.166 F 
ATOM     44  F27 NG2 d   1      -1.695 -46.166 -17.963  0.00  0.00    -0.166 F 
ATOM     45  F28 NG2 d   1      -2.229 -47.483 -19.632  0.00  0.00    -0.166 F 
ENDBRANCH   5  42
BRANCH   4  46
ATOM     46  C30 NG2 d   1      -0.195 -48.928 -18.057  0.00  0.00     0.108 C 
ATOM     47  H   NG2 d   1       0.481 -48.304 -17.454  0.00  0.00     0.083 H 
ATOM     48  H   NG2 d   1      -0.420 -48.415 -19.003  0.00  0.00     0.083 H 
BRANCH  46  49
ATOM     49  N31 NG2 d   1       0.393 -50.075 -18.317  0.00  0.00    -0.064 N 
ATOM     50  C32 NG2 d   1       1.736 -49.893 -18.425  0.00  0.00     0.106 C 
ATOM     51  C33 NG2 d   1       2.480 -51.162 -18.840  0.00  0.00     0.106 C 
ATOM     52  H   NG2 d   1       2.124 -49.562 -17.450  0.00  0.00     0.078 H 
ATOM     53  H   NG2 d   1       1.925 -49.114 -19.178  0.00  0.00     0.078 H 
ATOM     54  N34 NG2 d   1       1.902 -51.822 -19.894  0.00  0.00    -0.068 N 
ATOM     55  H   NG2 d   1       2.510 -51.844 -17.978  0.00  0.00     0.078 H 
ATOM     56  H   NG2 d   1       3.506 -50.885 -19.125  0.00  0.00     0.078 H 
ATOM     57  C35 NG2 d   1       0.564 -51.947 -19.778  0.00  0.00     0.106 C 
ATOM     58  H   NG2 d   1       2.101 -51.301 -20.734  0.00  0.00     0.280 HD
ATOM     59  C36 NG2 d   1      -0.139 -50.628 -19.435  0.00  0.00     0.106 C 
ATOM     60  H   NG2 d   1       0.349 -52.675 -18.982  0.00  0.00     0.078 H 
ATOM     61  H   NG2 d   1       0.164 -52.318 -20.733  0.00  0.00     0.078 H 
ATOM     62  H   NG2 d   1      -0.021 -49.928 -20.275  0.00  0.00     0.078 H 
ATOM     63  H   NG2 d   1      -1.209 -50.823 -19.267  0.00  0.00     0.078 H 
ATOM     64  H   NG2 d   1       0.223 -50.703 -17.547  0.00  0.00     0.280 HD
BRANCH  54  65
ATOM     65  C37 NG2 d   1       2.405 -53.006 -20.004  0.00  0.00     0.080 C 
ATOM     66  H   NG2 d   1       1.682 -53.649 -20.527  0.00  0.00     0.075 H 
ATOM     67  H   NG2 d   1       2.589 -53.406 -18.996  0.00  0.00     0.075 H 
BRANCH  65  68
ATOM     68  C38 NG2 d   1       3.741 -53.014 -20.794  0.00  0.00    -0.053 C 
ATOM     69  H   NG2 d   1       4.123 -54.043 -20.857  0.00  0.00     0.029 H 
ATOM     70  H   NG2 d   1       4.477 -52.381 -20.277  0.00  0.00     0.029 H 
ATOM     71  H   NG2 d   1       3.570 -52.624 -21.808  0.00  0.00     0.029 H 
ENDBRANCH  65  68
ENDBRANCH  54  65
ENDBRANCH  46  49
ENDBRANCH   4  46
TORSDOF 10
