REMARK  4 active torsions:
REMARK  status: ('A' for Active; 'I' for Inactive)
REMARK    1  A    between atoms: C22_2  and  C21_5 
REMARK    2  A    between atoms: C16_10  and  C9_11 
REMARK    3  A    between atoms: C9_11  and  C8_12 
REMARK       I    between atoms: C8_12  and  N4_14 
REMARK    4  A    between atoms: N3_19  and  C1_20 
ROOT
ATOM      1  C8  2RY d   1     -63.346   1.438  -0.447  0.00  0.00     0.224 C 
ATOM      2  O1  2RY d   1     -64.120   0.501  -0.563  0.00  0.00    -0.273 OA
ATOM      3  N4  2RY d   1     -62.070   1.359  -0.865  0.00  0.00    -0.350 N 
ATOM      4  C15 2RY d   1     -61.578   0.100  -1.454  0.00  0.00     0.009 C 
ATOM      5  C7  2RY d   1     -60.570   0.343  -2.576  0.00  0.00    -0.000 C 
ATOM      6  C6  2RY d   1     -61.120   2.474  -0.717  0.00  0.00     0.009 C 
ATOM      7  C5  2RY d   1     -60.254   2.581  -1.966  0.00  0.00    -0.000 C 
ATOM      8  N3  2RY d   1     -59.552   1.299  -2.115  0.00  0.00    -0.264 NA
ATOM      9  H   2RY d   1     -62.434  -0.459  -1.861  0.00  0.00     0.066 H 
ATOM     10  H   2RY d   1     -61.094  -0.495  -0.665  0.00  0.00     0.066 H 
ATOM     11  H   2RY d   1     -61.089   0.754  -3.454  0.00  0.00     0.058 H 
ATOM     12  H   2RY d   1     -60.086  -0.607  -2.848  0.00  0.00     0.058 H 
ATOM     13  H   2RY d   1     -60.478   2.294   0.158  0.00  0.00     0.066 H 
ATOM     14  H   2RY d   1     -61.677   3.412  -0.577  0.00  0.00     0.066 H 
ATOM     15  H   2RY d   1     -59.527   3.398  -1.852  0.00  0.00     0.058 H 
ATOM     16  H   2RY d   1     -60.884   2.771  -2.847  0.00  0.00     0.058 H 
ENDROOT
BRANCH   1  17
ATOM     17  C9  2RY d   1     -63.843   2.727   0.184  0.00  0.00     0.034 C 
ATOM     18  H   2RY d   1     -63.240   2.945   1.078  0.00  0.00     0.054 H 
ATOM     19  H   2RY d   1     -63.734   3.547  -0.541  0.00  0.00     0.054 H 
BRANCH  17  20
ATOM     20  C16 2RY d   1     -65.304   2.612   0.587  0.00  0.00    -0.034 A 
ATOM     21  C21 2RY d   1     -66.352   3.206  -0.128  0.00  0.00     0.054 A 
ATOM     22  C20 2RY d   1     -67.666   3.040   0.326  0.00  0.00    -0.068 A 
ATOM     23  C19 2RY d   1     -67.936   2.297   1.471  0.00  0.00    -0.082 A 
ATOM     24  H   2RY d   1     -68.483   3.496  -0.221  0.00  0.00     0.084 H 
ATOM     25  C18 2RY d   1     -66.895   1.710   2.178  0.00  0.00    -0.082 A 
ATOM     26  H   2RY d   1     -68.958   2.176   1.811  0.00  0.00     0.083 H 
ATOM     27  C17 2RY d   1     -65.586   1.870   1.735  0.00  0.00    -0.076 A 
ATOM     28  H   2RY d   1     -67.101   1.130   3.070  0.00  0.00     0.083 H 
ATOM     29  H   2RY d   1     -64.774   1.412   2.289  0.00  0.00     0.084 H 
BRANCH  21  30
ATOM     30  C22 2RY d   1     -66.105   4.022  -1.374  0.00  0.00     0.418 C 
ATOM     31  F1  2RY d   1     -65.435   3.300  -2.254  0.00  0.00    -0.166 F 
ATOM     32  F2  2RY d   1     -67.244   4.405  -1.921  0.00  0.00    -0.166 F 
ATOM     33  F3  2RY d   1     -65.408   5.101  -1.068  0.00  0.00    -0.166 F 
ENDBRANCH  21  30
ENDBRANCH  17  20
ENDBRANCH   1  17
BRANCH   8  34
ATOM     34  C1  2RY d   1     -58.441   1.387  -2.986  0.00  0.00     0.120 A 
ATOM     35  C3  2RY d   1     -57.260   1.985  -2.548  0.00  0.00     0.048 A 
ATOM     36  C4  2RY d   1     -56.167   2.051  -3.429  0.00  0.00     0.113 A 
ATOM     37  C10 2RY d   1     -56.874   2.591  -1.348  0.00  0.00    -0.029 A 
ATOM     38  N2  2RY d   1     -56.279   1.531  -4.677  0.00  0.00    -0.234 NA
ATOM     39  S1  2RY d   1     -54.721   2.783  -2.914  0.00  0.00    -0.073 SA
ATOM     40  C2  2RY d   1     -57.426   0.955  -5.070  0.00  0.00     0.089 A 
ATOM     41  N1  2RY d   1     -58.485   0.881  -4.246  0.00  0.00    -0.229 NA
ATOM     42  H   2RY d   1     -57.499   0.542  -6.070  0.00  0.00     0.146 H 
ATOM     43  C11 2RY d   1     -55.515   3.069  -1.404  0.00  0.00    -0.008 A 
ATOM     44  C12 2RY d   1     -55.000   3.732  -0.172  0.00  0.00    -0.034 A 
ATOM     45  C13 2RY d   1     -56.264   3.615   0.721  0.00  0.00    -0.057 A 
ATOM     46  H   2RY d   1     -54.721   4.780  -0.355  0.00  0.00     0.041 H 
ATOM     47  H   2RY d   1     -54.142   3.194   0.257  0.00  0.00     0.041 H 
ATOM     48  C14 2RY d   1     -57.444   2.897   0.007  0.00  0.00    -0.039 A 
ATOM     49  H   2RY d   1     -56.589   4.627   1.004  0.00  0.00     0.033 H 
ATOM     50  H   2RY d   1     -56.003   3.047   1.626  0.00  0.00     0.033 H 
ATOM     51  H   2RY d   1     -57.725   1.975   0.536  0.00  0.00     0.040 H 
ATOM     52  H   2RY d   1     -58.321   3.557  -0.071  0.00  0.00     0.040 H 
ENDBRANCH   8  34
TORSDOF 4
