REMARK  10 active torsions:
REMARK  status: ('A' for Active; 'I' for Inactive)
REMARK    1  A    between atoms: C11_11  and  C32_23 
REMARK    2  A    between atoms: C13_13  and  C18_18 
REMARK    3  A    between atoms: C17_17  and  C20_19 
REMARK    4  A    between atoms: O17_35  and  C17_17 
REMARK    5  A    between atoms: C20_19  and  C21_20 
REMARK    6  A    between atoms: C35_26  and  N38_29 
REMARK    7  A    between atoms: N38_29  and  C39_30 
REMARK    8  A    between atoms: N38_29  and  C40_31 
REMARK    9  A    between atoms: C30_33  and  C31_32 
REMARK   10  A    between atoms: C30_33  and  O17_35 
ROOT
ATOM      1  C1  2S0 d   1      14.612  26.442  16.763  0.00  0.00    -0.034 C 
ATOM      2  C2  2S0 d   1      14.822  27.818  17.348  0.00  0.00    -0.002 C 
ATOM      3  C3  2S0 d   1      14.444  29.067  16.402  0.00  0.00     0.150 C 
ATOM      4  C4  2S0 d   1      14.001  28.807  15.120  0.00  0.00    -0.032 C 
ATOM      5  C5  2S0 d   1      13.905  27.512  14.577  0.00  0.00    -0.048 C 
ATOM      6  C6  2S0 d   1      13.395  27.443  13.136  0.00  0.00    -0.040 C 
ATOM      7  C7  2S0 d   1      14.067  26.336  12.325  0.00  0.00    -0.054 C 
ATOM      8  C8  2S0 d   1      14.230  25.009  13.045  0.00  0.00    -0.026 C 
ATOM      9  C9  2S0 d   1      14.527  25.045  14.590  0.00  0.00    -0.060 C 
ATOM     10  C10 2S0 d   1      14.352  26.323  15.300  0.00  0.00    -0.048 C 
ATOM     11  C11 2S0 d   1      14.982  23.701  15.311  0.00  0.00    -0.005 C 
ATOM     12  C12 2S0 d   1      15.427  22.652  14.433  0.00  0.00    -0.044 C 
ATOM     13  C13 2S0 d   1      14.864  22.476  13.003  0.00  0.00     0.000 C 
ATOM     14  C14 2S0 d   1      14.858  23.801  12.301  0.00  0.00    -0.037 C 
ATOM     15  C15 2S0 d   1      14.640  23.492  10.822  0.00  0.00    -0.057 C 
ATOM     16  C16 2S0 d   1      15.260  22.088  10.672  0.00  0.00    -0.028 C 
ATOM     17  C17 2S0 d   1      15.736  21.648  12.084  0.00  0.00     0.138 C 
ATOM     18  O3  2S0 d   1      14.515  30.249  16.890  0.00  0.00    -0.293 OA
ATOM     19  H   2S0 d   1      13.751  25.996  17.283  0.00  0.00     0.040 H 
ATOM     20  H   2S0 d   1      15.517  25.855  16.981  0.00  0.00     0.040 H 
ATOM     21  H   2S0 d   1      15.886  27.910  17.613  0.00  0.00     0.045 H 
ATOM     22  H   2S0 d   1      14.209  27.891  18.259  0.00  0.00     0.045 H 
ATOM     23  H   2S0 d   1      13.710  29.650  14.495  0.00  0.00     0.089 H 
ATOM     24  H   2S0 d   1      13.593  28.408  12.646  0.00  0.00     0.040 H 
ATOM     25  H   2S0 d   1      12.311  27.257  13.155  0.00  0.00     0.040 H 
ATOM     26  H   2S0 d   1      15.067  26.689  12.033  0.00  0.00     0.034 H 
ATOM     27  H   2S0 d   1      13.462  26.161  11.423  0.00  0.00     0.034 H 
ATOM     28  H   2S0 d   1      13.177  24.690  13.059  0.00  0.00     0.047 H 
ATOM     29  H   2S0 d   1      15.802  23.949  16.001  0.00  0.00     0.054 H 
ATOM     30  H   2S0 d   1      15.228  21.707  14.959  0.00  0.00     0.035 H 
ATOM     31  H   2S0 d   1      16.513  22.787  14.320  0.00  0.00     0.035 H 
ATOM     32  H   2S0 d   1      15.916  24.101  12.317  0.00  0.00     0.042 H 
ATOM     33  H   2S0 d   1      15.157  24.224  10.184  0.00  0.00     0.033 H 
ATOM     34  H   2S0 d   1      13.569  23.481  10.573  0.00  0.00     0.033 H 
ATOM     35  H   2S0 d   1      16.114  22.124   9.980  0.00  0.00     0.038 H 
ATOM     36  H   2S0 d   1      14.508  21.382  10.290  0.00  0.00     0.038 H 
ENDROOT
BRANCH  11  37
ATOM     37  C32 2S0 d   1      13.748  23.095  16.133  0.00  0.00    -0.050 A 
ATOM     38  C33 2S0 d   1      12.478  23.653  16.027  0.00  0.00    -0.074 A 
ATOM     39  C34 2S0 d   1      11.391  23.080  16.673  0.00  0.00    -0.057 A 
ATOM     40  H   2S0 d   1      12.335  24.548  15.432  0.00  0.00     0.084 H 
ATOM     41  C35 2S0 d   1      11.566  21.933  17.441  0.00  0.00     0.029 A 
ATOM     42  H   2S0 d   1      10.407  23.526  16.579  0.00  0.00     0.086 H 
ATOM     43  C36 2S0 d   1      12.823  21.360  17.556  0.00  0.00    -0.057 A 
ATOM     44  C37 2S0 d   1      13.906  21.943  16.903  0.00  0.00    -0.074 A 
ATOM     45  H   2S0 d   1      12.962  20.464  18.150  0.00  0.00     0.086 H 
ATOM     46  H   2S0 d   1      14.888  21.494  16.995  0.00  0.00     0.084 H 
BRANCH  41  47
ATOM     47  N38 2S0 d   1      10.495  21.388  18.114  0.00  0.00    -0.390 N 
BRANCH  47  48
ATOM     48  C39 2S0 d   1       9.210  21.813  17.931  0.00  0.00    -0.019 C 
ATOM     49  H   2S0 d   1       8.536  21.230  18.575  0.00  0.00     0.056 H 
ATOM     50  H   2S0 d   1       8.924  21.673  16.878  0.00  0.00     0.056 H 
ATOM     51  H   2S0 d   1       9.136  22.879  18.192  0.00  0.00     0.056 H 
ENDBRANCH  47  48
BRANCH  47  52
ATOM     52  C40 2S0 d   1      10.643  20.385  19.022  0.00  0.00    -0.019 C 
ATOM     53  H   2S0 d   1      11.706  20.114  19.099  0.00  0.00     0.056 H 
ATOM     54  H   2S0 d   1      10.063  19.508  18.698  0.00  0.00     0.056 H 
ATOM     55  H   2S0 d   1      10.279  20.722  20.004  0.00  0.00     0.056 H 
ENDBRANCH  47  52
ENDBRANCH  41  47
ENDBRANCH  11  37
BRANCH  13  56
ATOM     56  C18 2S0 d   1      13.477  21.828  13.125  0.00  0.00    -0.065 C 
ATOM     57  H   2S0 d   1      12.847  22.433  13.794  0.00  0.00     0.028 H 
ATOM     58  H   2S0 d   1      13.581  20.814  13.538  0.00  0.00     0.028 H 
ATOM     59  H   2S0 d   1      13.009  21.773  12.131  0.00  0.00     0.028 H 
ENDBRANCH  13  56
BRANCH  17  60
ATOM     60  C20 2S0 d   1      15.943  20.123  12.282  0.00  0.00     0.158 C 
ATOM     61  O20 2S0 d   1      15.518  19.312  11.497  0.00  0.00    -0.295 OA
BRANCH  60  62
ATOM     62  C21 2S0 d   1      16.692  19.526  13.465  0.00  0.00    -0.018 C 
ATOM     63  H   2S0 d   1      16.702  18.430  13.377  0.00  0.00     0.037 H 
ATOM     64  H   2S0 d   1      16.190  19.814  14.400  0.00  0.00     0.037 H 
ATOM     65  H   2S0 d   1      17.726  19.902  13.472  0.00  0.00     0.037 H 
ENDBRANCH  60  62
ENDBRANCH  17  60
BRANCH  17  66
ATOM     66  O17 2S0 d   1      17.255  21.966  12.174  0.00  0.00    -0.302 OA
BRANCH  66  67
ATOM     67  C30 2S0 d   1      18.443  21.406  11.511  0.00  0.00     0.256 C 
ATOM     68  O30 2S0 d   1      18.327  20.397  10.791  0.00  0.00    -0.266 OA
BRANCH  67  69
ATOM     69  C31 2S0 d   1      19.815  22.043  11.614  0.00  0.00     0.004 C 
ATOM     70  H   2S0 d   1      20.540  21.448  11.038  0.00  0.00     0.041 H 
ATOM     71  H   2S0 d   1      20.125  22.078  12.669  0.00  0.00     0.041 H 
ATOM     72  H   2S0 d   1      19.776  23.065  11.210  0.00  0.00     0.041 H 
ENDBRANCH  67  69
ENDBRANCH  66  67
ENDBRANCH  17  66
TORSDOF 10
