REMARK  14 active torsions:
REMARK  status: ('A' for Active; 'I' for Inactive)
REMARK    1  A    between atoms: C6_7  and  C2_8 
REMARK    2  A    between atoms: C4_10  and  C21_11 
REMARK    3  A    between atoms: C4_10  and  C24_15 
REMARK    4  A    between atoms: C21_11  and  C23_12 
REMARK    5  A    between atoms: N1_18  and  C18_19 
REMARK    6  A    between atoms: C18_19  and  C19_20 
REMARK    7  A    between atoms: C18_19  and  C20_22 
REMARK    8  A    between atoms: C19_20  and  C22_21 
REMARK    9  A    between atoms: C20_22  and  S1_31 
REMARK   10  A    between atoms: C1_23  and  C7_24 
REMARK   11  A    between atoms: S1_31  and  C25_34 
REMARK   12  A    between atoms: C25_34  and  C26_35 
REMARK   13  A    between atoms: C25_34  and  C27_36 
REMARK   14  A    between atoms: C25_34  and  C28_37 
ROOT
ATOM      1  C2  2SW d   1     -15.313   0.865 -16.909  0.00  0.00    -0.004 C 
ATOM      2  C3  2SW d   1     -15.893  -0.558 -16.755  0.00  0.00    -0.040 C 
ATOM      3  C4  2SW d   1     -14.815  -1.668 -16.859  0.00  0.00     0.047 C 
ATOM      4  C5  2SW d   1     -13.784  -1.406 -17.975  0.00  0.00     0.229 C 
ATOM      5  O1  2SW d   1     -13.007  -2.311 -18.285  0.00  0.00    -0.272 OA
ATOM      6  N1  2SW d   1     -13.724  -0.199 -18.613  0.00  0.00    -0.336 N 
ATOM      7  C1  2SW d   1     -14.542   0.996 -18.249  0.00  0.00     0.048 C 
ATOM      8  H   2SW d   1     -14.556   0.973 -16.118  0.00  0.00     0.051 H 
ATOM      9  H   2SW d   1     -16.640  -0.720 -17.547  0.00  0.00     0.035 H 
ATOM     10  H   2SW d   1     -16.380  -0.633 -15.771  0.00  0.00     0.035 H 
ATOM     11  H   2SW d   1     -15.312   1.071 -19.031  0.00  0.00     0.081 H 
ENDROOT
BRANCH   6  12
ATOM     12  C18 2SW d   1     -12.759  -0.073 -19.762  0.00  0.00     0.027 C 
ATOM     13  H   2SW d   1     -12.845   0.974 -20.089  0.00  0.00     0.074 H 
BRANCH  12  14
ATOM     14  C19 2SW d   1     -11.292  -0.255 -19.293  0.00  0.00    -0.048 C 
ATOM     15  H   2SW d   1     -10.937  -1.232 -19.655  0.00  0.00     0.035 H 
ATOM     16  H   2SW d   1     -11.282  -0.246 -18.193  0.00  0.00     0.035 H 
BRANCH  14  17
ATOM     17  C22 2SW d   1     -10.332   0.797 -19.776  0.00  0.00    -0.075 C 
ATOM     18  H   2SW d   1      -9.325   0.579 -19.391  0.00  0.00     0.027 H 
ATOM     19  H   2SW d   1     -10.657   1.784 -19.414  0.00  0.00     0.027 H 
ATOM     20  H   2SW d   1     -10.312   0.798 -20.876  0.00  0.00     0.027 H 
ENDBRANCH  14  17
ENDBRANCH  12  14
BRANCH  12  21
ATOM     21  C20 2SW d   1     -13.051  -0.905 -21.021  0.00  0.00     0.048 C 
ATOM     22  H   2SW d   1     -12.858  -1.967 -20.807  0.00  0.00     0.059 H 
ATOM     23  H   2SW d   1     -12.394  -0.571 -21.837  0.00  0.00     0.059 H 
BRANCH  21  24
ATOM     24  S1  2SW d   1     -14.781  -0.701 -21.525  0.00  0.00     0.153 S 
ATOM     25  O4  2SW d   1     -15.086   0.690 -21.601  0.00  0.00    -0.227 OA
ATOM     26  O5  2SW d   1     -15.596  -1.543 -20.698  0.00  0.00    -0.227 OA
BRANCH  24  27
ATOM     27  C25 2SW d   1     -14.990  -1.347 -23.190  0.00  0.00     0.053 C 
BRANCH  27  28
ATOM     28  C26 2SW d   1     -16.490  -1.388 -23.508  0.00  0.00    -0.057 C 
ATOM     29  H   2SW d   1     -16.639  -1.781 -24.524  0.00  0.00     0.029 H 
ATOM     30  H   2SW d   1     -16.907  -0.372 -23.443  0.00  0.00     0.029 H 
ATOM     31  H   2SW d   1     -17.001  -2.040 -22.784  0.00  0.00     0.029 H 
ENDBRANCH  27  28
BRANCH  27  32
ATOM     32  C27 2SW d   1     -14.457  -2.783 -23.273  0.00  0.00    -0.057 C 
ATOM     33  H   2SW d   1     -14.591  -3.165 -24.296  0.00  0.00     0.029 H 
ATOM     34  H   2SW d   1     -15.010  -3.421 -22.568  0.00  0.00     0.029 H 
ATOM     35  H   2SW d   1     -13.388  -2.793 -23.015  0.00  0.00     0.029 H 
ENDBRANCH  27  32
BRANCH  27  36
ATOM     36  C28 2SW d   1     -14.318  -0.376 -24.163  0.00  0.00    -0.057 C 
ATOM     37  H   2SW d   1     -14.432  -0.750 -25.191  0.00  0.00     0.029 H 
ATOM     38  H   2SW d   1     -13.248  -0.294 -23.919  0.00  0.00     0.029 H 
ATOM     39  H   2SW d   1     -14.790   0.614 -24.078  0.00  0.00     0.029 H 
ENDBRANCH  27  36
ENDBRANCH  24  27
ENDBRANCH  21  24
ENDBRANCH  12  21
ENDBRANCH   6  12
BRANCH   7  40
ATOM     40  C7  2SW d   1     -13.761   2.298 -18.303  0.00  0.00    -0.035 A 
ATOM     41  C8  2SW d   1     -12.678   2.549 -17.435  0.00  0.00    -0.073 A 
ATOM     42  C9  2SW d   1     -11.987   3.767 -17.478  0.00  0.00    -0.061 A 
ATOM     43  H   2SW d   1     -12.376   1.788 -16.724  0.00  0.00     0.084 H 
ATOM     44  C10 2SW d   1     -12.411   4.740 -18.420  0.00  0.00     0.034 A 
ATOM     45  H   2SW d   1     -11.154   3.960 -16.812  0.00  0.00     0.086 H 
ATOM     46 CL1  2SW d   1     -11.626   6.237 -18.503  0.00  0.00    -0.084 Cl
ATOM     47  C11 2SW d   1     -13.468   4.522 -19.287  0.00  0.00    -0.061 A 
ATOM     48  C12 2SW d   1     -14.140   3.301 -19.228  0.00  0.00    -0.073 A 
ATOM     49  H   2SW d   1     -13.767   5.284 -19.997  0.00  0.00     0.086 H 
ATOM     50  H   2SW d   1     -14.968   3.116 -19.903  0.00  0.00     0.084 H 
ENDBRANCH   7  40
BRANCH   3  51
ATOM     51  C21 2SW d   1     -13.981  -1.752 -15.564  0.00  0.00     0.030 C 
ATOM     52  H   2SW d   1     -13.577  -0.750 -15.357  0.00  0.00     0.051 H 
ATOM     53  H   2SW d   1     -13.152  -2.453 -15.741  0.00  0.00     0.051 H 
BRANCH  51  54
ATOM     54  C23 2SW d   1     -14.743  -2.227 -14.303  0.00  0.00     0.173 C 
ATOM     55  O3  2SW d   1     -15.606  -1.526 -13.757  0.00  0.00    -0.648 OA
ATOM     56  O2  2SW d   1     -14.485  -3.332 -13.815  0.00  0.00    -0.648 OA
ENDBRANCH  51  54
ENDBRANCH   3  51
BRANCH   3  57
ATOM     57  C24 2SW d   1     -15.569  -2.980 -17.180  0.00  0.00    -0.060 C 
ATOM     58  H   2SW d   1     -16.142  -2.855 -18.111  0.00  0.00     0.029 H 
ATOM     59  H   2SW d   1     -16.257  -3.219 -16.355  0.00  0.00     0.029 H 
ATOM     60  H   2SW d   1     -14.845  -3.799 -17.302  0.00  0.00     0.029 H 
ENDBRANCH   3  57
BRANCH   1  61
ATOM     61  C6  2SW d   1     -16.330   1.958 -16.638  0.00  0.00    -0.050 A 
ATOM     62  C17 2SW d   1     -16.012   3.027 -15.778  0.00  0.00    -0.055 A 
ATOM     63  C16 2SW d   1     -16.939   4.066 -15.544  0.00  0.00     0.034 A 
ATOM     64  H   2SW d   1     -15.044   3.052 -15.290  0.00  0.00     0.086 H 
ATOM     65 CL2  2SW d   1     -16.452   5.365 -14.530  0.00  0.00    -0.084 Cl
ATOM     66  C15 2SW d   1     -18.200   4.067 -16.146  0.00  0.00    -0.062 A 
ATOM     67  C14 2SW d   1     -18.540   3.004 -17.006  0.00  0.00    -0.081 A 
ATOM     68  H   2SW d   1     -18.903   4.870 -15.955  0.00  0.00     0.086 H 
ATOM     69  C13 2SW d   1     -17.606   1.956 -17.251  0.00  0.00    -0.076 A 
ATOM     70  H   2SW d   1     -19.514   2.983 -17.482  0.00  0.00     0.083 H 
ATOM     71  H   2SW d   1     -17.877   1.145 -17.917  0.00  0.00     0.084 H 
ENDBRANCH   1  61
TORSDOF 14
