REMARK  6 active torsions:
REMARK  status: ('A' for Active; 'I' for Inactive)
REMARK    1  A    between atoms: C2'_10  and  O2'_11 
REMARK    2  A    between atoms: C1'_12  and  N9_13 
REMARK    3  A    between atoms: C2_20  and  N2_21 
REMARK    4  A    between atoms: C2A_33  and  O2A_34 
REMARK    5  A    between atoms: C1A_35  and  N91_36 
REMARK    6  A    between atoms: C21_43  and  N21_44 
ROOT
ATOM      1  P1  C2E d   1      12.057  51.486   5.955  0.00  0.00     0.408 P 
ATOM      2  O2P C2E d   1      11.079  50.370   5.932  0.00  0.00    -0.624 OA
ATOM      3  O1P C2E d   1      13.272  51.160   5.163  0.00  0.00    -0.624 OA
ATOM      4  O5' C2E d   1      12.571  51.899   7.392  0.00  0.00    -0.287 OA
ATOM      5  C5' C2E d   1      11.562  52.178   8.298  0.00  0.00     0.058 C 
ATOM      6  C4' C2E d   1      12.251  53.048   9.307  0.00  0.00     0.090 C 
ATOM      7  O4' C2E d   1      13.203  52.426  10.074  0.00  0.00    -0.353 OA
ATOM      8  C3' C2E d   1      12.627  54.438   9.014  0.00  0.00     0.106 C 
ATOM      9  O3' C2E d   1      11.550  55.326   8.966  0.00  0.00    -0.279 OA
ATOM     10  C2' C2E d   1      13.500  54.714  10.113  0.00  0.00     0.106 C 
ATOM     11  C1' C2E d   1      14.112  53.444  10.413  0.00  0.00     0.140 C 
ATOM     12  P11 C2E d   1      11.649  56.612   8.091  0.00  0.00     0.408 P 
ATOM     13  O21 C2E d   1      10.406  57.468   8.292  0.00  0.00    -0.624 OA
ATOM     14  O11 C2E d   1      12.919  57.287   8.501  0.00  0.00    -0.624 OA
ATOM     15  O5A C2E d   1      11.805  56.194   6.571  0.00  0.00    -0.287 OA
ATOM     16  C5A C2E d   1      10.633  55.727   5.957  0.00  0.00     0.058 C 
ATOM     17  C4A C2E d   1      11.166  54.986   4.776  0.00  0.00     0.090 C 
ATOM     18  O4A C2E d   1      11.545  55.870   3.705  0.00  0.00    -0.353 OA
ATOM     19  C3A C2E d   1      12.006  53.776   4.903  0.00  0.00     0.106 C 
ATOM     20  O3A C2E d   1      11.246  52.635   5.279  0.00  0.00    -0.279 OA
ATOM     21  C2A C2E d   1      12.574  53.750   3.526  0.00  0.00     0.106 C 
ATOM     22  C1A C2E d   1      12.614  55.211   3.118  0.00  0.00     0.140 C 
ATOM     23  H1  C2E d   1      11.182  51.257   8.763  0.00  0.00     0.079 H 
ATOM     24  H2  C2E d   1      10.732  52.714   7.814  0.00  0.00     0.079 H 
ATOM     25  H3  C2E d   1      11.432  53.199  10.026  0.00  0.00     0.090 H 
ATOM     26  H4  C2E d   1      13.167  54.498   8.057  0.00  0.00     0.092 H 
ATOM     27  H5  C2E d   1      14.243  55.473   9.828  0.00  0.00     0.093 H 
ATOM     28  H7  C2E d   1      14.320  53.421  11.493  0.00  0.00     0.122 H 
ATOM     29  H12 C2E d   1       9.987  56.561   5.646  0.00  0.00     0.079 H 
ATOM     30  H13 C2E d   1      10.072  55.059   6.626  0.00  0.00     0.079 H 
ATOM     31  H14 C2E d   1      10.240  54.537   4.387  0.00  0.00     0.090 H 
ATOM     32  H15 C2E d   1      12.803  53.916   5.648  0.00  0.00     0.092 H 
ATOM     33  H16 C2E d   1      13.583  53.313   3.530  0.00  0.00     0.093 H 
ATOM     34  H18 C2E d   1      12.502  55.258   2.025  0.00  0.00     0.122 H 
ENDROOT
BRANCH  11  35
ATOM     35  N9  C2E d   1      15.376  53.100   9.685  0.00  0.00    -0.293 N 
ATOM     36  C8  C2E d   1      15.584  52.306   8.622  0.00  0.00     0.071 A 
ATOM     37  N7  C2E d   1      16.789  52.259   8.328  0.00  0.00    -0.235 NA
ATOM     38  H8  C2E d   1      14.799  51.773   8.088  0.00  0.00     0.144 H 
ATOM     39  C5  C2E d   1      17.534  53.036   9.105  0.00  0.00     0.159 A 
ATOM     40  C6  C2E d   1      18.859  53.369   9.262  0.00  0.00     0.226 A 
ATOM     41  C4  C2E d   1      16.600  53.614  10.063  0.00  0.00     0.185 A 
ATOM     42  O6  C2E d   1      19.835  52.882   8.455  0.00  0.00    -0.169 OA
ATOM     43  N1  C2E d   1      19.237  54.211  10.253  0.00  0.00    -0.164 N 
ATOM     44  C2  C2E d   1      18.303  54.775  11.094  0.00  0.00     0.702 A 
ATOM     45  H9  C2E d   1      20.206  54.426  10.376  0.00  0.00     0.186 HD
ATOM     46  N3  C2E d   1      16.986  54.465  11.030  0.00  0.00    -0.044 NA
BRANCH  44  47
ATOM     47  N2  C2E d   1      18.762  55.695  12.135  0.00  0.00    -0.233 N 
ATOM     48  H10 C2E d   1      18.082  56.129  12.775  0.00  0.00     0.174 HD
ATOM     49  H11 C2E d   1      19.765  55.909  12.227  0.00  0.00     0.174 HD
ENDBRANCH  44  47
ENDBRANCH  11  35
BRANCH  10  50
ATOM     50  O2' C2E d   1      12.814  55.120  11.335  0.00  0.00    -0.388 OA
ATOM     51  H6  C2E d   1      12.315  55.911  11.169  0.00  0.00     0.210 HD
ENDBRANCH  10  50
BRANCH  21  52
ATOM     52  O2A C2E d   1      11.777  53.051   2.665  0.00  0.00    -0.388 OA
ATOM     53  H17 C2E d   1      11.691  52.156   2.971  0.00  0.00     0.210 HD
ENDBRANCH  21  52
BRANCH  22  54
ATOM     54  N91 C2E d   1      13.843  55.892   3.464  0.00  0.00    -0.293 N 
ATOM     55  C81 C2E d   1      14.133  56.693   4.454  0.00  0.00     0.071 A 
ATOM     56  N71 C2E d   1      15.309  57.068   4.373  0.00  0.00    -0.235 NA
ATOM     57  H19 C2E d   1      13.438  56.989   5.239  0.00  0.00     0.144 H 
ATOM     58  C51 C2E d   1      16.007  56.524   3.389  0.00  0.00     0.159 A 
ATOM     59  C61 C2E d   1      17.299  56.540   2.832  0.00  0.00     0.226 A 
ATOM     60  C41 C2E d   1      15.047  55.703   2.729  0.00  0.00     0.185 A 
ATOM     61  O61 C2E d   1      18.290  57.235   3.329  0.00  0.00    -0.169 OA
ATOM     62  N11 C2E d   1      17.540  55.836   1.728  0.00  0.00    -0.164 N 
ATOM     63  C21 C2E d   1      16.596  55.045   1.148  0.00  0.00     0.702 A 
ATOM     64  H20 C2E d   1      18.447  55.890   1.310  0.00  0.00     0.186 HD
ATOM     65  N31 C2E d   1      15.332  54.967   1.613  0.00  0.00    -0.044 NA
BRANCH  63  66
ATOM     66  N21 C2E d   1      16.925  54.278  -0.027  0.00  0.00    -0.233 N 
ATOM     67  H21 C2E d   1      16.212  53.679  -0.467  0.00  0.00     0.174 HD
ATOM     68  H22 C2E d   1      17.873  54.329  -0.426  0.00  0.00     0.174 HD
ENDBRANCH  63  66
ENDBRANCH  22  54
TORSDOF 6
