REMARK  3 active torsions:
REMARK  status: ('A' for Active; 'I' for Inactive)
REMARK    1  A    between atoms: B_1  and  O1_2 
REMARK    2  A    between atoms: B_1  and  O2_3 
REMARK    3  A    between atoms: CA_8  and  B_1 
ROOT
ATOM      1  CG1 PBC d   1      34.728  -9.881  10.858  0.00  0.00    -0.083 A 
ATOM      2  CD1 PBC d   1      33.536  -9.301  11.056  0.00  0.00    -0.083 A 
ATOM      3  CG2 PBC d   1      33.190  -8.916  12.292  0.00  0.00    -0.083 A 
ATOM      4  CB2 PBC d   1      34.023  -9.055  13.371  0.00  0.00    -0.089 A 
ATOM      5  CA  PBC d   1      35.244  -9.659  13.156  0.00  0.00    -0.119 A 
ATOM      6  CB1 PBC d   1      35.596 -10.060  11.897  0.00  0.00    -0.089 A 
ATOM      7  H5  PBC d   1      35.006 -10.211   9.864  0.00  0.00     0.083 H 
ATOM      8  H6  PBC d   1      32.858  -9.145  10.224  0.00  0.00     0.083 H 
ATOM      9  H7  PBC d   1      32.211  -8.476  12.444  0.00  0.00     0.083 H 
ATOM     10  H8  PBC d   1      33.734  -8.704  14.355  0.00  0.00     0.082 H 
ATOM     11  H10 PBC d   1      36.562 -10.519  11.724  0.00  0.00     0.082 H 
ENDROOT
BRANCH   5  12
ATOM     12  B   PBC d   1      36.264  -9.859  14.283  0.00  0.00     0.133 B 
BRANCH  12  13
ATOM     13  O1  PBC d   1      37.748  -9.947  14.055  0.00  0.00     0.000 OA
ATOM     14  H1  PBC d   1      38.174  -9.200  14.459  0.00  0.00     0.000 HD
ATOM     15  H2  PBC d   1      38.174  -9.200  14.459  0.00  0.00     0.000 HD
ENDBRANCH  12  13
BRANCH  12  16
ATOM     16  O2  PBC d   1      35.929  -9.856  15.745  0.00  0.00     0.000 OA
ATOM     17  H3  PBC d   1      34.987  -9.800  15.853  0.00  0.00     0.000 HD
ATOM     18  H4  PBC d   1      34.987  -9.800  15.853  0.00  0.00     0.000 HD
ENDBRANCH  12  16
ENDBRANCH   5  12
TORSDOF 3
