REMARK  6 active torsions:
REMARK  status: ('A' for Active; 'I' for Inactive)
REMARK    1  A    between atoms: C1_1  and  C2_2 
REMARK    2  A    between atoms: C2_2  and  C6_3 
REMARK    3  A    between atoms: C6_3  and  C9_4 
REMARK    4  A    between atoms: C9_4  and  B12_5 
REMARK    5  A    between atoms: B12_5  and  O15_6 
REMARK    6  A    between atoms: B12_5  and  O16_7 
ROOT
ATOM      1  C6  BUB d   1       9.594  34.233  18.726  0.00  0.00    -0.075 C 
ATOM      2  H6  BUB d   1       9.797  33.175  18.950  0.00  0.00     0.032 H 
ATOM      3  H7  BUB d   1      10.499  34.828  18.914  0.00  0.00     0.032 H 
ENDROOT
BRANCH   1   4
ATOM      4  C2  BUB d   1       8.490  34.721  19.623  0.00  0.00    -0.069 C 
ATOM      5  H4  BUB d   1       8.501  35.821  19.618  0.00  0.00     0.032 H 
ATOM      6  H5  BUB d   1       7.532  34.362  19.219  0.00  0.00     0.032 H 
BRANCH   4   7
ATOM      7  C1  BUB d   1       8.607  34.252  21.054  0.00  0.00    -0.077 C 
ATOM      8  H1  BUB d   1       7.766  34.650  21.640  0.00  0.00     0.027 H 
ATOM      9  H2  BUB d   1       9.555  34.611  21.481  0.00  0.00     0.027 H 
ATOM     10  H3  BUB d   1       8.586  33.153  21.082  0.00  0.00     0.027 H 
ENDBRANCH   4   7
ENDBRANCH   1   4
BRANCH   1  11
ATOM     11  C9  BUB d   1       9.210  34.365  17.268  0.00  0.00    -0.109 C 
ATOM     12  H9  BUB d   1       8.157  34.675  17.193  0.00  0.00     0.020 H 
ATOM     13  H10 BUB d   1       9.344  33.396  16.764  0.00  0.00     0.020 H 
BRANCH  11  14
ATOM     14  B12 BUB d   1       9.765  35.794  16.631  0.00  0.00     0.082 B 
BRANCH  14  15
ATOM     15  O15 BUB d   1       9.955  36.948  17.443  0.00  0.00     0.000 OA
ATOM     16  H11 BUB d   1      10.737  37.407  17.160  0.00  0.00     0.000 HD
ATOM     17  H12 BUB d   1      10.737  37.407  17.160  0.00  0.00     0.000 HD
ENDBRANCH  14  15
BRANCH  14  18
ATOM     18  O16 BUB d   1       9.607  36.075  15.244  0.00  0.00     0.000 OA
ATOM     19  H13 BUB d   1       9.486  35.261  14.769  0.00  0.00     0.000 HD
ATOM     20  H14 BUB d   1       9.486  35.261  14.769  0.00  0.00     0.000 HD
ENDBRANCH  14  18
ENDBRANCH  11  14
ENDBRANCH   1  11
TORSDOF 6
