REMARK  6 active torsions:
REMARK  status: ('A' for Active; 'I' for Inactive)
REMARK    1  A    between atoms: C1_1  and  C2_2 
REMARK    2  A    between atoms: C2_2  and  C6_3 
REMARK    3  A    between atoms: C6_3  and  C9_4 
REMARK    4  A    between atoms: C9_4  and  B12_5 
REMARK    5  A    between atoms: B12_5  and  O15_6 
REMARK    6  A    between atoms: B12_5  and  O16_7 
ROOT
ATOM      1  C6  BUB d   1      -8.738 -34.758 203.949  0.00  0.00    -0.075 C 
ATOM      2  H6  BUB d   1      -7.993 -35.542 204.152  0.00  0.00     0.032 H 
ATOM      3  H7  BUB d   1      -8.401 -34.142 203.102  0.00  0.00     0.032 H 
ENDROOT
BRANCH   1   4
ATOM      4  C2  BUB d   1      -8.860 -33.874 205.175  0.00  0.00    -0.069 C 
ATOM      5  H4  BUB d   1      -8.228 -32.986 205.027  0.00  0.00     0.032 H 
ATOM      6  H5  BUB d   1      -9.911 -33.564 205.276  0.00  0.00     0.032 H 
BRANCH   4   7
ATOM      7  C1  BUB d   1      -8.435 -34.555 206.463  0.00  0.00    -0.077 C 
ATOM      8  H1  BUB d   1      -8.551 -33.855 207.304  0.00  0.00     0.027 H 
ATOM      9  H2  BUB d   1      -7.382 -34.863 206.385  0.00  0.00     0.027 H 
ATOM     10  H3  BUB d   1      -9.064 -35.441 206.634  0.00  0.00     0.027 H 
ENDBRANCH   4   7
ENDBRANCH   1   4
BRANCH   1  11
ATOM     11  C9  BUB d   1     -10.049 -35.418 203.578  0.00  0.00    -0.109 C 
ATOM     12  H9  BUB d   1     -10.870 -34.937 204.129  0.00  0.00     0.020 H 
ATOM     13  H10 BUB d   1     -10.008 -36.486 203.839  0.00  0.00     0.020 H 
BRANCH  11  14
ATOM     14  B12 BUB d   1      -9.849 -36.426 202.280  0.00  0.00     0.082 B 
BRANCH  14  15
ATOM     15  O15 BUB d   1     -10.341 -37.773 202.336  0.00  0.00     0.000 OA
ATOM     16  H11 BUB d   1     -10.578 -37.985 203.231  0.00  0.00     0.000 HD
ATOM     17  H12 BUB d   1     -10.578 -37.985 203.231  0.00  0.00     0.000 HD
ENDBRANCH  14  15
BRANCH  14  18
ATOM     18  O16 BUB d   1      -9.426 -35.871 201.032  0.00  0.00     0.000 OA
ATOM     19  H13 BUB d   1     -10.154 -35.876 200.422  0.00  0.00     0.000 HD
ATOM     20  H14 BUB d   1     -10.154 -35.876 200.422  0.00  0.00     0.000 HD
ENDBRANCH  14  18
ENDBRANCH  11  14
ENDBRANCH   1  11
TORSDOF 6
