REMARK  12 active torsions:
REMARK  status: ('A' for Active; 'I' for Inactive)
REMARK    1  A    between atoms: C9_7  and  C8_8 
REMARK    2  A    between atoms: C23_10  and  C25_11 
REMARK    3  A    between atoms: C25_11  and  C26_12 
REMARK    4  A    between atoms: N1_17  and  C15_18 
REMARK    5  A    between atoms: C15_18  and  C16_19 
REMARK    6  A    between atoms: C15_18  and  C17_22 
REMARK    7  A    between atoms: C17_22  and  S1_23 
REMARK    8  A    between atoms: S1_23  and  C18_26 
REMARK    9  A    between atoms: C18_26  and  C20_27 
REMARK   10  A    between atoms: C18_26  and  C21_28 
REMARK   11  A    between atoms: C18_26  and  C19_29 
REMARK   12  A    between atoms: C7_30  and  C5_31 
ROOT
ATOM      1  C8  2TW d   1      15.093   0.753 -36.551  0.00  0.00     0.088 C 
ATOM      2  O1  2TW d   1      15.724  -0.536 -36.616  0.00  0.00    -0.364 OA
ATOM      3  C23 2TW d   1      14.778  -1.642 -36.609  0.00  0.00     0.125 C 
ATOM      4  C24 2TW d   1      13.712  -1.468 -35.502  0.00  0.00     0.250 C 
ATOM      5  O2  2TW d   1      13.009  -2.436 -35.209  0.00  0.00    -0.270 OA
ATOM      6  N1  2TW d   1      13.539  -0.221 -34.835  0.00  0.00    -0.332 N 
ATOM      7  C7  2TW d   1      14.436   0.917 -35.166  0.00  0.00     0.069 C 
ATOM      8  H   2TW d   1      14.319   0.819 -37.330  0.00  0.00     0.094 H 
ATOM      9  H   2TW d   1      15.339  -2.558 -36.372  0.00  0.00     0.099 H 
ATOM     10  H   2TW d   1      15.239   0.925 -34.414  0.00  0.00     0.085 H 
ENDROOT
BRANCH   6  11
ATOM     11  C15 2TW d   1      12.559  -0.082 -33.719  0.00  0.00     0.031 C 
ATOM     12  H   2TW d   1      12.600   0.962 -33.375  0.00  0.00     0.074 H 
BRANCH  11  13
ATOM     13  C16 2TW d   1      11.121  -0.357 -34.182  0.00  0.00    -0.033 A 
ATOM     14  C22 2TW d   1      10.254   0.878 -34.402  0.00  0.00    -0.059 A 
ATOM     15  C27 2TW d   1      10.051   0.013 -33.164  0.00  0.00    -0.059 A 
ATOM     16  H   2TW d   1       9.496   0.883 -35.200  0.00  0.00     0.033 H 
ATOM     17  H   2TW d   1      10.692   1.882 -34.306  0.00  0.00     0.033 H 
ATOM     18  H   2TW d   1      10.342   0.393 -32.174  0.00  0.00     0.033 H 
ATOM     19  H   2TW d   1       9.146  -0.605 -33.068  0.00  0.00     0.033 H 
ATOM     20  H   2TW d   1      11.048  -1.248 -34.823  0.00  0.00     0.043 H 
ENDBRANCH  11  13
BRANCH  11  21
ATOM     21  C17 2TW d   1      12.935  -0.977 -32.525  0.00  0.00     0.049 C 
ATOM     22  H   2TW d   1      12.774  -2.028 -32.809  0.00  0.00     0.059 H 
ATOM     23  H   2TW d   1      12.283  -0.723 -31.676  0.00  0.00     0.059 H 
BRANCH  21  24
ATOM     24  S1  2TW d   1      14.677  -0.771 -32.007  0.00  0.00     0.153 S 
ATOM     25  O5  2TW d   1      15.543  -1.532 -32.971  0.00  0.00    -0.227 OA
ATOM     26  O6  2TW d   1      15.045   0.686 -31.982  0.00  0.00    -0.227 OA
BRANCH  24  27
ATOM     27  C18 2TW d   1      14.961  -1.439 -30.330  0.00  0.00     0.053 C 
BRANCH  27  28
ATOM     28  C20 2TW d   1      14.469  -2.885 -30.269  0.00  0.00    -0.057 C 
ATOM     29  H   2TW d   1      14.639  -3.288 -29.260  0.00  0.00     0.029 H 
ATOM     30  H   2TW d   1      15.020  -3.491 -31.004  0.00  0.00     0.029 H 
ATOM     31  H   2TW d   1      13.394  -2.917 -30.500  0.00  0.00     0.029 H 
ENDBRANCH  27  28
BRANCH  27  32
ATOM     32  C21 2TW d   1      16.460  -1.361 -30.017  0.00  0.00    -0.057 C 
ATOM     33  H   2TW d   1      16.645  -1.760 -29.009  0.00  0.00     0.029 H 
ATOM     34  H   2TW d   1      16.790  -0.313 -30.062  0.00  0.00     0.029 H 
ATOM     35  H   2TW d   1      17.020  -1.954 -30.755  0.00  0.00     0.029 H 
ENDBRANCH  27  32
BRANCH  27  36
ATOM     36  C19 2TW d   1      14.207  -0.570 -29.329  0.00  0.00    -0.057 C 
ATOM     37  H   2TW d   1      14.367  -0.959 -28.312  0.00  0.00     0.029 H 
ATOM     38  H   2TW d   1      13.133  -0.589 -29.564  0.00  0.00     0.029 H 
ATOM     39  H   2TW d   1      14.578   0.464 -29.389  0.00  0.00     0.029 H 
ENDBRANCH  27  36
ENDBRANCH  24  27
ENDBRANCH  21  24
ENDBRANCH  11  21
ENDBRANCH   6  11
BRANCH   7  40
ATOM     40  C5  2TW d   1      13.720   2.273 -35.096  0.00  0.00    -0.032 A 
ATOM     41  C4  2TW d   1      14.160   3.212 -34.166  0.00  0.00    -0.073 A 
ATOM     42  C3  2TW d   1      13.536   4.453 -34.088  0.00  0.00    -0.061 A 
ATOM     43  H   2TW d   1      14.986   2.977 -33.505  0.00  0.00     0.084 H 
ATOM     44  C2  2TW d   1      12.479   4.735 -34.948  0.00  0.00     0.034 A 
ATOM     45  H   2TW d   1      13.869   5.191 -33.367  0.00  0.00     0.086 H 
ATOM     46 CL1  2TW d   1      11.699   6.263 -34.845  0.00  0.00    -0.084 Cl
ATOM     47  C1  2TW d   1      12.033   3.803 -35.880  0.00  0.00    -0.061 A 
ATOM     48  C6  2TW d   1      12.664   2.567 -35.964  0.00  0.00    -0.073 A 
ATOM     49  H   2TW d   1      11.201   4.038 -36.534  0.00  0.00     0.086 H 
ATOM     50  H   2TW d   1      12.340   1.837 -36.697  0.00  0.00     0.084 H 
ENDBRANCH   7  40
BRANCH   3  51
ATOM     51  C25 2TW d   1      14.171  -1.830 -38.017  0.00  0.00     0.048 C 
ATOM     52  H   2TW d   1      13.752  -0.872 -38.357  0.00  0.00     0.053 H 
ATOM     53  H   2TW d   1      13.370  -2.582 -37.964  0.00  0.00     0.053 H 
BRANCH  51  54
ATOM     54  C26 2TW d   1      15.230  -2.298 -39.026  0.00  0.00     0.175 C 
ATOM     55  O4  2TW d   1      15.434  -1.579 -40.031  0.00  0.00    -0.648 OA
ATOM     56  O3  2TW d   1      15.823  -3.365 -38.774  0.00  0.00    -0.648 OA
ENDBRANCH  51  54
ENDBRANCH   3  51
BRANCH   1  57
ATOM     57  C9  2TW d   1      16.133   1.863 -36.781  0.00  0.00    -0.025 A 
ATOM     58  C14 2TW d   1      15.835   2.933 -37.623  0.00  0.00    -0.053 A 
ATOM     59  C13 2TW d   1      16.778   3.940 -37.826  0.00  0.00     0.034 A 
ATOM     60  H   2TW d   1      14.872   2.982 -38.119  0.00  0.00     0.087 H 
ATOM     61 CL2  2TW d   1      16.398   5.262 -38.867  0.00  0.00    -0.084 Cl
ATOM     62  C12 2TW d   1      18.021   3.882 -37.202  0.00  0.00    -0.062 A 
ATOM     63  C11 2TW d   1      18.325   2.814 -36.359  0.00  0.00    -0.081 A 
ATOM     64  H   2TW d   1      18.751   4.665 -37.371  0.00  0.00     0.086 H 
ATOM     65  C10 2TW d   1      17.380   1.807 -36.151  0.00  0.00    -0.074 A 
ATOM     66  H   2TW d   1      19.290   2.765 -35.867  0.00  0.00     0.083 H 
ATOM     67  H   2TW d   1      17.615   0.976 -35.496  0.00  0.00     0.084 H 
ENDBRANCH   1  57
TORSDOF 12
