REMARK  1 active torsions:
REMARK  status: ('A' for Active; 'I' for Inactive)
REMARK    1  A    between atoms: C3_4  and  C8_8 
ROOT
ATOM      1  C8  2QV d   1     -17.172  -6.284  29.857  0.00  0.00    -0.025 A 
ATOM      2  C9  2QV d   1     -17.111  -5.027  29.025  0.00  0.00    -0.070 A 
ATOM      3  C10 2QV d   1     -16.196  -3.986  29.330  0.00  0.00    -0.053 A 
ATOM      4  C11 2QV d   1     -15.349  -4.161  30.437  0.00  0.00     0.072 A 
ATOM      5  C12 2QV d   1     -15.453  -5.493  31.262  0.00  0.00     0.039 A 
ATOM      6  C13 2QV d   1     -16.350  -6.484  30.944  0.00  0.00    -0.056 A 
ATOM      7  C14 2QV d   1     -14.517  -5.528  32.322  0.00  0.00     0.135 A 
ATOM      8  N15 2QV d   1     -13.682  -4.460  32.521  0.00  0.00    -0.224 NA
ATOM      9  C16 2QV d   1     -13.632  -3.362  31.842  0.00  0.00     0.089 A 
ATOM     10  N17 2QV d   1     -14.445  -3.213  30.784  0.00  0.00    -0.241 NA
ATOM     11  N18 2QV d   1     -14.442  -6.527  33.107  0.00  0.00    -0.383 N 
ATOM     12  H   2QV d   1     -17.779  -4.917  28.178  0.00  0.00     0.084 H 
ATOM     13  H   2QV d   1     -16.152  -3.085  28.729  0.00  0.00     0.087 H 
ATOM     14  H   2QV d   1     -16.409  -7.394  31.530  0.00  0.00     0.086 H 
ATOM     15  H   2QV d   1     -12.944  -2.573  32.122  0.00  0.00     0.146 H 
ATOM     16  H   2QV d   1     -13.752  -6.530  33.872  0.00  0.00     0.157 HD
ATOM     17  H   2QV d   1     -15.071  -7.332  32.977  0.00  0.00     0.157 HD
ENDROOT
BRANCH   1  18
ATOM     18  C3  2QV d   1     -18.159  -7.264  29.449  0.00  0.00    -0.024 A 
ATOM     19  C2  2QV d   1     -18.619  -7.319  27.957  0.00  0.00    -0.072 A 
ATOM     20  C1  2QV d   1     -19.595  -8.225  27.531  0.00  0.00    -0.081 A 
ATOM     21  H   2QV d   1     -18.173  -6.641  27.238  0.00  0.00     0.084 H 
ATOM     22  C6  2QV d   1     -20.094  -9.109  28.616  0.00  0.00    -0.062 A 
ATOM     23  H   2QV d   1     -19.953  -8.277  26.509  0.00  0.00     0.083 H 
ATOM     24  C5  2QV d   1     -19.628  -9.038  29.959  0.00  0.00     0.034 A 
ATOM     25  H   2QV d   1     -20.851  -9.845  28.372  0.00  0.00     0.086 H 
ATOM     26 CL7  2QV d   1     -20.237 -10.106  31.096  0.00  0.00    -0.084 Cl
ATOM     27  C4  2QV d   1     -18.682  -8.133  30.382  0.00  0.00    -0.051 A 
ATOM     28  H   2QV d   1     -18.358  -8.104  31.416  0.00  0.00     0.087 H 
ENDBRANCH   1  18
TORSDOF 1
