REMARK  1 active torsions:
REMARK  status: ('A' for Active; 'I' for Inactive)
REMARK    1  A    between atoms: C3_3  and  C12_12 
ROOT
ATOM      1  C1  2QU d   1     -15.941  -4.232  27.920  0.00  0.00    -0.051 A 
ATOM      2  C2  2QU d   1     -16.746  -5.276  27.570  0.00  0.00    -0.052 A 
ATOM      3  C3  2QU d   1     -16.859  -6.370  28.428  0.00  0.00     0.068 A 
ATOM      4  N4  2QU d   1     -16.168  -6.439  29.562  0.00  0.00    -0.242 NA
ATOM      5  C5  2QU d   1     -15.330  -5.432  29.941  0.00  0.00     0.131 A 
ATOM      6  C6  2QU d   1     -15.211  -4.277  29.123  0.00  0.00     0.090 A 
ATOM      7  N7  2QU d   1     -14.393  -3.222  29.439  0.00  0.00    -0.240 NA
ATOM      8  C8  2QU d   1     -13.702  -3.355  30.556  0.00  0.00     0.089 A 
ATOM      9  N9  2QU d   1     -13.686  -4.388  31.405  0.00  0.00    -0.222 NA
ATOM     10  C10 2QU d   1     -14.495  -5.481  31.112  0.00  0.00     0.154 A 
ATOM     11  N11 2QU d   1     -14.427  -6.610  31.852  0.00  0.00    -0.382 N 
ATOM     12  H   2QU d   1     -15.863  -3.367  27.271  0.00  0.00     0.087 H 
ATOM     13  H   2QU d   1     -17.293  -5.256  26.634  0.00  0.00     0.087 H 
ATOM     14  H   2QU d   1     -13.065  -2.518  30.819  0.00  0.00     0.146 H 
ATOM     15  H   2QU d   1     -13.828  -6.641  32.690  0.00  0.00     0.157 HD
ATOM     16  H   2QU d   1     -14.974  -7.439  31.578  0.00  0.00     0.157 HD
ENDROOT
BRANCH   3  17
ATOM     17  C12 2QU d   1     -17.826  -7.467  28.175  0.00  0.00    -0.002 A 
ATOM     18  C13 2QU d   1     -18.351  -7.686  26.902  0.00  0.00    -0.054 A 
ATOM     19  C14 2QU d   1     -19.323  -8.648  26.726  0.00  0.00     0.006 A 
ATOM     20  H   2QU d   1     -17.998  -7.105  26.058  0.00  0.00     0.087 H 
ATOM     21  N15 2QU d   1     -19.786  -9.436  27.707  0.00  0.00    -0.233 NA
ATOM     22  H   2QU d   1     -19.739  -8.775  25.733  0.00  0.00     0.114 H 
ATOM     23  C16 2QU d   1     -19.231  -9.244  28.941  0.00  0.00     0.210 A 
ATOM     24  C17 2QU d   1     -18.273  -8.268  29.229  0.00  0.00    -0.015 A 
ATOM     25  F18 2QU d   1     -19.586 -10.140  29.888  0.00  0.00    -0.184 F 
ATOM     26  H   2QU d   1     -17.890  -8.137  30.235  0.00  0.00     0.092 H 
ENDBRANCH   3  17
TORSDOF 1
