REMARK  5 active torsions:
REMARK  status: ('A' for Active; 'I' for Inactive)
REMARK    1  A    between atoms: C6_6  and  C7_7 
REMARK    2  A    between atoms: C9_9  and  N14_13 
REMARK       I    between atoms: N14_13  and  C15_14 
REMARK    3  A    between atoms: C15_14  and  C17_16 
REMARK    4  A    between atoms: C17_16  and  N18_17 
REMARK    5  A    between atoms: C23_22  and  N27_26 
ROOT
ATOM      1  C7  2QT d   1     -18.442  -7.632  28.336  0.00  0.00    -0.021 A 
ATOM      2  C8  2QT d   1     -19.031  -7.759  27.071  0.00  0.00    -0.046 A 
ATOM      3  C9  2QT d   1     -20.012  -8.721  26.835  0.00  0.00     0.038 A 
ATOM      4  C10 2QT d   1     -20.425  -9.564  27.865  0.00  0.00    -0.020 A 
ATOM      5  C11 2QT d   1     -19.865  -9.386  29.104  0.00  0.00     0.119 A 
ATOM      6  C12 2QT d   1     -18.884  -8.464  29.366  0.00  0.00    -0.035 A 
ATOM      7  F13 2QT d   1     -20.360 -10.106  30.148  0.00  0.00    -0.206 F 
ATOM      8  H   2QT d   1     -18.720  -7.102  26.267  0.00  0.00     0.088 H 
ATOM      9  H   2QT d   1     -21.166 -10.336  27.692  0.00  0.00     0.091 H 
ATOM     10  H   2QT d   1     -18.458  -8.383  30.359  0.00  0.00     0.089 H 
ENDROOT
BRANCH   3  11
ATOM     11  N14 2QT d   1     -20.627  -8.823  25.563  0.00  0.00    -0.326 N 
ATOM     12  C15 2QT d   1     -21.951  -8.854  25.291  0.00  0.00     0.248 C 
ATOM     13  O16 2QT d   1     -22.834  -8.648  26.123  0.00  0.00    -0.271 OA
ATOM     14  H   2QT d   1     -20.012  -8.878  24.777  0.00  0.00     0.169 HD
BRANCH  12  15
ATOM     15  C17 2QT d   1     -22.291  -9.197  23.853  0.00  0.00     0.156 C 
ATOM     16  H   2QT d   1     -21.476  -9.804  23.432  0.00  0.00     0.090 H 
ATOM     17  H   2QT d   1     -22.386  -8.263  23.280  0.00  0.00     0.090 H 
BRANCH  15  18
ATOM     18  N18 2QT d   1     -23.540  -9.946  23.739  0.00  0.00    -0.063 N 
ATOM     19  C19 2QT d   1     -23.594 -11.063  22.793  0.00  0.00     0.084 C 
ATOM     20  C20 2QT d   1     -25.074 -11.385  22.692  0.00  0.00    -0.041 C 
ATOM     21  H   2QT d   1     -23.031 -11.927  23.175  0.00  0.00     0.076 H 
ATOM     22  H   2QT d   1     -23.190 -10.766  21.814  0.00  0.00     0.076 H 
ATOM     23  C21 2QT d   1     -25.794 -10.147  23.127  0.00  0.00    -0.041 C 
ATOM     24  H   2QT d   1     -25.328 -12.227  23.352  0.00  0.00     0.035 H 
ATOM     25  H   2QT d   1     -25.341 -11.638  21.655  0.00  0.00     0.035 H 
ATOM     26  C22 2QT d   1     -24.705  -9.128  23.395  0.00  0.00     0.084 C 
ATOM     27  H   2QT d   1     -26.375 -10.340  24.041  0.00  0.00     0.035 H 
ATOM     28  H   2QT d   1     -26.467  -9.793  22.332  0.00  0.00     0.035 H 
ATOM     29  H   2QT d   1     -24.507  -8.521  22.499  0.00  0.00     0.076 H 
ATOM     30  H   2QT d   1     -24.982  -8.469  24.231  0.00  0.00     0.076 H 
ATOM     31  H   2QT d   1     -23.697 -10.332  24.657  0.00  0.00     0.280 HD
ENDBRANCH  15  18
ENDBRANCH  12  15
ENDBRANCH   3  11
BRANCH   1  32
ATOM     32  C6  2QT d   1     -17.430  -6.588  28.619  0.00  0.00    -0.025 A 
ATOM     33  C1  2QT d   1     -17.227  -5.505  27.759  0.00  0.00    -0.070 A 
ATOM     34  C2  2QT d   1     -16.336  -4.511  28.057  0.00  0.00    -0.053 A 
ATOM     35  H   2QT d   1     -17.789  -5.452  26.834  0.00  0.00     0.084 H 
ATOM     36  C3  2QT d   1     -15.546  -4.579  29.226  0.00  0.00     0.072 A 
ATOM     37  H   2QT d   1     -16.235  -3.663  27.390  0.00  0.00     0.087 H 
ATOM     38  C4  2QT d   1     -15.674  -5.717  30.062  0.00  0.00     0.039 A 
ATOM     39  N26 2QT d   1     -14.675  -3.554  29.503  0.00  0.00    -0.241 NA
ATOM     40  C5  2QT d   1     -16.639  -6.682  29.740  0.00  0.00    -0.056 A 
ATOM     41  C23 2QT d   1     -14.766  -5.770  31.188  0.00  0.00     0.135 A 
ATOM     42  H   2QT d   1     -16.766  -7.533  30.399  0.00  0.00     0.086 H 
ATOM     43  N24 2QT d   1     -13.954  -4.751  31.455  0.00  0.00    -0.224 NA
ATOM     44  C25 2QT d   1     -13.957  -3.707  30.617  0.00  0.00     0.089 A 
ATOM     45  H   2QT d   1     -13.296  -2.887  30.875  0.00  0.00     0.146 H 
BRANCH  41  46
ATOM     46  N27 2QT d   1     -14.644  -6.899  31.918  0.00  0.00    -0.383 N 
ATOM     47  H   2QT d   1     -13.995  -6.928  32.718  0.00  0.00     0.157 HD
ATOM     48  H   2QT d   1     -15.200  -7.732  31.675  0.00  0.00     0.157 HD
ENDBRANCH  41  46
ENDBRANCH   1  32
TORSDOF 5
