REMARK  5 active torsions:
REMARK  status: ('A' for Active; 'I' for Inactive)
REMARK    1  A    between atoms: C06_6  and  N05_5 
REMARK    2  A    between atoms: C07_7  and  C06_6 
REMARK    3  A    between atoms: C06_6  and  C10_10 
REMARK    4  A    between atoms: C06_6  and  C13_13 
REMARK    5  A    between atoms: C08_8  and  C07_7 
ROOT
ATOM      1  N04 2SU d   1     124.203 114.305 -42.770  0.00  0.00    -0.365 N 
ATOM      2  C08 2SU d   1     123.953 116.431 -43.445  0.00  0.00    -0.027 A 
ATOM      3  C09 2SU d   1     122.703 115.905 -43.241  0.00  0.00    -0.002 A 
ATOM      4  C11 2SU d   1     122.857 114.581 -42.820  0.00  0.00     0.042 A 
ATOM      5  C12 2SU d   1     124.888 115.440 -43.155  0.00  0.00    -0.015 A 
ATOM      6  C14 2SU d   1     121.308 116.503 -43.392  0.00  0.00    -0.070 A 
ATOM      7  C15 2SU d   1     121.630 113.729 -42.512  0.00  0.00    -0.056 A 
ATOM      8  C16 2SU d   1     120.120 115.683 -43.094  0.00  0.00    -0.082 A 
ATOM      9  C17 2SU d   1     120.280 114.304 -42.656  0.00  0.00    -0.081 A 
ATOM     10  H   2SU d   1     124.626 113.408 -42.493  0.00  0.00     0.165 HD
ATOM     11  H   2SU d   1     125.970 115.543 -43.221  0.00  0.00     0.112 H 
ATOM     12  H   2SU d   1     121.190 117.530 -43.718  0.00  0.00     0.084 H 
ATOM     13  H   2SU d   1     121.750 112.702 -42.188  0.00  0.00     0.086 H 
ATOM     14  H   2SU d   1     119.128 116.106 -43.201  0.00  0.00     0.083 H 
ATOM     15  H   2SU d   1     119.407 113.700 -42.436  0.00  0.00     0.083 H 
ENDROOT
BRANCH   2  16
ATOM     16  C07 2SU d   1     124.261 117.821 -43.898  0.00  0.00     0.004 C 
ATOM     17  H   2SU d   1     125.190 117.812 -44.488  0.00  0.00     0.044 H 
ATOM     18  H   2SU d   1     123.434 118.190 -44.522  0.00  0.00     0.044 H 
BRANCH  16  19
ATOM     19  C06 2SU d   1     124.433 118.727 -42.722  0.00  0.00     0.239 C 
BRANCH  19  20
ATOM     20  N05 2SU d   1     123.685 118.244 -41.599  0.00  0.00    -0.058 N 
ATOM     21  H   2SU d   1     122.708 118.198 -41.841  0.00  0.00     0.276 HD
ATOM     22  H   2SU d   1     123.808 118.870 -40.819  0.00  0.00     0.276 HD
ATOM     23  H   2SU d   1     124.013 117.325 -41.347  0.00  0.00     0.276 HD
ENDBRANCH  19  20
BRANCH  19  24
ATOM     24  C10 2SU d   1     123.951 120.092 -43.078  0.00  0.00     0.099 C 
ATOM     25  F01 2SU d   1     124.915 120.746 -43.725  0.00  0.00    -0.252 F 
ATOM     26  H   2SU d   1     123.064 120.011 -43.724  0.00  0.00     0.087 H 
ATOM     27  H   2SU d   1     123.688 120.639 -42.161  0.00  0.00     0.087 H 
ENDBRANCH  19  24
BRANCH  19  28
ATOM     28  C13 2SU d   1     125.876 118.793 -42.357  0.00  0.00     0.213 C 
ATOM     29  O02 2SU d   1     126.241 118.520 -41.183  0.00  0.00    -0.646 OA
ATOM     30  O03 2SU d   1     126.730 119.119 -43.224  0.00  0.00    -0.646 OA
ENDBRANCH  19  28
ENDBRANCH  16  19
ENDBRANCH   2  16
TORSDOF 5
