REMARK  9 active torsions:
REMARK  status: ('A' for Active; 'I' for Inactive)
REMARK    1  A    between atoms: C11_6  and  C2_2 
REMARK    2  A    between atoms: C3_3  and  O7_19 
REMARK    3  A    between atoms: O7_19  and  C8_4 
REMARK    4  A    between atoms: O9_18  and  C10_5 
REMARK    5  A    between atoms: C12_7  and  C11_6 
REMARK       I    between atoms: N13_20  and  C12_7 
REMARK       I    between atoms: C14_8  and  N13_20 
REMARK       I    between atoms: N16_22  and  C14_8 
REMARK    6  A    between atoms: C18_23  and  C19_9 
REMARK    7  A    between atoms: C21_11  and  C25_25 
REMARK    8  A    between atoms: C5_17  and  O9_18 
REMARK    9  A    between atoms: N16_22  and  C18_23 
ROOT
ATOM      1  C12 2S4 d   1     -33.380   4.070 -16.914  0.00  0.00     0.240 C 
ATOM      2  C14 2S4 d   1     -35.672   4.344 -16.087  0.00  0.00     0.674 C 
ATOM      3  O15 2S4 d   1     -32.851   4.452 -15.884  0.00  0.00    -0.272 OA
ATOM      4  N13 2S4 d   1     -34.751   3.997 -17.047  0.00  0.00    -0.160 N 
ATOM      5  N17 2S4 d   1     -36.872   4.180 -16.489  0.00  0.00    -0.235 N 
ATOM      6  N16 2S4 d   1     -35.393   4.858 -14.822  0.00  0.00    -0.222 N 
ATOM      7  H   2S4 d   1     -35.107   3.662 -17.919  0.00  0.00     0.187 HD
ATOM      8  H   2S4 d   1     -37.660   4.404 -15.864  0.00  0.00     0.174 HD
ATOM      9  H   2S4 d   1     -37.053   3.824 -17.438  0.00  0.00     0.174 HD
ATOM     10  H   2S4 d   1     -34.405   5.035 -14.589  0.00  0.00     0.178 HD
ENDROOT
BRANCH   1  11
ATOM     11  C11 2S4 d   1     -32.547   3.503 -18.049  0.00  0.00     0.034 C 
ATOM     12  H   2S4 d   1     -33.010   3.751 -19.015  0.00  0.00     0.054 H 
ATOM     13  H   2S4 d   1     -31.529   3.919 -18.012  0.00  0.00     0.054 H 
BRANCH  11  14
ATOM     14  C2  2S4 d   1     -32.498   1.996 -17.869  0.00  0.00    -0.047 A 
ATOM     15  C1  2S4 d   1     -31.393   1.326 -17.332  0.00  0.00    -0.042 A 
ATOM     16  C3  2S4 d   1     -31.466  -0.066 -17.162  0.00  0.00     0.102 A 
ATOM     17  H   2S4 d   1     -30.498   1.871 -17.053  0.00  0.00     0.088 H 
ATOM     18  C5  2S4 d   1     -32.653  -0.786 -17.465  0.00  0.00     0.101 A 
ATOM     19  C6  2S4 d   1     -33.744  -0.087 -17.975  0.00  0.00    -0.048 A 
ATOM     20  C4  2S4 d   1     -33.654   1.278 -18.172  0.00  0.00    -0.074 A 
ATOM     21  H   2S4 d   1     -34.661  -0.612 -18.217  0.00  0.00     0.087 H 
ATOM     22  H   2S4 d   1     -34.510   1.807 -18.575  0.00  0.00     0.084 H 
BRANCH  16  23
ATOM     23  O7  2S4 d   1     -30.357  -0.716 -16.724  0.00  0.00    -0.353 OA
BRANCH  23  24
ATOM     24  C8  2S4 d   1     -30.188  -1.089 -15.363  0.00  0.00     0.010 C 
ATOM     25  H   2S4 d   1     -29.222  -1.601 -15.240  0.00  0.00     0.066 H 
ATOM     26  H   2S4 d   1     -31.002  -1.766 -15.065  0.00  0.00     0.066 H 
ATOM     27  H   2S4 d   1     -30.209  -0.189 -14.731  0.00  0.00     0.066 H 
ENDBRANCH  23  24
ENDBRANCH  16  23
BRANCH  18  28
ATOM     28  O9  2S4 d   1     -32.766  -2.159 -17.281  0.00  0.00    -0.353 OA
BRANCH  28  29
ATOM     29  C10 2S4 d   1     -33.985  -2.887 -17.080  0.00  0.00     0.010 C 
ATOM     30  H   2S4 d   1     -33.758  -3.957 -16.965  0.00  0.00     0.066 H 
ATOM     31  H   2S4 d   1     -34.645  -2.744 -17.948  0.00  0.00     0.066 H 
ATOM     32  H   2S4 d   1     -34.487  -2.519 -16.173  0.00  0.00     0.066 H 
ENDBRANCH  28  29
ENDBRANCH  18  28
ENDBRANCH  11  14
ENDBRANCH   1  11
BRANCH   6  33
ATOM     33  C18 2S4 d   1     -36.402   5.170 -13.788  0.00  0.00     0.033 C 
ATOM     34  H   2S4 d   1     -37.366   4.784 -14.152  0.00  0.00     0.072 H 
ATOM     35  H   2S4 d   1     -36.109   4.626 -12.878  0.00  0.00     0.072 H 
BRANCH  33  36
ATOM     36  C19 2S4 d   1     -36.625   6.618 -13.389  0.00  0.00    -0.040 A 
ATOM     37  C22 2S4 d   1     -37.315   7.416 -14.307  0.00  0.00    -0.075 A 
ATOM     38  C20 2S4 d   1     -37.560   8.742 -13.997  0.00  0.00    -0.077 A 
ATOM     39  H   2S4 d   1     -37.654   7.001 -15.249  0.00  0.00     0.084 H 
ATOM     40  C21 2S4 d   1     -37.115   9.269 -12.785  0.00  0.00    -0.062 A 
ATOM     41  H   2S4 d   1     -38.098   9.371 -14.697  0.00  0.00     0.084 H 
ATOM     42  C23 2S4 d   1     -36.425   8.479 -11.858  0.00  0.00    -0.077 A 
ATOM     43  C24 2S4 d   1     -36.207   7.137 -12.150  0.00  0.00    -0.075 A 
ATOM     44  H   2S4 d   1     -36.067   8.906 -10.928  0.00  0.00     0.084 H 
ATOM     45  H   2S4 d   1     -35.718   6.494 -11.427  0.00  0.00     0.084 H 
BRANCH  40  46
ATOM     46  C25 2S4 d   1     -37.404  10.723 -12.497  0.00  0.00    -0.051 C 
ATOM     47  H   2S4 d   1     -37.951  11.163 -13.344  0.00  0.00     0.033 H 
ATOM     48  H   2S4 d   1     -36.457  11.263 -12.352  0.00  0.00     0.033 H 
ATOM     49  H   2S4 d   1     -38.015  10.802 -11.585  0.00  0.00     0.033 H 
ENDBRANCH  40  46
ENDBRANCH  33  36
ENDBRANCH   6  33
TORSDOF 9
