REMARK  12 active torsions:
REMARK  status: ('A' for Active; 'I' for Inactive)
REMARK    1  A    between atoms: CBE_7  and  CBB_8 
REMARK       I    between atoms: CBB_8  and  NAV_10 
REMARK    2  A    between atoms: NAV_10  and  CAR_11 
REMARK    3  A    between atoms: CAR_11  and  CAP_12 
REMARK    4  A    between atoms: CAP_12  and  CAQ_13 
REMARK    5  A    between atoms: CAQ_13  and  CB_14 
REMARK    6  A    between atoms: CB_14  and  CA_15 
REMARK    7  A    between atoms: CA_15  and  C_16 
REMARK    8  A    between atoms: CA_15  and  N_19 
REMARK       I    between atoms: N_19  and  CBA_20 
REMARK       I    between atoms: CBA_20  and  NAX_22 
REMARK    9  A    between atoms: NAX_22  and  CBG_23 
REMARK   10  A    between atoms: CBG_23  and  CAZ_24 
REMARK   11  A    between atoms: CBG_23  and  CAT_27 
REMARK   12  A    between atoms: CAT_27  and  CBD_28 
ROOT
ATOM      1  CA  2QN d   1      19.919  45.124  44.314  0.00  0.00     0.098 C 
ATOM      2  H   2QN d   1      20.104  44.040  44.319  0.00  0.00     0.089 H 
ENDROOT
BRANCH   1   3
ATOM      3  CB  2QN d   1      20.853  45.846  43.302  0.00  0.00    -0.036 C 
ATOM      4  H   2QN d   1      20.571  45.545  42.282  0.00  0.00     0.036 H 
ATOM      5  H   2QN d   1      20.722  46.933  43.413  0.00  0.00     0.036 H 
BRANCH   3   6
ATOM      6  CAQ 2QN d   1      22.347  45.497  43.530  0.00  0.00    -0.061 C 
ATOM      7  H   2QN d   1      22.629  45.779  44.555  0.00  0.00     0.033 H 
ATOM      8  H   2QN d   1      22.487  44.414  43.396  0.00  0.00     0.033 H 
BRANCH   6   9
ATOM      9  CAP 2QN d   1      23.276  46.268  42.508  0.00  0.00    -0.050 C 
ATOM     10  H   2QN d   1      24.298  45.880  42.630  0.00  0.00     0.035 H 
ATOM     11  H   2QN d   1      22.916  46.040  41.494  0.00  0.00     0.035 H 
BRANCH   9  12
ATOM     12  CAR 2QN d   1      23.340  47.782  42.643  0.00  0.00    -0.004 C 
ATOM     13  H   2QN d   1      24.164  48.170  42.027  0.00  0.00     0.064 H 
ATOM     14  H   2QN d   1      22.390  48.220  42.303  0.00  0.00     0.064 H 
BRANCH  12  15
ATOM     15  NAV 2QN d   1      23.568  48.140  44.041  0.00  0.00    -0.357 N 
ATOM     16  CBB 2QN d   1      23.047  49.224  44.588  0.00  0.00     0.251 C 
ATOM     17  OAD 2QN d   1      22.267  49.966  43.981  0.00  0.00    -0.268 OA
ATOM     18  H   2QN d   1      24.139  47.543  44.604  0.00  0.00     0.162 HD
BRANCH  16  19
ATOM     19  CBE 2QN d   1      23.259  49.449  46.111  0.00  0.00     0.032 A 
ATOM     20  CAN 2QN d   1      23.296  50.744  46.656  0.00  0.00    -0.067 A 
ATOM     21  CAL 2QN d   1      23.451  50.939  48.046  0.00  0.00    -0.066 A 
ATOM     22  H   2QN d   1      23.204  51.603  46.002  0.00  0.00     0.085 H 
ATOM     23  CBC 2QN d   1      23.509  49.901  48.986  0.00  0.00     0.006 A 
ATOM     24  H   2QN d   1      23.530  51.957  48.409  0.00  0.00     0.085 H 
ATOM     25  IAG 2QN d   1      23.695  50.183  51.183  0.00  0.00    -0.045 I 
ATOM     26  CAM 2QN d   1      23.448  48.622  48.408  0.00  0.00    -0.066 A 
ATOM     27  CAO 2QN d   1      23.319  48.394  47.017  0.00  0.00    -0.067 A 
ATOM     28  H   2QN d   1      23.503  47.761  49.064  0.00  0.00     0.085 H 
ATOM     29  H   2QN d   1      23.266  47.376  46.649  0.00  0.00     0.085 H 
ENDBRANCH  16  19
ENDBRANCH  12  15
ENDBRANCH   9  12
ENDBRANCH   6   9
ENDBRANCH   3   6
ENDBRANCH   1   3
BRANCH   1  30
ATOM     30  C   2QN d   1      20.096  45.700  45.719  0.00  0.00     0.196 C 
ATOM     31  OXT 2QN d   1      20.763  44.974  46.472  0.00  0.00    -0.646 OA
ATOM     32  O   2QN d   1      19.598  46.824  45.968  0.00  0.00    -0.646 OA
ENDBRANCH   1  30
BRANCH   1  33
ATOM     33  N   2QN d   1      18.570  45.436  43.859  0.00  0.00    -0.329 N 
ATOM     34  CBA 2QN d   1      17.936  44.708  42.961  0.00  0.00     0.317 C 
ATOM     35  OAC 2QN d   1      18.402  43.630  42.512  0.00  0.00    -0.247 OA
ATOM     36  NAX 2QN d   1      16.706  45.102  42.611  0.00  0.00    -0.328 N 
ATOM     37  H   2QN d   1      16.213  45.811  43.115  0.00  0.00     0.165 HD
ATOM     38  H   2QN d   1      18.107  46.234  44.243  0.00  0.00     0.165 HD
BRANCH  36  39
ATOM     39  CBG 2QN d   1      16.123  44.428  41.440  0.00  0.00     0.101 C 
ATOM     40  H   2QN d   1      16.065  43.350  41.652  0.00  0.00     0.090 H 
BRANCH  39  41
ATOM     41  CAZ 2QN d   1      17.056  44.690  40.220  0.00  0.00     0.197 C 
ATOM     42  OAF 2QN d   1      16.963  43.910  39.229  0.00  0.00    -0.646 OA
ATOM     43  OAB 2QN d   1      17.901  45.610  40.280  0.00  0.00    -0.646 OA
ENDBRANCH  39  41
BRANCH  39  44
ATOM     44  CAT 2QN d   1      14.728  44.929  41.022  0.00  0.00    -0.013 C 
ATOM     45  H   2QN d   1      14.028  44.681  41.833  0.00  0.00     0.043 H 
ATOM     46  H   2QN d   1      14.439  44.387  40.109  0.00  0.00     0.043 H 
BRANCH  44  47
ATOM     47  CBD 2QN d   1      14.594  46.422  40.736  0.00  0.00    -0.053 A 
ATOM     48  CAJ 2QN d   1      15.131  47.021  39.595  0.00  0.00    -0.060 A 
ATOM     49  CAH 2QN d   1      14.946  48.378  39.341  0.00  0.00     0.002 A 
ATOM     50  H   2QN d   1      15.701  46.420  38.895  0.00  0.00     0.086 H 
ATOM     51  NAU 2QN d   1      14.220  49.122  40.164  0.00  0.00    -0.273 NA
ATOM     52  H   2QN d   1      15.398  48.829  38.465  0.00  0.00     0.114 H 
ATOM     53  CAI 2QN d   1      13.692  48.579  41.267  0.00  0.00     0.002 A 
ATOM     54  CAK 2QN d   1      13.864  47.231  41.605  0.00  0.00    -0.060 A 
ATOM     55  H   2QN d   1      13.107  49.209  41.927  0.00  0.00     0.114 H 
ATOM     56  H   2QN d   1      13.441  46.828  42.518  0.00  0.00     0.086 H 
ENDBRANCH  44  47
ENDBRANCH  39  44
ENDBRANCH  36  39
ENDBRANCH   1  33
TORSDOF 12
