REMARK  13 active torsions:
REMARK  status: ('A' for Active; 'I' for Inactive)
REMARK    1  A    between atoms: C6_7  and  C19_8 
REMARK    2  A    between atoms: C4_10  and  C21_11 
REMARK    3  A    between atoms: C21_11  and  C23_12 
REMARK    4  A    between atoms: N1_17  and  C18_18 
REMARK    5  A    between atoms: C18_18  and  C20_19 
REMARK    6  A    between atoms: C18_18  and  C1_32 
REMARK    7  A    between atoms: C20_19  and  S1_28 
REMARK    8  A    between atoms: C26_20  and  C7_21 
REMARK    9  A    between atoms: S1_28  and  C3_31 
REMARK   10  A    between atoms: C3_31  and  C22_34 
REMARK   11  A    between atoms: C3_31  and  C24_35 
REMARK   12  A    between atoms: C3_31  and  C25_36 
REMARK   13  A    between atoms: C1_32  and  C2_33 
ROOT
ATOM      1  C19 2TZ d   1     -15.207   0.763 -16.953  0.00  0.00     0.088 C 
ATOM      2  O6  2TZ d   1     -15.706  -0.559 -16.823  0.00  0.00    -0.364 OA
ATOM      3  C4  2TZ d   1     -14.737  -1.607 -16.884  0.00  0.00     0.125 C 
ATOM      4  C5  2TZ d   1     -13.639  -1.409 -17.936  0.00  0.00     0.250 C 
ATOM      5  O1  2TZ d   1     -12.875  -2.344 -18.160  0.00  0.00    -0.270 OA
ATOM      6  N1  2TZ d   1     -13.556  -0.209 -18.585  0.00  0.00    -0.333 N 
ATOM      7  C26 2TZ d   1     -14.362   0.985 -18.222  0.00  0.00     0.069 C 
ATOM      8  H   2TZ d   1     -14.481   0.856 -16.132  0.00  0.00     0.094 H 
ATOM      9  H   2TZ d   1     -15.297  -2.503 -17.190  0.00  0.00     0.099 H 
ATOM     10  H   2TZ d   1     -15.104   1.049 -19.031  0.00  0.00     0.085 H 
ENDROOT
BRANCH   6  11
ATOM     11  C18 2TZ d   1     -12.663  -0.090 -19.741  0.00  0.00     0.028 C 
ATOM     12  H   2TZ d   1     -12.812   0.931 -20.121  0.00  0.00     0.074 H 
BRANCH  11  13
ATOM     13  C20 2TZ d   1     -13.057  -1.010 -20.885  0.00  0.00     0.048 C 
ATOM     14  H   2TZ d   1     -12.949  -2.055 -20.561  0.00  0.00     0.059 H 
ATOM     15  H   2TZ d   1     -12.395  -0.822 -21.743  0.00  0.00     0.059 H 
BRANCH  13  16
ATOM     16  S1  2TZ d   1     -14.739  -0.723 -21.374  0.00  0.00     0.153 S 
ATOM     17  O4  2TZ d   1     -14.954   0.688 -21.536  0.00  0.00    -0.227 OA
ATOM     18  O5  2TZ d   1     -15.582  -1.494 -20.497  0.00  0.00    -0.227 OA
BRANCH  16  19
ATOM     19  C3  2TZ d   1     -14.817  -1.442 -23.015  0.00  0.00     0.053 C 
BRANCH  19  20
ATOM     20  C22 2TZ d   1     -16.304  -1.429 -23.382  0.00  0.00    -0.057 C 
ATOM     21  H   2TZ d   1     -16.438  -1.859 -24.386  0.00  0.00     0.029 H 
ATOM     22  H   2TZ d   1     -16.675  -0.393 -23.374  0.00  0.00     0.029 H 
ATOM     23  H   2TZ d   1     -16.868  -2.026 -22.650  0.00  0.00     0.029 H 
ENDBRANCH  19  20
BRANCH  19  24
ATOM     24  C24 2TZ d   1     -14.308  -2.901 -23.006  0.00  0.00    -0.057 C 
ATOM     25  H   2TZ d   1     -14.367  -3.316 -24.023  0.00  0.00     0.029 H 
ATOM     26  H   2TZ d   1     -14.931  -3.502 -22.328  0.00  0.00     0.029 H 
ATOM     27  H   2TZ d   1     -13.264  -2.923 -22.661  0.00  0.00     0.029 H 
ENDBRANCH  19  24
BRANCH  19  28
ATOM     28  C25 2TZ d   1     -14.040  -0.497 -23.946  0.00  0.00    -0.057 C 
ATOM     29  H   2TZ d   1     -14.058  -0.896 -24.971  0.00  0.00     0.029 H 
ATOM     30  H   2TZ d   1     -12.998  -0.418 -23.602  0.00  0.00     0.029 H 
ATOM     31  H   2TZ d   1     -14.508   0.498 -23.931  0.00  0.00     0.029 H 
ENDBRANCH  19  28
ENDBRANCH  16  19
ENDBRANCH  13  16
ENDBRANCH  11  13
BRANCH  11  32
ATOM     32  C1  2TZ d   1     -11.160  -0.176 -19.378  0.00  0.00    -0.048 C 
ATOM     33  H   2TZ d   1     -10.877  -1.238 -19.342  0.00  0.00     0.035 H 
ATOM     34  H   2TZ d   1     -11.022   0.274 -18.384  0.00  0.00     0.035 H 
BRANCH  32  35
ATOM     35  C2  2TZ d   1     -10.245   0.515 -20.331  0.00  0.00    -0.075 C 
ATOM     36  H   2TZ d   1      -9.205   0.399 -19.991  0.00  0.00     0.027 H 
ATOM     37  H   2TZ d   1     -10.500   1.584 -20.374  0.00  0.00     0.027 H 
ATOM     38  H   2TZ d   1     -10.355   0.072 -21.332  0.00  0.00     0.027 H 
ENDBRANCH  32  35
ENDBRANCH  11  32
ENDBRANCH   6  11
BRANCH   7  39
ATOM     39  C7  2TZ d   1     -13.674   2.337 -18.276  0.00  0.00    -0.032 A 
ATOM     40  C8  2TZ d   1     -12.580   2.660 -17.435  0.00  0.00    -0.073 A 
ATOM     41  C9  2TZ d   1     -11.952   3.921 -17.506  0.00  0.00    -0.061 A 
ATOM     42  H   2TZ d   1     -12.219   1.925 -16.725  0.00  0.00     0.084 H 
ATOM     43  C10 2TZ d   1     -12.419   4.867 -18.430  0.00  0.00     0.034 A 
ATOM     44  H   2TZ d   1     -11.118   4.156 -16.854  0.00  0.00     0.086 H 
ATOM     45 CL1  2TZ d   1     -11.602   6.353 -18.568  0.00  0.00    -0.084 Cl
ATOM     46  C11 2TZ d   1     -13.511   4.571 -19.268  0.00  0.00    -0.061 A 
ATOM     47  C12 2TZ d   1     -14.135   3.315 -19.193  0.00  0.00    -0.073 A 
ATOM     48  H   2TZ d   1     -13.870   5.313 -19.972  0.00  0.00     0.086 H 
ATOM     49  H   2TZ d   1     -14.975   3.092 -19.841  0.00  0.00     0.084 H 
ENDBRANCH   7  39
BRANCH   3  50
ATOM     50  C21 2TZ d   1     -14.099  -1.937 -15.544  0.00  0.00     0.048 C 
ATOM     51  H   2TZ d   1     -13.680  -1.009 -15.127  0.00  0.00     0.053 H 
ATOM     52  H   2TZ d   1     -13.288  -2.659 -15.720  0.00  0.00     0.053 H 
BRANCH  50  53
ATOM     53  C23 2TZ d   1     -15.061  -2.541 -14.497  0.00  0.00     0.175 C 
ATOM     54  O3  2TZ d   1     -15.312  -1.658 -13.512  0.00  0.00    -0.648 OA
ATOM     55  O2  2TZ d   1     -15.524  -3.643 -14.546  0.00  0.00    -0.648 OA
ENDBRANCH  50  53
ENDBRANCH   3  50
BRANCH   1  56
ATOM     56  C6  2TZ d   1     -16.227   1.855 -16.662  0.00  0.00    -0.025 A 
ATOM     57  C17 2TZ d   1     -15.884   2.930 -15.802  0.00  0.00    -0.053 A 
ATOM     58  C16 2TZ d   1     -16.794   3.978 -15.572  0.00  0.00     0.034 A 
ATOM     59  H   2TZ d   1     -14.914   2.944 -15.319  0.00  0.00     0.087 H 
ATOM     60 CL2  2TZ d   1     -16.468   5.353 -14.592  0.00  0.00    -0.084 Cl
ATOM     61  C15 2TZ d   1     -18.046   3.984 -16.163  0.00  0.00    -0.062 A 
ATOM     62  C14 2TZ d   1     -18.403   2.919 -17.010  0.00  0.00    -0.081 A 
ATOM     63  H   2TZ d   1     -18.740   4.796 -15.976  0.00  0.00     0.086 H 
ATOM     64  C13 2TZ d   1     -17.503   1.855 -17.268  0.00  0.00    -0.074 A 
ATOM     65  H   2TZ d   1     -19.383   2.912 -17.473  0.00  0.00     0.083 H 
ATOM     66  H   2TZ d   1     -17.793   1.045 -17.927  0.00  0.00     0.084 H 
ENDBRANCH   1  56
TORSDOF 13
