REMARK  10 active torsions:
REMARK  status: ('A' for Active; 'I' for Inactive)
REMARK    1  A    between atoms: N3B_8  and  PG_1 
REMARK    2  A    between atoms: PB_5  and  N3B_8 
REMARK    3  A    between atoms: O3A_12  and  PB_5 
REMARK    4  A    between atoms: PA_9  and  O3A_12 
REMARK    5  A    between atoms: PA_9  and  O5'_13 
REMARK    6  A    between atoms: O5'_13  and  C5'_14 
REMARK    7  A    between atoms: C5'_14  and  C4'_15 
REMARK    8  A    between atoms: C3'_17  and  O3'_18 
REMARK    9  A    between atoms: C2'_19  and  O2'_20 
REMARK   10  A    between atoms: C1'_21  and  N9_22 
ROOT
ATOM      1  C4' ANP d   1     -30.041  14.299 -15.566  0.00  0.00     0.089 C 
ATOM      2  O4' ANP d   1     -30.275  15.274 -14.532  0.00  0.00    -0.353 OA
ATOM      3  C3' ANP d   1     -28.562  13.962 -15.448  0.00  0.00     0.091 C 
ATOM      4  C2' ANP d   1     -27.922  15.234 -14.971  0.00  0.00     0.105 C 
ATOM      5  C1' ANP d   1     -29.015  15.826 -14.123  0.00  0.00     0.139 C 
ATOM      6  H   ANP d   1     -30.230  14.755 -16.549  0.00  0.00     0.090 H 
ATOM      7  H   ANP d   1     -28.414  13.150 -14.721  0.00  0.00     0.091 H 
ATOM      8  H   ANP d   1     -26.978  15.066 -14.432  0.00  0.00     0.093 H 
ATOM      9  H   ANP d   1     -29.023  16.914 -14.283  0.00  0.00     0.122 H 
ENDROOT
BRANCH   1  10
ATOM     10  C5' ANP d   1     -30.955  13.087 -15.433  0.00  0.00     0.058 C 
ATOM     11  H   ANP d   1     -32.002  13.408 -15.535  0.00  0.00     0.079 H 
ATOM     12  H   ANP d   1     -30.715  12.361 -16.224  0.00  0.00     0.079 H 
BRANCH  10  13
ATOM     13  O5' ANP d   1     -30.771  12.477 -14.163  0.00  0.00    -0.287 OA
BRANCH  13  14
ATOM     14  PA  ANP d   1     -30.697  10.884 -13.980  0.00  0.00     0.417 P 
ATOM     15  O1A ANP d   1     -29.576  10.338 -14.829  0.00  0.00    -0.624 OA
ATOM     16  O2A ANP d   1     -30.687  10.612 -12.481  0.00  0.00    -0.624 OA
BRANCH  14  17
ATOM     17  O3A ANP d   1     -32.111  10.510 -14.648  0.00  0.00    -0.186 OA
BRANCH  17  18
ATOM     18  PB  ANP d   1     -32.836   9.059 -14.814  0.00  0.00     0.379 P 
ATOM     19  O1B ANP d   1     -33.912   9.288 -15.796  0.00  0.00    -0.629 OA
ATOM     20  O2B ANP d   1     -33.426   8.563 -13.416  0.00  0.00    -0.629 OA
BRANCH  18  21
ATOM     21  N3B ANP d   1     -31.744   7.822 -15.337  0.00  0.00    -0.218 N 
ATOM     22  H   ANP d   1     -31.529   7.079 -14.703  0.00  0.00     0.179 HD
BRANCH  21  23
ATOM     23  PG  ANP d   1     -31.004   7.808 -16.909  0.00  0.00     0.381 P 
ATOM     24  O1G ANP d   1     -32.042   7.628 -18.131  0.00  0.00    -0.622 OA
ATOM     25  O2G ANP d   1     -30.176   9.027 -17.123  0.00  0.00    -0.622 OA
ATOM     26  O3G ANP d   1     -30.094   6.499 -16.808  0.00  0.00    -0.622 OA
ENDBRANCH  21  23
ENDBRANCH  18  21
ENDBRANCH  17  18
ENDBRANCH  14  17
ENDBRANCH  13  14
ENDBRANCH  10  13
ENDBRANCH   1  10
BRANCH   3  27
ATOM     27  O3' ANP d   1     -27.979  13.589 -16.703  0.00  0.00    -0.390 OA
ATOM     28  H   ANP d   1     -28.066  14.308 -17.318  0.00  0.00     0.210 HD
ENDBRANCH   3  27
BRANCH   5  29
ATOM     29  N9  ANP d   1     -28.855  15.568 -12.677  0.00  0.00    -0.294 N 
ATOM     30  C8  ANP d   1     -29.354  14.550 -11.955  0.00  0.00     0.071 A 
ATOM     31  N7  ANP d   1     -29.035  14.679 -10.638  0.00  0.00    -0.236 NA
ATOM     32  H   ANP d   1     -29.937  13.729 -12.370  0.00  0.00     0.144 H 
ATOM     33  C5  ANP d   1     -28.345  15.836 -10.543  0.00  0.00     0.149 A 
ATOM     34  C6  ANP d   1     -27.766  16.620  -9.460  0.00  0.00     0.155 A 
ATOM     35  C4  ANP d   1     -28.249  16.421 -11.877  0.00  0.00     0.167 A 
ATOM     36  N6  ANP d   1     -27.862  16.152  -8.200  0.00  0.00    -0.382 N 
ATOM     37  N1  ANP d   1     -27.146  17.789  -9.768  0.00  0.00    -0.222 NA
ATOM     38  H   ANP d   1     -27.460  16.690  -7.419  0.00  0.00     0.157 HD
ATOM     39  H   ANP d   1     -28.337  15.257  -8.018  0.00  0.00     0.157 HD
ATOM     40  C2  ANP d   1     -27.070  18.256 -11.029  0.00  0.00     0.091 A 
ATOM     41  N3  ANP d   1     -27.604  17.594 -12.074  0.00  0.00    -0.222 NA
ATOM     42  H   ANP d   1     -26.562  19.196 -11.209  0.00  0.00     0.146 H 
ENDBRANCH   5  29
BRANCH   4  43
ATOM     43  O2' ANP d   1     -27.769  16.135 -16.069  0.00  0.00    -0.388 OA
ATOM     44  H   ANP d   1     -27.219  15.734 -16.732  0.00  0.00     0.210 HD
ENDBRANCH   4  43
TORSDOF 10
