REMARK  10 active torsions:
REMARK  status: ('A' for Active; 'I' for Inactive)
REMARK    1  A    between atoms: N3B_8  and  PG_1 
REMARK    2  A    between atoms: PB_5  and  N3B_8 
REMARK    3  A    between atoms: O3A_12  and  PB_5 
REMARK    4  A    between atoms: PA_9  and  O3A_12 
REMARK    5  A    between atoms: PA_9  and  O5'_13 
REMARK    6  A    between atoms: O5'_13  and  C5'_14 
REMARK    7  A    between atoms: C5'_14  and  C4'_15 
REMARK    8  A    between atoms: C3'_17  and  O3'_18 
REMARK    9  A    between atoms: C2'_19  and  O2'_20 
REMARK   10  A    between atoms: C1'_21  and  N9_22 
ROOT
ATOM      1  C4' ANP d   1       6.960  40.179 -23.699  0.00  0.00     0.089 C 
ATOM      2  O4' ANP d   1       8.210  40.455 -23.054  0.00  0.00    -0.353 OA
ATOM      3  C3' ANP d   1       7.308  39.460 -24.991  0.00  0.00     0.091 C 
ATOM      4  C2' ANP d   1       8.714  38.917 -24.782  0.00  0.00     0.105 C 
ATOM      5  C1' ANP d   1       9.311  39.901 -23.793  0.00  0.00     0.139 C 
ATOM      6  H   ANP d   1       6.437  41.123 -23.912  0.00  0.00     0.090 H 
ATOM      7  H   ANP d   1       6.603  38.641 -25.195  0.00  0.00     0.091 H 
ATOM      8  H   ANP d   1       8.684  37.902 -24.358  0.00  0.00     0.093 H 
ATOM      9  H   ANP d   1       9.802  40.700 -24.368  0.00  0.00     0.122 H 
ENDROOT
BRANCH   1  10
ATOM     10  C5' ANP d   1       6.045  39.277 -22.865  0.00  0.00     0.058 C 
ATOM     11  H   ANP d   1       5.002  39.566 -23.063  0.00  0.00     0.079 H 
ATOM     12  H   ANP d   1       6.204  38.236 -23.183  0.00  0.00     0.079 H 
BRANCH  10  13
ATOM     13  O5' ANP d   1       6.273  39.355 -21.449  0.00  0.00    -0.287 OA
BRANCH  13  14
ATOM     14  PA  ANP d   1       5.460  38.328 -20.502  0.00  0.00     0.417 P 
ATOM     15  O1A ANP d   1       5.398  37.024 -21.267  0.00  0.00    -0.624 OA
ATOM     16  O2A ANP d   1       6.123  38.339 -19.144  0.00  0.00    -0.624 OA
BRANCH  14  17
ATOM     17  O3A ANP d   1       3.953  38.985 -20.414  0.00  0.00    -0.186 OA
BRANCH  17  18
ATOM     18  PB  ANP d   1       2.642  38.639 -19.494  0.00  0.00     0.379 P 
ATOM     19  O1B ANP d   1       1.816  39.871 -19.477  0.00  0.00    -0.629 OA
ATOM     20  O2B ANP d   1       3.049  38.314 -17.972  0.00  0.00    -0.629 OA
BRANCH  18  21
ATOM     21  N3B ANP d   1       1.686  37.334 -20.155  0.00  0.00    -0.218 N 
ATOM     22  H   ANP d   1       1.706  36.381 -19.852  0.00  0.00     0.179 HD
BRANCH  21  23
ATOM     23  PG  ANP d   1       0.696  37.976 -21.429  0.00  0.00     0.381 P 
ATOM     24  O1G ANP d   1       1.541  38.034 -22.801  0.00  0.00    -0.622 OA
ATOM     25  O2G ANP d   1      -0.594  37.307 -21.641  0.00  0.00    -0.622 OA
ATOM     26  O3G ANP d   1       0.385  39.442 -20.881  0.00  0.00    -0.622 OA
ENDBRANCH  21  23
ENDBRANCH  18  21
ENDBRANCH  17  18
ENDBRANCH  14  17
ENDBRANCH  13  14
ENDBRANCH  10  13
ENDBRANCH   1  10
BRANCH   3  27
ATOM     27  O3' ANP d   1       7.270  40.417 -26.055  0.00  0.00    -0.390 OA
ATOM     28  H   ANP d   1       7.485  39.987 -26.874  0.00  0.00     0.210 HD
ENDBRANCH   3  27
BRANCH   5  29
ATOM     29  N9  ANP d   1      10.321  39.359 -22.837  0.00  0.00    -0.294 N 
ATOM     30  C8  ANP d   1      10.065  38.973 -21.569  0.00  0.00     0.071 A 
ATOM     31  N7  ANP d   1      11.196  38.569 -20.936  0.00  0.00    -0.236 NA
ATOM     32  H   ANP d   1       9.077  38.984 -21.112  0.00  0.00     0.144 H 
ATOM     33  C5  ANP d   1      12.209  38.703 -21.808  0.00  0.00     0.149 A 
ATOM     34  C6  ANP d   1      13.670  38.464 -21.782  0.00  0.00     0.155 A 
ATOM     35  C4  ANP d   1      11.635  39.234 -23.057  0.00  0.00     0.167 A 
ATOM     36  N6  ANP d   1      14.271  37.985 -20.670  0.00  0.00    -0.382 N 
ATOM     37  N1  ANP d   1      14.380  38.739 -22.901  0.00  0.00    -0.222 NA
ATOM     38  H   ANP d   1      15.288  37.823 -20.664  0.00  0.00     0.157 HD
ATOM     39  H   ANP d   1      13.712  37.782 -19.829  0.00  0.00     0.157 HD
ATOM     40  C2  ANP d   1      13.793  39.217 -24.018  0.00  0.00     0.091 A 
ATOM     41  N3  ANP d   1      12.468  39.465 -24.110  0.00  0.00    -0.222 NA
ATOM     42  H   ANP d   1      14.415  39.412 -24.884  0.00  0.00     0.146 H 
ENDBRANCH   5  29
BRANCH   4  43
ATOM     43  O2' ANP d   1       9.454  38.895 -26.003  0.00  0.00    -0.388 OA
ATOM     44  H   ANP d   1       9.008  38.341 -26.633  0.00  0.00     0.210 HD
ENDBRANCH   4  43
TORSDOF 10
