REMARK  12 active torsions:
REMARK  status: ('A' for Active; 'I' for Inactive)
REMARK    1  A    between atoms: C2_2  and  NA2_3 
REMARK    2  A    between atoms: C4_5  and  NA4_6 
REMARK    3  A    between atoms: C9_13  and  C6_9 
REMARK    4  A    between atoms: N10_14  and  C9_13 
REMARK    5  A    between atoms: N10_14  and  CM_15 
REMARK    6  A    between atoms: C14_19  and  N10_14 
REMARK    7  A    between atoms: C11_16  and  C_22 
REMARK       I    between atoms: C_22  and  N_24 
REMARK    8  A    between atoms: N_24  and  CA_25 
REMARK    9  A    between atoms: CA_25  and  CT_26 
REMARK   10  A    between atoms: CA_25  and  CB_29 
REMARK   11  A    between atoms: CB_29  and  CG_30 
REMARK   12  A    between atoms: CG_30  and  CD_31 
ROOT
ATOM      1  C11 MT1 d   1      38.718  51.905  11.640  0.00  0.00     0.032 A 
ATOM      2  C12 MT1 d   1      38.427  50.605  11.295  0.00  0.00    -0.066 A 
ATOM      3  C13 MT1 d   1      39.390  49.821  10.707  0.00  0.00    -0.061 A 
ATOM      4  C14 MT1 d   1      40.654  50.304  10.403  0.00  0.00     0.010 A 
ATOM      5  C15 MT1 d   1      40.914  51.619  10.771  0.00  0.00    -0.061 A 
ATOM      6  C16 MT1 d   1      39.969  52.411  11.381  0.00  0.00    -0.066 A 
ATOM      7  H   MT1 d   1      37.440  50.200  11.487  0.00  0.00     0.085 H 
ATOM      8  H   MT1 d   1      39.154  48.789  10.473  0.00  0.00     0.086 H 
ATOM      9  H   MT1 d   1      41.895  52.035  10.570  0.00  0.00     0.086 H 
ATOM     10  H   MT1 d   1      40.211  53.431  11.656  0.00  0.00     0.085 H 
ENDROOT
BRANCH   4  11
ATOM     11  N10 MT1 d   1      41.634  49.429   9.815  0.00  0.00    -0.282 NA
BRANCH  11  12
ATOM     12  C9  MT1 d   1      41.087  48.575   8.747  0.00  0.00     0.025 C 
ATOM     13  H   MT1 d   1      40.119  48.982   8.419  0.00  0.00     0.066 H 
ATOM     14  H   MT1 d   1      41.787  48.565   7.898  0.00  0.00     0.066 H 
BRANCH  12  15
ATOM     15  C6  MT1 d   1      40.889  47.161   9.243  0.00  0.00     0.066 A 
ATOM     16  N5  MT1 d   1      40.187  46.339   8.466  0.00  0.00    -0.243 NA
ATOM     17  C4A MT1 d   1      40.040  45.081   8.912  0.00  0.00     0.151 A 
ATOM     18  C4  MT1 d   1      39.336  44.175   8.159  0.00  0.00     0.173 A 
ATOM     19  C8A MT1 d   1      40.550  44.614  10.115  0.00  0.00     0.201 A 
ATOM     20  N3  MT1 d   1      39.115  42.913   8.540  0.00  0.00    -0.043 NA
ATOM     21  C2  MT1 d   1      39.623  42.549   9.715  0.00  0.00     0.724 A 
ATOM     22  N1  MT1 d   1      40.337  43.354  10.511  0.00  0.00    -0.041 NA
ATOM     23  N8  MT1 d   1      41.235  45.449  10.899  0.00  0.00    -0.237 NA
ATOM     24  C7  MT1 d   1      41.392  46.696  10.439  0.00  0.00     0.029 A 
ATOM     25  H   MT1 d   1      41.956  47.391  11.051  0.00  0.00     0.118 H 
BRANCH  18  26
ATOM     26  NA4 MT1 d   1      38.863  44.609   6.921  0.00  0.00    -0.381 N 
ATOM     27  H   MT1 d   1      39.028  45.580   6.618  0.00  0.00     0.157 HD
ATOM     28  H   MT1 d   1      38.349  43.959   6.310  0.00  0.00     0.157 HD
ENDBRANCH  18  26
BRANCH  21  29
ATOM     29  NA2 MT1 d   1      39.371  41.234  10.108  0.00  0.00    -0.231 N 
ATOM     30  H   MT1 d   1      39.735  40.886  11.007  0.00  0.00     0.174 HD
ATOM     31  H   MT1 d   1      38.821  40.611   9.499  0.00  0.00     0.174 HD
ENDBRANCH  21  29
ENDBRANCH  12  15
ENDBRANCH  11  12
BRANCH  11  32
ATOM     32  CM  MT1 d   1      42.844  50.141   9.452  0.00  0.00    -0.028 C 
ATOM     33  H   MT1 d   1      43.180  50.750  10.304  0.00  0.00     0.048 H 
ATOM     34  H   MT1 d   1      42.641  50.795   8.591  0.00  0.00     0.048 H 
ATOM     35  H   MT1 d   1      43.629  49.418   9.186  0.00  0.00     0.048 H 
ENDBRANCH  11  32
ENDBRANCH   4  11
BRANCH   1  36
ATOM     36  C   MT1 d   1      37.717  52.784  12.271  0.00  0.00     0.252 C 
ATOM     37  O   MT1 d   1      37.821  53.993  12.105  0.00  0.00    -0.268 OA
ATOM     38  N   MT1 d   1      36.776  52.119  13.046  0.00  0.00    -0.342 N 
ATOM     39  H   MT1 d   1      36.982  51.170  13.285  0.00  0.00     0.163 HD
BRANCH  38  40
ATOM     40  CA  MT1 d   1      35.518  52.662  13.547  0.00  0.00     0.097 C 
ATOM     41  H   MT1 d   1      34.953  51.755  13.810  0.00  0.00     0.089 H 
BRANCH  40  42
ATOM     42  CT  MT1 d   1      34.546  53.456  12.655  0.00  0.00     0.196 C 
ATOM     43  O1  MT1 d   1      33.325  53.264  12.943  0.00  0.00    -0.646 OA
ATOM     44  O2  MT1 d   1      35.007  54.193  11.740  0.00  0.00    -0.646 OA
ENDBRANCH  40  42
BRANCH  40  45
ATOM     45  CB  MT1 d   1      35.665  53.446  14.846  0.00  0.00    -0.028 C 
ATOM     46  H   MT1 d   1      35.580  52.741  15.686  0.00  0.00     0.037 H 
ATOM     47  H   MT1 d   1      34.848  54.180  14.900  0.00  0.00     0.037 H 
BRANCH  45  48
ATOM     48  CG  MT1 d   1      36.982  54.189  14.980  0.00  0.00     0.018 C 
ATOM     49  H   MT1 d   1      37.018  55.056  14.305  0.00  0.00     0.049 H 
ATOM     50  H   MT1 d   1      37.834  53.526  14.771  0.00  0.00     0.049 H 
BRANCH  48  51
ATOM     51  CD  MT1 d   1      36.973  54.624  16.423  0.00  0.00     0.172 C 
ATOM     52  OE1 MT1 d   1      36.511  55.784  16.630  0.00  0.00    -0.648 OA
ATOM     53  OE2 MT1 d   1      37.457  53.769  17.217  0.00  0.00    -0.648 OA
ENDBRANCH  48  51
ENDBRANCH  45  48
ENDBRANCH  40  45
ENDBRANCH  38  40
ENDBRANCH   1  36
TORSDOF 12
