REMARK  6 active torsions:
REMARK  status: ('A' for Active; 'I' for Inactive)
REMARK    1  A    between atoms: C20_2  and  C19_5 
REMARK    2  A    between atoms: C1_10  and  N2_11 
REMARK       I    between atoms: N2_11  and  C3_12 
REMARK       I    between atoms: C3_12  and  N4_14 
REMARK    3  A    between atoms: N4_14  and  C5_15 
REMARK       I    between atoms: N8_18  and  C9_21 
REMARK    4  A    between atoms: C9_21  and  C10_23 
REMARK    5  A    between atoms: C10_23  and  C12_24 
REMARK    6  A    between atoms: C10_23  and  C11_25 
ROOT
ATOM      1  C5  2RU d   1      14.788  11.337  18.562  0.00  0.00     0.017 C 
ATOM      2  C15 2RU d   1      13.636  10.344  18.737  0.00  0.00    -0.031 C 
ATOM      3  C14 2RU d   1      12.999  10.335  20.145  0.00  0.00    -0.001 C 
ATOM      4  N8  2RU d   1      12.587  11.703  20.536  0.00  0.00    -0.352 N 
ATOM      5  C7  2RU d   1      13.676  12.693  20.422  0.00  0.00    -0.001 C 
ATOM      6  C6  2RU d   1      14.280  12.708  19.017  0.00  0.00    -0.031 C 
ATOM      7  C9  2RU d   1      11.387  12.087  21.041  0.00  0.00     0.223 C 
ATOM      8  O13 2RU d   1      11.214  13.206  21.558  0.00  0.00    -0.273 OA
ATOM      9  H   2RU d   1      15.612  11.009  19.213  0.00  0.00     0.072 H 
ATOM     10  H   2RU d   1      14.019   9.334  18.528  0.00  0.00     0.038 H 
ATOM     11  H   2RU d   1      12.852  10.597  18.008  0.00  0.00     0.038 H 
ATOM     12  H   2RU d   1      13.732   9.956  20.872  0.00  0.00     0.064 H 
ATOM     13  H   2RU d   1      12.116   9.679  20.139  0.00  0.00     0.064 H 
ATOM     14  H   2RU d   1      14.464  12.441  21.146  0.00  0.00     0.064 H 
ATOM     15  H   2RU d   1      13.275  13.692  20.649  0.00  0.00     0.064 H 
ATOM     16  H   2RU d   1      13.509  13.047  18.309  0.00  0.00     0.038 H 
ATOM     17  H   2RU d   1      15.123  13.414  19.007  0.00  0.00     0.038 H 
ENDROOT
BRANCH   1  18
ATOM     18  N4  2RU d   1      15.333  11.518  17.203  0.00  0.00    -0.338 N 
ATOM     19  C3  2RU d   1      16.072  10.639  16.485  0.00  0.00     0.321 C 
ATOM     20  N2  2RU d   1      16.687  11.126  15.374  0.00  0.00    -0.309 N 
ATOM     21  O16 2RU d   1      16.222   9.490  16.864  0.00  0.00    -0.247 OA
ATOM     22  H   2RU d   1      16.497  12.080  15.144  0.00  0.00     0.170 HD
ATOM     23  H   2RU d   1      15.133  12.392  16.760  0.00  0.00     0.164 HD
BRANCH  20  24
ATOM     24  C1  2RU d   1      17.543  10.452  14.530  0.00  0.00     0.036 A 
ATOM     25  C17 2RU d   1      18.464  11.149  13.721  0.00  0.00    -0.056 A 
ATOM     26  C18 2RU d   1      19.399  10.464  12.937  0.00  0.00    -0.066 A 
ATOM     27  H   2RU d   1      18.447  12.233  13.706  0.00  0.00     0.086 H 
ATOM     28  C19 2RU d   1      19.415   9.069  12.950  0.00  0.00     0.048 A 
ATOM     29  H   2RU d   1      20.105  11.013  12.325  0.00  0.00     0.084 H 
ATOM     30  C24 2RU d   1      18.510   8.369  13.724  0.00  0.00    -0.066 A 
ATOM     31  C25 2RU d   1      17.599   9.058  14.509  0.00  0.00    -0.056 A 
ATOM     32  H   2RU d   1      18.512   7.285  13.717  0.00  0.00     0.084 H 
ATOM     33  H   2RU d   1      16.908   8.496  15.127  0.00  0.00     0.086 H 
BRANCH  28  34
ATOM     34  C20 2RU d   1      20.370   8.254  12.148  0.00  0.00     0.417 C 
ATOM     35  F23 2RU d   1      21.383   7.792  12.847  0.00  0.00    -0.166 F 
ATOM     36  F21 2RU d   1      20.783   9.001  11.134  0.00  0.00    -0.166 F 
ATOM     37  F22 2RU d   1      19.735   7.159  11.805  0.00  0.00    -0.166 F 
ENDBRANCH  28  34
ENDBRANCH  20  24
ENDBRANCH   1  18
BRANCH   7  38
ATOM     38  C10 2RU d   1      10.224  11.127  21.019  0.00  0.00     0.017 C 
ATOM     39  H   2RU d   1      10.558  10.151  21.402  0.00  0.00     0.053 H 
BRANCH  38  40
ATOM     40  C12 2RU d   1       9.733  10.971  19.603  0.00  0.00    -0.065 C 
ATOM     41  H   2RU d   1       8.885  10.271  19.584  0.00  0.00     0.028 H 
ATOM     42  H   2RU d   1      10.546  10.579  18.974  0.00  0.00     0.028 H 
ATOM     43  H   2RU d   1       9.410  11.949  19.217  0.00  0.00     0.028 H 
ENDBRANCH  38  40
BRANCH  38  44
ATOM     44  C11 2RU d   1       9.072  11.634  21.880  0.00  0.00    -0.065 C 
ATOM     45  H   2RU d   1       9.415  11.753  22.918  0.00  0.00     0.028 H 
ATOM     46  H   2RU d   1       8.244  10.910  21.848  0.00  0.00     0.028 H 
ATOM     47  H   2RU d   1       8.726  12.604  21.495  0.00  0.00     0.028 H 
ENDBRANCH  38  44
ENDBRANCH   7  38
TORSDOF 6
