REMARK  5 active torsions:
REMARK  status: ('A' for Active; 'I' for Inactive)
REMARK    1  A    between atoms: C20_2  and  O19_5 
REMARK    2  A    between atoms: O19_5  and  C18_6 
REMARK       I    between atoms: N2_12  and  C3_13 
REMARK       I    between atoms: C3_13  and  N4_15 
REMARK    3  A    between atoms: N4_15  and  C5_16 
REMARK       I    between atoms: N8_19  and  C9_22 
REMARK    4  A    between atoms: C9_22  and  C10_24 
REMARK    5  A    between atoms: C10_24  and  C11_25 
ROOT
ATOM      1  C5  2RV d   1      14.457  11.572  18.012  0.00  0.00     0.017 C 
ATOM      2  C14 2RV d   1      14.310  12.874  18.792  0.00  0.00    -0.031 C 
ATOM      3  C13 2RV d   1      13.752  12.680  20.204  0.00  0.00    -0.001 C 
ATOM      4  N8  2RV d   1      12.791  11.566  20.203  0.00  0.00    -0.352 N 
ATOM      5  C7  2RV d   1      13.354  10.255  19.843  0.00  0.00    -0.001 C 
ATOM      6  C6  2RV d   1      14.650  10.453  19.033  0.00  0.00    -0.031 C 
ATOM      7  C9  2RV d   1      11.513  11.777  20.542  0.00  0.00     0.219 C 
ATOM      8  O12 2RV d   1      11.183  12.796  21.136  0.00  0.00    -0.273 OA
ATOM      9  H   2RV d   1      13.519  11.367  17.475  0.00  0.00     0.072 H 
ATOM     10  H   2RV d   1      13.630  13.537  18.237  0.00  0.00     0.038 H 
ATOM     11  H   2RV d   1      15.300  13.346  18.871  0.00  0.00     0.038 H 
ATOM     12  H   2RV d   1      13.245  13.601  20.528  0.00  0.00     0.064 H 
ATOM     13  H   2RV d   1      14.576  12.452  20.896  0.00  0.00     0.064 H 
ATOM     14  H   2RV d   1      12.625   9.698  19.236  0.00  0.00     0.064 H 
ATOM     15  H   2RV d   1      13.578   9.689  20.759  0.00  0.00     0.064 H 
ATOM     16  H   2RV d   1      15.470  10.719  19.716  0.00  0.00     0.038 H 
ATOM     17  H   2RV d   1      14.899   9.519  18.508  0.00  0.00     0.038 H 
ENDROOT
BRANCH   1  18
ATOM     18  N4  2RV d   1      15.497  11.747  17.004  0.00  0.00    -0.338 N 
ATOM     19  C3  2RV d   1      16.111  10.800  16.272  0.00  0.00     0.321 C 
ATOM     20  N2  2RV d   1      16.721  11.258  15.170  0.00  0.00    -0.309 N 
ATOM     21  O15 2RV d   1      16.089   9.611  16.531  0.00  0.00    -0.247 OA
ATOM     22  C1  2RV d   1      17.353  10.489  14.236  0.00  0.00     0.036 A 
ATOM     23  H   2RV d   1      16.712  12.246  15.019  0.00  0.00     0.170 HD
ATOM     24  C16 2RV d   1      17.147   9.127  14.078  0.00  0.00    -0.054 A 
ATOM     25  C25 2RV d   1      18.372  11.093  13.497  0.00  0.00    -0.054 A 
ATOM     26  C17 2RV d   1      17.922   8.407  13.177  0.00  0.00    -0.048 A 
ATOM     27  H   2RV d   1      16.381   8.624  14.657  0.00  0.00     0.087 H 
ATOM     28  C18 2RV d   1      18.926   9.036  12.432  0.00  0.00     0.078 A 
ATOM     29  H   2RV d   1      17.747   7.345  13.050  0.00  0.00     0.087 H 
ATOM     30  C24 2RV d   1      19.160  10.381  12.612  0.00  0.00    -0.048 A 
ATOM     31  H   2RV d   1      19.954  10.877  12.065  0.00  0.00     0.087 H 
ATOM     32  H   2RV d   1      18.551  12.155  13.621  0.00  0.00     0.087 H 
ATOM     33  H   2RV d   1      15.790  12.688  16.836  0.00  0.00     0.164 HD
BRANCH  28  34
ATOM     34  O19 2RV d   1      19.705   8.343  11.553  0.00  0.00    -0.255 OA
BRANCH  34  35
ATOM     35  C20 2RV d   1      20.551   7.346  12.119  0.00  0.00     0.530 C 
ATOM     36  F23 2RV d   1      21.424   7.925  12.918  0.00  0.00    -0.144 F 
ATOM     37  F21 2RV d   1      21.188   6.713  11.161  0.00  0.00    -0.144 F 
ATOM     38  F22 2RV d   1      19.832   6.493  12.834  0.00  0.00    -0.144 F 
ENDBRANCH  34  35
ENDBRANCH  28  34
ENDBRANCH   1  18
BRANCH   7  39
ATOM     39  C10 2RV d   1      10.437  10.758  20.224  0.00  0.00     0.006 C 
ATOM     40  H   2RV d   1      10.838   9.743  20.360  0.00  0.00     0.046 H 
ATOM     41  H   2RV d   1      10.104  10.885  19.183  0.00  0.00     0.046 H 
BRANCH  39  42
ATOM     42  C11 2RV d   1       9.262  10.974  21.167  0.00  0.00    -0.068 C 
ATOM     43  H   2RV d   1       8.474  10.239  20.945  0.00  0.00     0.028 H 
ATOM     44  H   2RV d   1       8.864  11.991  21.030  0.00  0.00     0.028 H 
ATOM     45  H   2RV d   1       9.598  10.848  22.207  0.00  0.00     0.028 H 
ENDBRANCH  39  42
ENDBRANCH   7  39
TORSDOF 5
