REMARK  26 active torsions:
REMARK  status: ('A' for Active; 'I' for Inactive)
REMARK    1  A    between atoms: C_1  and  CH3_3 
REMARK       I    between atoms: C_1  and  N_4 
REMARK    2  A    between atoms: CA_5  and  C_6 
REMARK       I    between atoms: C_6  and  N_11 
REMARK    3  A    between atoms: N_11  and  CA_12 
REMARK    4  A    between atoms: CA_12  and  C_13 
REMARK    5  A    between atoms: CA_12  and  CB_15 
REMARK       I    between atoms: C_13  and  N_25 
REMARK    6  A    between atoms: CB_15  and  CG_16 
REMARK    7  A    between atoms: N_25  and  CA_26 
REMARK    8  A    between atoms: CA_26  and  C_27 
REMARK    9  A    between atoms: CA_26  and  CB_29 
REMARK       I    between atoms: C_27  and  N_30 
REMARK   10  A    between atoms: N_30  and  CA_31 
REMARK   11  A    between atoms: CA_31  and  C_32 
REMARK   12  A    between atoms: CA_31  and  CB_34 
REMARK       I    between atoms: C_32  and  N_37 
REMARK   13  A    between atoms: CB_34  and  OG1_35 
REMARK   14  A    between atoms: CB_34  and  CG2_36 
REMARK   15  A    between atoms: N_37  and  CA_38 
REMARK   16  A    between atoms: CA_38  and  C_39 
REMARK   17  A    between atoms: CA_38  and  CB_41 
REMARK       I    between atoms: C_39  and  N_43 
REMARK   18  A    between atoms: CB_41  and  SG_42 
REMARK   19  A    between atoms: N_43  and  CA_44 
REMARK   20  A    between atoms: CA_44  and  C_45 
REMARK   21  A    between atoms: CA_44  and  CB_47 
REMARK       I    between atoms: C_45  and  N_51 
REMARK   22  A    between atoms: CB_47  and  CG_48 
REMARK   23  A    between atoms: N_51  and  CA_52 
REMARK   24  A    between atoms: CA_52  and  C_53 
REMARK   25  A    between atoms: CA_52  and  CB_55 
REMARK       I    between atoms: C_53  and  N_57 
REMARK   26  A    between atoms: CB_55  and  OG_56 
ROOT
ATOM      1  C   ALA d   1     -38.774  32.750   7.740  0.00  0.00     0.240 C 
ATOM      2  O   ALA d   1     -39.975  32.962   7.827  0.00  0.00    -0.271 OA
ATOM      3  N   THR d   1     -38.269  31.527   7.786  0.00  0.00    -0.344 N 
ATOM      4  H   THR d   1     -37.275  31.418   7.798  0.00  0.00     0.163 HD
ENDROOT
BRANCH   1   5
ATOM      5  CA  ALA d   1     -37.784  33.906   7.520  0.00  0.00     0.086 C 
ATOM      6  H   ALA d   1     -38.222  34.813   7.963  0.00  0.00     0.086 H 
BRANCH   5   7
ATOM      7  N   ALA d   1     -36.495  33.665   8.166  0.00  0.00    -0.346 N 
ATOM      8  C   TRP d   1     -36.337  33.432   9.470  0.00  0.00     0.241 C 
ATOM      9  O   TRP d   1     -37.260  33.355  10.300  0.00  0.00    -0.271 OA
ATOM     10  H   ALA d   1     -35.676  33.675   7.592  0.00  0.00     0.163 HD
BRANCH   8  11
ATOM     11  CA  TRP d   1     -34.910  33.191   9.901  0.00  0.00     0.093 C 
ATOM     12  H   TRP d   1     -34.907  32.250  10.471  0.00  0.00     0.088 H 
BRANCH  11  13
ATOM     13  N   TRP d   1     -33.955  33.032   8.780  0.00  0.00    -0.346 N 
ATOM     14  C   PRO d   1     -33.992  32.032   7.902  0.00  0.00     0.241 C 
ATOM     15  O   PRO d   1     -34.797  31.137   7.958  0.00  0.00    -0.271 OA
ATOM     16  H   TRP d   1     -33.236  33.720   8.676  0.00  0.00     0.163 HD
BRANCH  14  17
ATOM     17  CA  PRO d   1     -32.994  32.093   6.743  0.00  0.00     0.091 C 
ATOM     18  N   PRO d   1     -32.190  33.320   6.714  0.00  0.00    -0.339 N 
ATOM     19  C   ACE d   1     -32.933  34.611   6.439  0.00  0.00     0.216 C 
ATOM     20  CD  PRO d   1     -30.757  33.041   6.860  0.00  0.00    -0.001 C 
ATOM     21  O   ACE d   1     -34.140  34.695   6.308  0.00  0.00    -0.274 OA
ATOM     22  CG  PRO d   1     -30.704  31.652   7.282  0.00  0.00    -0.048 C 
ATOM     23  H   PRO d   1     -30.308  33.697   7.620  0.00  0.00     0.064 H 
ATOM     24  H   PRO d   1     -30.234  33.178   5.902  0.00  0.00     0.064 H 
ATOM     25  CB  PRO d   1     -31.930  30.997   6.799  0.00  0.00    -0.036 C 
ATOM     26  H   PRO d   1     -29.820  31.161   6.849  0.00  0.00     0.035 H 
ATOM     27  H   PRO d   1     -30.654  31.594   8.379  0.00  0.00     0.035 H 
ATOM     28  H   PRO d   1     -31.767  30.570   5.798  0.00  0.00     0.036 H 
ATOM     29  H   PRO d   1     -32.237  30.200   7.492  0.00  0.00     0.036 H 
ATOM     30  H   PRO d   1     -33.567  32.006   5.808  0.00  0.00     0.087 H 
BRANCH  19  31
ATOM     31  CH3 ACE d   1     -32.124  35.847   6.355  0.00  0.00    -0.003 C 
ATOM     32  H   ACE d   1     -31.061  35.600   6.493  0.00  0.00     0.040 H 
ATOM     33  H   ACE d   1     -32.443  36.548   7.141  0.00  0.00     0.040 H 
ATOM     34  H   ACE d   1     -32.267  36.312   5.369  0.00  0.00     0.040 H 
ENDBRANCH  19  31
ENDBRANCH  14  17
ENDBRANCH  11  13
BRANCH  11  35
ATOM     35  CB  TRP d   1     -34.390  34.310  10.832  0.00  0.00    -0.012 C 
ATOM     36  H   TRP d   1     -33.544  33.901  11.403  0.00  0.00     0.044 H 
ATOM     37  H   TRP d   1     -35.205  34.574  11.522  0.00  0.00     0.044 H 
BRANCH  35  38
ATOM     38  CG  TRP d   1     -33.920  35.587  10.170  0.00  0.00    -0.028 A 
ATOM     39  CD1 TRP d   1     -34.713  36.604   9.780  0.00  0.00    -0.015 A 
ATOM     40  NE1 TRP d   1     -33.966  37.622   9.270  0.00  0.00    -0.365 N 
ATOM     41  H   TRP d   1     -35.799  36.611   9.861  0.00  0.00     0.112 H 
ATOM     42  CE2 TRP d   1     -32.644  37.289   9.323  0.00  0.00     0.042 A 
ATOM     43  H   TRP d   1     -34.341  38.507   8.901  0.00  0.00     0.165 HD
ATOM     44  CD2 TRP d   1     -32.568  36.008   9.899  0.00  0.00    -0.002 A 
ATOM     45  CZ2 TRP d   1     -31.513  38.016   8.925  0.00  0.00    -0.056 A 
ATOM     46  CE3 TRP d   1     -31.308  35.430  10.077  0.00  0.00    -0.070 A 
ATOM     47  CZ3 TRP d   1     -30.171  36.161   9.666  0.00  0.00    -0.082 A 
ATOM     48  H   TRP d   1     -31.206  34.446  10.519  0.00  0.00     0.084 H 
ATOM     49  CH2 TRP d   1     -30.294  37.435   9.103  0.00  0.00    -0.081 A 
ATOM     50  H   TRP d   1     -29.186  35.726   9.789  0.00  0.00     0.083 H 
ATOM     51  H   TRP d   1     -29.401  37.971   8.802  0.00  0.00     0.083 H 
ATOM     52  H   TRP d   1     -31.605  39.005   8.491  0.00  0.00     0.086 H 
ENDBRANCH  35  38
ENDBRANCH  11  35
ENDBRANCH   8  11
ENDBRANCH   5   7
BRANCH   5  53
ATOM     53  CB  ALA d   1     -37.572  34.156   6.017  0.00  0.00    -0.049 C 
ATOM     54  H   ALA d   1     -38.544  34.337   5.535  0.00  0.00     0.030 H 
ATOM     55  H   ALA d   1     -37.095  33.275   5.562  0.00  0.00     0.030 H 
ATOM     56  H   ALA d   1     -36.925  35.035   5.879  0.00  0.00     0.030 H 
ENDBRANCH   5  53
ENDBRANCH   1   5
BRANCH   3  57
ATOM     57  CA  THR d   1     -39.107  30.328   7.820  0.00  0.00     0.113 C 
ATOM     58  H   THR d   1     -40.144  30.629   8.030  0.00  0.00     0.091 H 
BRANCH  57  59
ATOM     59  C   THR d   1     -38.603  29.403   8.938  0.00  0.00     0.243 C 
ATOM     60  O   THR d   1     -37.541  29.598   9.494  0.00  0.00    -0.271 OA
ATOM     61  N   CYS d   1     -39.422  28.426   9.262  0.00  0.00    -0.345 N 
ATOM     62  H   CYS d   1     -40.264  28.320   8.733  0.00  0.00     0.163 HD
BRANCH  61  63
ATOM     63  CA  CYS d   1     -39.172  27.498  10.339  0.00  0.00     0.097 C 
ATOM     64  H   CYS d   1     -38.109  27.547  10.618  0.00  0.00     0.088 H 
BRANCH  63  65
ATOM     65  C   CYS d   1     -39.474  26.098   9.796  0.00  0.00     0.241 C 
ATOM     66  O   CYS d   1     -39.819  25.932   8.630  0.00  0.00    -0.271 OA
ATOM     67  N   ASP d   1     -39.231  25.098  10.625  0.00  0.00    -0.345 N 
ATOM     68  H   ASP d   1     -38.830  25.301  11.518  0.00  0.00     0.163 HD
BRANCH  67  69
ATOM     69  CA  ASP d   1     -39.524  23.717  10.290  0.00  0.00     0.098 C 
ATOM     70  H   ASP d   1     -39.711  23.656   9.208  0.00  0.00     0.088 H 
BRANCH  69  71
ATOM     71  C   ASP d   1     -40.764  23.300  11.016  0.00  0.00     0.241 C 
ATOM     72  O   ASP d   1     -40.847  23.453  12.217  0.00  0.00    -0.271 OA
ATOM     73  N   SER d   1     -41.766  22.881  10.263  0.00  0.00    -0.344 N 
ATOM     74  H   SER d   1     -41.639  22.827   9.273  0.00  0.00     0.163 HD
BRANCH  73  75
ATOM     75  CA  SER d   1     -43.048  22.496  10.832  0.00  0.00     0.109 C 
ATOM     76  H   SER d   1     -43.020  22.685  11.915  0.00  0.00     0.090 H 
BRANCH  75  77
ATOM     77  C   SER d   1     -43.273  21.030  10.596  0.00  0.00     0.240 C 
ATOM     78  O   SER d   1     -42.580  20.414   9.811  0.00  0.00    -0.271 OA
ATOM     79  N   NH2 d   1     -44.156  20.409  11.532  0.00  0.00    -0.368 N 
ATOM     80  H   NH2 d   1     -44.364  19.434  11.452  0.00  0.00     0.159 HD
ATOM     81  H   NH2 d   1     -44.566  20.949  12.267  0.00  0.00     0.159 HD
ENDBRANCH  75  77
BRANCH  75  82
ATOM     82  CB  SER d   1     -44.203  23.292  10.232  0.00  0.00     0.044 C 
ATOM     83  H   SER d   1     -45.144  22.959  10.694  0.00  0.00     0.077 H 
ATOM     84  H   SER d   1     -44.240  23.106   9.149  0.00  0.00     0.077 H 
BRANCH  82  85
ATOM     85  OG  SER d   1     -44.050  24.670  10.453  0.00  0.00    -0.398 OA
ATOM     86  H   SER d   1     -43.241  24.966  10.053  0.00  0.00     0.209 HD
ENDBRANCH  82  85
ENDBRANCH  75  82
ENDBRANCH  73  75
ENDBRANCH  69  71
BRANCH  69  87
ATOM     87  CB  ASP d   1     -38.363  22.770  10.623  0.00  0.00     0.043 C 
ATOM     88  H   ASP d   1     -38.688  21.737  10.431  0.00  0.00     0.052 H 
ATOM     89  H   ASP d   1     -38.112  22.884  11.688  0.00  0.00     0.052 H 
BRANCH  87  90
ATOM     90  CG  ASP d   1     -37.137  23.040   9.815  0.00  0.00     0.175 C 
ATOM     91  OD1 ASP d   1     -37.230  23.029   8.585  0.00  0.00    -0.648 OA
ATOM     92  OD2 ASP d   1     -36.083  23.284  10.391  0.00  0.00    -0.648 OA
ENDBRANCH  87  90
ENDBRANCH  69  87
ENDBRANCH  67  69
ENDBRANCH  63  65
BRANCH  63  93
ATOM     93  CB  CYS d   1     -39.998  27.851  11.572  0.00  0.00     0.001 C 
ATOM     94  H   CYS d   1     -39.795  28.899  11.837  0.00  0.00     0.052 H 
ATOM     95  H   CYS d   1     -39.685  27.196  12.399  0.00  0.00     0.052 H 
BRANCH  93  96
ATOM     96  SG  CYS d   1     -41.704  27.666  11.346  0.00  0.00    -0.180 SA
ATOM     97  H   CYS d   1     -42.183  27.915  12.197  0.00  0.00     0.101 HD
ENDBRANCH  93  96
ENDBRANCH  63  93
ENDBRANCH  61  63
ENDBRANCH  57  59
BRANCH  57  98
ATOM     98  CB  THR d   1     -39.078  29.556   6.517  0.00  0.00     0.060 C 
ATOM     99  H   THR d   1     -39.724  28.670   6.603  0.00  0.00     0.086 H 
BRANCH  98 100
ATOM    100  OG1 THR d   1     -37.739  29.161   6.292  0.00  0.00    -0.393 OA
ATOM    101  H   THR d   1     -37.446  28.613   7.011  0.00  0.00     0.210 HD
ENDBRANCH  98 100
BRANCH  98 102
ATOM    102  CG2 THR d   1     -39.546  30.401   5.337  0.00  0.00    -0.050 C 
ATOM    103  H   THR d   1     -39.507  29.799   4.417  0.00  0.00     0.031 H 
ATOM    104  H   THR d   1     -38.889  31.277   5.230  0.00  0.00     0.031 H 
ATOM    105  H   THR d   1     -40.579  30.736   5.513  0.00  0.00     0.031 H 
ENDBRANCH  98 102
ENDBRANCH  57  98
ENDBRANCH   3  57
TORSDOF 26
