REMARK  16 active torsions:
REMARK  status: ('A' for Active; 'I' for Inactive)
REMARK    1  A    between atoms: C7_4  and  C9_5 
REMARK    2  A    between atoms: C7_4  and  C6_22 
REMARK    3  A    between atoms: N8_23  and  C7_4 
REMARK       I    between atoms: C9_5  and  N11_25 
REMARK    4  A    between atoms: C13_7  and  C14_8 
REMARK    5  A    between atoms: N11_25  and  C13_7 
REMARK    6  A    between atoms: C16_10  and  O37_37 
REMARK    7  A    between atoms: C22_12  and  O27_33 
REMARK    8  A    between atoms: C23_30  and  O28_14 
REMARK    9  A    between atoms: O28_14  and  C29_34 
REMARK   10  A    between atoms: O27_33  and  C30_15 
REMARK   11  A    between atoms: C32_17  and  C31_16 
REMARK   12  A    between atoms: C31_16  and  C25_31 
REMARK       I    between atoms: N20_29  and  C32_17 
REMARK   13  A    between atoms: C35_19  and  O36_36 
REMARK   14  A    between atoms: C6_22  and  C4_20 
REMARK       I    between atoms: C18_27  and  N8_23 
REMARK       I    between atoms: C18_27  and  N20_29 
REMARK   15  A    between atoms: O36_36  and  C39_39 
REMARK   16  A    between atoms: O37_37  and  C38_38 
ROOT
ATOM      1  C7  2RZ d   1      -5.318  14.275 -36.736  0.00  0.00     0.107 C 
ATOM      2  H   2RZ d   1      -5.194  14.332 -37.828  0.00  0.00     0.088 H 
ENDROOT
BRANCH   1   3
ATOM      3  C9  2RZ d   1      -4.818  12.945 -36.186  0.00  0.00     0.241 C 
ATOM      4  O10 2RZ d   1      -4.815  12.771 -34.971  0.00  0.00    -0.271 OA
ATOM      5  N11 2RZ d   1      -4.294  12.034 -37.046  0.00  0.00    -0.355 N 
ATOM      6  H   2RZ d   1      -4.316  12.256 -38.021  0.00  0.00     0.162 HD
BRANCH   5   7
ATOM      7  C13 2RZ d   1      -3.692  10.737 -36.655  0.00  0.00     0.019 C 
ATOM      8  H   2RZ d   1      -3.375  10.210 -37.567  0.00  0.00     0.071 H 
ATOM      9  H   2RZ d   1      -2.814  10.936 -36.023  0.00  0.00     0.071 H 
BRANCH   7  10
ATOM     10  C14 2RZ d   1      -4.636   9.846 -35.893  0.00  0.00    -0.038 A 
ATOM     11  C15 2RZ d   1      -4.165   9.145 -34.781  0.00  0.00    -0.040 A 
ATOM     12  C16 2RZ d   1      -5.019   8.286 -34.063  0.00  0.00     0.102 A 
ATOM     13  H   2RZ d   1      -3.134   9.263 -34.468  0.00  0.00     0.088 H 
ATOM     14  C35 2RZ d   1      -6.363   8.169 -34.448  0.00  0.00     0.101 A 
ATOM     15  C34 2RZ d   1      -6.820   8.887 -35.564  0.00  0.00    -0.047 A 
ATOM     16  C17 2RZ d   1      -5.950   9.682 -36.313  0.00  0.00    -0.072 A 
ATOM     17  H   2RZ d   1      -7.864   8.823 -35.849  0.00  0.00     0.087 H 
ATOM     18  H   2RZ d   1      -6.298  10.168 -37.217  0.00  0.00     0.084 H 
BRANCH  12  19
ATOM     19  O37 2RZ d   1      -4.591   7.597 -32.964  0.00  0.00    -0.353 OA
BRANCH  19  20
ATOM     20  C38 2RZ d   1      -3.193   7.309 -32.785  0.00  0.00     0.010 C 
ATOM     21  H   2RZ d   1      -3.051   6.751 -31.848  0.00  0.00     0.066 H 
ATOM     22  H   2RZ d   1      -2.627   8.251 -32.740  0.00  0.00     0.066 H 
ATOM     23  H   2RZ d   1      -2.832   6.705 -33.630  0.00  0.00     0.066 H 
ENDBRANCH  19  20
ENDBRANCH  12  19
BRANCH  14  24
ATOM     24  O36 2RZ d   1      -7.194   7.336 -33.736  0.00  0.00    -0.353 OA
BRANCH  24  25
ATOM     25  C39 2RZ d   1      -8.569   7.172 -34.130  0.00  0.00     0.010 C 
ATOM     26  H   2RZ d   1      -9.066   6.472 -33.443  0.00  0.00     0.066 H 
ATOM     27  H   2RZ d   1      -8.612   6.773 -35.154  0.00  0.00     0.066 H 
ATOM     28  H   2RZ d   1      -9.079   8.146 -34.094  0.00  0.00     0.066 H 
ENDBRANCH  24  25
ENDBRANCH  14  24
ENDBRANCH   7  10
ENDBRANCH   5   7
ENDBRANCH   1   3
BRANCH   1  29
ATOM     29  C6  2RZ d   1      -6.778  14.591 -36.330  0.00  0.00    -0.013 C 
ATOM     30  H   2RZ d   1      -7.012  15.629 -36.608  0.00  0.00     0.043 H 
ATOM     31  H   2RZ d   1      -6.883  14.470 -35.242  0.00  0.00     0.043 H 
BRANCH  29  32
ATOM     32  C4  2RZ d   1      -7.744  13.664 -37.026  0.00  0.00    -0.056 A 
ATOM     33  C3  2RZ d   1      -8.006  13.801 -38.388  0.00  0.00    -0.077 A 
ATOM     34  C2  2RZ d   1      -8.903  12.918 -38.992  0.00  0.00    -0.082 A 
ATOM     35  H   2RZ d   1      -7.522  14.579 -38.968  0.00  0.00     0.084 H 
ATOM     36  C1  2RZ d   1      -9.487  11.884 -38.255  0.00  0.00    -0.083 A 
ATOM     37  H   2RZ d   1      -9.149  13.035 -40.041  0.00  0.00     0.083 H 
ATOM     38  C5  2RZ d   1      -9.194  11.730 -36.904  0.00  0.00    -0.082 A 
ATOM     39  H   2RZ d   1     -10.172  11.198 -38.739  0.00  0.00     0.083 H 
ATOM     40  C12 2RZ d   1      -8.310  12.616 -36.289  0.00  0.00    -0.077 A 
ATOM     41  H   2RZ d   1      -9.649  10.928 -36.334  0.00  0.00     0.083 H 
ATOM     42  H   2RZ d   1      -8.061  12.494 -35.241  0.00  0.00     0.084 H 
ENDBRANCH  29  32
ENDBRANCH   1  29
BRANCH   1  43
ATOM     43  N8  2RZ d   1      -4.493  15.238 -36.017  0.00  0.00    -0.213 N 
ATOM     44  C18 2RZ d   1      -4.250  16.548 -36.398  0.00  0.00     0.675 C 
ATOM     45  N19 2RZ d   1      -4.614  17.014 -37.558  0.00  0.00    -0.235 N 
ATOM     46  N20 2RZ d   1      -3.550  17.396 -35.563  0.00  0.00    -0.160 N 
ATOM     47  H   2RZ d   1      -4.415  17.994 -37.805  0.00  0.00     0.174 HD
ATOM     48  H   2RZ d   1      -5.101  16.402 -38.229  0.00  0.00     0.174 HD
ATOM     49  C32 2RZ d   1      -2.992  17.116 -34.367  0.00  0.00     0.240 C 
ATOM     50  H   2RZ d   1      -3.443  18.337 -35.886  0.00  0.00     0.187 HD
ATOM     51  O33 2RZ d   1      -3.053  16.015 -33.877  0.00  0.00    -0.272 OA
ATOM     52  H   2RZ d   1      -4.050  14.915 -35.145  0.00  0.00     0.178 HD
BRANCH  49  53
ATOM     53  C31 2RZ d   1      -2.274  18.222 -33.632  0.00  0.00     0.034 C 
ATOM     54  H   2RZ d   1      -2.862  18.526 -32.753  0.00  0.00     0.054 H 
ATOM     55  H   2RZ d   1      -2.140  19.085 -34.300  0.00  0.00     0.054 H 
BRANCH  53  56
ATOM     56  C25 2RZ d   1      -0.924  17.706 -33.189  0.00  0.00    -0.047 A 
ATOM     57  C24 2RZ d   1       0.109  17.584 -34.110  0.00  0.00    -0.042 A 
ATOM     58  C23 2RZ d   1       1.345  17.056 -33.719  0.00  0.00     0.102 A 
ATOM     59  H   2RZ d   1      -0.043  17.899 -35.136  0.00  0.00     0.088 H 
ATOM     60  C22 2RZ d   1       1.537  16.682 -32.387  0.00  0.00     0.101 A 
ATOM     61  C21 2RZ d   1       0.506  16.851 -31.451  0.00  0.00    -0.048 A 
ATOM     62  C26 2RZ d   1      -0.730  17.350 -31.851  0.00  0.00    -0.074 A 
ATOM     63  H   2RZ d   1       0.673  16.592 -30.412  0.00  0.00     0.087 H 
ATOM     64  H   2RZ d   1      -1.534  17.462 -31.133  0.00  0.00     0.084 H 
BRANCH  58  65
ATOM     65  O28 2RZ d   1       2.414  16.895 -34.565  0.00  0.00    -0.353 OA
BRANCH  65  66
ATOM     66  C29 2RZ d   1       2.356  17.129 -35.975  0.00  0.00     0.010 C 
ATOM     67  H   2RZ d   1       3.341  16.929 -36.421  0.00  0.00     0.066 H 
ATOM     68  H   2RZ d   1       2.075  18.176 -36.162  0.00  0.00     0.066 H 
ATOM     69  H   2RZ d   1       1.607  16.462 -36.427  0.00  0.00     0.066 H 
ENDBRANCH  65  66
ENDBRANCH  58  65
BRANCH  60  70
ATOM     70  O27 2RZ d   1       2.788  16.234 -32.048  0.00  0.00    -0.353 OA
BRANCH  70  71
ATOM     71  C30 2RZ d   1       3.080  15.840 -30.690  0.00  0.00     0.010 C 
ATOM     72  H   2RZ d   1       4.128  15.513 -30.620  0.00  0.00     0.066 H 
ATOM     73  H   2RZ d   1       2.417  15.012 -30.398  0.00  0.00     0.066 H 
ATOM     74  H   2RZ d   1       2.917  16.695 -30.017  0.00  0.00     0.066 H 
ENDBRANCH  70  71
ENDBRANCH  60  70
ENDBRANCH  53  56
ENDBRANCH  49  53
ENDBRANCH   1  43
TORSDOF 16
