REMARK  15 active torsions:
REMARK  status: ('A' for Active; 'I' for Inactive)
REMARK    1  A    between atoms: C4_7  and  C3_8 
REMARK    2  A    between atoms: C2_10  and  C1_11 
REMARK    3  A    between atoms: N1_19  and  C11_20 
REMARK    4  A    between atoms: C11_20  and  C12_21 
REMARK    5  A    between atoms: C11_20  and  C13_24 
REMARK    6  A    between atoms: C13_24  and  S1_25 
REMARK    7  A    between atoms: S1_25  and  C14_28 
REMARK    8  A    between atoms: C14_28  and  C16_29 
REMARK    9  A    between atoms: C14_28  and  C29_30 
REMARK   10  A    between atoms: C14_28  and  C15_31 
REMARK   11  A    between atoms: C18_34  and  C26_35 
REMARK   12  A    between atoms: C18_34  and  C19_36 
REMARK   13  A    between atoms: C19_36  and  C20_37 
REMARK   14  A    between atoms: C31_41  and  C32_42 
REMARK   15  A    between atoms: C32_42  and  C33_43 
ROOT
ATOM      1  C3  2U0 d   1      10.221 -24.364  -2.466  0.00  0.00    -0.004 C 
ATOM      2  C5  2U0 d   1       9.355 -25.231  -1.564  0.00  0.00    -0.040 C 
ATOM      3  C2  2U0 d   1       9.324 -23.196  -2.942  0.00  0.00     0.048 C 
ATOM      4  N1  2U0 d   1       8.081 -23.645  -3.610  0.00  0.00    -0.336 N 
ATOM      5  C17 2U0 d   1       7.589 -24.942  -3.355  0.00  0.00     0.229 C 
ATOM      6  O1  2U0 d   1       6.505 -25.309  -3.806  0.00  0.00    -0.272 OA
ATOM      7  C18 2U0 d   1       8.278 -25.920  -2.417  0.00  0.00     0.044 C 
ATOM      8  H   2U0 d   1      10.605 -24.955  -3.311  0.00  0.00     0.051 H 
ATOM      9  H   2U0 d   1       8.874 -24.603  -0.800  0.00  0.00     0.035 H 
ATOM     10  H   2U0 d   1       9.980 -25.992  -1.073  0.00  0.00     0.035 H 
ATOM     11  H   2U0 d   1       9.048 -22.585  -2.070  0.00  0.00     0.081 H 
ENDROOT
BRANCH   4  12
ATOM     12  C11 2U0 d   1       7.216 -22.666  -4.325  0.00  0.00     0.031 C 
ATOM     13  H   2U0 d   1       7.797 -21.733  -4.379  0.00  0.00     0.074 H 
BRANCH  12  14
ATOM     14  C12 2U0 d   1       6.794 -22.990  -5.763  0.00  0.00    -0.033 A 
ATOM     15  C27 2U0 d   1       6.986 -21.845  -6.749  0.00  0.00    -0.059 A 
ATOM     16  C28 2U0 d   1       7.885 -23.087  -6.824  0.00  0.00    -0.059 A 
ATOM     17  H   2U0 d   1       7.400 -20.886  -6.405  0.00  0.00     0.033 H 
ATOM     18  H   2U0 d   1       6.235 -21.661  -7.532  0.00  0.00     0.033 H 
ATOM     19  H   2U0 d   1       7.779 -23.794  -7.660  0.00  0.00     0.033 H 
ATOM     20  H   2U0 d   1       8.944 -23.019  -6.533  0.00  0.00     0.033 H 
ATOM     21  H   2U0 d   1       5.913 -23.648  -5.790  0.00  0.00     0.043 H 
ENDBRANCH  12  14
BRANCH  12  22
ATOM     22  C13 2U0 d   1       5.949 -22.386  -3.497  0.00  0.00     0.049 C 
ATOM     23  H   2U0 d   1       5.394 -23.331  -3.404  0.00  0.00     0.059 H 
ATOM     24  H   2U0 d   1       5.341 -21.656  -4.052  0.00  0.00     0.059 H 
BRANCH  22  25
ATOM     25  S1  2U0 d   1       6.210 -21.729  -1.819  0.00  0.00     0.153 S 
ATOM     26  O2  2U0 d   1       6.969 -22.713  -0.969  0.00  0.00    -0.227 OA
ATOM     27  O3  2U0 d   1       6.963 -20.437  -1.868  0.00  0.00    -0.227 OA
BRANCH  25  28
ATOM     28  C14 2U0 d   1       4.574 -21.465  -1.042  0.00  0.00     0.053 C 
BRANCH  28  29
ATOM     29  C16 2U0 d   1       3.841 -22.806  -1.001  0.00  0.00    -0.057 C 
ATOM     30  H   2U0 d   1       2.853 -22.670  -0.537  0.00  0.00     0.029 H 
ATOM     31  H   2U0 d   1       4.427 -23.526  -0.411  0.00  0.00     0.029 H 
ATOM     32  H   2U0 d   1       3.715 -23.187  -2.025  0.00  0.00     0.029 H 
ENDBRANCH  28  29
BRANCH  28  33
ATOM     33  C29 2U0 d   1       4.776 -20.920   0.367  0.00  0.00    -0.057 C 
ATOM     34  H   2U0 d   1       3.797 -20.758   0.842  0.00  0.00     0.029 H 
ATOM     35  H   2U0 d   1       5.321 -19.966   0.317  0.00  0.00     0.029 H 
ATOM     36  H   2U0 d   1       5.356 -21.642   0.960  0.00  0.00     0.029 H 
ENDBRANCH  28  33
BRANCH  28  37
ATOM     37  C15 2U0 d   1       3.780 -20.463  -1.870  0.00  0.00    -0.057 C 
ATOM     38  H   2U0 d   1       2.796 -20.302  -1.406  0.00  0.00     0.029 H 
ATOM     39  H   2U0 d   1       3.645 -20.855  -2.889  0.00  0.00     0.029 H 
ATOM     40  H   2U0 d   1       4.326 -19.509  -1.913  0.00  0.00     0.029 H 
ENDBRANCH  28  37
ENDBRANCH  25  28
ENDBRANCH  22  25
ENDBRANCH  12  22
ENDBRANCH   4  12
BRANCH   3  41
ATOM     41  C1  2U0 d   1      10.154 -22.344  -3.928  0.00  0.00    -0.032 A 
ATOM     42  C25 2U0 d   1      10.694 -22.923  -5.067  0.00  0.00    -0.036 A 
ATOM     43  C24 2U0 d   1      11.444 -22.162  -5.955  0.00  0.00     0.138 A 
ATOM     44  H   2U0 d   1      10.530 -23.976  -5.266  0.00  0.00     0.089 H 
ATOM     45  F1  2U0 d   1      11.948 -22.749  -7.058  0.00  0.00    -0.204 F 
ATOM     46  C23 2U0 d   1      11.675 -20.815  -5.699  0.00  0.00     0.072 A 
ATOM     47 CL2  2U0 d   1      12.627 -19.850  -6.781  0.00  0.00    -0.081 Cl
ATOM     48  C22 2U0 d   1      11.143 -20.232  -4.555  0.00  0.00    -0.058 A 
ATOM     49  C21 2U0 d   1      10.389 -20.999  -3.672  0.00  0.00    -0.073 A 
ATOM     50  H   2U0 d   1      11.315 -19.181  -4.351  0.00  0.00     0.086 H 
ATOM     51  H   2U0 d   1       9.982 -20.543  -2.777  0.00  0.00     0.084 H 
ENDBRANCH   3  41
BRANCH   1  52
ATOM     52  C4  2U0 d   1      11.378 -23.697  -1.700  0.00  0.00    -0.050 A 
ATOM     53  C10 2U0 d   1      12.670 -23.666  -2.226  0.00  0.00    -0.055 A 
ATOM     54  C9  2U0 d   1      13.700 -23.047  -1.514  0.00  0.00     0.034 A 
ATOM     55  H   2U0 d   1      12.874 -24.122  -3.188  0.00  0.00     0.086 H 
ATOM     56 CL1  2U0 d   1      15.307 -23.011  -2.175  0.00  0.00    -0.084 Cl
ATOM     57  C8  2U0 d   1      13.452 -22.462  -0.274  0.00  0.00    -0.062 A 
ATOM     58  C7  2U0 d   1      12.167 -22.493   0.262  0.00  0.00    -0.081 A 
ATOM     59  H   2U0 d   1      14.257 -21.984   0.272  0.00  0.00     0.086 H 
ATOM     60  C6  2U0 d   1      11.139 -23.108  -0.458  0.00  0.00    -0.076 A 
ATOM     61  H   2U0 d   1      11.966 -22.044   1.228  0.00  0.00     0.083 H 
ATOM     62  H   2U0 d   1      10.137 -23.128  -0.044  0.00  0.00     0.084 H 
ENDBRANCH   1  52
BRANCH   7  63
ATOM     63  C26 2U0 d   1       7.199 -26.470  -1.484  0.00  0.00    -0.060 C 
ATOM     64  H   2U0 d   1       6.419 -26.967  -2.079  0.00  0.00     0.029 H 
ATOM     65  H   2U0 d   1       6.753 -25.643  -0.912  0.00  0.00     0.029 H 
ATOM     66  H   2U0 d   1       7.649 -27.195  -0.790  0.00  0.00     0.029 H 
ENDBRANCH   7  63
BRANCH   7  67
ATOM     67  C19 2U0 d   1       8.789 -27.015  -3.362  0.00  0.00    -0.004 C 
ATOM     68  H   2U0 d   1       9.613 -26.609  -3.966  0.00  0.00     0.045 H 
ATOM     69  H   2U0 d   1       7.968 -27.326  -4.024  0.00  0.00     0.045 H 
BRANCH  67  70
ATOM     70  C20 2U0 d   1       9.296 -28.240  -2.588  0.00  0.00     0.076 A 
ATOM     71  S2  2U0 d   1       8.289 -29.603  -2.393  0.00  0.00    -0.077 SA
ATOM     72  C31 2U0 d   1       9.375 -30.473  -1.520  0.00  0.00     0.012 A 
ATOM     73  C30 2U0 d   1      10.490 -29.733  -1.383  0.00  0.00     0.016 A 
ATOM     74  N2  2U0 d   1      10.453 -28.506  -1.968  0.00  0.00    -0.257 NA
ATOM     75  H   2U0 d   1      11.363 -30.092  -0.840  0.00  0.00     0.116 H 
BRANCH  72  76
ATOM     76  C32 2U0 d   1       9.037 -31.874  -1.023  0.00  0.00     0.047 C 
ATOM     77  H   2U0 d   1       8.651 -32.481  -1.855  0.00  0.00     0.057 H 
ATOM     78  H   2U0 d   1       8.278 -31.815  -0.229  0.00  0.00     0.057 H 
BRANCH  76  79
ATOM     79  C33 2U0 d   1      10.306 -32.501  -0.475  0.00  0.00     0.177 C 
ATOM     80  O5  2U0 d   1      10.877 -33.337  -1.210  0.00  0.00    -0.648 OA
ATOM     81  O4  2U0 d   1      10.683 -32.117   0.656  0.00  0.00    -0.648 OA
ENDBRANCH  76  79
ENDBRANCH  72  76
ENDBRANCH  67  70
ENDBRANCH   7  67
TORSDOF 15
