REMARK  14 active torsions:
REMARK  status: ('A' for Active; 'I' for Inactive)
REMARK    1  A    between atoms: C6_7  and  C2_8 
REMARK    2  A    between atoms: C3_10  and  C22_11 
REMARK    3  A    between atoms: C3_10  and  C23_21 
REMARK    4  A    between atoms: C22_11  and  C24_12 
REMARK    5  A    between atoms: C27_15  and  C29_16 
REMARK    6  A    between atoms: N1_24  and  C17_25 
REMARK    7  A    between atoms: C17_25  and  C18_26 
REMARK    8  A    between atoms: C17_25  and  C19_29 
REMARK    9  A    between atoms: C19_29  and  S1_30 
REMARK   10  A    between atoms: S1_30  and  C30_33 
REMARK   11  A    between atoms: C30_33  and  C32_34 
REMARK   12  A    between atoms: C30_33  and  C33_35 
REMARK   13  A    between atoms: C30_33  and  C31_36 
REMARK   14  A    between atoms: C1_37  and  C5_38 
ROOT
ATOM      1  C2  2U1 d   1       9.483 -23.588  -2.780  0.00  0.00     0.089 C 
ATOM      2  O1  2U1 d   1       8.714 -24.239  -1.852  0.00  0.00    -0.358 OA
ATOM      3  C3  2U1 d   1       7.764 -25.092  -2.453  0.00  0.00     0.144 C 
ATOM      4  C4  2U1 d   1       6.896 -24.295  -3.424  0.00  0.00     0.255 C 
ATOM      5  O2  2U1 d   1       5.836 -24.799  -3.799  0.00  0.00    -0.270 OA
ATOM      6  N1  2U1 d   1       7.306 -23.001  -3.824  0.00  0.00    -0.332 N 
ATOM      7  C1  2U1 d   1       8.571 -22.470  -3.277  0.00  0.00     0.070 C 
ATOM      8  H   2U1 d   1       9.865 -24.248  -3.573  0.00  0.00     0.094 H 
ATOM      9  H   2U1 d   1       8.301 -21.845  -2.413  0.00  0.00     0.085 H 
ENDROOT
BRANCH   6  10
ATOM     10  C17 2U1 d   1       6.433 -22.139  -4.648  0.00  0.00     0.031 C 
ATOM     11  H   2U1 d   1       6.984 -21.208  -4.848  0.00  0.00     0.074 H 
BRANCH  10  12
ATOM     12  C18 2U1 d   1       6.011 -22.714  -6.004  0.00  0.00    -0.033 A 
ATOM     13  C20 2U1 d   1       6.255 -21.771  -7.177  0.00  0.00    -0.059 A 
ATOM     14  C21 2U1 d   1       7.129 -23.015  -6.991  0.00  0.00    -0.059 A 
ATOM     15  H   2U1 d   1       6.676 -20.770  -7.001  0.00  0.00     0.033 H 
ATOM     16  H   2U1 d   1       5.533 -21.724  -8.005  0.00  0.00     0.033 H 
ATOM     17  H   2U1 d   1       7.036 -23.862  -7.687  0.00  0.00     0.033 H 
ATOM     18  H   2U1 d   1       8.179 -22.908  -6.682  0.00  0.00     0.033 H 
ATOM     19  H   2U1 d   1       5.117 -23.350  -5.929  0.00  0.00     0.043 H 
ENDBRANCH  10  12
BRANCH  10  20
ATOM     20  C19 2U1 d   1       5.188 -21.804  -3.825  0.00  0.00     0.049 C 
ATOM     21  H   2U1 d   1       4.697 -22.755  -3.570  0.00  0.00     0.059 H 
ATOM     22  H   2U1 d   1       4.521 -21.207  -4.465  0.00  0.00     0.059 H 
BRANCH  20  23
ATOM     23  S1  2U1 d   1       5.426 -20.877  -2.269  0.00  0.00     0.153 S 
ATOM     24  O5  2U1 d   1       5.806 -19.456  -2.581  0.00  0.00    -0.227 OA
ATOM     25  O6  2U1 d   1       6.473 -21.494  -1.394  0.00  0.00    -0.227 OA
BRANCH  23  26
ATOM     26  C30 2U1 d   1       3.816 -20.953  -1.414  0.00  0.00     0.053 C 
BRANCH  26  27
ATOM     27  C32 2U1 d   1       3.895 -20.156  -0.119  0.00  0.00    -0.057 C 
ATOM     28  H   2U1 d   1       2.925 -20.200   0.399  0.00  0.00     0.029 H 
ATOM     29  H   2U1 d   1       4.141 -19.108  -0.347  0.00  0.00     0.029 H 
ATOM     30  H   2U1 d   1       4.676 -20.583   0.528  0.00  0.00     0.029 H 
ENDBRANCH  26  27
BRANCH  26  31
ATOM     31  C33 2U1 d   1       3.513 -22.426  -1.131  0.00  0.00    -0.057 C 
ATOM     32  H   2U1 d   1       2.546 -22.509  -0.614  0.00  0.00     0.029 H 
ATOM     33  H   2U1 d   1       4.305 -22.848  -0.495  0.00  0.00     0.029 H 
ATOM     34  H   2U1 d   1       3.470 -22.980  -2.080  0.00  0.00     0.029 H 
ENDBRANCH  26  31
BRANCH  26  35
ATOM     35  C31 2U1 d   1       2.750 -20.374  -2.336  0.00  0.00    -0.057 C 
ATOM     36  H   2U1 d   1       1.772 -20.412  -1.835  0.00  0.00     0.029 H 
ATOM     37  H   2U1 d   1       2.710 -20.962  -3.265  0.00  0.00     0.029 H 
ATOM     38  H   2U1 d   1       2.999 -19.329  -2.574  0.00  0.00     0.029 H 
ENDBRANCH  26  35
ENDBRANCH  23  26
ENDBRANCH  20  23
ENDBRANCH  10  20
ENDBRANCH   6  10
BRANCH   7  39
ATOM     39  C5  2U1 d   1       9.371 -21.594  -4.235  0.00  0.00    -0.032 A 
ATOM     40  C12 2U1 d   1       9.965 -22.200  -5.334  0.00  0.00    -0.073 A 
ATOM     41  C13 2U1 d   1      10.717 -21.457  -6.228  0.00  0.00    -0.061 A 
ATOM     42  H   2U1 d   1       9.839 -23.265  -5.494  0.00  0.00     0.084 H 
ATOM     43  C14 2U1 d   1      10.889 -20.102  -6.000  0.00  0.00     0.034 A 
ATOM     44  H   2U1 d   1      11.165 -21.930  -7.095  0.00  0.00     0.086 H 
ATOM     45 CL2  2U1 d   1      11.840 -19.184  -7.111  0.00  0.00    -0.084 Cl
ATOM     46  C15 2U1 d   1      10.310 -19.492  -4.890  0.00  0.00    -0.061 A 
ATOM     47  C16 2U1 d   1       9.553 -20.241  -3.997  0.00  0.00    -0.073 A 
ATOM     48  H   2U1 d   1      10.450 -18.430  -4.722  0.00  0.00     0.086 H 
ATOM     49  H   2U1 d   1       9.111 -19.773  -3.125  0.00  0.00     0.084 H 
ENDBRANCH   7  39
BRANCH   3  50
ATOM     50  C22 2U1 d   1       6.847 -25.451  -1.281  0.00  0.00     0.012 C 
ATOM     51  H   2U1 d   1       6.106 -26.193  -1.615  0.00  0.00     0.047 H 
ATOM     52  H   2U1 d   1       6.328 -24.544  -0.936  0.00  0.00     0.047 H 
BRANCH  50  53
ATOM     53  C24 2U1 d   1       7.660 -26.036  -0.126  0.00  0.00     0.037 A 
ATOM     54  C25 2U1 d   1       8.084 -25.160   0.869  0.00  0.00    -0.058 A 
ATOM     55  C26 2U1 d   1       8.830 -25.637   1.931  0.00  0.00    -0.063 A 
ATOM     56  H   2U1 d   1       7.830 -24.108   0.812  0.00  0.00     0.086 H 
ATOM     57  C27 2U1 d   1       9.119 -26.990   1.961  0.00  0.00     0.058 A 
ATOM     58  H   2U1 d   1       9.177 -24.973   2.714  0.00  0.00     0.085 H 
ATOM     59  C28 2U1 d   1       8.671 -27.823   0.943  0.00  0.00     0.019 A 
ATOM     60  N2  2U1 d   1       7.963 -27.341  -0.065  0.00  0.00    -0.264 NA
ATOM     61  H   2U1 d   1       8.905 -28.881   0.975  0.00  0.00     0.116 H 
BRANCH  57  62
ATOM     62  C29 2U1 d   1       9.939 -27.549   3.111  0.00  0.00     0.210 C 
ATOM     63  O4  2U1 d   1      10.198 -28.770   3.092  0.00  0.00    -0.644 OA
ATOM     64  O3  2U1 d   1      10.325 -26.749   3.989  0.00  0.00    -0.644 OA
ENDBRANCH  57  62
ENDBRANCH  50  53
ENDBRANCH   3  50
BRANCH   3  65
ATOM     65  C23 2U1 d   1       8.409 -26.305  -3.127  0.00  0.00    -0.039 C 
ATOM     66  H   2U1 d   1       7.627 -26.933  -3.577  0.00  0.00     0.032 H 
ATOM     67  H   2U1 d   1       8.963 -26.890  -2.378  0.00  0.00     0.032 H 
ATOM     68  H   2U1 d   1       9.101 -25.964  -3.911  0.00  0.00     0.032 H 
ENDBRANCH   3  65
BRANCH   1  69
ATOM     69  C6  2U1 d   1      10.574 -22.845  -2.034  0.00  0.00    -0.025 A 
ATOM     70  C11 2U1 d   1      11.882 -22.884  -2.484  0.00  0.00    -0.053 A 
ATOM     71  C10 2U1 d   1      12.871 -22.199  -1.796  0.00  0.00     0.034 A 
ATOM     72  H   2U1 d   1      12.133 -23.450  -3.374  0.00  0.00     0.087 H 
ATOM     73 CL1  2U1 d   1      14.496 -22.254  -2.377  0.00  0.00    -0.084 Cl
ATOM     74  C9  2U1 d   1      12.561 -21.483  -0.647  0.00  0.00    -0.062 A 
ATOM     75  C8  2U1 d   1      11.249 -21.446  -0.191  0.00  0.00    -0.081 A 
ATOM     76  H   2U1 d   1      13.339 -20.955  -0.108  0.00  0.00     0.086 H 
ATOM     77  C7  2U1 d   1      10.258 -22.131  -0.886  0.00  0.00    -0.074 A 
ATOM     78  H   2U1 d   1      10.999 -20.886   0.703  0.00  0.00     0.083 H 
ATOM     79  H   2U1 d   1       9.235 -22.107  -0.530  0.00  0.00     0.084 H 
ENDBRANCH   1  69
TORSDOF 14
