REMARK WARNING: 32 MAX_TORS EXCEEDED!!!
REMARK  36 active torsions:
REMARK  status: ('A' for Active; 'I' for Inactive)
REMARK    1  A    between atoms: N_1  and  CA_2 
REMARK    2  A    between atoms: CA_2  and  C_3 
REMARK    3  A    between atoms: CA_2  and  CB_5 
REMARK       I    between atoms: C_3  and  N_11 
REMARK    4  A    between atoms: CB_5  and  CG_6 
REMARK    5  A    between atoms: N_11  and  CA_12 
REMARK    6  A    between atoms: CA_12  and  C_13 
REMARK    7  A    between atoms: CA_12  and  CB_15 
REMARK       I    between atoms: C_13  and  N_20 
REMARK    8  A    between atoms: CB_15  and  CG_16 
REMARK    9  A    between atoms: CG_16  and  CD_17 
REMARK   10  A    between atoms: CD_17  and  CE_18 
REMARK   11  A    between atoms: CE_18  and  NZ_19 
REMARK   12  A    between atoms: N_20  and  CA_21 
REMARK   13  A    between atoms: CA_21  and  C_22 
REMARK   14  A    between atoms: CA_21  and  CB_24 
REMARK       I    between atoms: C_22  and  N_32 
REMARK   15  A    between atoms: CB_24  and  CG_25 
REMARK   16  A    between atoms: CZ_30  and  OH_31 
REMARK   17  A    between atoms: N_32  and  CA_33 
REMARK   18  A    between atoms: CA_33  and  C_34 
REMARK   19  A    between atoms: CA_33  and  CB_36 
REMARK       I    between atoms: C_34  and  N_40 
REMARK   20  A    between atoms: CB_36  and  CG_37 
REMARK       I    between atoms: CG_37  and  ND2_39 
REMARK   21  A    between atoms: N_40  and  CA_41 
REMARK   22  A    between atoms: CA_41  and  C_42 
REMARK   23  A    between atoms: CA_41  and  CB_44 
REMARK       I    between atoms: C_42  and  N_48 
REMARK   24  A    between atoms: CB_44  and  CG_45 
REMARK       I    between atoms: CG_45  and  ND2_47 
REMARK   25  A    between atoms: N_48  and  CA_49 
REMARK   26  A    between atoms: CA_49  and  C_50 
REMARK   27  A    between atoms: CA_49  and  CB_52 
REMARK       I    between atoms: C_50  and  N_60 
REMARK   28  A    between atoms: CB_52  and  CG_53 
REMARK   29  A    between atoms: CZ_58  and  OH_59 
REMARK   30  A    between atoms: N_60  and  CA_61 
REMARK   31  A    between atoms: CA_61  and  C_62 
REMARK   32  A    between atoms: CA_61  and  CB_64 
REMARK       I    between atoms: C_62  and  N_69 
REMARK   33  A    between atoms: CB_64  and  CG_65 
REMARK   34  A    between atoms: CG_65  and  CD_66 
REMARK   35  A    between atoms: N_69  and  CA_70 
REMARK   36  A    between atoms: CA_70  and  C_71 
REMARK       I    between atoms: C_71  and  N_73 
ROOT
ATOM      1  CA  ASN d   1     -13.200  11.992   8.216  0.00  0.00     0.097 C 
ATOM      2  H33 ASN d   1     -13.959  12.278   8.959  0.00  0.00     0.088 H 
ENDROOT
BRANCH   1   3
ATOM      3  N   ASN d   1     -11.905  12.459   8.676  0.00  0.00    -0.346 N 
ATOM      4  C   TYR d   1     -11.391  12.052   9.831  0.00  0.00     0.241 C 
ATOM      5  O   TYR d   1     -11.975  11.269  10.585  0.00  0.00    -0.271 OA
ATOM      6  H32 ASN d   1     -11.388  13.102   8.111  0.00  0.00     0.163 HD
BRANCH   4   7
ATOM      7  CA  TYR d   1     -10.003  12.575  10.154  0.00  0.00     0.093 C 
ATOM      8  H24 TYR d   1      -9.855  13.529   9.628  0.00  0.00     0.088 H 
BRANCH   7   9
ATOM      9  N   TYR d   1      -9.823  12.799  11.579  0.00  0.00    -0.346 N 
ATOM     10  C   LYS d   1      -9.909  14.007  12.119  0.00  0.00     0.241 C 
ATOM     11  O   LYS d   1     -10.159  15.028  11.470  0.00  0.00    -0.271 OA
ATOM     12  H23 TYR d   1      -9.628  12.017  12.171  0.00  0.00     0.163 HD
BRANCH  10  13
ATOM     13  CA  LYS d   1      -9.673  14.073  13.615  0.00  0.00     0.089 C 
ATOM     14  H11 LYS d   1      -9.105  13.183  13.925  0.00  0.00     0.087 H 
BRANCH  13  15
ATOM     15  N   LYS d   1      -8.901  15.261  13.947  0.00  0.00    -0.346 N 
ATOM     16  C   HIS d   1      -7.620  15.181  14.286  0.00  0.00     0.249 C 
ATOM     17  O   HIS d   1      -7.009  14.114  14.337  0.00  0.00    -0.271 OA
ATOM     18  H10 LYS d   1      -9.345  16.157  13.919  0.00  0.00     0.163 HD
BRANCH  16  19
ATOM     19  CA  HIS d   1      -6.923  16.495  14.620  0.00  0.00     0.181 C 
ATOM     20  H4  HIS d   1      -7.668  17.304  14.588  0.00  0.00     0.099 H 
BRANCH  19  21
ATOM     21  N   HIS d   1      -6.349  16.450  15.963  0.00  0.00    -0.066 N 
ATOM     22  H1  HIS d   1      -5.894  17.327  16.163  0.00  0.00     0.275 HD
ATOM     23  H2  HIS d   1      -5.675  15.702  16.016  0.00  0.00     0.275 HD
ATOM     24  H3  HIS d   1      -7.082  16.290  16.637  0.00  0.00     0.275 HD
ENDBRANCH  19  21
BRANCH  19  25
ATOM     25  CB  HIS d   1      -5.837  16.791  13.579  0.00  0.00     0.011 C 
ATOM     26  H5  HIS d   1      -5.185  15.909  13.498  0.00  0.00     0.046 H 
ATOM     27  H6  HIS d   1      -5.247  17.651  13.929  0.00  0.00     0.046 H 
BRANCH  25  28
ATOM     28  CG  HIS d   1      -6.373  17.109  12.216  0.00  0.00     0.053 A 
ATOM     29  ND1 HIS d   1      -6.782  16.136  11.328  0.00  0.00    -0.247 NA
ATOM     30  CE1 HIS d   1      -7.206  16.708  10.215  0.00  0.00     0.064 A 
ATOM     31  NE2 HIS d   1      -7.082  18.017  10.346  0.00  0.00    -0.359 N 
ATOM     32  H8  HIS d   1      -7.592  16.189   9.339  0.00  0.00     0.143 H 
ATOM     33  CD2 HIS d   1      -6.563  18.294  11.588  0.00  0.00     0.002 A 
ATOM     34  H9  HIS d   1      -7.333  18.716   9.633  0.00  0.00     0.166 HD
ATOM     35  H7  HIS d   1      -6.345  19.282  11.992  0.00  0.00     0.114 H 
ENDBRANCH  25  28
ENDBRANCH  19  25
ENDBRANCH  16  19
ENDBRANCH  13  15
BRANCH  13  36
ATOM     36  CB  LYS d   1     -11.009  14.086  14.352  0.00  0.00    -0.038 C 
ATOM     37  H12 LYS d   1     -11.569  13.180  14.076  0.00  0.00     0.036 H 
ATOM     38  H13 LYS d   1     -11.573  14.976  14.036  0.00  0.00     0.036 H 
BRANCH  36  39
ATOM     39  CG  LYS d   1     -10.862  14.120  15.869  0.00  0.00    -0.061 C 
ATOM     40  H14 LYS d   1     -10.244  14.985  16.150  0.00  0.00     0.033 H 
ATOM     41  H15 LYS d   1     -10.370  13.194  16.202  0.00  0.00     0.033 H 
BRANCH  39  42
ATOM     42  CD  LYS d   1     -12.212  14.235  16.552  0.00  0.00    -0.043 C 
ATOM     43  H16 LYS d   1     -12.819  13.356  16.291  0.00  0.00     0.035 H 
ATOM     44  H17 LYS d   1     -12.715  15.146  16.197  0.00  0.00     0.035 H 
BRANCH  42  45
ATOM     45  CE  LYS d   1     -12.073  14.307  18.062  0.00  0.00     0.080 C 
ATOM     46  H18 LYS d   1     -11.460  15.181  18.327  0.00  0.00     0.075 H 
ATOM     47  H19 LYS d   1     -11.582  13.391  18.424  0.00  0.00     0.075 H 
BRANCH  45  48
ATOM     48  NZ  LYS d   1     -13.407  14.433  18.705  0.00  0.00    -0.079 N 
ATOM     49  H20 LYS d   1     -13.295  14.479  19.706  0.00  0.00     0.274 HD
ATOM     50  H21 LYS d   1     -13.972  13.633  18.467  0.00  0.00     0.274 HD
ATOM     51  H22 LYS d   1     -13.859  15.273  18.378  0.00  0.00     0.274 HD
ENDBRANCH  45  48
ENDBRANCH  42  45
ENDBRANCH  39  42
ENDBRANCH  36  39
ENDBRANCH  13  36
ENDBRANCH  10  13
ENDBRANCH   7   9
BRANCH   7  52
ATOM     52  CB  TYR d   1      -8.970  11.567   9.665  0.00  0.00    -0.014 C 
ATOM     53  H25 TYR d   1      -9.187  11.328   8.614  0.00  0.00     0.043 H 
ATOM     54  H26 TYR d   1      -9.057  10.655  10.274  0.00  0.00     0.043 H 
BRANCH  52  55
ATOM     55  CG  TYR d   1      -7.556  12.067   9.757  0.00  0.00    -0.056 A 
ATOM     56  CD1 TYR d   1      -7.072  12.998   8.850  0.00  0.00    -0.074 A 
ATOM     57  CE1 TYR d   1      -5.780  13.463   8.929  0.00  0.00    -0.051 A 
ATOM     58  H27 TYR d   1      -7.723  13.366   8.065  0.00  0.00     0.084 H 
ATOM     59  CZ  TYR d   1      -4.951  12.998   9.930  0.00  0.00     0.065 A 
ATOM     60  H29 TYR d   1      -5.416  14.189   8.211  0.00  0.00     0.087 H 
ATOM     61  CE2 TYR d   1      -5.410  12.076  10.843  0.00  0.00    -0.051 A 
ATOM     62  CD2 TYR d   1      -6.706  11.617  10.754  0.00  0.00    -0.074 A 
ATOM     63  H30 TYR d   1      -4.756  11.713  11.627  0.00  0.00     0.087 H 
ATOM     64  H28 TYR d   1      -7.066  10.892  11.475  0.00  0.00     0.084 H 
BRANCH  59  65
ATOM     65  OH  TYR d   1      -3.658  13.454  10.018  0.00  0.00    -0.361 OA
ATOM     66  H31 TYR d   1      -3.496  14.080   9.322  0.00  0.00     0.217 HD
ENDBRANCH  59  65
ENDBRANCH  52  55
ENDBRANCH   7  52
ENDBRANCH   4   7
ENDBRANCH   1   3
BRANCH   1  67
ATOM     67  C   ASN d   1     -13.232  10.484   8.032  0.00  0.00     0.241 C 
ATOM     68  O   ASN d   1     -14.134   9.815   8.519  0.00  0.00    -0.271 OA
ATOM     69  N   ASN d   1     -12.245   9.965   7.309  0.00  0.00    -0.346 N 
ATOM     70  H38 ASN d   1     -11.479  10.553   7.048  0.00  0.00     0.163 HD
BRANCH  69  71
ATOM     71  CA  ASN d   1     -12.236   8.572   6.882  0.00  0.00     0.097 C 
ATOM     72  H39 ASN d   1     -12.748   7.968   7.646  0.00  0.00     0.088 H 
BRANCH  71  73
ATOM     73  C   ASN d   1     -10.813   8.062   6.724  0.00  0.00     0.241 C 
ATOM     74  O   ASN d   1      -9.881   8.852   6.563  0.00  0.00    -0.271 OA
ATOM     75  N   TYR d   1     -10.653   6.742   6.764  0.00  0.00    -0.346 N 
ATOM     76  H44 TYR d   1     -11.448   6.168   6.958  0.00  0.00     0.163 HD
BRANCH  75  77
ATOM     77  CA  TYR d   1      -9.360   6.096   6.535  0.00  0.00     0.093 C 
ATOM     78  H45 TYR d   1      -8.601   6.877   6.379  0.00  0.00     0.088 H 
BRANCH  77  79
ATOM     79  C   TYR d   1      -9.423   5.228   5.291  0.00  0.00     0.241 C 
ATOM     80  O   TYR d   1     -10.489   4.748   4.906  0.00  0.00    -0.271 OA
ATOM     81  N   GLU d   1      -8.280   5.032   4.655  0.00  0.00    -0.346 N 
ATOM     82  H53 GLU d   1      -7.444   5.466   4.992  0.00  0.00     0.163 HD
BRANCH  81  83
ATOM     83  CA  GLU d   1      -8.229   4.188   3.467  0.00  0.00     0.090 C 
ATOM     84  H54 GLU d   1      -9.243   3.814   3.262  0.00  0.00     0.087 H 
BRANCH  83  85
ATOM     85  C   GLU d   1      -7.321   2.994   3.718  0.00  0.00     0.240 C 
ATOM     86  O   GLU d   1      -6.484   3.030   4.615  0.00  0.00    -0.271 OA
ATOM     87  N   GLY d   1      -7.523   1.927   2.951  0.00  0.00    -0.351 N 
ATOM     88  H59 GLY d   1      -8.265   1.942   2.281  0.00  0.00     0.163 HD
BRANCH  87  89
ATOM     89  CA  GLY d   1      -6.696   0.743   3.061  0.00  0.00     0.069 C 
ATOM     90  H60 GLY d   1      -7.240  -0.125   2.660  0.00  0.00     0.078 H 
ATOM     91  H61 GLY d   1      -6.447   0.564   4.117  0.00  0.00     0.078 H 
BRANCH  89  92
ATOM     92  C   GLY d   1      -5.427   0.954   2.271  0.00  0.00     0.233 C 
ATOM     93  O   GLY d   1      -4.447   0.231   2.437  0.00  0.00    -0.272 OA
ATOM     94  N   NH2 d   1      -5.445   1.967   1.411  0.00  0.00    -0.369 N 
ATOM     95  H62 NH2 d   1      -4.638   2.165   0.854  0.00  0.00     0.159 HD
ATOM     96  H63 NH2 d   1      -6.265   2.532   1.321  0.00  0.00     0.159 HD
ENDBRANCH  89  92
ENDBRANCH  87  89
ENDBRANCH  83  85
BRANCH  83  97
ATOM     97  CB  GLU d   1      -7.764   4.990   2.256  0.00  0.00    -0.029 C 
ATOM     98  H55 GLU d   1      -8.539   5.732   2.014  0.00  0.00     0.037 H 
ATOM     99  H56 GLU d   1      -7.642   4.299   1.409  0.00  0.00     0.037 H 
BRANCH  97 100
ATOM    100  CG  GLU d   1      -6.456   5.719   2.467  0.00  0.00     0.018 C 
ATOM    101  H57 GLU d   1      -5.665   4.977   2.653  0.00  0.00     0.049 H 
ATOM    102  H58 GLU d   1      -6.556   6.376   3.344  0.00  0.00     0.049 H 
BRANCH 100 103
ATOM    103  CD  GLU d   1      -6.059   6.564   1.269  0.00  0.00     0.172 C 
ATOM    104  OE1 GLU d   1      -4.866   6.922   1.161  0.00  0.00    -0.648 OA
ATOM    105  OE2 GLU d   1      -6.940   6.874   0.437  0.00  0.00    -0.648 OA
ENDBRANCH 100 103
ENDBRANCH  97 100
ENDBRANCH  83  97
ENDBRANCH  81  83
ENDBRANCH  77  79
BRANCH  77 106
ATOM    106  CB  TYR d   1      -8.951   5.257   7.756  0.00  0.00    -0.014 C 
ATOM    107  H46 TYR d   1      -7.951   4.832   7.584  0.00  0.00     0.043 H 
ATOM    108  H47 TYR d   1      -9.677   4.442   7.894  0.00  0.00     0.043 H 
BRANCH 106 109
ATOM    109  CG  TYR d   1      -8.920   6.106   8.994  0.00  0.00    -0.056 A 
ATOM    110  CD1 TYR d   1      -7.905   7.034   9.180  0.00  0.00    -0.074 A 
ATOM    111  CE1 TYR d   1      -7.885   7.852  10.275  0.00  0.00    -0.051 A 
ATOM    112  H48 TYR d   1      -7.114   7.112   8.443  0.00  0.00     0.084 H 
ATOM    113  CZ  TYR d   1      -8.893   7.762  11.202  0.00  0.00     0.065 A 
ATOM    114  H50 TYR d   1      -7.080   8.565  10.410  0.00  0.00     0.087 H 
ATOM    115  CE2 TYR d   1      -9.926   6.860  11.043  0.00  0.00    -0.051 A 
ATOM    116  CD2 TYR d   1      -9.936   6.038   9.936  0.00  0.00    -0.074 A 
ATOM    117  H51 TYR d   1     -10.719   6.799  11.779  0.00  0.00     0.087 H 
ATOM    118  H49 TYR d   1     -10.746   5.331   9.800  0.00  0.00     0.084 H 
BRANCH 113 119
ATOM    119  OH  TYR d   1      -8.857   8.581  12.296  0.00  0.00    -0.361 OA
ATOM    120  H52 TYR d   1      -9.637   9.123  12.310  0.00  0.00     0.217 HD
ENDBRANCH 113 119
ENDBRANCH 106 109
ENDBRANCH  77 106
ENDBRANCH  75  77
ENDBRANCH  71  73
BRANCH  71 121
ATOM    121  CB  ASN d   1     -12.972   8.414   5.547  0.00  0.00     0.036 C 
ATOM    122  H40 ASN d   1     -12.797   7.396   5.168  0.00  0.00     0.051 H 
ATOM    123  H41 ASN d   1     -12.567   9.146   4.833  0.00  0.00     0.051 H 
BRANCH 121 124
ATOM    124  CG  ASN d   1     -14.473   8.636   5.672  0.00  0.00     0.217 C 
ATOM    125  OD1 ASN d   1     -15.156   7.912   6.384  0.00  0.00    -0.274 OA
ATOM    126  ND2 ASN d   1     -14.988   9.638   4.969  0.00  0.00    -0.370 N 
ATOM    127  H42 ASN d   1     -15.969   9.828   5.014  0.00  0.00     0.159 HD
ATOM    128  H43 ASN d   1     -14.395  10.202   4.394  0.00  0.00     0.159 HD
ENDBRANCH 121 124
ENDBRANCH  71 121
ENDBRANCH  69  71
ENDBRANCH   1  67
BRANCH   1 129
ATOM    129  CB  ASN d   1     -13.538  12.634   6.873  0.00  0.00     0.036 C 
ATOM    130  H34 ASN d   1     -14.441  12.152   6.471  0.00  0.00     0.051 H 
ATOM    131  H35 ASN d   1     -12.697  12.470   6.183  0.00  0.00     0.051 H 
BRANCH 129 132
ATOM    132  CG  ASN d   1     -13.789  14.112   6.980  0.00  0.00     0.217 C 
ATOM    133  OD1 ASN d   1     -14.088  14.618   8.055  0.00  0.00    -0.274 OA
ATOM    134  ND2 ASN d   1     -13.721  14.813   5.850  0.00  0.00    -0.370 N 
ATOM    135  H36 ASN d   1     -13.880  15.800   5.864  0.00  0.00     0.159 HD
ATOM    136  H37 ASN d   1     -13.511  14.352   4.988  0.00  0.00     0.159 HD
ENDBRANCH 129 132
ENDBRANCH   1 129
TORSDOF 36
