REMARK WARNING: 32 MAX_TORS EXCEEDED!!!
REMARK  65 active torsions:
REMARK  status: ('A' for Active; 'I' for Inactive)
REMARK    1  A    between atoms: N_1  and  CA_2 
REMARK    2  A    between atoms: CA_2  and  C_3 
REMARK    3  A    between atoms: CA_2  and  CB_5 
REMARK       I    between atoms: C_3  and  N_8 
REMARK    4  A    between atoms: CB_5  and  OG1_6 
REMARK    5  A    between atoms: CB_5  and  CG2_7 
REMARK    6  A    between atoms: N_8  and  CA_9 
REMARK    7  A    between atoms: CA_9  and  C_10 
REMARK    8  A    between atoms: CA_9  and  CB_12 
REMARK       I    between atoms: C_10  and  N_19 
REMARK    9  A    between atoms: CB_12  and  CG_13 
REMARK   10  A    between atoms: CG_13  and  CD_14 
REMARK   11  A    between atoms: CD_14  and  NE_15 
REMARK       I    between atoms: NE_15  and  CZ_16 
REMARK       I    between atoms: CZ_16  and  NH1_17 
REMARK       I    between atoms: CZ_16  and  NH2_18 
REMARK   12  A    between atoms: N_19  and  CA_20 
REMARK   13  A    between atoms: CA_20  and  C_21 
REMARK   14  A    between atoms: CA_20  and  CB_23 
REMARK       I    between atoms: C_21  and  N_31 
REMARK   15  A    between atoms: CB_23  and  CG_24 
REMARK   16  A    between atoms: CZ_29  and  OH_30 
REMARK   17  A    between atoms: N_31  and  CA_32 
REMARK   18  A    between atoms: CA_32  and  C_33 
REMARK   19  A    between atoms: CA_32  and  CB_35 
REMARK       I    between atoms: C_33  and  N_45 
REMARK   20  A    between atoms: CB_35  and  CG_36 
REMARK   21  A    between atoms: N_45  and  CA_46 
REMARK   22  A    between atoms: CA_46  and  C_47 
REMARK   23  A    between atoms: CA_46  and  CB_49 
REMARK       I    between atoms: C_47  and  N_53 
REMARK   24  A    between atoms: CB_49  and  CG_50 
REMARK       I    between atoms: CG_50  and  ND2_52 
REMARK   25  A    between atoms: CA_54  and  C_55 
REMARK       I    between atoms: C_55  and  N_60 
REMARK   26  A    between atoms: N_60  and  CA_61 
REMARK   27  A    between atoms: CA_61  and  C_62 
REMARK   28  A    between atoms: CA_61  and  CB_64 
REMARK       I    between atoms: C_62  and  N_69 
REMARK   29  A    between atoms: CB_64  and  CG_65 
REMARK   30  A    between atoms: CG_65  and  CD_66 
REMARK   31  A    between atoms: CD_66  and  CE_67 
REMARK   32  A    between atoms: CE_67  and  NZ_68 
REMARK   33  A    between atoms: N_69  and  CA_70 
REMARK   34  A    between atoms: CA_70  and  C_71 
REMARK   35  A    between atoms: CA_70  and  CB_73 
REMARK       I    between atoms: C_71  and  N_77 
REMARK   36  A    between atoms: CB_73  and  CG_74 
REMARK   37  A    between atoms: CG_74  and  SD_75 
REMARK   38  A    between atoms: SD_75  and  CE_76 
REMARK   39  A    between atoms: N_77  and  CA_78 
REMARK   40  A    between atoms: CA_78  and  C_79 
REMARK   41  A    between atoms: CA_78  and  CB_81 
REMARK       I    between atoms: C_79  and  N_86 
REMARK   42  A    between atoms: CB_81  and  CG_82 
REMARK   43  A    between atoms: CG_82  and  CD_83 
REMARK   44  A    between atoms: CD_83  and  CE_84 
REMARK   45  A    between atoms: CE_84  and  NZ_85 
REMARK   46  A    between atoms: CA_87  and  C_88 
REMARK       I    between atoms: C_88  and  N_93 
REMARK   47  A    between atoms: N_93  and  CA_94 
REMARK   48  A    between atoms: CA_94  and  C_95 
REMARK   49  A    between atoms: CA_94  and  CB_97 
REMARK       I    between atoms: C_95  and  N_104 
REMARK   50  A    between atoms: CB_97  and  CG_98 
REMARK   51  A    between atoms: N_104  and  CA_105 
REMARK   52  A    between atoms: CA_105  and  C_106 
REMARK   53  A    between atoms: CA_105  and  CB_108 
REMARK       I    between atoms: C_106  and  N_112 
REMARK   54  A    between atoms: CB_108  and  CG1_109 
REMARK   55  A    between atoms: CB_108  and  CG2_110 
REMARK   56  A    between atoms: CG1_109  and  CD1_111 
REMARK   57  A    between atoms: N_112  and  CA_113 
REMARK   58  A    between atoms: CA_113  and  C_114 
REMARK   59  A    between atoms: CA_113  and  CB_116 
REMARK       I    between atoms: C_114  and  N_123 
REMARK   60  A    between atoms: CB_116  and  CG_117 
REMARK   61  A    between atoms: N_123  and  CA_124 
REMARK   62  A    between atoms: CA_124  and  C_125 
REMARK       I    between atoms: C_125  and  N_127 
REMARK   63  A    between atoms: N_127  and  CA_128 
REMARK   64  A    between atoms: CA_128  and  C_129 
REMARK   65  A    between atoms: CA_128  and  CB_131 
REMARK       I    between atoms: C_129  and  N_132 
ROOT
ATOM      1  C   LYS d   1      56.193 -66.646  53.289  0.00  0.00     0.241 C 
ATOM      2  O   LYS d   1      55.669 -67.542  52.628  0.00  0.00    -0.271 OA
ATOM      3  N   MET d   1      56.540 -65.473  52.775  0.00  0.00    -0.346 N 
ATOM      4  H68 MET d   1      56.818 -64.742  53.398  0.00  0.00     0.163 HD
ENDROOT
BRANCH   1   5
ATOM      5  CA  LYS d   1      56.476 -66.833  54.780  0.00  0.00     0.089 C 
ATOM      6  H56 LYS d   1      57.385 -67.446  54.865  0.00  0.00     0.087 H 
BRANCH   5   7
ATOM      7  N   LYS d   1      56.740 -65.567  55.471  0.00  0.00    -0.346 N 
ATOM      8  C   PRO d   1      57.884 -64.901  55.303  0.00  0.00     0.241 C 
ATOM      9  O   PRO d   1      58.778 -65.283  54.550  0.00  0.00    -0.271 OA
ATOM     10  H55 LYS d   1      56.044 -65.193  56.084  0.00  0.00     0.163 HD
BRANCH   8  11
ATOM     11  CA  PRO d   1      58.077 -63.587  56.068  0.00  0.00     0.091 C 
ATOM     12  N   PRO d   1      56.861 -63.159  56.760  0.00  0.00    -0.337 N 
ATOM     13  C   ASN d   1      55.776 -62.791  56.073  0.00  0.00     0.243 C 
ATOM     14  CD  PRO d   1      57.059 -63.053  58.215  0.00  0.00    -0.001 C 
ATOM     15  O   ASN d   1      55.763 -62.712  54.846  0.00  0.00    -0.271 OA
ATOM     16  CG  PRO d   1      58.541 -62.960  58.339  0.00  0.00    -0.048 C 
ATOM     17  H53 PRO d   1      56.673 -63.943  58.734  0.00  0.00     0.064 H 
ATOM     18  H54 PRO d   1      56.570 -62.153  58.617  0.00  0.00     0.064 H 
ATOM     19  CB  PRO d   1      59.078 -63.783  57.211  0.00  0.00    -0.036 C 
ATOM     20  H51 PRO d   1      58.872 -61.915  58.246  0.00  0.00     0.035 H 
ATOM     21  H52 PRO d   1      58.874 -63.365  59.306  0.00  0.00     0.035 H 
ATOM     22  H49 PRO d   1      60.077 -63.429  56.916  0.00  0.00     0.036 H 
ATOM     23  H50 PRO d   1      59.134 -64.843  57.498  0.00  0.00     0.036 H 
ATOM     24  H48 PRO d   1      58.420 -62.809  55.371  0.00  0.00     0.087 H 
BRANCH  13  25
ATOM     25  CA  ASN d   1      54.523 -62.494  56.886  0.00  0.00     0.097 C 
ATOM     26  H43 ASN d   1      54.566 -63.163  57.758  0.00  0.00     0.088 H 
BRANCH  25  27
ATOM     27  N   ASN d   1      54.369 -61.150  57.439  0.00  0.00    -0.346 N 
ATOM     28  C   TRP d   1      54.344 -60.038  56.699  0.00  0.00     0.241 C 
ATOM     29  O   TRP d   1      54.605 -60.022  55.491  0.00  0.00    -0.271 OA
ATOM     30  H42 ASN d   1      54.277 -61.057  58.430  0.00  0.00     0.163 HD
BRANCH  28  31
ATOM     31  CA  TRP d   1      53.951 -58.716  57.410  0.00  0.00     0.093 C 
ATOM     32  H33 TRP d   1      53.627 -58.039  56.605  0.00  0.00     0.088 H 
BRANCH  31  33
ATOM     33  N   TRP d   1      52.838 -58.814  58.342  0.00  0.00    -0.346 N 
ATOM     34  C   TYR d   1      51.661 -58.297  58.025  0.00  0.00     0.241 C 
ATOM     35  O   TYR d   1      51.294 -58.117  56.857  0.00  0.00    -0.271 OA
ATOM     36  H32 TRP d   1      52.962 -59.272  59.222  0.00  0.00     0.163 HD
BRANCH  34  37
ATOM     37  CA  TYR d   1      50.759 -57.940  59.194  0.00  0.00     0.093 C 
ATOM     38  H24 TYR d   1      51.188 -57.026  59.630  0.00  0.00     0.088 H 
BRANCH  37  39
ATOM     39  N   TYR d   1      49.404 -57.588  58.797  0.00  0.00    -0.346 N 
ATOM     40  C   ARG d   1      49.036 -56.311  58.747  0.00  0.00     0.241 C 
ATOM     41  O   ARG d   1      49.816 -55.389  58.985  0.00  0.00    -0.271 OA
ATOM     42  H23 TYR d   1      48.749 -58.306  58.562  0.00  0.00     0.163 HD
BRANCH  40  43
ATOM     43  CA  ARG d   1      47.583 -56.021  58.374  0.00  0.00     0.089 C 
ATOM     44  H11 ARG d   1      46.934 -56.724  58.915  0.00  0.00     0.087 H 
BRANCH  43  45
ATOM     45  N   ARG d   1      47.215 -54.658  58.762  0.00  0.00    -0.346 N 
ATOM     46  C   THR d   1      46.186 -54.366  59.558  0.00  0.00     0.251 C 
ATOM     47  O   THR d   1      45.896 -53.208  59.877  0.00  0.00    -0.271 OA
ATOM     48  H10 ARG d   1      47.767 -53.903  58.410  0.00  0.00     0.163 HD
BRANCH  46  49
ATOM     49  CA  THR d   1      45.361 -55.536  60.081  0.00  0.00     0.199 C 
ATOM     50  H4  THR d   1      45.504 -56.394  59.408  0.00  0.00     0.103 H 
BRANCH  49  51
ATOM     51  N   THR d   1      45.793 -55.925  61.414  0.00  0.00    -0.064 N 
ATOM     52  H1  THR d   1      46.770 -56.172  61.392  0.00  0.00     0.275 HD
ATOM     53  H2  THR d   1      45.253 -56.718  61.724  0.00  0.00     0.275 HD
ATOM     54  H3  THR d   1      45.655 -55.155  62.050  0.00  0.00     0.275 HD
ENDBRANCH  49  51
BRANCH  49  55
ATOM     55  CB  THR d   1      43.867 -55.151  60.077  0.00  0.00     0.068 C 
ATOM     56  H5  THR d   1      43.535 -54.999  59.039  0.00  0.00     0.086 H 
BRANCH  55  57
ATOM     57  OG1 THR d   1      43.681 -53.940  60.819  0.00  0.00    -0.393 OA
ATOM     58  H6  THR d   1      44.188 -53.243  60.419  0.00  0.00     0.210 HD
ENDBRANCH  55  57
BRANCH  55  59
ATOM     59  CG2 THR d   1      43.039 -56.255  60.712  0.00  0.00    -0.050 C 
ATOM     60  H7  THR d   1      41.977 -55.968  60.703  0.00  0.00     0.031 H 
ATOM     61  H8  THR d   1      43.368 -56.409  61.750  0.00  0.00     0.031 H 
ATOM     62  H9  THR d   1      43.172 -57.187  60.143  0.00  0.00     0.031 H 
ENDBRANCH  55  59
ENDBRANCH  49  55
ENDBRANCH  46  49
ENDBRANCH  43  45
BRANCH  43  63
ATOM     63  CB  ARG d   1      47.384 -56.230  56.872  0.00  0.00    -0.036 C 
ATOM     64  H12 ARG d   1      47.715 -57.248  56.617  0.00  0.00     0.036 H 
ATOM     65  H13 ARG d   1      48.004 -55.497  56.335  0.00  0.00     0.036 H 
BRANCH  63  66
ATOM     66  CG  ARG d   1      45.941 -56.066  56.411  0.00  0.00    -0.048 C 
ATOM     67  H14 ARG d   1      45.602 -55.049  56.657  0.00  0.00     0.035 H 
ATOM     68  H15 ARG d   1      45.313 -56.799  56.938  0.00  0.00     0.035 H 
BRANCH  66  69
ATOM     69  CD  ARG d   1      45.800 -56.283  54.915  0.00  0.00     0.009 C 
ATOM     70  H16 ARG d   1      46.178 -57.286  54.666  0.00  0.00     0.064 H 
ATOM     71  H17 ARG d   1      46.400 -55.525  54.390  0.00  0.00     0.064 H 
BRANCH  69  72
ATOM     72  NE  ARG d   1      44.414 -56.179  54.465  0.00  0.00    -0.227 N 
ATOM     73  CZ  ARG d   1      44.038 -56.313  53.197  0.00  0.00     0.665 C 
ATOM     74  NH1 ARG d   1      44.947 -56.554  52.262  0.00  0.00    -0.235 N 
ATOM     75  NH2 ARG d   1      42.759 -56.206  52.860  0.00  0.00    -0.235 N 
ATOM     76  H19 ARG d   1      44.659 -56.658  51.279  0.00  0.00     0.174 HD
ATOM     77  H20 ARG d   1      45.941 -56.637  52.519  0.00  0.00     0.174 HD
ATOM     78  H21 ARG d   1      42.050 -56.019  53.583  0.00  0.00     0.174 HD
ATOM     79  H22 ARG d   1      42.475 -56.310  51.875  0.00  0.00     0.174 HD
ATOM     80  H18 ARG d   1      43.687 -55.991  55.170  0.00  0.00     0.177 HD
ENDBRANCH  69  72
ENDBRANCH  66  69
ENDBRANCH  63  66
ENDBRANCH  43  63
ENDBRANCH  40  43
ENDBRANCH  37  39
BRANCH  37  81
ATOM     81  CB  TYR d   1      50.791 -58.992  60.314  0.00  0.00    -0.014 C 
ATOM     82  H25 TYR d   1      50.518 -58.490  61.254  0.00  0.00     0.043 H 
ATOM     83  H26 TYR d   1      51.820 -59.373  60.387  0.00  0.00     0.043 H 
BRANCH  81  84
ATOM     84  CG  TYR d   1      49.868 -60.184  60.141  0.00  0.00    -0.056 A 
ATOM     85  CD1 TYR d   1      50.313 -61.349  59.530  0.00  0.00    -0.074 A 
ATOM     86  CE1 TYR d   1      49.472 -62.450  59.380  0.00  0.00    -0.051 A 
ATOM     87  H27 TYR d   1      51.332 -61.403  59.164  0.00  0.00     0.084 H 
ATOM     88  CZ  TYR d   1      48.175 -62.400  59.854  0.00  0.00     0.065 A 
ATOM     89  H29 TYR d   1      49.836 -63.346  58.891  0.00  0.00     0.087 H 
ATOM     90  CE2 TYR d   1      47.715 -61.260  60.475  0.00  0.00    -0.051 A 
ATOM     91  CD2 TYR d   1      48.561 -60.160  60.623  0.00  0.00    -0.074 A 
ATOM     92  H30 TYR d   1      46.698 -61.217  60.848  0.00  0.00     0.087 H 
ATOM     93  H28 TYR d   1      48.194 -59.270  61.122  0.00  0.00     0.084 H 
BRANCH  88  94
ATOM     94  OH  TYR d   1      47.330 -63.486  59.712  0.00  0.00    -0.361 OA
ATOM     95  H31 TYR d   1      47.790 -64.188  59.267  0.00  0.00     0.217 HD
ENDBRANCH  88  94
ENDBRANCH  81  84
ENDBRANCH  37  81
ENDBRANCH  34  37
ENDBRANCH  31  33
BRANCH  31  96
ATOM     96  CB  TRP d   1      55.110 -58.018  58.136  0.00  0.00    -0.012 C 
ATOM     97  H34 TRP d   1      55.083 -58.333  59.190  0.00  0.00     0.044 H 
ATOM     98  H35 TRP d   1      54.940 -56.933  58.073  0.00  0.00     0.044 H 
BRANCH  96  99
ATOM     99  CG  TRP d   1      56.461 -58.290  57.622  0.00  0.00    -0.028 A 
ATOM    100  CD1 TRP d   1      57.294 -59.286  58.025  0.00  0.00    -0.015 A 
ATOM    101  NE1 TRP d   1      58.483 -59.211  57.344  0.00  0.00    -0.365 N 
ATOM    102  H36 TRP d   1      57.053 -60.034  58.779  0.00  0.00     0.112 H 
ATOM    103  CE2 TRP d   1      58.440 -58.144  56.487  0.00  0.00     0.042 A 
ATOM    104  H37 TRP d   1      59.279 -59.854  57.459  0.00  0.00     0.165 HD
ATOM    105  CD2 TRP d   1      57.181 -57.532  56.641  0.00  0.00    -0.002 A 
ATOM    106  CZ2 TRP d   1      59.397 -57.670  55.596  0.00  0.00    -0.056 A 
ATOM    107  CE3 TRP d   1      56.879 -56.405  55.869  0.00  0.00    -0.070 A 
ATOM    108  CZ3 TRP d   1      57.833 -55.936  54.984  0.00  0.00    -0.082 A 
ATOM    109  H38 TRP d   1      55.919 -55.910  55.962  0.00  0.00     0.084 H 
ATOM    110  CH2 TRP d   1      59.076 -56.569  54.855  0.00  0.00    -0.081 A 
ATOM    111  H40 TRP d   1      57.615 -55.063  54.380  0.00  0.00     0.083 H 
ATOM    112  H41 TRP d   1      59.800 -56.176  54.151  0.00  0.00     0.083 H 
ATOM    113  H39 TRP d   1      60.361 -58.156  55.494  0.00  0.00     0.086 H 
ENDBRANCH  96  99
ENDBRANCH  31  96
ENDBRANCH  28  31
ENDBRANCH  25  27
BRANCH  25 114
ATOM    114  CB  ASN d   1      53.297 -62.901  56.067  0.00  0.00     0.036 C 
ATOM    115  H44 ASN d   1      53.466 -63.910  55.663  0.00  0.00     0.051 H 
ATOM    116  H45 ASN d   1      53.179 -62.188  55.237  0.00  0.00     0.051 H 
BRANCH 114 117
ATOM    117  CG  ASN d   1      52.021 -62.915  56.872  0.00  0.00     0.217 C 
ATOM    118  OD1 ASN d   1      51.978 -63.405  57.998  0.00  0.00    -0.274 OA
ATOM    119  ND2 ASN d   1      50.961 -62.360  56.288  0.00  0.00    -0.370 N 
ATOM    120  H46 ASN d   1      50.083 -62.335  56.766  0.00  0.00     0.159 HD
ATOM    121  H47 ASN d   1      51.043 -61.968  55.372  0.00  0.00     0.159 HD
ENDBRANCH 114 117
ENDBRANCH  25 114
ENDBRANCH  13  25
ENDBRANCH   8  11
ENDBRANCH   5   7
BRANCH   5 122
ATOM    122  CB  LYS d   1      55.334 -67.600  55.455  0.00  0.00    -0.038 C 
ATOM    123  H57 LYS d   1      55.040 -68.433  54.799  0.00  0.00     0.036 H 
ATOM    124  H58 LYS d   1      54.483 -66.915  55.581  0.00  0.00     0.036 H 
BRANCH 122 125
ATOM    125  CG  LYS d   1      55.698 -68.169  56.818  0.00  0.00    -0.061 C 
ATOM    126  H59 LYS d   1      56.007 -67.345  57.478  0.00  0.00     0.033 H 
ATOM    127  H60 LYS d   1      56.532 -68.876  56.698  0.00  0.00     0.033 H 
BRANCH 125 128
ATOM    128  CD  LYS d   1      54.525 -68.895  57.453  0.00  0.00    -0.043 C 
ATOM    129  H61 LYS d   1      54.180 -69.687  56.772  0.00  0.00     0.035 H 
ATOM    130  H62 LYS d   1      53.709 -68.178  57.625  0.00  0.00     0.035 H 
BRANCH 128 131
ATOM    131  CE  LYS d   1      54.927 -69.520  58.780  0.00  0.00     0.080 C 
ATOM    132  H63 LYS d   1      55.328 -68.735  59.438  0.00  0.00     0.075 H 
ATOM    133  H64 LYS d   1      55.703 -70.278  58.598  0.00  0.00     0.075 H 
BRANCH 131 134
ATOM    134  NZ  LYS d   1      53.766 -70.166  59.448  0.00  0.00    -0.079 N 
ATOM    135  H65 LYS d   1      54.063 -70.570  60.322  0.00  0.00     0.274 HD
ATOM    136  H66 LYS d   1      53.396 -70.890  58.852  0.00  0.00     0.274 HD
ATOM    137  H67 LYS d   1      53.052 -69.476  59.622  0.00  0.00     0.274 HD
ENDBRANCH 131 134
ENDBRANCH 128 131
ENDBRANCH 125 128
ENDBRANCH 122 125
ENDBRANCH   5 122
ENDBRANCH   1   5
BRANCH   3 138
ATOM    138  CA  MET d   1      56.534 -65.203  51.348  0.00  0.00     0.090 C 
ATOM    139  H69 MET d   1      56.277 -66.109  50.781  0.00  0.00     0.087 H 
BRANCH 138 140
ATOM    140  C   MET d   1      57.943 -64.738  51.018  0.00  0.00     0.241 C 
ATOM    141  O   MET d   1      58.921 -65.431  51.300  0.00  0.00    -0.271 OA
ATOM    142  N   LYS d   1      58.038 -63.557  50.421  0.00  0.00    -0.346 N 
ATOM    143  H77 LYS d   1      57.225 -63.162  49.993  0.00  0.00     0.163 HD
BRANCH 142 144
ATOM    144  CA  LYS d   1      59.291 -62.819  50.370  0.00  0.00     0.089 C 
ATOM    145  H78 LYS d   1      59.848 -62.999  51.301  0.00  0.00     0.087 H 
BRANCH 144 146
ATOM    146  C   LYS d   1      58.949 -61.339  50.274  0.00  0.00     0.243 C 
ATOM    147  O   LYS d   1      59.060 -60.735  49.206  0.00  0.00    -0.271 OA
ATOM    148  N   PRO d   1      58.510 -60.753  51.398  0.00  0.00    -0.337 N 
ATOM    149  CA  PRO d   1      58.044 -59.364  51.435  0.00  0.00     0.091 C 
ATOM    150  CD  PRO d   1      58.446 -61.383  52.726  0.00  0.00    -0.001 C 
ATOM    151  CB  PRO d   1      57.601 -59.178  52.892  0.00  0.00    -0.036 C 
ATOM    152  H90 PRO d   1      57.206 -59.213  50.739  0.00  0.00     0.087 H 
ATOM    153  CG  PRO d   1      57.434 -60.549  53.431  0.00  0.00    -0.048 C 
ATOM    154  H91 PRO d   1      56.650 -58.628  52.938  0.00  0.00     0.036 H 
ATOM    155  H92 PRO d   1      58.368 -58.632  53.461  0.00  0.00     0.036 H 
ATOM    156  H93 PRO d   1      56.419 -60.921  53.226  0.00  0.00     0.035 H 
ATOM    157  H94 PRO d   1      57.616 -60.560  54.516  0.00  0.00     0.035 H 
ATOM    158  H95 PRO d   1      59.421 -61.339  53.234  0.00  0.00     0.064 H 
ATOM    159  H96 PRO d   1      58.117 -62.430  52.654  0.00  0.00     0.064 H 
BRANCH 149 160
ATOM    160  C   PRO d   1      59.159 -58.382  51.114  0.00  0.00     0.241 C 
ATOM    161  O   PRO d   1      60.280 -58.530  51.605  0.00  0.00    -0.271 OA
ATOM    162  N   PHE d   1      58.847 -57.389  50.290  0.00  0.00    -0.346 N 
ATOM    163  H97 PHE d   1      57.939 -57.366  49.872  0.00  0.00     0.163 HD
BRANCH 162 164
ATOM    164  CA  PHE d   1      59.800 -56.334  49.983  0.00  0.00     0.093 C 
ATOM    165  H98 PHE d   1      60.636 -56.404  50.695  0.00  0.00     0.088 H 
BRANCH 164 166
ATOM    166  C   PHE d   1      59.142 -54.972  50.148  0.00  0.00     0.241 C 
ATOM    167  O   PHE d   1      57.935 -54.880  50.368  0.00  0.00    -0.271 OA
ATOM    168  N   ILE d   1      59.941 -53.918  50.036  0.00  0.00    -0.346 N 
ATOM    169 6H10 ILE d   1      60.896 -54.058  49.774  0.00  0.00     0.163 HD
BRANCH 168 170
ATOM    170  CA  ILE d   1      59.467 -52.564  50.284  0.00  0.00     0.092 C 
ATOM    171 7H10 ILE d   1      58.368 -52.575  50.251  0.00  0.00     0.088 H 
BRANCH 170 172
ATOM    172  C   ILE d   1      59.974 -51.583  49.231  0.00  0.00     0.241 C 
ATOM    173  O   ILE d   1      61.172 -51.527  48.950  0.00  0.00    -0.271 OA
ATOM    174  N   PHE d   1      59.059 -50.814  48.649  0.00  0.00    -0.346 N 
ATOM    175 7H11 PHE d   1      58.090 -50.978  48.836  0.00  0.00     0.163 HD
BRANCH 174 176
ATOM    176  CA  PHE d   1      59.438 -49.736  47.743  0.00  0.00     0.093 C 
ATOM    177 8H11 PHE d   1      60.535 -49.662  47.745  0.00  0.00     0.088 H 
BRANCH 176 178
ATOM    178  C   PHE d   1      58.876 -48.410  48.234  0.00  0.00     0.241 C 
ATOM    179  O   PHE d   1      57.944 -48.390  49.035  0.00  0.00    -0.271 OA
ATOM    180  N   GLY d   1      59.444 -47.305  47.760  0.00  0.00    -0.351 N 
ATOM    181 6H12 GLY d   1      60.125 -47.376  47.031  0.00  0.00     0.163 HD
BRANCH 180 182
ATOM    182  CA  GLY d   1      59.093 -45.996  48.283  0.00  0.00     0.069 C 
ATOM    183 7H12 GLY d   1      60.002 -45.552  48.716  0.00  0.00     0.078 H 
ATOM    184 8H12 GLY d   1      58.343 -46.141  49.075  0.00  0.00     0.078 H 
BRANCH 182 185
ATOM    185  C   GLY d   1      58.526 -45.007  47.283  0.00  0.00     0.236 C 
ATOM    186  O   GLY d   1      58.951 -43.850  47.239  0.00  0.00    -0.272 OA
ATOM    187  N   ALA d   1      57.556 -45.450  46.490  0.00  0.00    -0.347 N 
ATOM    188 9H12 ALA d   1      57.248 -46.398  46.576  0.00  0.00     0.163 HD
BRANCH 187 189
ATOM    189  CA  ALA d   1      56.930 -44.583  45.495  0.00  0.00     0.086 C 
ATOM    190 0H13 ALA d   1      57.703 -43.913  45.091  0.00  0.00     0.086 H 
BRANCH 189 191
ATOM    191  C   ALA d   1      55.836 -43.720  46.122  0.00  0.00     0.237 C 
ATOM    192  O   ALA d   1      55.170 -42.948  45.431  0.00  0.00    -0.271 OA
ATOM    193  N   NH2 d   1      55.662 -43.854  47.434  0.00  0.00    -0.368 N 
ATOM    194 4H13 NH2 d   1      54.961 -43.316  47.903  0.00  0.00     0.159 HD
ATOM    195 5H13 NH2 d   1      56.232 -44.492  47.951  0.00  0.00     0.159 HD
ENDBRANCH 189 191
BRANCH 189 196
ATOM    196  CB  ALA d   1      56.367 -45.409  44.346  0.00  0.00    -0.049 C 
ATOM    197 1H13 ALA d   1      55.900 -44.740  43.608  0.00  0.00     0.030 H 
ATOM    198 2H13 ALA d   1      55.613 -46.110  44.733  0.00  0.00     0.030 H 
ATOM    199 3H13 ALA d   1      57.181 -45.973  43.867  0.00  0.00     0.030 H 
ENDBRANCH 189 196
ENDBRANCH 187 189
ENDBRANCH 182 185
ENDBRANCH 180 182
ENDBRANCH 176 178
BRANCH 176 200
ATOM    200  CB  PHE d   1      58.991 -50.028  46.308  0.00  0.00    -0.014 C 
ATOM    201 9H11 PHE d   1      59.544 -50.907  45.946  0.00  0.00     0.043 H 
ATOM    202 0H12 PHE d   1      59.239 -49.156  45.685  0.00  0.00     0.043 H 
BRANCH 200 203
ATOM    203  CG  PHE d   1      57.521 -50.305  46.168  0.00  0.00    -0.056 A 
ATOM    204  CD1 PHE d   1      56.633 -49.282  45.877  0.00  0.00    -0.077 A 
ATOM    205  CE1 PHE d   1      55.284 -49.536  45.739  0.00  0.00    -0.082 A 
ATOM    206 1H12 PHE d   1      57.003 -48.270  45.756  0.00  0.00     0.084 H 
ATOM    207  CZ  PHE d   1      54.807 -50.824  45.886  0.00  0.00    -0.083 A 
ATOM    208 3H12 PHE d   1      54.599 -48.726  45.516  0.00  0.00     0.083 H 
ATOM    209  CE2 PHE d   1      55.680 -51.852  46.171  0.00  0.00    -0.082 A 
ATOM    210 5H12 PHE d   1      53.748 -51.026  45.777  0.00  0.00     0.083 H 
ATOM    211  CD2 PHE d   1      57.029 -51.593  46.307  0.00  0.00    -0.077 A 
ATOM    212 4H12 PHE d   1      55.307 -52.863  46.288  0.00  0.00     0.083 H 
ATOM    213 2H12 PHE d   1      57.711 -52.407  46.525  0.00  0.00     0.084 H 
ENDBRANCH 200 203
ENDBRANCH 176 200
ENDBRANCH 174 176
ENDBRANCH 170 172
BRANCH 170 214
ATOM    214  CB  ILE d   1      59.917 -52.072  51.677  0.00  0.00    -0.030 C 
ATOM    215 8H10 ILE d   1      61.013 -52.154  51.733  0.00  0.00     0.043 H 
BRANCH 214 216
ATOM    216  CG1 ILE d   1      59.313 -52.946  52.779  0.00  0.00    -0.063 C 
ATOM    217 9H10 ILE d   1      59.631 -53.985  52.609  0.00  0.00     0.033 H 
ATOM    218 0H11 ILE d   1      58.217 -52.882  52.710  0.00  0.00     0.033 H 
BRANCH 216 219
ATOM    219  CD1 ILE d   1      59.725 -52.546  54.176  0.00  0.00    -0.076 C 
ATOM    220 4H11 ILE d   1      59.251 -53.220  54.905  0.00  0.00     0.027 H 
ATOM    221 5H11 ILE d   1      59.405 -51.512  54.371  0.00  0.00     0.027 H 
ATOM    222 6H11 ILE d   1      60.819 -52.615  54.270  0.00  0.00     0.027 H 
ENDBRANCH 216 219
ENDBRANCH 214 216
BRANCH 214 223
ATOM    223  CG2 ILE d   1      59.538 -50.615  51.884  0.00  0.00    -0.071 C 
ATOM    224 1H11 ILE d   1      59.980 -50.004  51.084  0.00  0.00     0.028 H 
ATOM    225 2H11 ILE d   1      59.916 -50.273  52.858  0.00  0.00     0.028 H 
ATOM    226 3H11 ILE d   1      58.443 -50.514  51.860  0.00  0.00     0.028 H 
ENDBRANCH 214 223
ENDBRANCH 170 214
ENDBRANCH 168 170
ENDBRANCH 164 166
BRANCH 164 227
ATOM    227  CB  PHE d   1      60.361 -56.497  48.569  0.00  0.00    -0.014 C 
ATOM    228  H99 PHE d   1      60.758 -57.518  48.470  0.00  0.00     0.043 H 
ATOM    229 0H10 PHE d   1      61.176 -55.771  48.434  0.00  0.00     0.043 H 
BRANCH 227 230
ATOM    230  CG  PHE d   1      59.350 -56.277  47.485  0.00  0.00    -0.056 A 
ATOM    231  CD1 PHE d   1      59.188 -55.025  46.915  0.00  0.00    -0.077 A 
ATOM    232  CE1 PHE d   1      58.258 -54.819  45.919  0.00  0.00    -0.082 A 
ATOM    233 1H10 PHE d   1      59.800 -54.198  47.256  0.00  0.00     0.084 H 
ATOM    234  CZ  PHE d   1      57.480 -55.869  45.478  0.00  0.00    -0.083 A 
ATOM    235 3H10 PHE d   1      58.138 -53.834  45.483  0.00  0.00     0.083 H 
ATOM    236  CE2 PHE d   1      57.633 -57.122  46.034  0.00  0.00    -0.082 A 
ATOM    237 5H10 PHE d   1      56.748 -55.709  44.694  0.00  0.00     0.083 H 
ATOM    238  CD2 PHE d   1      58.564 -57.322  47.032  0.00  0.00    -0.077 A 
ATOM    239 4H10 PHE d   1      57.023 -57.948  45.687  0.00  0.00     0.083 H 
ATOM    240 2H10 PHE d   1      58.681 -58.308  47.466  0.00  0.00     0.084 H 
ENDBRANCH 227 230
ENDBRANCH 164 227
ENDBRANCH 162 164
ENDBRANCH 149 160
ENDBRANCH 144 146
BRANCH 144 241
ATOM    241  CB  LYS d   1      60.168 -63.262  49.196  0.00  0.00    -0.038 C 
ATOM    242  H79 LYS d   1      59.665 -62.975  48.261  0.00  0.00     0.036 H 
ATOM    243  H80 LYS d   1      60.273 -64.356  49.235  0.00  0.00     0.036 H 
BRANCH 241 244
ATOM    244  CG  LYS d   1      61.567 -62.644  49.200  0.00  0.00    -0.061 C 
ATOM    245  H81 LYS d   1      61.644 -61.942  50.044  0.00  0.00     0.033 H 
ATOM    246  H82 LYS d   1      61.719 -62.100  48.256  0.00  0.00     0.033 H 
BRANCH 244 247
ATOM    247  CD  LYS d   1      62.653 -63.702  49.339  0.00  0.00    -0.043 C 
ATOM    248  H83 LYS d   1      62.589 -64.395  48.487  0.00  0.00     0.035 H 
ATOM    249  H84 LYS d   1      62.494 -64.257  50.276  0.00  0.00     0.035 H 
BRANCH 247 250
ATOM    250  CE  LYS d   1      64.042 -63.075  49.364  0.00  0.00     0.080 C 
ATOM    251  H85 LYS d   1      64.787 -63.872  49.507  0.00  0.00     0.075 H 
ATOM    252  H86 LYS d   1      64.096 -62.368  50.205  0.00  0.00     0.075 H 
BRANCH 250 253
ATOM    253  NZ  LYS d   1      64.357 -62.344  48.102  0.00  0.00    -0.079 N 
ATOM    254  H87 LYS d   1      65.282 -61.948  48.165  0.00  0.00     0.274 HD
ATOM    255  H88 LYS d   1      63.684 -61.606  47.964  0.00  0.00     0.274 HD
ATOM    256  H89 LYS d   1      64.318 -62.984  47.324  0.00  0.00     0.274 HD
ENDBRANCH 250 253
ENDBRANCH 247 250
ENDBRANCH 244 247
ENDBRANCH 241 244
ENDBRANCH 144 241
ENDBRANCH 142 144
ENDBRANCH 138 140
BRANCH 138 257
ATOM    257  CB  MET d   1      55.541 -64.087  51.027  0.00  0.00    -0.030 C 
ATOM    258  H70 MET d   1      55.447 -64.016  49.933  0.00  0.00     0.037 H 
ATOM    259  H71 MET d   1      55.946 -63.144  51.423  0.00  0.00     0.037 H 
BRANCH 257 260
ATOM    260  CG  MET d   1      54.148 -64.288  51.611  0.00  0.00    -0.021 C 
ATOM    261  H72 MET d   1      53.557 -63.380  51.421  0.00  0.00     0.049 H 
ATOM    262  H73 MET d   1      54.244 -64.442  52.696  0.00  0.00     0.049 H 
BRANCH 260 263
ATOM    263  SD  MET d   1      53.270 -65.698  50.910  0.00  0.00    -0.173 SA
BRANCH 263 264
ATOM    264  CE  MET d   1      51.627 -65.448  51.581  0.00  0.00    -0.035 C 
ATOM    265  H74 MET d   1      50.962 -66.252  51.231  0.00  0.00     0.041 H 
ATOM    266  H75 MET d   1      51.237 -64.477  51.243  0.00  0.00     0.041 H 
ATOM    267  H76 MET d   1      51.674 -65.463  52.680  0.00  0.00     0.041 H 
ENDBRANCH 263 264
ENDBRANCH 260 263
ENDBRANCH 257 260
ENDBRANCH 138 257
ENDBRANCH   3 138
TORSDOF 65
