REMARK  28 active torsions:
REMARK  status: ('A' for Active; 'I' for Inactive)
REMARK    1  A    between atoms: N_1  and  CA_2 
REMARK    2  A    between atoms: CA_2  and  C_3 
REMARK    3  A    between atoms: CA_2  and  CB_5 
REMARK       I    between atoms: C_3  and  N_9 
REMARK    4  A    between atoms: CB_5  and  CG_6 
REMARK    5  A    between atoms: CG_6  and  SD_7 
REMARK    6  A    between atoms: SD_7  and  CE_8 
REMARK    7  A    between atoms: N_9  and  CA_10 
REMARK    8  A    between atoms: CA_10  and  C_11 
REMARK    9  A    between atoms: CA_10  and  CB_13 
REMARK       I    between atoms: C_11  and  N_18 
REMARK   10  A    between atoms: CB_13  and  CG_14 
REMARK   11  A    between atoms: CG_14  and  CD_15 
REMARK   12  A    between atoms: CD_15  and  CE_16 
REMARK   13  A    between atoms: CE_16  and  NZ_17 
REMARK   14  A    between atoms: CA_19  and  C_20 
REMARK       I    between atoms: C_20  and  N_25 
REMARK   15  A    between atoms: N_25  and  CA_26 
REMARK   16  A    between atoms: CA_26  and  C_27 
REMARK   17  A    between atoms: CA_26  and  CB_29 
REMARK       I    between atoms: C_27  and  N_36 
REMARK   18  A    between atoms: CB_29  and  CG_30 
REMARK   19  A    between atoms: N_36  and  CA_37 
REMARK   20  A    between atoms: CA_37  and  C_38 
REMARK   21  A    between atoms: CA_37  and  CB_40 
REMARK       I    between atoms: C_38  and  N_44 
REMARK   22  A    between atoms: CB_40  and  CG1_41 
REMARK   23  A    between atoms: CB_40  and  CG2_42 
REMARK   24  A    between atoms: CG1_41  and  CD1_43 
REMARK   25  A    between atoms: N_44  and  CA_45 
REMARK   26  A    between atoms: CA_45  and  C_46 
REMARK   27  A    between atoms: CA_45  and  CB_48 
REMARK   28  A    between atoms: CB_48  and  CG_49 
ROOT
ATOM      1  CA  PHE d   1      21.533   6.263  28.197  0.00  0.00     0.093 C 
ATOM      2  H33 PHE d   1      20.767   5.889  27.502  0.00  0.00     0.088 H 
ENDROOT
BRANCH   1   3
ATOM      3  N   PHE d   1      20.871   6.620  29.443  0.00  0.00    -0.346 N 
ATOM      4  C   PRO d   1      19.905   5.844  29.925  0.00  0.00     0.241 C 
ATOM      5  O   PRO d   1      19.494   4.839  29.336  0.00  0.00    -0.271 OA
ATOM      6  H32 PHE d   1      21.142   7.447  29.935  0.00  0.00     0.163 HD
BRANCH   4   7
ATOM      7  CA  PRO d   1      19.297   6.245  31.264  0.00  0.00     0.091 C 
ATOM      8  N   PRO d   1      17.831   6.105  31.291  0.00  0.00    -0.337 N 
ATOM      9  C   LYS d   1      16.902   6.793  30.591  0.00  0.00     0.243 C 
ATOM     10  CD  PRO d   1      17.395   5.140  32.316  0.00  0.00    -0.001 C 
ATOM     11  O   LYS d   1      15.692   6.572  30.713  0.00  0.00    -0.271 OA
ATOM     12  CG  PRO d   1      18.588   5.039  33.222  0.00  0.00    -0.048 C 
ATOM     13  H30 PRO d   1      17.159   4.165  31.865  0.00  0.00     0.064 H 
ATOM     14  H31 PRO d   1      16.516   5.514  32.861  0.00  0.00     0.064 H 
ATOM     15  CB  PRO d   1      19.769   5.257  32.342  0.00  0.00    -0.036 C 
ATOM     16  H28 PRO d   1      18.543   5.810  34.005  0.00  0.00     0.035 H 
ATOM     17  H29 PRO d   1      18.634   4.044  33.689  0.00  0.00     0.035 H 
ATOM     18  H26 PRO d   1      20.604   5.684  32.917  0.00  0.00     0.036 H 
ATOM     19  H27 PRO d   1      20.087   4.309  31.883  0.00  0.00     0.036 H 
ATOM     20  H25 PRO d   1      19.592   7.276  31.508  0.00  0.00     0.087 H 
BRANCH   9  21
ATOM     21  CA  LYS d   1      17.395   7.889  29.640  0.00  0.00     0.089 C 
ATOM     22  H13 LYS d   1      18.339   7.558  29.182  0.00  0.00     0.087 H 
BRANCH  21  23
ATOM     23  N   LYS d   1      16.428   8.150  28.578  0.00  0.00    -0.346 N 
ATOM     24  C   MET d   1      16.269   7.316  27.554  0.00  0.00     0.249 C 
ATOM     25  O   MET d   1      17.005   6.358  27.353  0.00  0.00    -0.271 OA
ATOM     26  H12 LYS d   1      15.870   8.979  28.622  0.00  0.00     0.163 HD
BRANCH  24  27
ATOM     27  CA  MET d   1      15.096   7.601  26.625  0.00  0.00     0.176 C 
ATOM     28  H4  MET d   1      14.911   8.685  26.623  0.00  0.00     0.099 H 
BRANCH  27  29
ATOM     29  N   MET d   1      15.375   7.189  25.253  0.00  0.00    -0.066 N 
ATOM     30  H1  MET d   1      14.577   7.394  24.672  0.00  0.00     0.275 HD
ATOM     31  H2  MET d   1      15.561   6.199  25.231  0.00  0.00     0.275 HD
ATOM     32  H3  MET d   1      16.179   7.690  24.909  0.00  0.00     0.275 HD
ENDBRANCH  27  29
BRANCH  27  33
ATOM     33  CB  MET d   1      13.849   6.895  27.165  0.00  0.00    -0.022 C 
ATOM     34  H5  MET d   1      13.830   7.018  28.258  0.00  0.00     0.037 H 
ATOM     35  H6  MET d   1      13.924   5.826  26.918  0.00  0.00     0.037 H 
BRANCH  33  36
ATOM     36  CG  MET d   1      12.542   7.420  26.606  0.00  0.00    -0.021 C 
ATOM     37  H7  MET d   1      12.580   7.364  25.508  0.00  0.00     0.049 H 
ATOM     38  H8  MET d   1      12.422   8.469  26.916  0.00  0.00     0.049 H 
BRANCH  36  39
ATOM     39  SD  MET d   1      11.114   6.479  27.184  0.00  0.00    -0.173 SA
BRANCH  39  40
ATOM     40  CE  MET d   1      11.540   4.839  26.611  0.00  0.00    -0.035 C 
ATOM     41  H9  MET d   1      10.745   4.133  26.895  0.00  0.00     0.041 H 
ATOM     42  H10 MET d   1      12.489   4.526  27.070  0.00  0.00     0.041 H 
ATOM     43  H11 MET d   1      11.647   4.849  25.516  0.00  0.00     0.041 H 
ENDBRANCH  39  40
ENDBRANCH  36  39
ENDBRANCH  33  36
ENDBRANCH  27  33
ENDBRANCH  24  27
ENDBRANCH  21  23
BRANCH  21  44
ATOM     44  CB  LYS d   1      17.648   9.177  30.427  0.00  0.00    -0.038 C 
ATOM     45  H14 LYS d   1      18.180   8.919  31.354  0.00  0.00     0.036 H 
ATOM     46  H15 LYS d   1      16.676   9.629  30.676  0.00  0.00     0.036 H 
BRANCH  44  47
ATOM     47  CG  LYS d   1      18.469  10.196  29.674  0.00  0.00    -0.061 C 
ATOM     48  H16 LYS d   1      17.965  10.437  28.726  0.00  0.00     0.033 H 
ATOM     49  H17 LYS d   1      19.464   9.776  29.464  0.00  0.00     0.033 H 
BRANCH  47  50
ATOM     50  CD  LYS d   1      18.626  11.466  30.494  0.00  0.00    -0.043 C 
ATOM     51  H18 LYS d   1      19.187  11.236  31.412  0.00  0.00     0.035 H 
ATOM     52  H19 LYS d   1      17.630  11.850  30.760  0.00  0.00     0.035 H 
BRANCH  50  53
ATOM     53  CE  LYS d   1      19.374  12.526  29.704  0.00  0.00     0.080 C 
ATOM     54  H20 LYS d   1      18.856  12.689  28.747  0.00  0.00     0.075 H 
ATOM     55  H21 LYS d   1      20.397  12.171  29.511  0.00  0.00     0.075 H 
BRANCH  53  56
ATOM     56  NZ  LYS d   1      19.442  13.821  30.445  0.00  0.00    -0.079 N 
ATOM     57  H22 LYS d   1      19.944  14.498  29.892  0.00  0.00     0.274 HD
ATOM     58  H23 LYS d   1      19.920  13.682  31.321  0.00  0.00     0.274 HD
ATOM     59  H24 LYS d   1      18.508  14.157  30.621  0.00  0.00     0.274 HD
ENDBRANCH  53  56
ENDBRANCH  50  53
ENDBRANCH  47  50
ENDBRANCH  44  47
ENDBRANCH  21  44
ENDBRANCH   9  21
ENDBRANCH   4   7
ENDBRANCH   1   3
BRANCH   1  60
ATOM     60  C   PHE d   1      22.534   5.141  28.438  0.00  0.00     0.241 C 
ATOM     61  O   PHE d   1      23.494   5.298  29.182  0.00  0.00    -0.271 OA
ATOM     62  N   ILE d   1      22.261   4.000  27.818  0.00  0.00    -0.346 N 
ATOM     63  H41 ILE d   1      21.412   3.939  27.294  0.00  0.00     0.163 HD
BRANCH  62  64
ATOM     64  CA  ILE d   1      23.128   2.834  27.859  0.00  0.00     0.092 C 
ATOM     65  H42 ILE d   1      23.947   2.997  28.575  0.00  0.00     0.088 H 
BRANCH  64  66
ATOM     66  C   ILE d   1      23.679   2.651  26.454  0.00  0.00     0.241 C 
ATOM     67  O   ILE d   1      22.913   2.453  25.505  0.00  0.00    -0.271 OA
ATOM     68  N   PHE d   1      24.999   2.735  26.316  0.00  0.00    -0.344 N 
ATOM     69  H52 PHE d   1      25.575   2.813  27.130  0.00  0.00     0.163 HD
BRANCH  68  70
ATOM     70  CA  PHE d   1      25.620   2.715  24.993  0.00  0.00     0.100 C 
ATOM     71  H53 PHE d   1      25.080   3.446  24.374  0.00  0.00     0.090 H 
BRANCH  70  72
ATOM     72  C   PHE d   1      25.499   1.362  24.289  0.00  0.00     0.197 C 
ATOM     73  O   PHE d   1      25.003   1.297  23.161  0.00  0.00    -0.646 OA
ATOM     74  OXT PHE d   1      25.898   0.338  24.850  0.00  0.00    -0.646 OA
ENDBRANCH  70  72
BRANCH  70  75
ATOM     75  CB  PHE d   1      27.079   3.171  25.069  0.00  0.00    -0.013 C 
ATOM     76  H54 PHE d   1      27.554   2.982  24.095  0.00  0.00     0.043 H 
ATOM     77  H55 PHE d   1      27.588   2.582  25.846  0.00  0.00     0.043 H 
BRANCH  75  78
ATOM     78  CG  PHE d   1      27.234   4.629  25.400  0.00  0.00    -0.056 A 
ATOM     79  CD1 PHE d   1      26.950   5.598  24.451  0.00  0.00    -0.077 A 
ATOM     80  CE1 PHE d   1      27.083   6.940  24.747  0.00  0.00    -0.082 A 
ATOM     81  H56 PHE d   1      26.619   5.298  23.463  0.00  0.00     0.084 H 
ATOM     82  CZ  PHE d   1      27.509   7.335  26.001  0.00  0.00    -0.083 A 
ATOM     83  H58 PHE d   1      26.853   7.685  23.994  0.00  0.00     0.083 H 
ATOM     84  CE2 PHE d   1      27.796   6.378  26.956  0.00  0.00    -0.082 A 
ATOM     85  H60 PHE d   1      27.617   8.388  26.234  0.00  0.00     0.083 H 
ATOM     86  CD2 PHE d   1      27.661   5.033  26.655  0.00  0.00    -0.077 A 
ATOM     87  H59 PHE d   1      28.128   6.681  27.943  0.00  0.00     0.083 H 
ATOM     88  H57 PHE d   1      27.892   4.289  27.409  0.00  0.00     0.084 H 
ENDBRANCH  75  78
ENDBRANCH  70  75
ENDBRANCH  68  70
ENDBRANCH  64  66
BRANCH  64  89
ATOM     89  CB  ILE d   1      22.335   1.577  28.259  0.00  0.00    -0.030 C 
ATOM     90  H43 ILE d   1      21.430   1.525  27.636  0.00  0.00     0.043 H 
BRANCH  89  91
ATOM     91  CG1 ILE d   1      21.908   1.672  29.723  0.00  0.00    -0.063 C 
ATOM     92  H44 ILE d   1      21.644   0.664  30.076  0.00  0.00     0.033 H 
ATOM     93  H45 ILE d   1      21.026   2.326  29.787  0.00  0.00     0.033 H 
BRANCH  91  94
ATOM     94  CD1 ILE d   1      22.983   2.228  30.625  0.00  0.00    -0.076 C 
ATOM     95  H49 ILE d   1      22.610   2.268  31.659  0.00  0.00     0.027 H 
ATOM     96  H50 ILE d   1      23.253   3.241  30.293  0.00  0.00     0.027 H 
ATOM     97  H51 ILE d   1      23.870   1.579  30.581  0.00  0.00     0.027 H 
ENDBRANCH  91  94
ENDBRANCH  89  91
BRANCH  89  98
ATOM     98  CG2 ILE d   1      23.149   0.321  28.018  0.00  0.00    -0.071 C 
ATOM     99  H46 ILE d   1      23.445   0.273  26.960  0.00  0.00     0.028 H 
ATOM    100  H47 ILE d   1      22.544  -0.562  28.269  0.00  0.00     0.028 H 
ATOM    101  H48 ILE d   1      24.049   0.341  28.650  0.00  0.00     0.028 H 
ENDBRANCH  89  98
ENDBRANCH  64  89
ENDBRANCH  62  64
ENDBRANCH   1  60
BRANCH   1 102
ATOM    102  CB  PHE d   1      22.196   7.479  27.544  0.00  0.00    -0.014 C 
ATOM    103  H34 PHE d   1      22.801   7.131  26.694  0.00  0.00     0.043 H 
ATOM    104  H35 PHE d   1      22.849   7.961  28.287  0.00  0.00     0.043 H 
BRANCH 102 105
ATOM    105  CG  PHE d   1      21.212   8.498  27.043  0.00  0.00    -0.056 A 
ATOM    106  CD1 PHE d   1      19.977   8.099  26.562  0.00  0.00    -0.077 A 
ATOM    107  CE1 PHE d   1      19.058   9.028  26.110  0.00  0.00    -0.082 A 
ATOM    108  H36 PHE d   1      19.727   7.045  26.539  0.00  0.00     0.084 H 
ATOM    109  CZ  PHE d   1      19.371  10.373  26.139  0.00  0.00    -0.083 A 
ATOM    110  H38 PHE d   1      18.095   8.702  25.734  0.00  0.00     0.083 H 
ATOM    111  CE2 PHE d   1      20.598  10.785  26.619  0.00  0.00    -0.082 A 
ATOM    112  H40 PHE d   1      18.654  11.105  25.785  0.00  0.00     0.083 H 
ATOM    113  CD2 PHE d   1      21.511   9.849  27.069  0.00  0.00    -0.077 A 
ATOM    114  H39 PHE d   1      20.845  11.840  26.643  0.00  0.00     0.083 H 
ATOM    115  H37 PHE d   1      22.473  10.177  27.447  0.00  0.00     0.084 H 
ENDBRANCH 102 105
ENDBRANCH   1 102
TORSDOF 28
