REMARK WARNING: 32 MAX_TORS EXCEEDED!!!
REMARK  56 active torsions:
REMARK  status: ('A' for Active; 'I' for Inactive)
REMARK    1  A    between atoms: N_1  and  CA_2 
REMARK    2  A    between atoms: CA_2  and  C_3 
REMARK    3  A    between atoms: CA_2  and  CB_5 
REMARK       I    between atoms: C_3  and  N_12 
REMARK    4  A    between atoms: CB_5  and  CG_6 
REMARK    5  A    between atoms: N_12  and  CA_13 
REMARK    6  A    between atoms: CA_13  and  C_14 
REMARK    7  A    between atoms: CA_13  and  CB_16 
REMARK       I    between atoms: C_14  and  N_20 
REMARK    8  A    between atoms: CB_16  and  CG1_17 
REMARK    9  A    between atoms: CB_16  and  CG2_18 
REMARK   10  A    between atoms: CG1_17  and  CD1_19 
REMARK   11  A    between atoms: N_20  and  CA_21 
REMARK   12  A    between atoms: CA_21  and  C_22 
REMARK   13  A    between atoms: CA_21  and  CB_24 
REMARK       I    between atoms: C_22  and  N_31 
REMARK   14  A    between atoms: CB_24  and  CG_25 
REMARK   15  A    between atoms: N_31  and  CA_32 
REMARK   16  A    between atoms: CA_32  and  C_33 
REMARK       I    between atoms: C_33  and  N_35 
REMARK   17  A    between atoms: N_35  and  CA_36 
REMARK   18  A    between atoms: CA_36  and  C_37 
REMARK   19  A    between atoms: CA_36  and  CB_39 
REMARK       I    between atoms: C_37  and  N_40 
REMARK   20  A    between atoms: N_40  and  CA_41 
REMARK   21  A    between atoms: CA_41  and  C_42 
REMARK   22  A    between atoms: CA_41  and  CB_44 
REMARK       I    between atoms: C_42  and  N_51 
REMARK   23  A    between atoms: CB_44  and  CG_45 
REMARK   24  A    between atoms: CG_45  and  CD_46 
REMARK   25  A    between atoms: CD_46  and  NE_47 
REMARK       I    between atoms: NE_47  and  CZ_48 
REMARK       I    between atoms: CZ_48  and  NH1_49 
REMARK   26  A    between atoms: N_51  and  CA_52 
REMARK   27  A    between atoms: CA_52  and  C_53 
REMARK   28  A    between atoms: CA_52  and  CB_55 
REMARK       I    between atoms: C_53  and  N_59 
REMARK   29  A    between atoms: CB_55  and  CG_56 
REMARK       I    between atoms: CG_56  and  ND2_58 
REMARK   30  A    between atoms: N_59  and  CA_60 
REMARK   31  A    between atoms: CA_60  and  C_61 
REMARK   32  A    between atoms: CA_60  and  CB_63 
REMARK       I    between atoms: C_61  and  N_68 
REMARK   33  A    between atoms: CB_63  and  CG_64 
REMARK   34  A    between atoms: CG_64  and  CD_65 
REMARK   35  A    between atoms: CD_65  and  CE_66 
REMARK   36  A    between atoms: CE_66  and  NZ_67 
REMARK   37  A    between atoms: N_68  and  CA_69 
REMARK   38  A    between atoms: CA_69  and  C_70 
REMARK   39  A    between atoms: CA_69  and  CB_72 
REMARK       I    between atoms: C_70  and  N_75 
REMARK   40  A    between atoms: CB_72  and  CG1_73 
REMARK   41  A    between atoms: CB_72  and  CG2_74 
REMARK   42  A    between atoms: N_75  and  CA_76 
REMARK   43  A    between atoms: CA_76  and  C_77 
REMARK   44  A    between atoms: CA_76  and  CB_79 
REMARK       I    between atoms: C_77  and  N_85 
REMARK   45  A    between atoms: CB_79  and  CG_80 
REMARK   46  A    between atoms: N_85  and  CA_86 
REMARK   47  A    between atoms: CA_86  and  C_87 
REMARK   48  A    between atoms: CA_86  and  CB_89 
REMARK       I    between atoms: C_87  and  N_93 
REMARK   49  A    between atoms: CB_89  and  CG1_90 
REMARK   50  A    between atoms: CB_89  and  CG2_91 
REMARK   51  A    between atoms: CG1_90  and  CD1_92 
REMARK   52  A    between atoms: N_93  and  CA_94 
REMARK   53  A    between atoms: CA_94  and  C_95 
REMARK   54  A    between atoms: CA_94  and  CB_97 
REMARK       I    between atoms: C_95  and  N_105 
REMARK   55  A    between atoms: CB_97  and  CG_98 
REMARK   56  A    between atoms: CZ_103  and  OH_104 
ROOT
ATOM      1  CA  ASN d   1      -5.987 -25.434  -9.228  0.00  0.00     0.097 C 
ATOM      2  H54 ASN d   1      -5.600 -25.346 -10.254  0.00  0.00     0.088 H 
ENDROOT
BRANCH   1   3
ATOM      3  N   ASN d   1      -4.975 -26.108  -8.427  0.00  0.00    -0.346 N 
ATOM      4  C   ARG d   1      -3.768 -26.382  -8.914  0.00  0.00     0.241 C 
ATOM      5  O   ARG d   1      -3.437 -26.113 -10.068  0.00  0.00    -0.271 OA
ATOM      6  H53 ASN d   1      -5.193 -26.372  -7.487  0.00  0.00     0.163 HD
BRANCH   4   7
ATOM      7  CA  ARG d   1      -2.783 -27.057  -7.960  0.00  0.00     0.089 C 
ATOM      8  H41 ARG d   1      -1.815 -26.549  -8.078  0.00  0.00     0.087 H 
BRANCH   7   9
ATOM      9  N   ARG d   1      -3.161 -26.946  -6.550  0.00  0.00    -0.346 N 
ATOM     10  C   ALA d   1      -3.314 -25.772  -5.939  0.00  0.00     0.240 C 
ATOM     11  O   ALA d   1      -3.208 -24.689  -6.516  0.00  0.00    -0.271 OA
ATOM     12  H40 ARG d   1      -3.310 -27.784  -6.025  0.00  0.00     0.163 HD
BRANCH  10  13
ATOM     13  CA  ALA d   1      -3.657 -25.827  -4.453  0.00  0.00     0.086 C 
ATOM     14  H36 ALA d   1      -4.079 -24.851  -4.172  0.00  0.00     0.086 H 
BRANCH  13  15
ATOM     15  N   ALA d   1      -4.669 -26.849  -4.152  0.00  0.00    -0.347 N 
ATOM     16  C   GLY d   1      -5.888 -26.771  -4.688  0.00  0.00     0.236 C 
ATOM     17  O   GLY d   1      -6.201 -25.886  -5.489  0.00  0.00    -0.272 OA
ATOM     18  H35 ALA d   1      -4.442 -27.608  -3.541  0.00  0.00     0.163 HD
BRANCH  16  19
ATOM     19  CA  GLY d   1      -6.928 -27.814  -4.298  0.00  0.00     0.069 C 
ATOM     20  H33 GLY d   1      -7.712 -27.283  -3.739  0.00  0.00     0.078 H 
ATOM     21  H34 GLY d   1      -7.348 -28.206  -5.236  0.00  0.00     0.078 H 
BRANCH  19  22
ATOM     22  N   GLY d   1      -6.554 -28.968  -3.496  0.00  0.00    -0.351 N 
ATOM     23  C   PHE d   1      -6.180 -30.112  -4.058  0.00  0.00     0.241 C 
ATOM     24  O   PHE d   1      -5.923 -30.208  -5.258  0.00  0.00    -0.271 OA
ATOM     25  H32 GLY d   1      -6.579 -28.899  -2.499  0.00  0.00     0.163 HD
BRANCH  23  26
ATOM     26  CA  PHE d   1      -6.048 -31.329  -3.130  0.00  0.00     0.093 C 
ATOM     27  H24 PHE d   1      -4.999 -31.658  -3.169  0.00  0.00     0.088 H 
BRANCH  26  28
ATOM     28  N   PHE d   1      -6.360 -31.038  -1.731  0.00  0.00    -0.346 N 
ATOM     29  C   ILE d   1      -5.392 -30.969  -0.823  0.00  0.00     0.241 C 
ATOM     30  O   ILE d   1      -4.212 -31.183  -1.099  0.00  0.00    -0.271 OA
ATOM     31  H23 PHE d   1      -7.310 -30.890  -1.455  0.00  0.00     0.163 HD
BRANCH  29  32
ATOM     32  CA  ILE d   1      -5.786 -30.537   0.591  0.00  0.00     0.092 C 
ATOM     33  H13 ILE d   1      -4.918 -30.692   1.249  0.00  0.00     0.088 H 
BRANCH  32  34
ATOM     34  N   ILE d   1      -6.088 -29.112   0.563  0.00  0.00    -0.346 N 
ATOM     35  C   PHE d   1      -5.326 -28.221   1.194  0.00  0.00     0.249 C 
ATOM     36  O   PHE d   1      -4.431 -28.533   1.989  0.00  0.00    -0.271 OA
ATOM     37  H12 ILE d   1      -6.889 -28.794   0.056  0.00  0.00     0.163 HD
BRANCH  35  38
ATOM     38  CA  PHE d   1      -5.609 -26.757   0.865  0.00  0.00     0.179 C 
ATOM     39  H4  PHE d   1      -6.657 -26.669   0.541  0.00  0.00     0.099 H 
BRANCH  38  40
ATOM     40  N   PHE d   1      -5.420 -25.873   2.017  0.00  0.00    -0.066 N 
ATOM     41  H1  PHE d   1      -5.619 -24.922   1.747  0.00  0.00     0.275 HD
ATOM     42  H2  PHE d   1      -4.467 -25.939   2.338  0.00  0.00     0.275 HD
ATOM     43  H3  PHE d   1      -6.044 -26.149   2.759  0.00  0.00     0.275 HD
ENDBRANCH  38  40
BRANCH  38  44
ATOM     44  CB  PHE d   1      -4.696 -26.350  -0.299  0.00  0.00    -0.006 C 
ATOM     45  H5  PHE d   1      -4.816 -27.088  -1.106  0.00  0.00     0.043 H 
ATOM     46  H6  PHE d   1      -3.656 -26.362   0.058  0.00  0.00     0.043 H 
BRANCH  44  47
ATOM     47  CG  PHE d   1      -4.985 -24.989  -0.860  0.00  0.00    -0.056 A 
ATOM     48  CD1 PHE d   1      -6.163 -24.746  -1.555  0.00  0.00    -0.077 A 
ATOM     49  CE1 PHE d   1      -6.431 -23.497  -2.080  0.00  0.00    -0.082 A 
ATOM     50  H7  PHE d   1      -6.881 -25.547  -1.687  0.00  0.00     0.084 H 
ATOM     51  CZ  PHE d   1      -5.511 -22.471  -1.922  0.00  0.00    -0.083 A 
ATOM     52  H9  PHE d   1      -7.357 -23.319  -2.614  0.00  0.00     0.083 H 
ATOM     53  CE2 PHE d   1      -4.329 -22.701  -1.241  0.00  0.00    -0.082 A 
ATOM     54  H11 PHE d   1      -5.718 -21.489  -2.332  0.00  0.00     0.083 H 
ATOM     55  CD2 PHE d   1      -4.067 -23.959  -0.718  0.00  0.00    -0.077 A 
ATOM     56  H10 PHE d   1      -3.609 -21.900  -1.116  0.00  0.00     0.083 H 
ATOM     57  H8  PHE d   1      -3.136 -24.139  -0.193  0.00  0.00     0.084 H 
ENDBRANCH  44  47
ENDBRANCH  38  44
ENDBRANCH  35  38
ENDBRANCH  32  34
BRANCH  32  58
ATOM     58  CB  ILE d   1      -6.953 -31.362   1.169  0.00  0.00    -0.030 C 
ATOM     59  H14 ILE d   1      -7.854 -31.178   0.566  0.00  0.00     0.043 H 
BRANCH  58  60
ATOM     60  CG1 ILE d   1      -7.217 -30.929   2.615  0.00  0.00    -0.063 C 
ATOM     61  H15 ILE d   1      -7.546 -29.880   2.603  0.00  0.00     0.033 H 
ATOM     62  H16 ILE d   1      -6.274 -31.011   3.175  0.00  0.00     0.033 H 
BRANCH  60  63
ATOM     63  CD1 ILE d   1      -8.267 -31.744   3.340  0.00  0.00    -0.076 C 
ATOM     64  H20 ILE d   1      -8.386 -31.361   4.364  0.00  0.00     0.027 H 
ATOM     65  H21 ILE d   1      -7.953 -32.797   3.377  0.00  0.00     0.027 H 
ATOM     66  H22 ILE d   1      -9.225 -31.666   2.806  0.00  0.00     0.027 H 
ENDBRANCH  60  63
ENDBRANCH  58  60
BRANCH  58  67
ATOM     67  CG2 ILE d   1      -6.632 -32.843   1.135  0.00  0.00    -0.071 C 
ATOM     68  H17 ILE d   1      -6.443 -33.153   0.097  0.00  0.00     0.028 H 
ATOM     69  H18 ILE d   1      -7.483 -33.412   1.538  0.00  0.00     0.028 H 
ATOM     70  H19 ILE d   1      -5.738 -33.038   1.745  0.00  0.00     0.028 H 
ENDBRANCH  58  67
ENDBRANCH  32  58
ENDBRANCH  29  32
ENDBRANCH  26  28
BRANCH  26  71
ATOM     71  CB  PHE d   1      -6.924 -32.477  -3.641  0.00  0.00    -0.014 C 
ATOM     72  H25 PHE d   1      -6.859 -32.500  -4.739  0.00  0.00     0.043 H 
ATOM     73  H26 PHE d   1      -7.963 -32.280  -3.340  0.00  0.00     0.043 H 
BRANCH  71  74
ATOM     74  CG  PHE d   1      -6.525 -33.831  -3.113  0.00  0.00    -0.056 A 
ATOM     75  CD1 PHE d   1      -5.349 -34.435  -3.536  0.00  0.00    -0.077 A 
ATOM     76  CE1 PHE d   1      -4.980 -35.685  -3.067  0.00  0.00    -0.082 A 
ATOM     77  H27 PHE d   1      -4.710 -33.921  -4.244  0.00  0.00     0.084 H 
ATOM     78  CZ  PHE d   1      -5.786 -36.354  -2.171  0.00  0.00    -0.083 A 
ATOM     79  H29 PHE d   1      -4.055 -36.138  -3.405  0.00  0.00     0.083 H 
ATOM     80  CE2 PHE d   1      -6.970 -35.772  -1.736  0.00  0.00    -0.082 A 
ATOM     81  H31 PHE d   1      -5.496 -37.333  -1.806  0.00  0.00     0.083 H 
ATOM     82  CD2 PHE d   1      -7.335 -34.512  -2.212  0.00  0.00    -0.077 A 
ATOM     83  H30 PHE d   1      -7.607 -36.294  -1.031  0.00  0.00     0.083 H 
ATOM     84  H28 PHE d   1      -8.261 -34.059  -1.875  0.00  0.00     0.084 H 
ENDBRANCH  71  74
ENDBRANCH  26  71
ENDBRANCH  23  26
ENDBRANCH  19  22
ENDBRANCH  16  19
ENDBRANCH  13  15
BRANCH  13  85
ATOM     85  CB  ALA d   1      -2.400 -26.045  -3.630  0.00  0.00    -0.049 C 
ATOM     86  H37 ALA d   1      -1.662 -25.267  -3.875  0.00  0.00     0.030 H 
ATOM     87  H38 ALA d   1      -1.979 -27.035  -3.859  0.00  0.00     0.030 H 
ATOM     88  H39 ALA d   1      -2.648 -25.990  -2.560  0.00  0.00     0.030 H 
ENDBRANCH  13  85
ENDBRANCH  10  13
ENDBRANCH   7   9
BRANCH   7  89
ATOM     89  CB  ARG d   1      -2.594 -28.527  -8.349  0.00  0.00    -0.036 C 
ATOM     90  H42 ARG d   1      -2.508 -28.588  -9.444  0.00  0.00     0.036 H 
ATOM     91  H43 ARG d   1      -3.479 -29.090  -8.019  0.00  0.00     0.036 H 
BRANCH  89  92
ATOM     92  CG  ARG d   1      -1.361 -29.170  -7.735  0.00  0.00    -0.048 C 
ATOM     93  H44 ARG d   1      -1.337 -28.938  -6.660  0.00  0.00     0.035 H 
ATOM     94  H45 ARG d   1      -0.465 -28.756  -8.220  0.00  0.00     0.035 H 
BRANCH  92  95
ATOM     95  CD  ARG d   1      -1.364 -30.679  -7.913  0.00  0.00     0.009 C 
ATOM     96  H46 ARG d   1      -1.272 -30.910  -8.985  0.00  0.00     0.064 H 
ATOM     97  H47 ARG d   1      -2.315 -31.079  -7.532  0.00  0.00     0.064 H 
BRANCH  95  98
ATOM     98  NE  ARG d   1      -0.263 -31.318  -7.197  0.00  0.00    -0.227 N 
ATOM     99  CZ  ARG d   1      -0.101 -32.635  -7.100  0.00  0.00     0.665 C 
ATOM    100  NH1 ARG d   1      -0.973 -33.455  -7.673  0.00  0.00    -0.235 N 
ATOM    101  NH2 ARG d   1       0.931 -33.134  -6.431  0.00  0.00    -0.235 N 
ATOM    102  H49 ARG d   1      -0.847 -34.474  -7.598  0.00  0.00     0.174 HD
ATOM    103  H50 ARG d   1      -1.775 -33.072  -8.193  0.00  0.00     0.174 HD
ATOM    104  H51 ARG d   1       1.610 -32.501  -5.985  0.00  0.00     0.174 HD
ATOM    105  H52 ARG d   1       1.053 -34.154  -6.358  0.00  0.00     0.174 HD
ATOM    106  H48 ARG d   1       0.431 -30.711  -6.739  0.00  0.00     0.177 HD
ENDBRANCH  95  98
ENDBRANCH  92  95
ENDBRANCH  89  92
ENDBRANCH   7  89
ENDBRANCH   4   7
ENDBRANCH   1   3
BRANCH   1 107
ATOM    107  C   ASN d   1      -6.305 -24.030  -8.722  0.00  0.00     0.241 C 
ATOM    108  O   ASN d   1      -6.800 -23.194  -9.476  0.00  0.00    -0.271 OA
ATOM    109  N   LYS d   1      -6.005 -23.770  -7.453  0.00  0.00    -0.346 N 
ATOM    110  H59 LYS d   1      -5.416 -24.401  -6.948  0.00  0.00     0.163 HD
BRANCH 109 111
ATOM    111  CA  LYS d   1      -6.522 -22.579  -6.785  0.00  0.00     0.089 C 
ATOM    112  H60 LYS d   1      -7.221 -22.117  -7.497  0.00  0.00     0.087 H 
BRANCH 111 113
ATOM    113  C   LYS d   1      -5.514 -21.479  -6.408  0.00  0.00     0.241 C 
ATOM    114  O   LYS d   1      -5.842 -20.623  -5.598  0.00  0.00    -0.271 OA
ATOM    115  N   VAL d   1      -4.315 -21.475  -6.984  0.00  0.00    -0.346 N 
ATOM    116  H72 VAL d   1      -4.053 -22.223  -7.594  0.00  0.00     0.163 HD
BRANCH 115 117
ATOM    117  CA  VAL d   1      -3.374 -20.374  -6.726  0.00  0.00     0.092 C 
ATOM    118  H73 VAL d   1      -3.914 -19.615  -6.140  0.00  0.00     0.088 H 
BRANCH 117 119
ATOM    119  C   VAL d   1      -2.895 -19.683  -8.022  0.00  0.00     0.241 C 
ATOM    120  O   VAL d   1      -2.486 -20.359  -8.964  0.00  0.00    -0.271 OA
ATOM    121  N   HIS d   1      -2.992 -18.348  -8.072  0.00  0.00    -0.346 N 
ATOM    122  H81 HIS d   1      -3.485 -17.882  -7.337  0.00  0.00     0.163 HD
BRANCH 121 123
ATOM    123  CA  HIS d   1      -2.413 -17.529  -9.148  0.00  0.00     0.094 C 
ATOM    124  H82 HIS d   1      -2.229 -18.161 -10.030  0.00  0.00     0.088 H 
BRANCH 123 125
ATOM    125  C   HIS d   1      -1.103 -16.914  -8.652  0.00  0.00     0.241 C 
ATOM    126  O   HIS d   1      -1.076 -16.304  -7.590  0.00  0.00    -0.271 OA
ATOM    127  N   ILE d   1      -0.036 -17.040  -9.433  0.00  0.00    -0.346 N 
ATOM    128  H88 ILE d   1      -0.139 -17.469 -10.331  0.00  0.00     0.163 HD
BRANCH 127 129
ATOM    129  CA  ILE d   1       1.283 -16.570  -9.018  0.00  0.00     0.092 C 
ATOM    130  H89 ILE d   1       1.218 -16.250  -7.968  0.00  0.00     0.088 H 
BRANCH 129 131
ATOM    131  C   ILE d   1       1.751 -15.378  -9.852  0.00  0.00     0.241 C 
ATOM    132  O   ILE d   1       1.794 -15.449 -11.080  0.00  0.00    -0.271 OA
ATOM    133  N   TYR d   1       2.106 -14.279  -9.191  0.00  0.00    -0.346 N 
ATOM    134  H99 TYR d   1       2.118 -14.277  -8.191  0.00  0.00     0.163 HD
BRANCH 133 135
ATOM    135  CA  TYR d   1       2.477 -13.078  -9.930  0.00  0.00     0.093 C 
ATOM    136 0H10 TYR d   1       2.347 -13.301 -10.999  0.00  0.00     0.088 H 
BRANCH 135 137
ATOM    137  C   TYR d   1       3.929 -12.680  -9.730  0.00  0.00     0.238 C 
ATOM    138  O   TYR d   1       4.559 -12.152 -10.648  0.00  0.00    -0.271 OA
ATOM    139  N   NH2 d   1       4.460 -12.937  -8.537  0.00  0.00    -0.368 N 
ATOM    140 8H10 NH2 d   1       5.412 -12.696  -8.351  0.00  0.00     0.159 HD
ATOM    141 9H10 NH2 d   1       3.906 -13.371  -7.827  0.00  0.00     0.159 HD
ENDBRANCH 135 137
BRANCH 135 142
ATOM    142  CB  TYR d   1       1.537 -11.920  -9.581  0.00  0.00    -0.014 C 
ATOM    143 1H10 TYR d   1       1.796 -11.054 -10.208  0.00  0.00     0.043 H 
ATOM    144 2H10 TYR d   1       1.675 -11.660  -8.521  0.00  0.00     0.043 H 
BRANCH 142 145
ATOM    145  CG  TYR d   1       0.088 -12.267  -9.809  0.00  0.00    -0.056 A 
ATOM    146  CD1 TYR d   1      -0.434 -12.308 -11.097  0.00  0.00    -0.074 A 
ATOM    147  CE1 TYR d   1      -1.751 -12.635 -11.326  0.00  0.00    -0.051 A 
ATOM    148 3H10 TYR d   1       0.210 -12.078 -11.938  0.00  0.00     0.084 H 
ATOM    149  CZ  TYR d   1      -2.578 -12.912 -10.273  0.00  0.00     0.065 A 
ATOM    150 5H10 TYR d   1      -2.132 -12.673 -12.340  0.00  0.00     0.087 H 
ATOM    151  CE2 TYR d   1      -2.094 -12.879  -8.975  0.00  0.00    -0.051 A 
ATOM    152  CD2 TYR d   1      -0.762 -12.555  -8.751  0.00  0.00    -0.074 A 
ATOM    153 6H10 TYR d   1      -2.749 -13.104  -8.141  0.00  0.00     0.087 H 
ATOM    154 4H10 TYR d   1      -0.382 -12.527  -7.736  0.00  0.00     0.084 H 
BRANCH 149 155
ATOM    155  OH  TYR d   1      -3.891 -13.235 -10.525  0.00  0.00    -0.361 OA
ATOM    156 7H10 TYR d   1      -4.459 -12.610 -10.090  0.00  0.00     0.217 HD
ENDBRANCH 149 155
ENDBRANCH 142 145
ENDBRANCH 135 142
ENDBRANCH 133 135
ENDBRANCH 129 131
BRANCH 129 157
ATOM    157  CB  ILE d   1       2.304 -17.710  -9.118  0.00  0.00    -0.030 C 
ATOM    158  H90 ILE d   1       2.386 -18.018 -10.171  0.00  0.00     0.043 H 
BRANCH 157 159
ATOM    159  CG1 ILE d   1       1.810 -18.906  -8.301  0.00  0.00    -0.063 C 
ATOM    160  H91 ILE d   1       0.806 -19.177  -8.660  0.00  0.00     0.033 H 
ATOM    161  H92 ILE d   1       1.752 -18.602  -7.245  0.00  0.00     0.033 H 
BRANCH 159 162
ATOM    162  CD1 ILE d   1       2.687 -20.125  -8.392  0.00  0.00    -0.076 C 
ATOM    163  H96 ILE d   1       2.259 -20.931  -7.778  0.00  0.00     0.027 H 
ATOM    164  H97 ILE d   1       3.695 -19.880  -8.025  0.00  0.00     0.027 H 
ATOM    165  H98 ILE d   1       2.748 -20.455  -9.439  0.00  0.00     0.027 H 
ENDBRANCH 159 162
ENDBRANCH 157 159
BRANCH 157 166
ATOM    166  CG2 ILE d   1       3.678 -17.240  -8.651  0.00  0.00    -0.071 C 
ATOM    167  H93 ILE d   1       3.998 -16.382  -9.260  0.00  0.00     0.028 H 
ATOM    168  H94 ILE d   1       4.403 -18.060  -8.762  0.00  0.00     0.028 H 
ATOM    169  H95 ILE d   1       3.623 -16.940  -7.594  0.00  0.00     0.028 H 
ENDBRANCH 157 166
ENDBRANCH 129 157
ENDBRANCH 127 129
ENDBRANCH 123 125
BRANCH 123 170
ATOM    170  CB  HIS d   1      -3.334 -16.364  -9.527  0.00  0.00     0.004 C 
ATOM    171  H83 HIS d   1      -2.814 -15.744 -10.273  0.00  0.00     0.046 H 
ATOM    172  H84 HIS d   1      -3.523 -15.768  -8.622  0.00  0.00     0.046 H 
BRANCH 170 173
ATOM    173  CG  HIS d   1      -4.653 -16.774 -10.099  0.00  0.00     0.053 A 
ATOM    174  ND1 HIS d   1      -4.772 -17.458 -11.290  0.00  0.00    -0.247 NA
ATOM    175  CE1 HIS d   1      -6.050 -17.664 -11.552  0.00  0.00     0.064 A 
ATOM    176  NE2 HIS d   1      -6.765 -17.123 -10.581  0.00  0.00    -0.359 N 
ATOM    177  H86 HIS d   1      -6.447 -18.189 -12.419  0.00  0.00     0.143 H 
ATOM    178  CD2 HIS d   1      -5.915 -16.556  -9.663  0.00  0.00     0.002 A 
ATOM    179  H87 HIS d   1      -7.793 -17.126 -10.522  0.00  0.00     0.166 HD
ATOM    180  H85 HIS d   1      -6.203 -16.029  -8.754  0.00  0.00     0.114 H 
ENDBRANCH 170 173
ENDBRANCH 123 170
ENDBRANCH 121 123
ENDBRANCH 117 119
BRANCH 117 181
ATOM    181  CB  VAL d   1      -2.194 -20.867  -5.863  0.00  0.00    -0.033 C 
ATOM    182  H74 VAL d   1      -1.782 -21.771  -6.334  0.00  0.00     0.042 H 
BRANCH 181 183
ATOM    183  CG1 VAL d   1      -1.091 -19.844  -5.776  0.00  0.00    -0.071 C 
ATOM    184  H75 VAL d   1      -0.274 -20.238  -5.153  0.00  0.00     0.028 H 
ATOM    185  H76 VAL d   1      -1.483 -18.920  -5.326  0.00  0.00     0.028 H 
ATOM    186  H77 VAL d   1      -0.711 -19.628  -6.785  0.00  0.00     0.028 H 
ENDBRANCH 181 183
BRANCH 181 187
ATOM    187  CG2 VAL d   1      -2.687 -21.234  -4.471  0.00  0.00    -0.071 C 
ATOM    188  H78 VAL d   1      -3.491 -21.981  -4.552  0.00  0.00     0.028 H 
ATOM    189  H79 VAL d   1      -3.072 -20.334  -3.969  0.00  0.00     0.028 H 
ATOM    190  H80 VAL d   1      -1.855 -21.653  -3.886  0.00  0.00     0.028 H 
ENDBRANCH 181 187
ENDBRANCH 117 181
ENDBRANCH 115 117
ENDBRANCH 111 113
BRANCH 111 191
ATOM    191  CB  LYS d   1      -7.330 -22.974  -5.539  0.00  0.00    -0.038 C 
ATOM    192  H61 LYS d   1      -7.560 -22.058  -4.976  0.00  0.00     0.036 H 
ATOM    193  H62 LYS d   1      -6.705 -23.636  -4.922  0.00  0.00     0.036 H 
BRANCH 191 194
ATOM    194  CG  LYS d   1      -8.644 -23.696  -5.829  0.00  0.00    -0.061 C 
ATOM    195  H63 LYS d   1      -8.441 -24.573  -6.460  0.00  0.00     0.033 H 
ATOM    196  H64 LYS d   1      -9.321 -23.011  -6.360  0.00  0.00     0.033 H 
BRANCH 194 197
ATOM    197  CD  LYS d   1      -9.311 -24.155  -4.537  0.00  0.00    -0.043 C 
ATOM    198  H65 LYS d   1      -9.523 -23.275  -3.911  0.00  0.00     0.035 H 
ATOM    199  H66 LYS d   1      -8.627 -24.830  -4.002  0.00  0.00     0.035 H 
BRANCH 197 200
ATOM    200  CE  LYS d   1     -10.614 -24.889  -4.816  0.00  0.00     0.080 C 
ATOM    201  H67 LYS d   1     -10.411 -25.720  -5.508  0.00  0.00     0.075 H 
ATOM    202  H68 LYS d   1     -11.322 -24.188  -5.283  0.00  0.00     0.075 H 
BRANCH 200 203
ATOM    203  NZ  LYS d   1     -11.232 -25.438  -3.577  0.00  0.00    -0.079 N 
ATOM    204  H69 LYS d   1     -12.089 -25.913  -3.811  0.00  0.00     0.274 HD
ATOM    205  H70 LYS d   1     -11.430 -24.684  -2.938  0.00  0.00     0.274 HD
ATOM    206  H71 LYS d   1     -10.595 -26.088  -3.143  0.00  0.00     0.274 HD
ENDBRANCH 200 203
ENDBRANCH 197 200
ENDBRANCH 194 197
ENDBRANCH 191 194
ENDBRANCH 111 191
ENDBRANCH 109 111
ENDBRANCH   1 107
BRANCH   1 207
ATOM    207  CB  ASN d   1      -7.272 -26.263  -9.264  0.00  0.00     0.036 C 
ATOM    208  H55 ASN d   1      -8.037 -25.703  -9.822  0.00  0.00     0.051 H 
ATOM    209  H56 ASN d   1      -7.616 -26.425  -8.232  0.00  0.00     0.051 H 
BRANCH 207 210
ATOM    210  CG  ASN d   1      -7.076 -27.608  -9.927  0.00  0.00     0.217 C 
ATOM    211  OD1 ASN d   1      -6.285 -27.743 -10.861  0.00  0.00    -0.274 OA
ATOM    212  ND2 ASN d   1      -7.797 -28.616  -9.446  0.00  0.00    -0.370 N 
ATOM    213  H57 ASN d   1      -7.709 -29.529  -9.845  0.00  0.00     0.159 HD
ATOM    214  H58 ASN d   1      -8.427 -28.462  -8.685  0.00  0.00     0.159 HD
ENDBRANCH 207 210
ENDBRANCH   1 207
TORSDOF 56
