REMARK  24 active torsions:
REMARK  status: ('A' for Active; 'I' for Inactive)
REMARK    1  A    between atoms: N_1  and  CA_2 
REMARK    2  A    between atoms: CA_2  and  C_3 
REMARK    3  A    between atoms: CA_2  and  CB_5 
REMARK       I    between atoms: C_3  and  N_9 
REMARK    4  A    between atoms: CB_5  and  CG_6 
REMARK    5  A    between atoms: CG_6  and  SD_7 
REMARK    6  A    between atoms: SD_7  and  CE_8 
REMARK    7  A    between atoms: N_9  and  CA_10 
REMARK    8  A    between atoms: CA_10  and  C_11 
REMARK    9  A    between atoms: CA_10  and  CB_13 
REMARK       I    between atoms: C_11  and  N_18 
REMARK   10  A    between atoms: CB_13  and  CG_14 
REMARK   11  A    between atoms: CG_14  and  CD_15 
REMARK   12  A    between atoms: CD_15  and  CE_16 
REMARK   13  A    between atoms: CE_16  and  NZ_17 
REMARK   14  A    between atoms: CA_19  and  C_20 
REMARK       I    between atoms: C_20  and  N_25 
REMARK   15  A    between atoms: N_25  and  CA_26 
REMARK   16  A    between atoms: CA_26  and  C_27 
REMARK   17  A    between atoms: CA_26  and  CB_29 
REMARK       I    between atoms: C_27  and  N_36 
REMARK   18  A    between atoms: CB_29  and  CG_30 
REMARK   19  A    between atoms: N_36  and  CA_37 
REMARK   20  A    between atoms: CA_37  and  C_38 
REMARK   21  A    between atoms: CA_37  and  CB_40 
REMARK   22  A    between atoms: CB_40  and  CG1_41 
REMARK   23  A    between atoms: CB_40  and  CG2_42 
REMARK   24  A    between atoms: CG1_41  and  CD1_43 
ROOT
ATOM      1  C   LYS d   1      44.163  59.646  33.849  0.00  0.00     0.243 C 
ATOM      2  O   LYS d   1      43.763  60.186  34.882  0.00  0.00    -0.271 OA
ATOM      3  N   PRO d   1      44.904  60.299  32.936  0.00  0.00    -0.337 N 
ATOM      4  CA  PRO d   1      45.469  59.686  31.728  0.00  0.00     0.091 C 
ATOM      5  CB  PRO d   1      45.870  60.893  30.871  0.00  0.00    -0.036 C 
ATOM      6  CG  PRO d   1      46.052  62.004  31.835  0.00  0.00    -0.048 C 
ATOM      7  CD  PRO d   1      45.095  61.760  32.960  0.00  0.00    -0.001 C 
ATOM      8  H25 PRO d   1      44.713  59.076  31.211  0.00  0.00     0.087 H 
ATOM      9  H26 PRO d   1      45.077  61.135  30.148  0.00  0.00     0.036 H 
ATOM     10  H27 PRO d   1      46.808  60.691  30.333  0.00  0.00     0.036 H 
ATOM     11  H28 PRO d   1      45.830  62.966  31.351  0.00  0.00     0.035 H 
ATOM     12  H29 PRO d   1      47.085  62.013  32.212  0.00  0.00     0.035 H 
ATOM     13  H30 PRO d   1      45.524  62.085  33.919  0.00  0.00     0.064 H 
ATOM     14  H31 PRO d   1      44.143  62.284  32.788  0.00  0.00     0.064 H 
ENDROOT
BRANCH   4  15
ATOM     15  C   PRO d   1      46.674  58.813  32.059  0.00  0.00     0.241 C 
ATOM     16  O   PRO d   1      47.339  59.047  33.069  0.00  0.00    -0.271 OA
ATOM     17  N   PHE d   1      46.915  57.798  31.235  0.00  0.00    -0.346 N 
ATOM     18  H32 PHE d   1      46.304  57.650  30.457  0.00  0.00     0.163 HD
BRANCH  17  19
ATOM     19  CA  PHE d   1      48.041  56.895  31.429  0.00  0.00     0.093 C 
ATOM     20  H33 PHE d   1      48.101  56.622  32.493  0.00  0.00     0.088 H 
BRANCH  19  21
ATOM     21  C   PHE d   1      49.331  57.597  31.015  0.00  0.00     0.241 C 
ATOM     22  O   PHE d   1      49.629  57.694  29.825  0.00  0.00    -0.271 OA
ATOM     23  N   ILE d   1      50.083  58.098  31.993  0.00  0.00    -0.344 N 
ATOM     24  H41 ILE d   1      49.735  58.090  32.931  0.00  0.00     0.163 HD
BRANCH  23  25
ATOM     25  CA  ILE d   1      51.407  58.660  31.726  0.00  0.00     0.099 C 
ATOM     26  H42 ILE d   1      51.581  58.615  30.641  0.00  0.00     0.090 H 
BRANCH  25  27
ATOM     27  C   ILE d   1      52.485  57.849  32.432  0.00  0.00     0.197 C 
ATOM     28  O   ILE d   1      53.194  57.073  31.800  0.00  0.00    -0.646 OA
ATOM     29  OXT ILE d   1      52.657  57.962  33.641  0.00  0.00    -0.646 OA
ENDBRANCH  25  27
BRANCH  25  30
ATOM     30  CB  ILE d   1      51.542  60.125  32.180  0.00  0.00    -0.029 C 
ATOM     31  H43 ILE d   1      51.303  60.182  33.252  0.00  0.00     0.043 H 
BRANCH  30  32
ATOM     32  CG1 ILE d   1      50.579  61.027  31.416  0.00  0.00    -0.063 C 
ATOM     33  H44 ILE d   1      50.180  60.468  30.557  0.00  0.00     0.033 H 
ATOM     34  H45 ILE d   1      51.133  61.907  31.056  0.00  0.00     0.033 H 
BRANCH  32  35
ATOM     35  CD1 ILE d   1      49.435  61.494  32.253  0.00  0.00    -0.076 C 
ATOM     36  H49 ILE d   1      48.778  62.138  31.650  0.00  0.00     0.027 H 
ATOM     37  H50 ILE d   1      49.818  62.064  33.112  0.00  0.00     0.027 H 
ATOM     38  H51 ILE d   1      48.866  60.625  32.614  0.00  0.00     0.027 H 
ENDBRANCH  32  35
ENDBRANCH  30  32
BRANCH  30  39
ATOM     39  CG2 ILE d   1      52.956  60.607  31.970  0.00  0.00    -0.070 C 
ATOM     40  H46 ILE d   1      53.651  59.956  32.521  0.00  0.00     0.028 H 
ATOM     41  H47 ILE d   1      53.050  61.639  32.338  0.00  0.00     0.028 H 
ATOM     42  H48 ILE d   1      53.198  60.577  30.897  0.00  0.00     0.028 H 
ENDBRANCH  30  39
ENDBRANCH  25  30
ENDBRANCH  23  25
ENDBRANCH  19  21
BRANCH  19  43
ATOM     43  CB  PHE d   1      47.869  55.617  30.594  0.00  0.00    -0.014 C 
ATOM     44  H34 PHE d   1      48.719  54.951  30.805  0.00  0.00     0.043 H 
ATOM     45  H35 PHE d   1      47.877  55.897  29.530  0.00  0.00     0.043 H 
BRANCH  43  46
ATOM     46  CG  PHE d   1      46.595  54.860  30.873  0.00  0.00    -0.056 A 
ATOM     47  CD1 PHE d   1      45.992  54.908  32.120  0.00  0.00    -0.077 A 
ATOM     48  CE1 PHE d   1      44.824  54.210  32.367  0.00  0.00    -0.082 A 
ATOM     49  H36 PHE d   1      46.441  55.499  32.910  0.00  0.00     0.084 H 
ATOM     50  CZ  PHE d   1      44.247  53.452  31.367  0.00  0.00    -0.083 A 
ATOM     51  H38 PHE d   1      44.361  54.258  33.346  0.00  0.00     0.083 H 
ATOM     52  CE2 PHE d   1      44.837  53.393  30.121  0.00  0.00    -0.082 A 
ATOM     53  H40 PHE d   1      43.332  52.904  31.561  0.00  0.00     0.083 H 
ATOM     54  CD2 PHE d   1      46.004  54.092  29.879  0.00  0.00    -0.077 A 
ATOM     55  H39 PHE d   1      44.386  52.800  29.334  0.00  0.00     0.083 H 
ATOM     56  H37 PHE d   1      46.465  54.040  28.899  0.00  0.00     0.084 H 
ENDBRANCH  43  46
ENDBRANCH  19  43
ENDBRANCH  17  19
ENDBRANCH   4  15
BRANCH   1  57
ATOM     57  CA  LYS d   1      43.818  58.180  33.553  0.00  0.00     0.089 C 
ATOM     58  H13 LYS d   1      44.672  57.717  33.038  0.00  0.00     0.087 H 
BRANCH  57  59
ATOM     59  N   LYS d   1      43.568  57.453  34.789  0.00  0.00    -0.346 N 
ATOM     60  C   MET d   1      44.557  56.917  35.494  0.00  0.00     0.249 C 
ATOM     61  O   MET d   1      45.729  56.946  35.125  0.00  0.00    -0.271 OA
ATOM     62  H12 LYS d   1      42.628  57.355  35.115  0.00  0.00     0.163 HD
BRANCH  60  63
ATOM     63  CA  MET d   1      44.158  56.267  36.817  0.00  0.00     0.176 C 
ATOM     64  H4  MET d   1      43.158  55.826  36.689  0.00  0.00     0.099 H 
BRANCH  63  65
ATOM     65  N   MET d   1      45.065  55.194  37.214  0.00  0.00    -0.066 N 
ATOM     66  H1  MET d   1      44.757  54.801  38.090  0.00  0.00     0.275 HD
ATOM     67  H2  MET d   1      45.997  55.564  37.321  0.00  0.00     0.275 HD
ATOM     68  H3  MET d   1      45.067  54.477  36.506  0.00  0.00     0.275 HD
ENDBRANCH  63  65
BRANCH  63  69
ATOM     69  CB  MET d   1      44.072  57.343  37.905  0.00  0.00    -0.022 C 
ATOM     70  H5  MET d   1      43.568  58.223  37.478  0.00  0.00     0.037 H 
ATOM     71  H6  MET d   1      45.096  57.615  38.200  0.00  0.00     0.037 H 
BRANCH  69  72
ATOM     72  CG  MET d   1      43.314  56.921  39.155  0.00  0.00    -0.021 C 
ATOM     73  H7  MET d   1      43.969  56.286  39.770  0.00  0.00     0.049 H 
ATOM     74  H8  MET d   1      42.425  56.348  38.854  0.00  0.00     0.049 H 
BRANCH  72  75
ATOM     75  SD  MET d   1      42.787  58.340  40.140  0.00  0.00    -0.173 SA
BRANCH  75  76
ATOM     76  CE  MET d   1      42.157  57.534  41.616  0.00  0.00    -0.035 C 
ATOM     77  H9  MET d   1      41.793  58.295  42.322  0.00  0.00     0.041 H 
ATOM     78  H10 MET d   1      42.962  56.951  42.087  0.00  0.00     0.041 H 
ATOM     79  H11 MET d   1      41.330  56.862  41.342  0.00  0.00     0.041 H 
ENDBRANCH  75  76
ENDBRANCH  72  75
ENDBRANCH  69  72
ENDBRANCH  63  69
ENDBRANCH  60  63
ENDBRANCH  57  59
BRANCH  57  80
ATOM     80  CB  LYS d   1      42.589  58.088  32.646  0.00  0.00    -0.038 C 
ATOM     81  H14 LYS d   1      42.772  58.700  31.751  0.00  0.00     0.036 H 
ATOM     82  H15 LYS d   1      41.723  58.489  33.194  0.00  0.00     0.036 H 
BRANCH  80  83
ATOM     83  CG  LYS d   1      42.262  56.681  32.202  0.00  0.00    -0.061 C 
ATOM     84  H16 LYS d   1      42.413  55.992  33.046  0.00  0.00     0.033 H 
ATOM     85  H17 LYS d   1      42.929  56.399  31.374  0.00  0.00     0.033 H 
BRANCH  83  86
ATOM     86  CD  LYS d   1      40.821  56.586  31.734  0.00  0.00    -0.043 C 
ATOM     87  H18 LYS d   1      40.622  57.394  31.014  0.00  0.00     0.035 H 
ATOM     88  H19 LYS d   1      40.153  56.695  32.601  0.00  0.00     0.035 H 
BRANCH  86  89
ATOM     89  CE  LYS d   1      40.557  55.253  31.069  0.00  0.00     0.080 C 
ATOM     90  H20 LYS d   1      40.637  54.451  31.818  0.00  0.00     0.075 H 
ATOM     91  H21 LYS d   1      41.300  55.089  30.275  0.00  0.00     0.075 H 
BRANCH  89  92
ATOM     92  NZ  LYS d   1      39.198  55.237  30.478  0.00  0.00    -0.079 N 
ATOM     93  H22 LYS d   1      39.033  54.345  30.038  0.00  0.00     0.274 HD
ATOM     94  H23 LYS d   1      39.122  55.970  29.790  0.00  0.00     0.274 HD
ATOM     95  H24 LYS d   1      38.514  55.385  31.204  0.00  0.00     0.274 HD
ENDBRANCH  89  92
ENDBRANCH  86  89
ENDBRANCH  83  86
ENDBRANCH  80  83
ENDBRANCH  57  80
ENDBRANCH   1  57
TORSDOF 24
