REMARK  25 active torsions:
REMARK  status: ('A' for Active; 'I' for Inactive)
REMARK    1  A    between atoms: N_1  and  CA_2 
REMARK    2  A    between atoms: CA_2  and  C_3 
REMARK       I    between atoms: C_3  and  N_5 
REMARK    3  A    between atoms: N_5  and  CA_6 
REMARK    4  A    between atoms: CA_6  and  C_7 
REMARK    5  A    between atoms: CA_6  and  CB_9 
REMARK       I    between atoms: C_7  and  N_13 
REMARK    6  A    between atoms: CB_9  and  CG1_10 
REMARK    7  A    between atoms: CB_9  and  CG2_11 
REMARK    8  A    between atoms: CG1_10  and  CD1_12 
REMARK    9  A    between atoms: N_13  and  CA_14 
REMARK   10  A    between atoms: CA_14  and  C_15 
REMARK   11  A    between atoms: CA_14  and  CB_17 
REMARK       I    between atoms: C_15  and  N_20 
REMARK   12  A    between atoms: CB_17  and  CG1_18 
REMARK   13  A    between atoms: CB_17  and  CG2_19 
REMARK   14  A    between atoms: N_20  and  CA_21 
REMARK   15  A    between atoms: CA_21  and  C_22 
REMARK   16  A    between atoms: CA_21  and  CB_24 
REMARK       I    between atoms: C_22  and  N_29 
REMARK   17  A    between atoms: CB_24  and  CG_25 
REMARK   18  A    between atoms: CG_25  and  CD_26 
REMARK   19  A    between atoms: CD_26  and  CE_27 
REMARK   20  A    between atoms: CE_27  and  NZ_28 
REMARK   21  A    between atoms: CA_30  and  C_31 
REMARK       I    between atoms: C_31  and  N_36 
REMARK   22  A    between atoms: N_36  and  CA_37 
REMARK   23  A    between atoms: CA_37  and  C_38 
REMARK   24  A    between atoms: CA_37  and  CB_40 
REMARK   25  A    between atoms: CB_40  and  CG_41 
ROOT
ATOM      1  CA  LYS d   1     -13.466  -3.486  11.199  0.00  0.00     0.089 C 
ATOM      2  H27 LYS d   1     -12.569  -4.068  11.456  0.00  0.00     0.087 H 
ENDROOT
BRANCH   1   3
ATOM      3  N   LYS d   1     -13.732  -2.529  12.266  0.00  0.00    -0.346 N 
ATOM      4  C   VAL d   1     -13.032  -2.488  13.394  0.00  0.00     0.241 C 
ATOM      5  O   VAL d   1     -12.120  -3.270  13.653  0.00  0.00    -0.271 OA
ATOM      6  H26 LYS d   1     -14.476  -1.873  12.143  0.00  0.00     0.163 HD
BRANCH   4   7
ATOM      7  CA  VAL d   1     -13.421  -1.379  14.371  0.00  0.00     0.092 C 
ATOM      8  H18 VAL d   1     -12.623  -1.273  15.120  0.00  0.00     0.088 H 
BRANCH   7   9
ATOM      9  N   VAL d   1     -13.554  -0.116  13.658  0.00  0.00    -0.346 N 
ATOM     10  C   ILE d   1     -12.494   0.607  13.312  0.00  0.00     0.241 C 
ATOM     11  O   ILE d   1     -11.340   0.284  13.595  0.00  0.00    -0.271 OA
ATOM     12  H17 VAL d   1     -14.467   0.216  13.422  0.00  0.00     0.163 HD
BRANCH  10  13
ATOM     13  CA  ILE d   1     -12.768   1.884  12.532  0.00  0.00     0.092 C 
ATOM     14  H7  ILE d   1     -11.946   2.031  11.816  0.00  0.00     0.088 H 
BRANCH  13  15
ATOM     15  N   ILE d   1     -14.010   1.816  11.775  0.00  0.00    -0.346 N 
ATOM     16  C   GLY d   1     -14.016   1.558  10.471  0.00  0.00     0.243 C 
ATOM     17  O   GLY d   1     -12.997   1.271   9.843  0.00  0.00    -0.272 OA
ATOM     18  H6  ILE d   1     -14.879   1.967  12.247  0.00  0.00     0.163 HD
BRANCH  16  19
ATOM     19  CA  GLY d   1     -15.364   1.630   9.782  0.00  0.00     0.152 C 
ATOM     20  H4  GLY d   1     -15.316   1.057   8.845  0.00  0.00     0.090 H 
ATOM     21  H5  GLY d   1     -16.125   1.189  10.443  0.00  0.00     0.090 H 
BRANCH  19  22
ATOM     22  N   GLY d   1     -15.742   2.998   9.477  0.00  0.00    -0.071 N 
ATOM     23  H1  GLY d   1     -16.641   3.005   9.021  0.00  0.00     0.274 HD
ATOM     24  H2  GLY d   1     -15.053   3.409   8.867  0.00  0.00     0.274 HD
ATOM     25  H3  GLY d   1     -15.795   3.530  10.331  0.00  0.00     0.274 HD
ENDBRANCH  19  22
ENDBRANCH  16  19
ENDBRANCH  13  15
BRANCH  13  26
ATOM     26  CB  ILE d   1     -12.781   3.069  13.505  0.00  0.00    -0.030 C 
ATOM     27  H8  ILE d   1     -11.889   3.009  14.145  0.00  0.00     0.043 H 
BRANCH  26  28
ATOM     28  CG1 ILE d   1     -14.023   3.010  14.391  0.00  0.00    -0.063 C 
ATOM     29  H9  ILE d   1     -13.900   2.184  15.107  0.00  0.00     0.033 H 
ATOM     30  H10 ILE d   1     -14.897   2.814  13.752  0.00  0.00     0.033 H 
BRANCH  28  31
ATOM     31  CD1 ILE d   1     -14.273   4.273  15.162  0.00  0.00    -0.076 C 
ATOM     32  H14 ILE d   1     -15.179   4.156  15.774  0.00  0.00     0.027 H 
ATOM     33  H15 ILE d   1     -14.410   5.110  14.461  0.00  0.00     0.027 H 
ATOM     34  H16 ILE d   1     -13.413   4.480  15.816  0.00  0.00     0.027 H 
ENDBRANCH  28  31
ENDBRANCH  26  28
BRANCH  26  35
ATOM     35  CG2 ILE d   1     -12.742   4.380  12.740  0.00  0.00    -0.071 C 
ATOM     36  H11 ILE d   1     -11.843   4.408  12.107  0.00  0.00     0.028 H 
ATOM     37  H12 ILE d   1     -12.716   5.219  13.451  0.00  0.00     0.028 H 
ATOM     38  H13 ILE d   1     -13.638   4.463  12.108  0.00  0.00     0.028 H 
ENDBRANCH  26  35
ENDBRANCH  13  26
ENDBRANCH  10  13
ENDBRANCH   7   9
BRANCH   7  39
ATOM     39  CB  VAL d   1     -14.728  -1.750  15.101  0.00  0.00    -0.033 C 
ATOM     40  H19 VAL d   1     -15.541  -1.781  14.361  0.00  0.00     0.042 H 
BRANCH  39  41
ATOM     41  CG1 VAL d   1     -14.617  -3.110  15.741  0.00  0.00    -0.071 C 
ATOM     42  H20 VAL d   1     -15.559  -3.352  16.254  0.00  0.00     0.028 H 
ATOM     43  H21 VAL d   1     -13.793  -3.106  16.470  0.00  0.00     0.028 H 
ATOM     44  H22 VAL d   1     -14.418  -3.865  14.966  0.00  0.00     0.028 H 
ENDBRANCH  39  41
BRANCH  39  45
ATOM     45  CG2 VAL d   1     -15.069  -0.694  16.150  0.00  0.00    -0.071 C 
ATOM     46  H23 VAL d   1     -15.146   0.291  15.667  0.00  0.00     0.028 H 
ATOM     47  H24 VAL d   1     -14.278  -0.667  16.914  0.00  0.00     0.028 H 
ATOM     48  H25 VAL d   1     -16.029  -0.946  16.625  0.00  0.00     0.028 H 
ENDBRANCH  39  45
ENDBRANCH   7  39
ENDBRANCH   4   7
ENDBRANCH   1   3
BRANCH   1  49
ATOM     49  C   LYS d   1     -13.206  -2.719   9.906  0.00  0.00     0.243 C 
ATOM     50  O   LYS d   1     -14.134  -2.452   9.143  0.00  0.00    -0.271 OA
ATOM     51  N   PRO d   1     -11.937  -2.347   9.667  0.00  0.00    -0.337 N 
ATOM     52  CA  PRO d   1     -11.547  -1.487   8.538  0.00  0.00     0.091 C 
ATOM     53  CD  PRO d   1     -10.774  -2.748  10.478  0.00  0.00    -0.001 C 
ATOM     54  CB  PRO d   1     -10.015  -1.449   8.639  0.00  0.00    -0.036 C 
ATOM     55  H39 PRO d   1     -11.971  -0.480   8.665  0.00  0.00     0.087 H 
ATOM     56  CG  PRO d   1      -9.719  -1.767  10.063  0.00  0.00    -0.048 C 
ATOM     57  H40 PRO d   1      -9.634  -0.451   8.378  0.00  0.00     0.036 H 
ATOM     58  H41 PRO d   1      -9.564  -2.199   7.973  0.00  0.00     0.036 H 
ATOM     59  H42 PRO d   1      -9.774  -0.858  10.680  0.00  0.00     0.035 H 
ATOM     60  H43 PRO d   1      -8.719  -2.214  10.158  0.00  0.00     0.035 H 
ATOM     61  H44 PRO d   1     -10.468  -3.779  10.247  0.00  0.00     0.064 H 
ATOM     62  H45 PRO d   1     -10.993  -2.662  11.553  0.00  0.00     0.064 H 
BRANCH  52  63
ATOM     63  C   PRO d   1     -11.979  -2.034   7.177  0.00  0.00     0.241 C 
ATOM     64  O   PRO d   1     -12.124  -3.248   7.017  0.00  0.00    -0.271 OA
ATOM     65  N   TRP d   1     -12.181  -1.143   6.209  0.00  0.00    -0.344 N 
ATOM     66  H46 TRP d   1     -12.072  -0.169   6.409  0.00  0.00     0.163 HD
BRANCH  65  67
ATOM     67  CA  TRP d   1     -12.558  -1.558   4.863  0.00  0.00     0.100 C 
ATOM     68  H47 TRP d   1     -13.225  -2.429   4.944  0.00  0.00     0.090 H 
BRANCH  67  69
ATOM     69  C   TRP d   1     -11.324  -1.966   4.064  0.00  0.00     0.197 C 
ATOM     70  O   TRP d   1     -10.452  -1.142   3.786  0.00  0.00    -0.646 OA
ATOM     71  OXT TRP d   1     -11.176  -3.127   3.682  0.00  0.00    -0.646 OA
ENDBRANCH  67  69
BRANCH  67  72
ATOM     72  CB  TRP d   1     -13.309  -0.439   4.132  0.00  0.00    -0.011 C 
ATOM     73  H48 TRP d   1     -13.784  -0.870   3.238  0.00  0.00     0.044 H 
ATOM     74  H49 TRP d   1     -12.578   0.325   3.827  0.00  0.00     0.044 H 
BRANCH  72  75
ATOM     75  CG  TRP d   1     -14.373   0.230   4.954  0.00  0.00    -0.028 A 
ATOM     76  CD1 TRP d   1     -14.340   1.497   5.459  0.00  0.00    -0.015 A 
ATOM     77  NE1 TRP d   1     -15.494   1.759   6.158  0.00  0.00    -0.365 N 
ATOM     78  H50 TRP d   1     -13.518   2.199   5.327  0.00  0.00     0.112 H 
ATOM     79  CE2 TRP d   1     -16.299   0.651   6.117  0.00  0.00     0.042 A 
ATOM     80  H51 TRP d   1     -15.717   2.644   6.635  0.00  0.00     0.165 HD
ATOM     81  CD2 TRP d   1     -15.626  -0.334   5.366  0.00  0.00    -0.002 A 
ATOM     82  CZ2 TRP d   1     -17.557   0.434   6.676  0.00  0.00    -0.056 A 
ATOM     83  CE3 TRP d   1     -16.242  -1.574   5.173  0.00  0.00    -0.070 A 
ATOM     84  CZ3 TRP d   1     -17.493  -1.787   5.729  0.00  0.00    -0.082 A 
ATOM     85  H52 TRP d   1     -15.751  -2.353   4.600  0.00  0.00     0.084 H 
ATOM     86  CH2 TRP d   1     -18.136  -0.788   6.471  0.00  0.00    -0.081 A 
ATOM     87  H54 TRP d   1     -17.983  -2.744   5.587  0.00  0.00     0.083 H 
ATOM     88  H55 TRP d   1     -19.115  -0.988   6.892  0.00  0.00     0.083 H 
ATOM     89  H53 TRP d   1     -18.058   1.204   7.251  0.00  0.00     0.086 H 
ENDBRANCH  72  75
ENDBRANCH  67  72
ENDBRANCH  65  67
ENDBRANCH  52  63
ENDBRANCH   1  49
BRANCH   1  90
ATOM     90  CB  LYS d   1     -14.643  -4.454  11.028  0.00  0.00    -0.038 C 
ATOM     91  H28 LYS d   1     -15.543  -3.862  10.806  0.00  0.00     0.036 H 
ATOM     92  H29 LYS d   1     -14.784  -4.993  11.976  0.00  0.00     0.036 H 
BRANCH  90  93
ATOM     93  CG  LYS d   1     -14.465  -5.490   9.912  0.00  0.00    -0.061 C 
ATOM     94  H30 LYS d   1     -13.664  -6.188  10.197  0.00  0.00     0.033 H 
ATOM     95  H31 LYS d   1     -14.185  -4.970   8.984  0.00  0.00     0.033 H 
BRANCH  93  96
ATOM     96  CD  LYS d   1     -15.746  -6.279   9.670  0.00  0.00    -0.043 C 
ATOM     97  H32 LYS d   1     -16.557  -5.578   9.424  0.00  0.00     0.035 H 
ATOM     98  H33 LYS d   1     -16.004  -6.832  10.585  0.00  0.00     0.035 H 
BRANCH  96  99
ATOM     99  CE  LYS d   1     -15.580  -7.269   8.522  0.00  0.00     0.080 C 
ATOM    100  H34 LYS d   1     -14.810  -8.005   8.797  0.00  0.00     0.075 H 
ATOM    101  H35 LYS d   1     -15.258  -6.720   7.625  0.00  0.00     0.075 H 
BRANCH  99 102
ATOM    102  NZ  LYS d   1     -16.848  -7.992   8.214  0.00  0.00    -0.079 N 
ATOM    103  H36 LYS d   1     -16.692  -8.633   7.452  0.00  0.00     0.274 HD
ATOM    104  H37 LYS d   1     -17.559  -7.327   7.954  0.00  0.00     0.274 HD
ATOM    105  H38 LYS d   1     -17.149  -8.504   9.028  0.00  0.00     0.274 HD
ENDBRANCH  99 102
ENDBRANCH  96  99
ENDBRANCH  93  96
ENDBRANCH  90  93
ENDBRANCH   1  90
TORSDOF 25
