REMARK  15 active torsions:
REMARK  status: ('A' for Active; 'I' for Inactive)
REMARK    1  A    between atoms: N_1  and  S1_3 
REMARK    2  A    between atoms: C2_4  and  N_1 
REMARK    3  A    between atoms: O4_28  and  C1_2 
REMARK    4  A    between atoms: C3_5  and  O3_6 
REMARK    5  A    between atoms: O3_6  and  S12_14 
REMARK    6  A    between atoms: C4_7  and  O4_8 
REMARK    7  A    between atoms: C5_9  and  C6_11 
REMARK    8  A    between atoms: C6_11  and  O6_12 
REMARK    9  A    between atoms: O2_24  and  S_20 
REMARK   10  A    between atoms: C1_21  and  O1_22 
REMARK   11  A    between atoms: O1_22  and  C7_32 
REMARK   12  A    between atoms: C2_23  and  O2_24 
REMARK   13  A    between atoms: C3_25  and  O3_26 
REMARK   14  A    between atoms: C4_27  and  O4_28 
REMARK   15  A    between atoms: C5_29  and  C6_31 
ROOT
ATOM      1  C1  GNX d   1     -12.742  -5.458  -3.738  0.00  0.00     0.155 C 
ATOM      2  C2  GNX d   1     -13.963  -6.293  -4.152  0.00  0.00     0.098 C 
ATOM      3  C3  GNX d   1     -13.760  -6.893  -5.547  0.00  0.00     0.111 C 
ATOM      4  C4  GNX d   1     -13.358  -5.798  -6.541  0.00  0.00     0.091 C 
ATOM      5  C5  GNX d   1     -12.205  -4.958  -6.001  0.00  0.00     0.089 C 
ATOM      6  O5  GNX d   1     -12.548  -4.430  -4.720  0.00  0.00    -0.349 OA
ATOM      7  H   GNX d   1     -12.939  -4.997  -2.759  0.00  0.00     0.132 H 
ATOM      8  H   GNX d   1     -14.859  -5.655  -4.155  0.00  0.00     0.085 H 
ATOM      9  H   GNX d   1     -12.968  -7.655  -5.504  0.00  0.00     0.093 H 
ATOM     10  H   GNX d   1     -14.225  -5.143  -6.715  0.00  0.00     0.091 H 
ATOM     11  H   GNX d   1     -11.322  -5.606  -5.896  0.00  0.00     0.090 H 
ENDROOT
BRANCH   1  12
ATOM     12  O4  IDY d   1     -11.561  -6.256  -3.640  0.00  0.00    -0.348 OA
BRANCH  12  13
ATOM     13  C4  IDY d   1     -10.621  -5.790  -2.659  0.00  0.00     0.103 C 
ATOM     14  C3  IDY d   1     -10.859  -6.573  -1.370  0.00  0.00     0.094 C 
ATOM     15  C2  IDY d   1     -10.319  -7.998  -1.442  0.00  0.00     0.134 C 
ATOM     16  H   GNX d   1     -11.944  -6.623  -1.198  0.00  0.00     0.091 H 
ATOM     17  C1  IDY d   1      -8.915  -8.089  -2.031  0.00  0.00     0.160 C 
ATOM     18  H   GNX d   1     -10.293  -8.408  -0.422  0.00  0.00     0.097 H 
ATOM     19  O5  IDY d   1      -8.867  -7.367  -3.260  0.00  0.00    -0.340 OA
ATOM     20  H   GNX d   1      -8.694  -9.146  -2.239  0.00  0.00     0.133 H 
ATOM     21  C5  IDY d   1      -9.189  -5.983  -3.152  0.00  0.00     0.152 C 
ATOM     22  H   GNX d   1      -8.497  -5.485  -2.457  0.00  0.00     0.104 H 
ATOM     23  H   GNX d   1     -10.790  -4.719  -2.471  0.00  0.00     0.092 H 
BRANCH  14  24
ATOM     24  O3  IDY d   1     -10.247  -5.901  -0.260  0.00  0.00    -0.390 OA
ATOM     25  H   GNX d   1     -10.454  -6.365   0.543  0.00  0.00     0.210 HD
ENDBRANCH  14  24
BRANCH  15  26
ATOM     26  O2  IDY d   1     -11.200  -8.788  -2.247  0.00  0.00    -0.244 OA
BRANCH  26  27
ATOM     27  S   IDY d   1     -11.480 -10.256  -1.897  0.00  0.00     0.252 S 
ATOM     28  OS1 IDY d   1     -12.332 -10.762  -2.976  0.00  0.00    -0.572 OA
ATOM     29  OS2 IDY d   1     -12.122 -10.294  -0.569  0.00  0.00    -0.572 OA
ATOM     30  OS3 IDY d   1     -10.194 -10.972  -1.857  0.00  0.00    -0.572 OA
ENDBRANCH  26  27
ENDBRANCH  15  26
BRANCH  17  31
ATOM     31  O1  IDY d   1      -7.938  -7.604  -1.116  0.00  0.00    -0.363 OA
BRANCH  31  32
ATOM     32  C7  IDY d   1      -6.541  -7.728  -1.477  0.00  0.00     0.007 C 
ATOM     33  H   GNX d   1      -5.916  -7.311  -0.673  0.00  0.00     0.066 H 
ATOM     34  H   GNX d   1      -6.353  -7.178  -2.411  0.00  0.00     0.066 H 
ATOM     35  H   GNX d   1      -6.292  -8.790  -1.621  0.00  0.00     0.066 H 
ENDBRANCH  31  32
ENDBRANCH  17  31
BRANCH  21  36
ATOM     36  C6  IDY d   1      -9.025  -5.428  -4.536  0.00  0.00     0.206 C 
ATOM     37  O61 IDY d   1      -9.005  -4.185  -4.668  0.00  0.00    -0.646 OA
ATOM     38  O62 IDY d   1      -8.908  -6.231  -5.493  0.00  0.00    -0.646 OA
ENDBRANCH  21  36
ENDBRANCH  12  13
ENDBRANCH   1  12
BRANCH   2  39
ATOM     39  N   GNX d   1     -14.133  -7.392  -3.183  0.00  0.00    -0.289 N 
ATOM     40  H   GNX d   1     -13.625  -8.244  -3.313  0.00  0.00     0.175 HD
BRANCH  39  41
ATOM     41  S1  GNX d   1     -15.080  -7.252  -1.973  0.00  0.00     0.205 S 
ATOM     42  O1S GNX d   1     -16.417  -6.901  -2.479  0.00  0.00    -0.578 OA
ATOM     43  O2S GNX d   1     -15.082  -8.546  -1.265  0.00  0.00    -0.578 OA
ATOM     44  O3S GNX d   1     -14.576  -6.206  -1.068  0.00  0.00    -0.578 OA
ENDBRANCH  39  41
ENDBRANCH   2  39
BRANCH   3  45
ATOM     45  O3  GNX d   1     -14.984  -7.498  -5.986  0.00  0.00    -0.246 OA
BRANCH  45  46
ATOM     46  S12 GNX d   1     -15.051  -8.961  -6.438  0.00  0.00     0.252 S 
ATOM     47  O12 GNX d   1     -16.490  -9.293  -6.439  0.00  0.00    -0.572 OA
ATOM     48  O22 GNX d   1     -14.467  -9.048  -7.787  0.00  0.00    -0.572 OA
ATOM     49  O32 GNX d   1     -14.302  -9.778  -5.476  0.00  0.00    -0.572 OA
ENDBRANCH  45  46
ENDBRANCH   3  45
BRANCH   5  50
ATOM     50  C6  GNX d   1     -11.852  -3.802  -6.937  0.00  0.00     0.043 C 
ATOM     51  H   GNX d   1     -11.659  -4.190  -7.948  0.00  0.00     0.078 H 
ATOM     52  H   GNX d   1     -10.955  -3.286  -6.565  0.00  0.00     0.078 H 
BRANCH  50  53
ATOM     53  O6  GNX d   1     -12.951  -2.888  -6.975  0.00  0.00    -0.398 OA
ATOM     54  H   GNX d   1     -13.116  -2.556  -6.100  0.00  0.00     0.209 HD
ENDBRANCH  50  53
ENDBRANCH   5  50
BRANCH   4  55
ATOM     55  O4  GNX d   1     -12.960  -6.395  -7.784  0.00  0.00    -0.390 OA
ATOM     56  H   GNX d   1     -13.685  -6.894  -8.141  0.00  0.00     0.210 HD
ENDBRANCH   4  55
TORSDOF 15
