REMARK  15 active torsions:
REMARK  status: ('A' for Active; 'I' for Inactive)
REMARK    1  A    between atoms: O4_28  and  C1_1 
REMARK    2  A    between atoms: C2_2  and  N_7 
REMARK    3  A    between atoms: C3_3  and  O3_8 
REMARK    4  A    between atoms: C4_4  and  O4_9 
REMARK    5  A    between atoms: C5_5  and  C6_6 
REMARK    6  A    between atoms: C6_6  and  O6_11 
REMARK    7  A    between atoms: N_7  and  S1_12 
REMARK    8  A    between atoms: O6_11  and  S2_16 
REMARK    9  A    between atoms: O2_24  and  S_20 
REMARK   10  A    between atoms: C1_21  and  O1_22 
REMARK   11  A    between atoms: O1_22  and  C7_32 
REMARK   12  A    between atoms: C2_23  and  O2_24 
REMARK   13  A    between atoms: C3_25  and  O3_26 
REMARK   14  A    between atoms: C4_27  and  O4_28 
REMARK   15  A    between atoms: C5_29  and  C6_31 
ROOT
ATOM      1  C1  SGN d   1      13.938 -19.375  21.526  0.00  0.00     0.155 C 
ATOM      2  C2  SGN d   1      14.571 -19.583  20.149  0.00  0.00     0.097 C 
ATOM      3  C3  SGN d   1      14.517 -21.057  19.759  0.00  0.00     0.087 C 
ATOM      4  C4  SGN d   1      15.165 -21.886  20.856  0.00  0.00     0.089 C 
ATOM      5  C5  SGN d   1      14.474 -21.580  22.178  0.00  0.00     0.090 C 
ATOM      6  O5  SGN d   1      14.582 -20.202  22.483  0.00  0.00    -0.349 OA
ATOM      7  H   SGN d   1      13.982 -18.321  21.837  0.00  0.00     0.132 H 
ATOM      8  H   SGN d   1      15.626 -19.274  20.198  0.00  0.00     0.085 H 
ATOM      9  H   SGN d   1      13.469 -21.369  19.637  0.00  0.00     0.090 H 
ATOM     10  H   SGN d   1      16.227 -21.610  20.934  0.00  0.00     0.091 H 
ATOM     11  H   SGN d   1      13.413 -21.861  22.108  0.00  0.00     0.090 H 
ENDROOT
BRANCH   1  12
ATOM     12  O4  IDY d   1      12.585 -19.820  21.344  0.00  0.00    -0.348 OA
BRANCH  12  13
ATOM     13  C4  IDY d   1      11.729 -19.008  22.172  0.00  0.00     0.103 C 
ATOM     14  C3  IDY d   1      11.125 -17.863  21.355  0.00  0.00     0.094 C 
ATOM     15  C2  IDY d   1      10.103 -18.328  20.327  0.00  0.00     0.134 C 
ATOM     16  H   SGN d   1      11.942 -17.342  20.835  0.00  0.00     0.091 H 
ATOM     17  C1  IDY d   1       9.146 -19.436  20.790  0.00  0.00     0.160 C 
ATOM     18  H   SGN d   1       9.503 -17.453  20.035  0.00  0.00     0.097 H 
ATOM     19  O5  IDY d   1       9.772 -20.354  21.699  0.00  0.00    -0.340 OA
ATOM     20  H   SGN d   1       8.945 -20.038  19.891  0.00  0.00     0.133 H 
ATOM     21  C5  IDY d   1      10.581 -19.813  22.745  0.00  0.00     0.152 C 
ATOM     22  H   SGN d   1       9.974 -19.155  23.385  0.00  0.00     0.104 H 
ATOM     23  H   SGN d   1      12.328 -18.594  22.997  0.00  0.00     0.092 H 
BRANCH  14  24
ATOM     24  O3  IDY d   1      10.447 -16.950  22.221  0.00  0.00    -0.390 OA
ATOM     25  H   SGN d   1      10.120 -16.217  21.713  0.00  0.00     0.210 HD
ENDBRANCH  14  24
BRANCH  15  26
ATOM     26  O2  IDY d   1      10.775 -18.844  19.189  0.00  0.00    -0.244 OA
BRANCH  26  27
ATOM     27  S   IDY d   1      10.231 -18.464  17.799  0.00  0.00     0.252 S 
ATOM     28  OS1 IDY d   1      11.064 -19.149  16.798  0.00  0.00    -0.572 OA
ATOM     29  OS2 IDY d   1      10.317 -17.000  17.681  0.00  0.00    -0.572 OA
ATOM     30  OS3 IDY d   1       8.823 -18.909  17.674  0.00  0.00    -0.572 OA
ENDBRANCH  26  27
ENDBRANCH  15  26
BRANCH  17  31
ATOM     31  O1  IDY d   1       7.854 -18.920  21.170  0.00  0.00    -0.363 OA
BRANCH  31  32
ATOM     32  C7  IDY d   1       7.455 -18.852  22.538  0.00  0.00     0.007 C 
ATOM     33  H   SGN d   1       6.441 -18.430  22.604  0.00  0.00     0.066 H 
ATOM     34  H   SGN d   1       8.156 -18.211  23.093  0.00  0.00     0.066 H 
ATOM     35  H   SGN d   1       7.460 -19.863  22.972  0.00  0.00     0.066 H 
ENDBRANCH  31  32
ENDBRANCH  17  31
BRANCH  21  36
ATOM     36  C6  IDY d   1      11.061 -20.986  23.543  0.00  0.00     0.206 C 
ATOM     37  O61 IDY d   1      11.850 -20.787  24.473  0.00  0.00    -0.646 OA
ATOM     38  O62 IDY d   1      10.622 -22.110  23.226  0.00  0.00    -0.646 OA
ENDBRANCH  21  36
ENDBRANCH  12  13
ENDBRANCH   1  12
BRANCH   2  39
ATOM     39  N   SGN d   1      13.895 -18.762  19.154  0.00  0.00    -0.289 N 
ATOM     40  H   SGN d   1      13.140 -19.130  18.611  0.00  0.00     0.175 HD
BRANCH  39  41
ATOM     41  S1  SGN d   1      14.395 -17.251  18.952  0.00  0.00     0.205 S 
ATOM     42  O1S SGN d   1      13.650 -16.686  17.860  0.00  0.00    -0.578 OA
ATOM     43  O2S SGN d   1      15.821 -17.352  18.660  0.00  0.00    -0.578 OA
ATOM     44  O3S SGN d   1      14.152 -16.545  20.198  0.00  0.00    -0.578 OA
ENDBRANCH  39  41
ENDBRANCH   2  39
BRANCH   3  45
ATOM     45  O3  SGN d   1      15.202 -21.233  18.542  0.00  0.00    -0.391 OA
ATOM     46  H   SGN d   1      14.786 -20.709  17.867  0.00  0.00     0.210 HD
ENDBRANCH   3  45
BRANCH   5  47
ATOM     47  C6  SGN d   1      15.143 -22.366  23.295  0.00  0.00     0.067 C 
ATOM     48  H   SGN d   1      15.076 -23.446  23.100  0.00  0.00     0.080 H 
ATOM     49  H   SGN d   1      14.672 -22.138  24.262  0.00  0.00     0.080 H 
BRANCH  47  50
ATOM     50  O6  SGN d   1      16.488 -21.946  23.290  0.00  0.00    -0.254 OA
BRANCH  50  51
ATOM     51  S2  SGN d   1      17.449 -22.474  24.387  0.00  0.00     0.251 S 
ATOM     52  O4S SGN d   1      18.670 -21.684  24.318  0.00  0.00    -0.572 OA
ATOM     53  O5S SGN d   1      17.718 -23.851  23.985  0.00  0.00    -0.572 OA
ATOM     54  O6S SGN d   1      16.737 -22.313  25.654  0.00  0.00    -0.572 OA
ENDBRANCH  50  51
ENDBRANCH  47  50
ENDBRANCH   5  47
BRANCH   4  55
ATOM     55  O4  SGN d   1      15.075 -23.271  20.555  0.00  0.00    -0.390 OA
ATOM     56  H   SGN d   1      15.511 -23.443  19.729  0.00  0.00     0.210 HD
ENDBRANCH   4  55
TORSDOF 15
