REMARK  16 active torsions:
REMARK  status: ('A' for Active; 'I' for Inactive)
REMARK    1  A    between atoms: N_1  and  S1_3 
REMARK    2  A    between atoms: C2_4  and  N_1 
REMARK    3  A    between atoms: O4_32  and  C1_2 
REMARK    4  A    between atoms: O6_14  and  S2_5 
REMARK    5  A    between atoms: C3_6  and  O3_7 
REMARK    6  A    between atoms: O3_7  and  S3_8 
REMARK    7  A    between atoms: C4_9  and  O4_10 
REMARK    8  A    between atoms: C5_11  and  C6_13 
REMARK    9  A    between atoms: C6_13  and  O6_14 
REMARK   10  A    between atoms: O2_28  and  S_24 
REMARK   11  A    between atoms: C1_25  and  O1_26 
REMARK   12  A    between atoms: O1_26  and  C7_36 
REMARK   13  A    between atoms: C2_27  and  O2_28 
REMARK   14  A    between atoms: C3_29  and  O3_30 
REMARK   15  A    between atoms: C4_31  and  O4_32 
REMARK   16  A    between atoms: C5_33  and  C6_35 
ROOT
ATOM      1  C1  SUS d   1      13.405 -19.316  22.242  0.00  0.00     0.155 C 
ATOM      2  C2  SUS d   1      14.201 -19.565  20.956  0.00  0.00     0.098 C 
ATOM      3  C3  SUS d   1      14.258 -21.071  20.651  0.00  0.00     0.111 C 
ATOM      4  C4  SUS d   1      14.738 -21.822  21.890  0.00  0.00     0.091 C 
ATOM      5  C5  SUS d   1      13.889 -21.478  23.104  0.00  0.00     0.090 C 
ATOM      6  O5  SUS d   1      13.959 -20.070  23.333  0.00  0.00    -0.349 OA
ATOM      7  H   SUS d   1      13.461 -18.241  22.470  0.00  0.00     0.132 H 
ATOM      8  H   SUS d   1      15.227 -19.185  21.073  0.00  0.00     0.085 H 
ATOM      9  H   SUS d   1      13.257 -21.427  20.365  0.00  0.00     0.093 H 
ATOM     10  H   SUS d   1      15.776 -21.521  22.094  0.00  0.00     0.091 H 
ATOM     11  H   SUS d   1      12.846 -21.780  22.928  0.00  0.00     0.090 H 
ENDROOT
BRANCH   1  12
ATOM     12  O4  IDY d   1      12.028 -19.701  22.170  0.00  0.00    -0.348 OA
BRANCH  12  13
ATOM     13  C4  IDY d   1      11.111 -18.914  22.940  0.00  0.00     0.103 C 
ATOM     14  C3  IDY d   1      10.575 -17.771  22.083  0.00  0.00     0.094 C 
ATOM     15  C2  IDY d   1       9.574 -18.228  21.020  0.00  0.00     0.134 C 
ATOM     16  H   SUS d   1      11.423 -17.289  21.575  0.00  0.00     0.091 H 
ATOM     17  C1  IDY d   1       8.591 -19.287  21.527  0.00  0.00     0.160 C 
ATOM     18  H   SUS d   1       8.988 -17.347  20.720  0.00  0.00     0.097 H 
ATOM     19  O5  IDY d   1       9.259 -20.297  22.298  0.00  0.00    -0.340 OA
ATOM     20  H   SUS d   1       8.120 -19.772  20.659  0.00  0.00     0.133 H 
ATOM     21  C5  IDY d   1       9.961 -19.784  23.428  0.00  0.00     0.152 C 
ATOM     22  H   SUS d   1       9.278 -19.186  24.049  0.00  0.00     0.104 H 
ATOM     23  H   SUS d   1      11.638 -18.495  23.810  0.00  0.00     0.092 H 
BRANCH  14  24
ATOM     24  O3  IDY d   1       9.938 -16.824  22.943  0.00  0.00    -0.390 OA
ATOM     25  H   SUS d   1       9.649 -16.077  22.431  0.00  0.00     0.210 HD
ENDBRANCH  14  24
BRANCH  15  26
ATOM     26  O2  IDY d   1      10.257 -18.726  19.863  0.00  0.00    -0.244 OA
BRANCH  26  27
ATOM     27  S   IDY d   1       9.761 -18.340  18.461  0.00  0.00     0.252 S 
ATOM     28  OS1 IDY d   1      10.627 -19.050  17.499  0.00  0.00    -0.572 OA
ATOM     29  OS2 IDY d   1       9.862 -16.876  18.362  0.00  0.00    -0.572 OA
ATOM     30  OS3 IDY d   1       8.360 -18.817  18.345  0.00  0.00    -0.572 OA
ENDBRANCH  26  27
ENDBRANCH  15  26
BRANCH  17  31
ATOM     31  O1  IDY d   1       7.578 -18.647  22.299  0.00  0.00    -0.363 OA
BRANCH  31  32
ATOM     32  C7  IDY d   1       6.414 -19.464  22.424  0.00  0.00     0.007 C 
ATOM     33  H   SUS d   1       5.658 -18.936  23.024  0.00  0.00     0.066 H 
ATOM     34  H   SUS d   1       6.681 -20.409  22.919  0.00  0.00     0.066 H 
ATOM     35  H   SUS d   1       6.006 -19.676  21.425  0.00  0.00     0.066 H 
ENDBRANCH  31  32
ENDBRANCH  17  31
BRANCH  21  36
ATOM     36  C6  IDY d   1      10.512 -20.919  24.233  0.00  0.00     0.206 C 
ATOM     37  O61 IDY d   1      10.089 -22.071  24.004  0.00  0.00    -0.646 OA
ATOM     38  O62 IDY d   1      11.376 -20.665  25.097  0.00  0.00    -0.646 OA
ENDBRANCH  21  36
ENDBRANCH  12  13
ENDBRANCH   1  12
BRANCH   2  39
ATOM     39  N   SUS d   1      13.520 -18.825  19.874  0.00  0.00    -0.289 N 
ATOM     40  H   SUS d   1      12.797 -19.256  19.334  0.00  0.00     0.175 HD
BRANCH  39  41
ATOM     41  S1  SUS d   1      13.955 -17.365  19.597  0.00  0.00     0.205 S 
ATOM     42  O1S SUS d   1      13.617 -16.524  20.756  0.00  0.00    -0.578 OA
ATOM     43  O2S SUS d   1      15.413 -17.390  19.370  0.00  0.00    -0.578 OA
ATOM     44  O3S SUS d   1      13.223 -16.899  18.397  0.00  0.00    -0.578 OA
ENDBRANCH  39  41
ENDBRANCH   2  39
BRANCH   3  45
ATOM     45  O3  SUS d   1      15.177 -21.313  19.587  0.00  0.00    -0.246 OA
BRANCH  45  46
ATOM     46  S3  SUS d   1      14.842 -22.257  18.425  0.00  0.00     0.252 S 
ATOM     47  O7S SUS d   1      15.641 -23.491  18.599  0.00  0.00    -0.572 OA
ATOM     48  O8S SUS d   1      13.398 -22.556  18.469  0.00  0.00    -0.572 OA
ATOM     49  O9S SUS d   1      15.173 -21.622  17.133  0.00  0.00    -0.572 OA
ENDBRANCH  45  46
ENDBRANCH   3  45
BRANCH   5  50
ATOM     50  C6  SUS d   1      14.436 -22.193  24.330  0.00  0.00     0.067 C 
ATOM     51  H   SUS d   1      14.475 -23.278  24.154  0.00  0.00     0.080 H 
ATOM     52  H   SUS d   1      13.804 -21.987  25.206  0.00  0.00     0.080 H 
BRANCH  50  53
ATOM     53  O6  SUS d   1      15.746 -21.678  24.534  0.00  0.00    -0.254 OA
BRANCH  53  54
ATOM     54  S2  SUS d   1      16.750 -22.450  25.392  0.00  0.00     0.251 S 
ATOM     55  O4S SUS d   1      16.904 -23.798  24.794  0.00  0.00    -0.572 OA
ATOM     56  O5S SUS d   1      18.042 -21.740  25.400  0.00  0.00    -0.572 OA
ATOM     57  O6S SUS d   1      16.200 -22.542  26.759  0.00  0.00    -0.572 OA
ENDBRANCH  53  54
ENDBRANCH  50  53
ENDBRANCH   5  50
BRANCH   4  58
ATOM     58  O4  SUS d   1      14.708 -23.237  21.668  0.00  0.00    -0.390 OA
ATOM     59  H   SUS d   1      15.276 -23.454  20.938  0.00  0.00     0.210 HD
ENDBRANCH   4  58
TORSDOF 16
