REMARK  11 active torsions:
REMARK  status: ('A' for Active; 'I' for Inactive)
REMARK    1  A    between atoms: CAK_11  and  CAA_1 
REMARK    2  A    between atoms: CAL_12  and  CAB_2 
REMARK    3  A    between atoms: NBB_28  and  CAC_3 
REMARK    4  A    between atoms: CBA_27  and  OAD_4 
REMARK    5  A    between atoms: CAM_13  and  CAK_11 
REMARK    6  A    between atoms: CAW_23  and  CAL_12 
REMARK    7  A    between atoms: OAT_20  and  CAM_13 
REMARK    8  A    between atoms: CAV_22  and  OAT_20 
REMARK    9  A    between atoms: SBD_30  and  CAU_21 
REMARK   10  A    between atoms: CAY_25  and  CAZ_26 
REMARK   11  A    between atoms: NBC_29  and  SBD_30 
ROOT
ATOM      1  CAH 5IO d   1     -28.732  14.866 -22.648  0.00  0.00    -0.058 A 
ATOM      2  CAI 5IO d   1     -27.658  15.562 -22.050  0.00  0.00    -0.048 A 
ATOM      3  CAJ 5IO d   1     -29.972  14.978 -20.621  0.00  0.00    -0.044 A 
ATOM      4  CAU 5IO d   1     -29.930  14.568 -21.901  0.00  0.00     0.080 A 
ATOM      5  CAV 5IO d   1     -27.728  15.982 -20.721  0.00  0.00     0.083 A 
ATOM      6  CAY 5IO d   1     -28.859  15.668 -19.960  0.00  0.00     0.047 A 
ATOM      7  H11 5IO d   1     -28.655  14.551 -23.683  0.00  0.00     0.086 H 
ATOM      8  H12 5IO d   1     -26.768  15.773 -22.631  0.00  0.00     0.087 H 
ATOM      9  H13 5IO d   1     -30.873  14.789 -20.049  0.00  0.00     0.087 H 
ENDROOT
BRANCH   4  10
ATOM     10  SBD 5IO d   1     -31.290  13.658 -22.656  0.00  0.00     0.261 S 
ATOM     11  OAE 5IO d   1     -31.024  13.531 -24.091  0.00  0.00    -0.200 OA
ATOM     12  OAF 5IO d   1     -32.638  14.354 -22.465  0.00  0.00    -0.200 OA
BRANCH  10  13
ATOM     13  NBC 5IO d   1     -31.403  12.183 -21.866  0.00  0.00    -0.304 N 
ATOM     14  CAP 5IO d   1     -30.080  11.525 -22.367  0.00  0.00     0.028 C 
ATOM     15  CAN 5IO d   1     -29.944  10.003 -22.151  0.00  0.00     0.098 C 
ATOM     16  H24 5IO d   1     -29.999  11.718 -23.447  0.00  0.00     0.067 H 
ATOM     17  H25 5IO d   1     -29.245  12.013 -21.843  0.00  0.00     0.067 H 
ATOM     18  NBB 5IO d   1     -30.270   9.668 -20.882  0.00  0.00    -0.072 N 
ATOM     19  H20 5IO d   1     -28.904   9.702 -22.348  0.00  0.00     0.078 H 
ATOM     20  H21 5IO d   1     -30.616   9.478 -22.846  0.00  0.00     0.078 H 
ATOM     21  CAO 5IO d   1     -31.503  10.115 -20.525  0.00  0.00     0.098 C 
ATOM     22  H28 5IO d   1     -30.401   8.676 -21.001  0.00  0.00     0.279 HD
ATOM     23  CAQ 5IO d   1     -31.628  11.606 -20.565  0.00  0.00     0.028 C 
ATOM     24  H22 5IO d   1     -32.243   9.684 -21.215  0.00  0.00     0.078 H 
ATOM     25  H23 5IO d   1     -31.714   9.774 -19.501  0.00  0.00     0.078 H 
ATOM     26  H26 5IO d   1     -30.893  12.033 -19.867  0.00  0.00     0.067 H 
ATOM     27  H27 5IO d   1     -32.643  11.876 -20.239  0.00  0.00     0.067 H 
BRANCH  18  28
ATOM     28  CAC 5IO d   1     -29.472   9.680 -19.734  0.00  0.00     0.066 C 
ATOM     29  H7  5IO d   1     -28.462   9.323 -19.985  0.00  0.00     0.068 H 
ATOM     30  H8  5IO d   1     -29.915   9.021 -18.973  0.00  0.00     0.068 H 
ATOM     31  H9  5IO d   1     -29.411  10.705 -19.341  0.00  0.00     0.068 H 
ENDBRANCH  18  28
ENDBRANCH  10  13
ENDBRANCH   4  10
BRANCH   6  32
ATOM     32  CAZ 5IO d   1     -29.169  16.093 -18.537  0.00  0.00     0.165 A 
ATOM     33  NAR 5IO d   1     -29.781  15.291 -17.735  0.00  0.00    -0.232 NA
ATOM     34  CAW 5IO d   1     -30.150  15.686 -16.478  0.00  0.00     0.057 A 
ATOM     35  CAX 5IO d   1     -29.911  16.995 -15.964  0.00  0.00     0.083 A 
ATOM     36  IAG 5IO d   1     -30.549  17.617 -14.015  0.00  0.00    -0.038 I 
ATOM     37  CBA 5IO d   1     -29.276  17.821 -16.885  0.00  0.00     0.183 A 
ATOM     38  NAS 5IO d   1     -28.942  17.364 -18.126  0.00  0.00    -0.203 NA
BRANCH  34  39
ATOM     39  CAL 5IO d   1     -30.820  14.610 -15.637  0.00  0.00    -0.027 C 
ATOM     40  H16 5IO d   1     -31.325  15.093 -14.787  0.00  0.00     0.041 H 
ATOM     41  H17 5IO d   1     -31.564  14.092 -16.259  0.00  0.00     0.041 H 
BRANCH  39  42
ATOM     42  CAB 5IO d   1     -29.835  13.576 -15.094  0.00  0.00    -0.071 C 
ATOM     43  H4  5IO d   1     -30.379  12.829 -14.497  0.00  0.00     0.028 H 
ATOM     44  H5  5IO d   1     -29.088  14.078 -14.461  0.00  0.00     0.028 H 
ATOM     45  H6  5IO d   1     -29.328  13.076 -15.933  0.00  0.00     0.028 H 
ENDBRANCH  39  42
ENDBRANCH  34  39
BRANCH  37  46
ATOM     46  OAD 5IO d   1     -28.930  19.168 -16.634  0.00  0.00    -0.344 OA
ATOM     47  H10 5IO d   1     -27.990  19.274 -16.721  0.00  0.00     0.219 HD
ENDBRANCH  37  46
ENDBRANCH   6  32
BRANCH   5  48
ATOM     48  OAT 5IO d   1     -26.655  16.666 -20.168  0.00  0.00    -0.350 OA
BRANCH  48  49
ATOM     49  CAM 5IO d   1     -25.503  16.987 -20.928  0.00  0.00     0.026 C 
ATOM     50  H18 5IO d   1     -24.969  16.055 -21.164  0.00  0.00     0.075 H 
ATOM     51  H19 5IO d   1     -25.825  17.472 -21.862  0.00  0.00     0.075 H 
BRANCH  49  52
ATOM     52  CAK 5IO d   1     -24.555  17.912 -20.211  0.00  0.00    -0.048 C 
ATOM     53  H14 5IO d   1     -23.857  17.299 -19.622  0.00  0.00     0.035 H 
ATOM     54  H15 5IO d   1     -23.995  18.483 -20.966  0.00  0.00     0.035 H 
BRANCH  52  55
ATOM     55  CAA 5IO d   1     -25.218  18.887 -19.284  0.00  0.00    -0.075 C 
ATOM     56  H1  5IO d   1     -24.453  19.518 -18.807  0.00  0.00     0.027 H 
ATOM     57  H2  5IO d   1     -25.774  18.337 -18.510  0.00  0.00     0.027 H 
ATOM     58  H3  5IO d   1     -25.913  19.521 -19.854  0.00  0.00     0.027 H 
ENDBRANCH  52  55
ENDBRANCH  49  52
ENDBRANCH  48  49
ENDBRANCH   5  48
TORSDOF 11
