REMARK  11 active torsions:
REMARK  status: ('A' for Active; 'I' for Inactive)
REMARK    1  A    between atoms: CAK_11  and  CAA_1 
REMARK    2  A    between atoms: CAL_12  and  CAB_2 
REMARK    3  A    between atoms: NBA_27  and  CAC_3 
REMARK    4  A    between atoms: CAZ_26  and  OAD_4 
REMARK    5  A    between atoms: CAM_13  and  CAK_11 
REMARK    6  A    between atoms: CAU_21  and  CAL_12 
REMARK    7  A    between atoms: OAT_20  and  CAM_13 
REMARK    8  A    between atoms: CAW_23  and  OAT_20 
REMARK    9  A    between atoms: SBC_29  and  CAV_22 
REMARK   10  A    between atoms: CAX_24  and  CAY_25 
REMARK   11  A    between atoms: NBB_28  and  SBC_29 
ROOT
ATOM      1  CAG 5EO d   1      27.682 -18.111  22.842  0.00  0.00    -0.058 A 
ATOM      2  CAH 5EO d   1      27.651 -16.781  22.326  0.00  0.00    -0.048 A 
ATOM      3  CAI 5EO d   1      28.309 -18.949  20.699  0.00  0.00    -0.044 A 
ATOM      4  CAV 5EO d   1      28.019 -19.159  22.027  0.00  0.00     0.080 A 
ATOM      5  CAW 5EO d   1      27.957 -16.567  20.964  0.00  0.00     0.083 A 
ATOM      6  CAX 5EO d   1      28.262 -17.602  20.175  0.00  0.00     0.047 A 
ATOM      7  H11 5EO d   1      27.438 -18.293  23.883  0.00  0.00     0.086 H 
ATOM      8  H12 5EO d   1      27.396 -15.947  22.970  0.00  0.00     0.087 H 
ATOM      9  H13 5EO d   1      28.569 -19.781  20.055  0.00  0.00     0.087 H 
ENDROOT
BRANCH   4  10
ATOM     10  SBC 5EO d   1      28.047 -20.843  22.684  0.00  0.00     0.261 S 
ATOM     11  OAE 5EO d   1      28.089 -20.755  24.191  0.00  0.00    -0.200 OA
ATOM     12  OAF 5EO d   1      29.182 -21.649  22.183  0.00  0.00    -0.200 OA
BRANCH  10  13
ATOM     13  NBB 5EO d   1      26.618 -21.497  22.131  0.00  0.00    -0.304 N 
ATOM     14  CAP 5EO d   1      25.363 -20.823  22.326  0.00  0.00     0.028 C 
ATOM     15  CAN 5EO d   1      24.191 -21.718  22.101  0.00  0.00     0.098 C 
ATOM     16  H25 5EO d   1      25.323 -20.443  23.358  0.00  0.00     0.067 H 
ATOM     17  H26 5EO d   1      25.303 -19.980  21.622  0.00  0.00     0.067 H 
ATOM     18  NBA 5EO d   1      24.266 -22.375  20.829  0.00  0.00    -0.072 N 
ATOM     19  H21 5EO d   1      23.270 -21.117  22.139  0.00  0.00     0.078 H 
ATOM     20  H22 5EO d   1      24.165 -22.479  22.895  0.00  0.00     0.078 H 
ATOM     21  CAO 5EO d   1      25.533 -22.994  20.534  0.00  0.00     0.098 C 
ATOM     22  H29 5EO d   1      23.753 -23.205  21.083  0.00  0.00     0.279 HD
ATOM     23  CAQ 5EO d   1      26.704 -22.111  20.836  0.00  0.00     0.028 C 
ATOM     24  H23 5EO d   1      25.622 -23.911  21.134  0.00  0.00     0.078 H 
ATOM     25  H24 5EO d   1      25.556 -23.252  19.465  0.00  0.00     0.078 H 
ATOM     26  H27 5EO d   1      26.753 -21.319  20.074  0.00  0.00     0.067 H 
ATOM     27  H28 5EO d   1      27.621 -22.717  20.794  0.00  0.00     0.067 H 
BRANCH  18  28
ATOM     28  CAC 5EO d   1      23.464 -22.007  19.744  0.00  0.00     0.066 C 
ATOM     29  H7  5EO d   1      22.534 -21.550  20.114  0.00  0.00     0.068 H 
ATOM     30  H8  5EO d   1      23.222 -22.899  19.148  0.00  0.00     0.068 H 
ATOM     31  H9  5EO d   1      24.005 -21.282  19.117  0.00  0.00     0.068 H 
ENDBRANCH  18  28
ENDBRANCH  10  13
ENDBRANCH   4  10
BRANCH   6  32
ATOM     32  CAY 5EO d   1      28.638 -17.400  18.681  0.00  0.00     0.165 A 
ATOM     33  NAR 5EO d   1      28.072 -18.166  17.751  0.00  0.00    -0.233 NA
ATOM     34  CAU 5EO d   1      28.414 -18.027  16.467  0.00  0.00     0.041 A 
ATOM     35  CAJ 5EO d   1      29.370 -17.078  16.116  0.00  0.00    -0.008 A 
ATOM     36  CAZ 5EO d   1      29.950 -16.298  17.114  0.00  0.00     0.166 A 
ATOM     37  H14 5EO d   1      29.659 -16.948  15.079  0.00  0.00     0.093 H 
ATOM     38  NAS 5EO d   1      29.565 -16.496  18.381  0.00  0.00    -0.204 NA
BRANCH  34  39
ATOM     39  CAL 5EO d   1      27.725 -18.911  15.393  0.00  0.00    -0.028 C 
ATOM     40  H17 5EO d   1      28.331 -18.880  14.475  0.00  0.00     0.041 H 
ATOM     41  H18 5EO d   1      27.680 -19.944  15.768  0.00  0.00     0.041 H 
BRANCH  39  42
ATOM     42  CAB 5EO d   1      26.338 -18.468  15.060  0.00  0.00    -0.071 C 
ATOM     43  H4  5EO d   1      25.913 -19.136  14.296  0.00  0.00     0.028 H 
ATOM     44  H5  5EO d   1      26.365 -17.439  14.673  0.00  0.00     0.028 H 
ATOM     45  H6  5EO d   1      25.715 -18.503  15.966  0.00  0.00     0.028 H 
ENDBRANCH  39  42
ENDBRANCH  34  39
BRANCH  36  46
ATOM     46  OAD 5EO d   1      30.885 -15.364  16.822  0.00  0.00    -0.345 OA
ATOM     47  H10 5EO d   1      31.039 -15.354  15.885  0.00  0.00     0.219 HD
ENDBRANCH  36  46
ENDBRANCH   6  32
BRANCH   5  48
ATOM     48  OAT 5EO d   1      27.934 -15.231  20.397  0.00  0.00    -0.350 OA
BRANCH  48  49
ATOM     49  CAM 5EO d   1      27.817 -14.118  21.215  0.00  0.00     0.026 C 
ATOM     50  H19 5EO d   1      26.864 -14.197  21.759  0.00  0.00     0.075 H 
ATOM     51  H20 5EO d   1      28.651 -14.137  21.932  0.00  0.00     0.075 H 
BRANCH  49  52
ATOM     52  CAK 5EO d   1      27.840 -12.805  20.523  0.00  0.00    -0.048 C 
ATOM     53  H15 5EO d   1      26.891 -12.696  19.977  0.00  0.00     0.035 H 
ATOM     54  H16 5EO d   1      27.914 -12.021  21.291  0.00  0.00     0.035 H 
BRANCH  52  55
ATOM     55  CAA 5EO d   1      28.958 -12.595  19.545  0.00  0.00    -0.075 C 
ATOM     56  H1  5EO d   1      28.871 -11.594  19.098  0.00  0.00     0.027 H 
ATOM     57  H2  5EO d   1      28.900 -13.356  18.753  0.00  0.00     0.027 H 
ATOM     58  H3  5EO d   1      29.923 -12.681  20.067  0.00  0.00     0.027 H 
ENDBRANCH  52  55
ENDBRANCH  49  52
ENDBRANCH  48  49
ENDBRANCH   5  48
TORSDOF 11
