REMARK WARNING: 32 MAX_TORS EXCEEDED!!!
REMARK  62 active torsions:
REMARK  status: ('A' for Active; 'I' for Inactive)
REMARK    1  A    between atoms: C_1  and  CH3_3 
REMARK       I    between atoms: C_1  and  N_4 
REMARK    2  A    between atoms: N_4  and  CA_5 
REMARK    3  A    between atoms: CA_5  and  C_6 
REMARK    4  A    between atoms: CA_5  and  CB_8 
REMARK       I    between atoms: C_6  and  N_11 
REMARK    5  A    between atoms: CB_8  and  OG1_9 
REMARK    6  A    between atoms: CB_8  and  CG2_10 
REMARK    7  A    between atoms: N_11  and  CA_12 
REMARK    8  A    between atoms: CA_12  and  C_13 
REMARK    9  A    between atoms: CA_12  and  CB_15 
REMARK       I    between atoms: C_13  and  N_19 
REMARK   10  A    between atoms: CB_15  and  CG1_16 
REMARK   11  A    between atoms: CB_15  and  CG2_17 
REMARK   12  A    between atoms: CG1_16  and  CD1_18 
REMARK   13  A    between atoms: N_19  and  CA_20 
REMARK   14  A    between atoms: CA_20  and  C_21 
REMARK   15  A    between atoms: CA_20  and  CB_23 
REMARK       I    between atoms: C_21  and  N_27 
REMARK   16  A    between atoms: CB_23  and  CG_24 
REMARK   17  A    between atoms: N_27  and  CA_28 
REMARK   18  A    between atoms: CA_28  and  C_29 
REMARK   19  A    between atoms: CA_28  and  CB_31 
REMARK       I    between atoms: C_29  and  N_39 
REMARK   20  A    between atoms: CB_31  and  CG_32 
REMARK   21  A    between atoms: N_39  and  CA_40 
REMARK   22  A    between atoms: CA_40  and  C_41 
REMARK   23  A    between atoms: CA_40  and  CB_43 
REMARK       I    between atoms: C_41  and  N_47 
REMARK   24  A    between atoms: CB_43  and  CG_44 
REMARK   25  A    between atoms: N_47  and  CA_48 
REMARK   26  A    between atoms: CA_48  and  C_49 
REMARK   27  A    between atoms: CA_48  and  CB_51 
REMARK       I    between atoms: C_49  and  N_56 
REMARK   28  A    between atoms: CB_51  and  CG_52 
REMARK   29  A    between atoms: CG_52  and  CD_53 
REMARK   30  A    between atoms: N_56  and  CA_57 
REMARK   31  A    between atoms: CA_57  and  C_58 
REMARK   32  A    between atoms: CA_57  and  CB_60 
REMARK       I    between atoms: C_58  and  N_68 
REMARK   33  A    between atoms: CB_60  and  CG_61 
REMARK   34  A    between atoms: CZ_66  and  OH_67 
REMARK   35  A    between atoms: N_68  and  CA_69 
REMARK   36  A    between atoms: CA_69  and  C_70 
REMARK   37  A    between atoms: CA_69  and  CB_72 
REMARK       I    between atoms: C_70  and  N_79 
REMARK   38  A    between atoms: CB_72  and  CG_73 
REMARK   39  A    between atoms: CG_73  and  CD_74 
REMARK   40  A    between atoms: CD_74  and  NE_75 
REMARK       I    between atoms: NE_75  and  CZ_76 
REMARK       I    between atoms: CZ_76  and  NH1_77 
REMARK       I    between atoms: CZ_76  and  NH2_78 
REMARK   41  A    between atoms: N_79  and  CA_80 
REMARK   42  A    between atoms: CA_80  and  C_81 
REMARK   43  A    between atoms: CA_80  and  CB_83 
REMARK       I    between atoms: C_81  and  N_91 
REMARK   44  A    between atoms: CB_83  and  CG_84 
REMARK   45  A    between atoms: N_91  and  CA_92 
REMARK   46  A    between atoms: CA_92  and  C_93 
REMARK   47  A    between atoms: CA_92  and  CB_95 
REMARK       I    between atoms: C_93  and  N_102 
REMARK   48  A    between atoms: CB_95  and  CG_96 
REMARK   49  A    between atoms: CG_96  and  CD_97 
REMARK   50  A    between atoms: CD_97  and  NE_98 
REMARK       I    between atoms: NE_98  and  CZ_99 
REMARK       I    between atoms: CZ_99  and  NH1_100 
REMARK   51  A    between atoms: N_102  and  CA_103 
REMARK   52  A    between atoms: CA_103  and  C_104 
REMARK   53  A    between atoms: CA_103  and  CB_106 
REMARK       I    between atoms: C_104  and  N_111 
REMARK   54  A    between atoms: CB_106  and  CG_107 
REMARK   55  A    between atoms: CG_107  and  CD_108 
REMARK   56  A    between atoms: CD_108  and  CE_109 
REMARK   57  A    between atoms: CE_109  and  NZ_110 
REMARK   58  A    between atoms: N_111  and  CA_112 
REMARK   59  A    between atoms: CA_112  and  C_113 
REMARK   60  A    between atoms: CA_112  and  CB_115 
REMARK       I    between atoms: C_113  and  N_118 
REMARK   61  A    between atoms: CB_115  and  OG1_116 
REMARK   62  A    between atoms: CB_115  and  CG2_117 
ROOT
ATOM      1  CA  TYR d   1     -10.191  27.017   6.077  0.00  0.00     0.093 C 
ATOM      2  H45 TYR d   1      -9.230  27.525   6.242  0.00  0.00     0.088 H 
ENDROOT
BRANCH   1   3
ATOM      3  N   TYR d   1     -10.403  26.888   4.643  0.00  0.00    -0.346 N 
ATOM      4  C   GLU d   1      -9.391  26.661   3.816  0.00  0.00     0.241 C 
ATOM      5  O   GLU d   1      -8.227  26.549   4.196  0.00  0.00    -0.271 OA
ATOM      6  H44 TYR d   1     -11.329  26.972   4.274  0.00  0.00     0.163 HD
BRANCH   4   7
ATOM      7  CA  GLU d   1      -9.736  26.540   2.345  0.00  0.00     0.090 C 
ATOM      8  H39 GLU d   1     -10.680  27.072   2.157  0.00  0.00     0.087 H 
BRANCH   7   9
ATOM      9  N   GLU d   1      -8.692  27.149   1.536  0.00  0.00    -0.346 N 
ATOM     10  C   ASP d   1      -8.407  28.444   1.621  0.00  0.00     0.241 C 
ATOM     11  O   ASP d   1      -9.028  29.224   2.343  0.00  0.00    -0.271 OA
ATOM     12  H38 GLU d   1      -8.175  26.578   0.899  0.00  0.00     0.163 HD
BRANCH  10  13
ATOM     13  CA  ASP d   1      -7.250  28.930   0.758  0.00  0.00     0.098 C 
ATOM     14  H35 ASP d   1      -6.323  28.474   1.135  0.00  0.00     0.088 H 
BRANCH  13  15
ATOM     15  N   ASP d   1      -7.427  28.524  -0.630  0.00  0.00    -0.345 N 
ATOM     16  C   PFF d   1      -6.941  27.374  -1.081  0.00  0.00     0.241 C 
ATOM     17  O   PFF d   1      -6.348  26.584  -0.344  0.00  0.00    -0.271 OA
ATOM     18  H34 ASP d   1      -7.925  29.124  -1.256  0.00  0.00     0.163 HD
BRANCH  16  19
ATOM     19  CA  PFF d   1      -7.180  27.133  -2.564  0.00  0.00     0.093 C 
ATOM     20  H27 PFF d   1      -7.318  26.053  -2.721  0.00  0.00     0.088 H 
BRANCH  19  21
ATOM     21  N   PFF d   1      -8.358  27.796  -3.066  0.00  0.00    -0.346 N 
ATOM     22  C   ASP d   1      -9.276  27.141  -3.768  0.00  0.00     0.241 C 
ATOM     23  O   ASP d   1      -9.208  25.935  -4.004  0.00  0.00    -0.271 OA
ATOM     24  H26 PFF d   1      -8.487  28.770  -2.882  0.00  0.00     0.163 HD
BRANCH  22  25
ATOM     25  CA  ASP d   1     -10.449  27.966  -4.268  0.00  0.00     0.098 C 
ATOM     26  H23 ASP d   1     -10.105  29.002  -4.404  0.00  0.00     0.088 H 
BRANCH  25  27
ATOM     27  N   ASP d   1     -10.946  27.482  -5.550  0.00  0.00    -0.345 N 
ATOM     28  C   ILE d   1     -10.456  27.934  -6.699  0.00  0.00     0.241 C 
ATOM     29  O   ILE d   1      -9.529  28.738  -6.757  0.00  0.00    -0.271 OA
ATOM     30  H22 ASP d   1     -11.672  26.794  -5.565  0.00  0.00     0.163 HD
BRANCH  28  31
ATOM     31  CA  ILE d   1     -11.110  27.410  -7.971  0.00  0.00     0.092 C 
ATOM     32  H12 ILE d   1     -12.200  27.385  -7.821  0.00  0.00     0.088 H 
BRANCH  31  33
ATOM     33  N   ILE d   1     -10.822  28.298  -9.082  0.00  0.00    -0.346 N 
ATOM     34  C   THR d   1     -11.792  28.966  -9.691  0.00  0.00     0.243 C 
ATOM     35  O   THR d   1     -12.973  28.874  -9.357  0.00  0.00    -0.271 OA
ATOM     36  H11 ILE d   1      -9.878  28.408  -9.393  0.00  0.00     0.163 HD
BRANCH  34  37
ATOM     37  CA  THR d   1     -11.360  29.871 -10.844  0.00  0.00     0.113 C 
ATOM     38  H5  THR d   1     -10.270  30.004 -10.783  0.00  0.00     0.091 H 
BRANCH  37  39
ATOM     39  N   THR d   1     -11.660  29.284 -12.152  0.00  0.00    -0.346 N 
ATOM     40  C   ACE d   1     -12.817  28.734 -12.532  0.00  0.00     0.214 C 
ATOM     41  O   ACE d   1     -13.817  28.649 -11.822  0.00  0.00    -0.274 OA
ATOM     42  H4  THR d   1     -10.924  29.296 -12.829  0.00  0.00     0.163 HD
BRANCH  40  43
ATOM     43  CH3 ACE d   1     -12.825  28.208 -13.937  0.00  0.00    -0.003 C 
ATOM     44  H1  ACE d   1     -11.841  28.380 -14.398  0.00  0.00     0.040 H 
ATOM     45  H2  ACE d   1     -13.599  28.729 -14.519  0.00  0.00     0.040 H 
ATOM     46  H3  ACE d   1     -13.040  27.129 -13.924  0.00  0.00     0.040 H 
ENDBRANCH  40  43
ENDBRANCH  37  39
BRANCH  37  47
ATOM     47  CB  THR d   1     -12.022  31.253 -10.675  0.00  0.00     0.060 C 
ATOM     48  H6  THR d   1     -13.111  31.147 -10.787  0.00  0.00     0.086 H 
BRANCH  47  49
ATOM     49  OG1 THR d   1     -11.524  32.148 -11.678  0.00  0.00    -0.393 OA
ATOM     50  H7  THR d   1     -11.933  32.999 -11.573  0.00  0.00     0.210 HD
ENDBRANCH  47  49
BRANCH  47  51
ATOM     51  CG2 THR d   1     -11.713  31.827  -9.298  0.00  0.00    -0.050 C 
ATOM     52  H8  THR d   1     -12.193  32.812  -9.195  0.00  0.00     0.031 H 
ATOM     53  H9  THR d   1     -10.625  31.935  -9.182  0.00  0.00     0.031 H 
ATOM     54  H10 THR d   1     -12.099  31.149  -8.523  0.00  0.00     0.031 H 
ENDBRANCH  47  51
ENDBRANCH  37  47
ENDBRANCH  34  37
ENDBRANCH  31  33
BRANCH  31  55
ATOM     55  CB  ILE d   1     -10.629  25.983  -8.257  0.00  0.00    -0.030 C 
ATOM     56  H13 ILE d   1     -11.047  25.317  -7.488  0.00  0.00     0.043 H 
BRANCH  55  57
ATOM     57  CG1 ILE d   1      -9.113  25.905  -8.183  0.00  0.00    -0.063 C 
ATOM     58  H14 ILE d   1      -8.780  26.402  -7.260  0.00  0.00     0.033 H 
ATOM     59  H15 ILE d   1      -8.691  26.428  -9.054  0.00  0.00     0.033 H 
BRANCH  57  60
ATOM     60  CD1 ILE d   1      -8.606  24.500  -8.178  0.00  0.00    -0.076 C 
ATOM     61  H19 ILE d   1      -7.507  24.507  -8.123  0.00  0.00     0.027 H 
ATOM     62  H20 ILE d   1      -8.924  23.992  -9.100  0.00  0.00     0.027 H 
ATOM     63  H21 ILE d   1      -9.013  23.966  -7.306  0.00  0.00     0.027 H 
ENDBRANCH  57  60
ENDBRANCH  55  57
BRANCH  55  64
ATOM     64  CG2 ILE d   1     -11.125  25.513  -9.616  0.00  0.00    -0.071 C 
ATOM     65  H16 ILE d   1     -12.223  25.578  -9.648  0.00  0.00     0.028 H 
ATOM     66  H17 ILE d   1     -10.814  24.471  -9.779  0.00  0.00     0.028 H 
ATOM     67  H18 ILE d   1     -10.697  26.151 -10.403  0.00  0.00     0.028 H 
ENDBRANCH  55  64
ENDBRANCH  31  55
ENDBRANCH  28  31
ENDBRANCH  25  27
BRANCH  25  68
ATOM     68  CB  ASP d   1     -11.569  27.961  -3.232  0.00  0.00     0.043 C 
ATOM     69  H24 ASP d   1     -11.173  28.347  -2.281  0.00  0.00     0.052 H 
ATOM     70  H25 ASP d   1     -11.917  26.927  -3.092  0.00  0.00     0.052 H 
BRANCH  68  71
ATOM     71  CG  ASP d   1     -12.741  28.815  -3.652  0.00  0.00     0.175 C 
ATOM     72  OD1 ASP d   1     -12.514  29.794  -4.398  0.00  0.00    -0.648 OA
ATOM     73  OD2 ASP d   1     -13.884  28.508  -3.244  0.00  0.00    -0.648 OA
ENDBRANCH  68  71
ENDBRANCH  25  68
ENDBRANCH  22  25
ENDBRANCH  19  21
BRANCH  19  74
ATOM     74  CB  PFF d   1      -5.907  27.578  -3.308  0.00  0.00    -0.014 C 
ATOM     75  H28 PFF d   1      -5.027  27.359  -2.686  0.00  0.00     0.043 H 
ATOM     76  H29 PFF d   1      -5.959  28.659  -3.503  0.00  0.00     0.043 H 
BRANCH  74  77
ATOM     77  CG  PFF d   1      -5.789  26.853  -4.596  0.00  0.00    -0.056 A 
ATOM     78  CD1 PFF d   1      -5.278  25.553  -4.619  0.00  0.00    -0.074 A 
ATOM     79  CE1 PFF d   1      -5.168  24.856  -5.816  0.00  0.00    -0.045 A 
ATOM     80  H30 PFF d   1      -4.964  25.083  -3.694  0.00  0.00     0.084 H 
ATOM     81  CZ  PFF d   1      -5.575  25.470  -7.012  0.00  0.00     0.116 A 
ATOM     82  H32 PFF d   1      -4.771  23.847  -5.827  0.00  0.00     0.088 H 
ATOM     83  CE2 PFF d   1      -6.087  26.778  -6.992  0.00  0.00    -0.045 A 
ATOM     84  F   PFF d   1      -5.472  24.799  -8.184  0.00  0.00    -0.206 F 
ATOM     85  CD2 PFF d   1      -6.194  27.459  -5.790  0.00  0.00    -0.074 A 
ATOM     86  H33 PFF d   1      -6.398  27.254  -7.915  0.00  0.00     0.088 H 
ATOM     87  H31 PFF d   1      -6.594  28.466  -5.775  0.00  0.00     0.084 H 
ENDBRANCH  74  77
ENDBRANCH  19  74
ENDBRANCH  16  19
ENDBRANCH  13  15
BRANCH  13  88
ATOM     88  CB  ASP d   1      -7.114  30.451   0.855  0.00  0.00     0.043 C 
ATOM     89  H36 ASP d   1      -7.009  30.729   1.914  0.00  0.00     0.052 H 
ATOM     90  H37 ASP d   1      -8.023  30.913   0.443  0.00  0.00     0.052 H 
BRANCH  88  91
ATOM     91  CG  ASP d   1      -5.913  30.978   0.093  0.00  0.00     0.175 C 
ATOM     92  OD1 ASP d   1      -4.792  30.475   0.324  0.00  0.00    -0.648 OA
ATOM     93  OD2 ASP d   1      -6.092  31.887  -0.746  0.00  0.00    -0.648 OA
ENDBRANCH  88  91
ENDBRANCH  13  88
ENDBRANCH  10  13
ENDBRANCH   7   9
BRANCH   7  94
ATOM     94  CB  GLU d   1      -9.922  25.071   1.977  0.00  0.00    -0.029 C 
ATOM     95  H40 GLU d   1     -10.810  24.695   2.507  0.00  0.00     0.037 H 
ATOM     96  H41 GLU d   1      -9.033  24.518   2.314  0.00  0.00     0.037 H 
BRANCH  94  97
ATOM     97  CG  GLU d   1     -10.108  24.807   0.502  0.00  0.00     0.018 C 
ATOM     98  H42 GLU d   1      -9.322  25.336  -0.056  0.00  0.00     0.049 H 
ATOM     99  H43 GLU d   1     -11.094  25.185   0.194  0.00  0.00     0.049 H 
BRANCH  97 100
ATOM    100  CD  GLU d   1     -10.028  23.333   0.181  0.00  0.00     0.172 C 
ATOM    101  OE1 GLU d   1     -10.764  22.543   0.812  0.00  0.00    -0.648 OA
ATOM    102  OE2 GLU d   1      -9.217  22.963  -0.692  0.00  0.00    -0.648 OA
ENDBRANCH  97 100
ENDBRANCH  94  97
ENDBRANCH   7  94
ENDBRANCH   4   7
ENDBRANCH   1   3
BRANCH   1 103
ATOM    103  C   TYR d   1     -10.126  25.642   6.727  0.00  0.00     0.241 C 
ATOM    104  O   TYR d   1     -10.852  24.728   6.338  0.00  0.00    -0.271 OA
ATOM    105  N   ARG d   1      -9.241  25.502   7.709  0.00  0.00    -0.346 N 
ATOM    106  H53 ARG d   1      -8.675  26.285   7.967  0.00  0.00     0.163 HD
BRANCH 105 107
ATOM    107  CA  ARG d   1      -9.071  24.241   8.421  0.00  0.00     0.089 C 
ATOM    108  H54 ARG d   1      -9.654  23.468   7.899  0.00  0.00     0.087 H 
BRANCH 107 109
ATOM    109  C   ARG d   1      -9.597  24.353   9.849  0.00  0.00     0.241 C 
ATOM    110  O   ARG d   1      -9.189  25.232  10.607  0.00  0.00    -0.271 OA
ATOM    111  N   PFF d   1     -10.511  23.457  10.204  0.00  0.00    -0.346 N 
ATOM    112  H66 PFF d   1     -10.752  22.729   9.562  0.00  0.00     0.163 HD
BRANCH 111 113
ATOM    113  CA  PFF d   1     -11.166  23.503  11.490  0.00  0.00     0.093 C 
ATOM    114  H67 PFF d   1     -11.198  24.555  11.811  0.00  0.00     0.088 H 
BRANCH 113 115
ATOM    115  C   PFF d   1     -10.407  22.716  12.548  0.00  0.00     0.241 C 
ATOM    116  O   PFF d   1     -10.585  21.519  12.771  0.00  0.00    -0.271 OA
ATOM    117  N   ARG d   1      -9.514  23.427  13.226  0.00  0.00    -0.346 N 
ATOM    118  H74 ARG d   1      -9.428  24.407  13.045  0.00  0.00     0.163 HD
BRANCH 117 119
ATOM    119  CA  ARG d   1      -8.656  22.808  14.228  0.00  0.00     0.089 C 
ATOM    120  H75 ARG d   1      -8.720  21.717  14.101  0.00  0.00     0.087 H 
BRANCH 119 121
ATOM    121  C   ARG d   1      -9.081  23.149  15.654  0.00  0.00     0.241 C 
ATOM    122  O   ARG d   1      -8.263  23.623  16.447  0.00  0.00    -0.271 OA
ATOM    123  N   LYS d   1     -10.349  22.898  15.974  0.00  0.00    -0.346 N 
ATOM    124  H87 LYS d   1     -10.940  22.467  15.292  0.00  0.00     0.163 HD
BRANCH 123 125
ATOM    125  CA  LYS d   1     -10.911  23.228  17.285  0.00  0.00     0.089 C 
ATOM    126  H88 LYS d   1     -11.984  22.987  17.264  0.00  0.00     0.087 H 
BRANCH 125 127
ATOM    127  C   LYS d   1     -10.762  24.711  17.599  0.00  0.00     0.241 C 
ATOM    128  O   LYS d   1     -11.577  25.526  17.168  0.00  0.00    -0.271 OA
ATOM    129  N   THR d   1      -9.709  25.044  18.343  0.00  0.00    -0.344 N 
ATOM    130 0H10 THR d   1      -9.070  24.322  18.609  0.00  0.00     0.163 HD
BRANCH 129 131
ATOM    131  CA  THR d   1      -9.437  26.412  18.793  0.00  0.00     0.113 C 
ATOM    132 1H10 THR d   1      -8.674  26.351  19.583  0.00  0.00     0.091 H 
BRANCH 131 133
ATOM    133  C   THR d   1     -10.674  27.092  19.387  0.00  0.00     0.240 C 
ATOM    134  O   THR d   1     -10.902  28.283  19.175  0.00  0.00    -0.271 OA
ATOM    135  N   NH2 d   1     -11.464  26.329  20.138  0.00  0.00    -0.368 N 
ATOM    136 7H10 NH2 d   1     -12.287  26.717  20.553  0.00  0.00     0.159 HD
ATOM    137 8H10 NH2 d   1     -11.235  25.367  20.288  0.00  0.00     0.159 HD
ENDBRANCH 131 133
BRANCH 131 138
ATOM    138  CB  THR d   1      -8.870  27.293  17.646  0.00  0.00     0.060 C 
ATOM    139 2H10 THR d   1      -8.669  28.300  18.041  0.00  0.00     0.086 H 
BRANCH 138 140
ATOM    140  OG1 THR d   1      -9.825  27.393  16.582  0.00  0.00    -0.393 OA
ATOM    141 3H10 THR d   1     -10.014  26.525  16.245  0.00  0.00     0.210 HD
ENDBRANCH 138 140
BRANCH 138 142
ATOM    142  CG2 THR d   1      -7.568  26.707  17.109  0.00  0.00    -0.050 C 
ATOM    143 4H10 THR d   1      -7.185  27.346  16.299  0.00  0.00     0.031 H 
ATOM    144 5H10 THR d   1      -7.754  25.695  16.721  0.00  0.00     0.031 H 
ATOM    145 6H10 THR d   1      -6.826  26.658  17.920  0.00  0.00     0.031 H 
ENDBRANCH 138 142
ENDBRANCH 131 138
ENDBRANCH 129 131
ENDBRANCH 125 127
BRANCH 125 146
ATOM    146  CB  LYS d   1     -10.255  22.399  18.392  0.00  0.00    -0.038 C 
ATOM    147  H89 LYS d   1     -10.503  22.860  19.359  0.00  0.00     0.036 H 
ATOM    148  H90 LYS d   1      -9.166  22.425  18.241  0.00  0.00     0.036 H 
BRANCH 146 149
ATOM    149  CG  LYS d   1     -10.692  20.948  18.434  0.00  0.00    -0.061 C 
ATOM    150  H91 LYS d   1     -10.079  20.409  19.171  0.00  0.00     0.033 H 
ATOM    151  H92 LYS d   1     -10.548  20.500  17.440  0.00  0.00     0.033 H 
BRANCH 149 152
ATOM    152  CD  LYS d   1     -12.147  20.832  18.822  0.00  0.00    -0.043 C 
ATOM    153  H93 LYS d   1     -12.750  21.445  18.137  0.00  0.00     0.035 H 
ATOM    154  H94 LYS d   1     -12.274  21.200  19.851  0.00  0.00     0.035 H 
BRANCH 152 155
ATOM    155  CE  LYS d   1     -12.625  19.395  18.749  0.00  0.00     0.080 C 
ATOM    156  H95 LYS d   1     -12.159  18.818  19.561  0.00  0.00     0.075 H 
ATOM    157  H96 LYS d   1     -12.331  18.966  17.780  0.00  0.00     0.075 H 
BRANCH 155 158
ATOM    158  NZ  LYS d   1     -14.106  19.321  18.886  0.00  0.00    -0.079 N 
ATOM    159  H97 LYS d   1     -14.400  18.358  18.835  0.00  0.00     0.274 HD
ATOM    160  H98 LYS d   1     -14.539  19.845  18.142  0.00  0.00     0.274 HD
ATOM    161  H99 LYS d   1     -14.381  19.709  19.774  0.00  0.00     0.274 HD
ENDBRANCH 155 158
ENDBRANCH 152 155
ENDBRANCH 149 152
ENDBRANCH 146 149
ENDBRANCH 125 146
ENDBRANCH 123 125
ENDBRANCH 119 121
BRANCH 119 162
ATOM    162  CB  ARG d   1      -7.205  23.238  14.029  0.00  0.00    -0.036 C 
ATOM    163  H76 ARG d   1      -6.585  22.680  14.746  0.00  0.00     0.036 H 
ATOM    164  H77 ARG d   1      -7.138  24.314  14.247  0.00  0.00     0.036 H 
BRANCH 162 165
ATOM    165  CG  ARG d   1      -6.638  23.008  12.648  0.00  0.00    -0.048 C 
ATOM    166  H78 ARG d   1      -7.051  23.749  11.948  0.00  0.00     0.035 H 
ATOM    167  H79 ARG d   1      -6.896  21.995  12.304  0.00  0.00     0.035 H 
BRANCH 165 168
ATOM    168  CD  ARG d   1      -5.135  23.156  12.720  0.00  0.00     0.009 C 
ATOM    169  H80 ARG d   1      -4.708  22.205  13.072  0.00  0.00     0.064 H 
ATOM    170  H81 ARG d   1      -4.898  23.953  13.440  0.00  0.00     0.064 H 
BRANCH 168 171
ATOM    171  NE  ARG d   1      -4.520  23.491  11.444  0.00  0.00    -0.227 N 
ATOM    172  CZ  ARG d   1      -4.396  24.732  10.987  0.00  0.00     0.665 C 
ATOM    173  NH1 ARG d   1      -4.861  25.753  11.696  0.00  0.00    -0.235 N 
ATOM    174  NH2 ARG d   1      -3.812  24.952   9.820  0.00  0.00    -0.235 N 
ATOM    175  H83 ARG d   1      -4.764  26.714  11.339  0.00  0.00     0.174 HD
ATOM    176  H84 ARG d   1      -5.319  25.584  12.603  0.00  0.00     0.174 HD
ATOM    177  H85 ARG d   1      -3.450  24.161   9.268  0.00  0.00     0.174 HD
ATOM    178  H86 ARG d   1      -3.719  25.914   9.464  0.00  0.00     0.174 HD
ATOM    179  H82 ARG d   1      -4.160  22.721  10.862  0.00  0.00     0.177 HD
ENDBRANCH 168 171
ENDBRANCH 165 168
ENDBRANCH 162 165
ENDBRANCH 119 162
ENDBRANCH 117 119
ENDBRANCH 113 115
BRANCH 113 180
ATOM    180  CB  PFF d   1     -12.621  22.989  11.386  0.00  0.00    -0.014 C 
ATOM    181  H68 PFF d   1     -13.092  22.996  12.380  0.00  0.00     0.043 H 
ATOM    182  H69 PFF d   1     -12.628  21.965  10.984  0.00  0.00     0.043 H 
BRANCH 180 183
ATOM    183  CG  PFF d   1     -13.361  23.897  10.469  0.00  0.00    -0.056 A 
ATOM    184  CD1 PFF d   1     -13.983  25.040  10.979  0.00  0.00    -0.074 A 
ATOM    185  CE1 PFF d   1     -14.669  25.919  10.148  0.00  0.00    -0.045 A 
ATOM    186  H70 PFF d   1     -13.930  25.245  12.042  0.00  0.00     0.084 H 
ATOM    187  CZ  PFF d   1     -14.725  25.655   8.769  0.00  0.00     0.116 A 
ATOM    188  H72 PFF d   1     -15.154  26.797  10.559  0.00  0.00     0.088 H 
ATOM    189  CE2 PFF d   1     -14.098  24.509   8.242  0.00  0.00    -0.045 A 
ATOM    190  F   PFF d   1     -15.391  26.510   7.955  0.00  0.00    -0.206 F 
ATOM    191  CD2 PFF d   1     -13.420  23.642   9.093  0.00  0.00    -0.074 A 
ATOM    192  H73 PFF d   1     -14.143  24.304   7.179  0.00  0.00     0.088 H 
ATOM    193  H71 PFF d   1     -12.934  22.762   8.688  0.00  0.00     0.084 H 
ENDBRANCH 180 183
ENDBRANCH 113 180
ENDBRANCH 111 113
ENDBRANCH 107 109
BRANCH 107 194
ATOM    194  CB  ARG d   1      -7.598  23.819   8.416  0.00  0.00    -0.036 C 
ATOM    195  H55 ARG d   1      -7.457  23.042   9.182  0.00  0.00     0.036 H 
ATOM    196  H56 ARG d   1      -6.985  24.697   8.667  0.00  0.00     0.036 H 
BRANCH 194 197
ATOM    197  CG  ARG d   1      -7.122  23.267   7.078  0.00  0.00    -0.048 C 
ATOM    198  H57 ARG d   1      -7.569  23.862   6.268  0.00  0.00     0.035 H 
ATOM    199  H58 ARG d   1      -7.449  22.221   6.988  0.00  0.00     0.035 H 
BRANCH 197 200
ATOM    200  CD  ARG d   1      -5.608  23.322   6.951  0.00  0.00     0.009 C 
ATOM    201  H59 ARG d   1      -5.308  22.812   6.024  0.00  0.00     0.064 H 
ATOM    202  H60 ARG d   1      -5.158  22.809   7.814  0.00  0.00     0.064 H 
BRANCH 200 203
ATOM    203  NE  ARG d   1      -5.125  24.700   6.913  0.00  0.00    -0.227 N 
ATOM    204  CZ  ARG d   1      -3.842  25.047   6.858  0.00  0.00     0.665 C 
ATOM    205  NH1 ARG d   1      -2.901  24.111   6.845  0.00  0.00    -0.235 N 
ATOM    206  NH2 ARG d   1      -3.500  26.330   6.831  0.00  0.00    -0.235 N 
ATOM    207  H62 ARG d   1      -1.908  24.380   6.802  0.00  0.00     0.174 HD
ATOM    208  H63 ARG d   1      -3.164  23.116   6.878  0.00  0.00     0.174 HD
ATOM    209  H64 ARG d   1      -4.229  27.058   6.841  0.00  0.00     0.174 HD
ATOM    210  H65 ARG d   1      -2.506  26.597   6.800  0.00  0.00     0.174 HD
ATOM    211  H61 ARG d   1      -5.826  25.455   6.930  0.00  0.00     0.177 HD
ENDBRANCH 200 203
ENDBRANCH 197 200
ENDBRANCH 194 197
ENDBRANCH 107 194
ENDBRANCH 105 107
ENDBRANCH   1 103
BRANCH   1 212
ATOM    212  CB  TYR d   1     -11.298  27.862   6.711  0.00  0.00    -0.014 C 
ATOM    213  H46 TYR d   1     -12.257  27.344   6.562  0.00  0.00     0.043 H 
ATOM    214  H47 TYR d   1     -11.325  28.836   6.201  0.00  0.00     0.043 H 
BRANCH 212 215
ATOM    215  CG  TYR d   1     -11.115  28.106   8.191  0.00  0.00    -0.056 A 
ATOM    216  CD1 TYR d   1     -10.282  29.121   8.653  0.00  0.00    -0.074 A 
ATOM    217  CE1 TYR d   1     -10.111  29.348  10.014  0.00  0.00    -0.051 A 
ATOM    218  H48 TYR d   1      -9.757  29.745   7.939  0.00  0.00     0.084 H 
ATOM    219  CZ  TYR d   1     -10.781  28.555  10.924  0.00  0.00     0.065 A 
ATOM    220  H50 TYR d   1      -9.457  30.141  10.358  0.00  0.00     0.087 H 
ATOM    221  CE2 TYR d   1     -11.612  27.541  10.488  0.00  0.00    -0.051 A 
ATOM    222  CD2 TYR d   1     -11.775  27.323   9.129  0.00  0.00    -0.074 A 
ATOM    223  H51 TYR d   1     -12.134  26.919  11.206  0.00  0.00     0.087 H 
ATOM    224  H49 TYR d   1     -12.429  26.527   8.792  0.00  0.00     0.084 H 
BRANCH 219 225
ATOM    225  OH  TYR d   1     -10.621  28.768  12.273  0.00  0.00    -0.361 OA
ATOM    226  H52 TYR d   1     -10.024  29.494  12.409  0.00  0.00     0.217 HD
ENDBRANCH 219 225
ENDBRANCH 212 215
ENDBRANCH   1 212
TORSDOF 62
