REMARK  4 active torsions:
REMARK  status: ('A' for Active; 'I' for Inactive)
REMARK    1  A    between atoms: N_1  and  CA_2 
REMARK    2  A    between atoms: CA_2  and  C_3 
REMARK    3  A    between atoms: CA_2  and  CB_5 
REMARK    4  A    between atoms: CB_5  and  CG_6 
ROOT
ATOM      1  CB  HIS d   1      19.127  24.523  39.371  0.00  0.00     0.013 C 
ATOM      2  H   HIS d   1      19.762  23.983  40.089  0.00  0.00     0.046 H 
ATOM      3  H   HIS d   1      19.488  25.557  39.266  0.00  0.00     0.046 H 
ENDROOT
BRANCH   1   4
ATOM      4  CA  HIS d   1      17.701  24.566  39.928  0.00  0.00     0.187 C 
ATOM      5  H   HIS d   1      17.745  24.921  40.968  0.00  0.00     0.101 H 
BRANCH   4   6
ATOM      6  N   HIS d   1      17.110  23.230  39.929  0.00  0.00    -0.065 N 
ATOM      7  H   HIS d   1      17.691  22.606  40.467  0.00  0.00     0.275 HD
ATOM      8  H   HIS d   1      17.041  22.892  38.982  0.00  0.00     0.275 HD
ATOM      9  H   HIS d   1      16.190  23.270  40.339  0.00  0.00     0.275 HD
ENDBRANCH   4   6
BRANCH   4  10
ATOM     10  C   HIS d   1      16.857  25.550  39.125  0.00  0.00     0.204 C 
ATOM     11  O   HIS d   1      17.013  26.766  39.240  0.00  0.00    -0.646 OA
ATOM     12  OXT HIS d   1      15.989  25.147  38.351  0.00  0.00    -0.646 OA
ENDBRANCH   4  10
ENDBRANCH   1   4
BRANCH   1  13
ATOM     13  CG  HIS d   1      19.242  23.847  38.040  0.00  0.00     0.053 A 
ATOM     14  ND1 HIS d   1      18.225  23.091  37.493  0.00  0.00    -0.247 NA
ATOM     15  CE1 HIS d   1      18.608  22.621  36.322  0.00  0.00     0.064 A 
ATOM     16  NE2 HIS d   1      19.841  23.044  36.085  0.00  0.00    -0.359 N 
ATOM     17  H   HIS d   1      18.012  21.992  35.662  0.00  0.00     0.143 H 
ATOM     18  CD2 HIS d   1      20.257  23.810  37.144  0.00  0.00     0.002 A 
ATOM     19  H   HIS d   1      20.396  22.832  35.244  0.00  0.00     0.166 HD
ATOM     20  H   HIS d   1      21.225  24.298  37.246  0.00  0.00     0.114 H 
ENDBRANCH   1  13
TORSDOF 4
