REMARK  9 active torsions:
REMARK  status: ('A' for Active; 'I' for Inactive)
REMARK    1  A    between atoms: CAZ_8  and  OAX_9 
REMARK    2  A    between atoms: OAX_9  and  CAO_10 
REMARK    3  A    between atoms: CAO_10  and  CAN_11 
REMARK    4  A    between atoms: CAN_11  and  CAT_12 
REMARK    5  A    between atoms: CAT_12  and  NBD_13 
REMARK    6  A    between atoms: CBC_18  and  CBE_19 
REMARK    7  A    between atoms: CBE_19  and  CBB_20 
REMARK    8  A    between atoms: CBE_19  and  OAB_25 
REMARK    9  A    between atoms: CBE_19  and  CBA_26 
ROOT
ATOM      1  CAJ 2S7 d   1      -8.466  17.933 -13.037  0.00  0.00    -0.049 A 
ATOM      2  CAH 2S7 d   1      -7.919  19.138 -13.510  0.00  0.00    -0.060 A 
ATOM      3  CAY 2S7 d   1      -8.714  20.207 -13.853  0.00  0.00     0.044 A 
ATOM      4  CAC 2S7 d   1      -8.156  21.456 -14.411  0.00  0.00     0.099 C 
ATOM      5  NAA 2S7 d   1      -7.771  22.392 -14.826  0.00  0.00    -0.191 NA
ATOM      6  CAI 2S7 d   1     -10.072  20.163 -13.678  0.00  0.00    -0.060 A 
ATOM      7  CAK 2S7 d   1     -10.641  18.977 -13.199  0.00  0.00    -0.049 A 
ATOM      8  CAZ 2S7 d   1      -9.818  17.882 -12.870  0.00  0.00     0.068 A 
ATOM      9  H   2S7 d   1      -7.838  17.078 -12.814  0.00  0.00     0.087 H 
ATOM     10  H   2S7 d   1      -6.843  19.227 -13.607  0.00  0.00     0.086 H 
ATOM     11  H   2S7 d   1     -10.690  21.024 -13.905  0.00  0.00     0.086 H 
ATOM     12  H   2S7 d   1     -11.716  18.901 -13.081  0.00  0.00     0.087 H 
ENDROOT
BRANCH   8  13
ATOM     13  OAX 2S7 d   1     -10.427  16.736 -12.406  0.00  0.00    -0.351 OA
BRANCH  13  14
ATOM     14  CAO 2S7 d   1      -9.565  15.635 -12.114  0.00  0.00     0.028 C 
ATOM     15  H   2S7 d   1      -8.743  15.945 -11.453  0.00  0.00     0.075 H 
ATOM     16  H   2S7 d   1      -9.150  15.205 -13.038  0.00  0.00     0.075 H 
BRANCH  14  17
ATOM     17  CAN 2S7 d   1     -10.495  14.622 -11.402  0.00  0.00    -0.022 C 
ATOM     18  H   2S7 d   1     -11.111  15.143 -10.654  0.00  0.00     0.038 H 
ATOM     19  H   2S7 d   1      -9.893  13.847 -10.906  0.00  0.00     0.038 H 
BRANCH  17  20
ATOM     20  CAT 2S7 d   1     -11.382  13.991 -12.446  0.00  0.00     0.085 C 
ATOM     21  H   2S7 d   1     -10.767  13.408 -13.148  0.00  0.00     0.076 H 
ATOM     22  H   2S7 d   1     -11.920  14.777 -12.996  0.00  0.00     0.076 H 
BRANCH  20  23
ATOM     23  NBD 2S7 d   1     -12.381  13.074 -11.764  0.00  0.00    -0.071 N 
ATOM     24  CAV 2S7 d   1     -11.809  11.799 -11.193  0.00  0.00     0.084 C 
ATOM     25  CAS 2S7 d   1     -12.826  11.071 -10.343  0.00  0.00    -0.036 C 
ATOM     26  H   2S7 d   1     -10.934  12.045 -10.573  0.00  0.00     0.076 H 
ATOM     27  H   2S7 d   1     -11.499  11.144 -12.020  0.00  0.00     0.076 H 
ATOM     28  CBC 2S7 d   1     -13.886  10.539 -11.371  0.00  0.00    -0.015 C 
ATOM     29  H   2S7 d   1     -13.294  11.758  -9.622  0.00  0.00     0.036 H 
ATOM     30  H   2S7 d   1     -12.355  10.237  -9.802  0.00  0.00     0.036 H 
ATOM     31  CAR 2S7 d   1     -14.475  11.726 -12.168  0.00  0.00    -0.036 C 
ATOM     32  H   2S7 d   1     -13.361   9.880 -12.078  0.00  0.00     0.045 H 
ATOM     33  CAU 2S7 d   1     -13.377  12.681 -12.745  0.00  0.00     0.084 C 
ATOM     34  H   2S7 d   1     -15.067  11.327 -13.005  0.00  0.00     0.036 H 
ATOM     35  H   2S7 d   1     -15.129  12.306 -11.500  0.00  0.00     0.036 H 
ATOM     36  H   2S7 d   1     -12.867  12.166 -13.573  0.00  0.00     0.076 H 
ATOM     37  H   2S7 d   1     -13.869  13.588 -13.125  0.00  0.00     0.076 H 
ATOM     38  H   2S7 d   1     -12.820  13.589 -11.017  0.00  0.00     0.279 HD
BRANCH  28  39
ATOM     39  CBE 2S7 d   1     -15.032   9.690 -10.699  0.00  0.00     0.109 C 
BRANCH  39  40
ATOM     40  CBB 2S7 d   1     -16.090   9.217 -11.757  0.00  0.00    -0.018 C 
ATOM     41  CAP 2S7 d   1     -15.617   8.345 -12.916  0.00  0.00    -0.059 C 
ATOM     42  CAL 2S7 d   1     -16.890   7.984 -13.588  0.00  0.00    -0.065 C 
ATOM     43  H   2S7 d   1     -15.092   7.450 -12.551  0.00  0.00     0.033 H 
ATOM     44  H   2S7 d   1     -14.956   8.907 -13.592  0.00  0.00     0.033 H 
ATOM     45  CAM 2S7 d   1     -17.873   7.746 -12.401  0.00  0.00    -0.065 C 
ATOM     46  H   2S7 d   1     -16.772   7.071 -14.190  0.00  0.00     0.033 H 
ATOM     47  H   2S7 d   1     -17.241   8.804 -14.231  0.00  0.00     0.033 H 
ATOM     48  CAQ 2S7 d   1     -17.214   8.304 -11.184  0.00  0.00    -0.059 C 
ATOM     49  H   2S7 d   1     -18.059   6.670 -12.272  0.00  0.00     0.033 H 
ATOM     50  H   2S7 d   1     -18.826   8.263 -12.588  0.00  0.00     0.033 H 
ATOM     51  H   2S7 d   1     -17.927   8.889 -10.585  0.00  0.00     0.033 H 
ATOM     52  H   2S7 d   1     -16.789   7.500 -10.565  0.00  0.00     0.033 H 
ATOM     53  H   2S7 d   1     -16.537  10.135 -12.167  0.00  0.00     0.045 H 
ENDBRANCH  39  40
BRANCH  39  54
ATOM     54  OAB 2S7 d   1     -15.724  10.538  -9.792  0.00  0.00    -0.383 OA
ATOM     55  H   2S7 d   1     -16.087  11.277 -10.265  0.00  0.00     0.211 HD
ENDBRANCH  39  54
BRANCH  39  56
ATOM     56  CBA 2S7 d   1     -14.476   8.568  -9.953  0.00  0.00     0.069 A 
ATOM     57  NAW 2S7 d   1     -13.470   7.868 -10.527  0.00  0.00    -0.262 NA
ATOM     58  CAF 2S7 d   1     -12.932   6.762  -9.885  0.00  0.00     0.003 A 
ATOM     59  CAD 2S7 d   1     -13.367   6.394  -8.625  0.00  0.00    -0.066 A 
ATOM     60  H   2S7 d   1     -12.162   6.179 -10.377  0.00  0.00     0.114 H 
ATOM     61  CAE 2S7 d   1     -14.401   7.110  -8.015  0.00  0.00    -0.080 A 
ATOM     62  H   2S7 d   1     -12.909   5.555  -8.113  0.00  0.00     0.085 H 
ATOM     63  CAG 2S7 d   1     -14.928   8.224  -8.675  0.00  0.00    -0.056 A 
ATOM     64  H   2S7 d   1     -14.787   6.807  -7.048  0.00  0.00     0.083 H 
ATOM     65  H   2S7 d   1     -15.691   8.825  -8.194  0.00  0.00     0.086 H 
ENDBRANCH  39  56
ENDBRANCH  28  39
ENDBRANCH  20  23
ENDBRANCH  17  20
ENDBRANCH  14  17
ENDBRANCH  13  14
ENDBRANCH   8  13
TORSDOF 9
