REMARK  9 active torsions:
REMARK  status: ('A' for Active; 'I' for Inactive)
REMARK    1  A    between atoms: CBB_7  and  CBF_8 
REMARK    2  A    between atoms: CBF_8  and  CBC_9 
REMARK    3  A    between atoms: CBF_8  and  OAB_14 
REMARK    4  A    between atoms: CBF_8  and  CBD_15 
REMARK    5  A    between atoms: NBE_20  and  CAU_21 
REMARK    6  A    between atoms: CAU_21  and  CAO_22 
REMARK    7  A    between atoms: CAO_22  and  CAP_23 
REMARK    8  A    between atoms: CAP_23  and  OAX_24 
REMARK    9  A    between atoms: OAX_24  and  CBA_25 
ROOT
ATOM      1  CBA 2S9 d   1      -9.940  17.995 -12.914  0.00  0.00     0.068 A 
ATOM      2  CAJ 2S9 d   1     -10.723  19.078 -13.295  0.00  0.00    -0.049 A 
ATOM      3  CAG 2S9 d   1     -10.130  20.239 -13.772  0.00  0.00    -0.060 A 
ATOM      4  CAZ 2S9 d   1      -8.748  20.319 -13.871  0.00  0.00     0.044 A 
ATOM      5  CAD 2S9 d   1      -8.149  21.523 -14.365  0.00  0.00     0.099 C 
ATOM      6  NAA 2S9 d   1      -7.684  22.488 -14.761  0.00  0.00    -0.191 NA
ATOM      7  CAH 2S9 d   1      -7.960  19.236 -13.491  0.00  0.00    -0.060 A 
ATOM      8  CAK 2S9 d   1      -8.555  18.071 -13.012  0.00  0.00    -0.049 A 
ATOM      9  H   2S9 d   1     -11.803  19.016 -13.219  0.00  0.00     0.087 H 
ATOM     10  H   2S9 d   1     -10.745  21.081 -14.067  0.00  0.00     0.086 H 
ATOM     11  H   2S9 d   1      -6.881  19.299 -13.568  0.00  0.00     0.086 H 
ATOM     12  H   2S9 d   1      -7.941  17.228 -12.717  0.00  0.00     0.087 H 
ENDROOT
BRANCH   1  13
ATOM     13  OAX 2S9 d   1     -10.561  16.877 -12.453  0.00  0.00    -0.351 OA
BRANCH  13  14
ATOM     14  CAP 2S9 d   1      -9.695  15.833 -11.998  0.00  0.00     0.028 C 
ATOM     15  H   2S9 d   1      -9.190  15.371 -12.859  0.00  0.00     0.075 H 
ATOM     16  H   2S9 d   1      -8.943  16.250 -11.312  0.00  0.00     0.075 H 
BRANCH  14  17
ATOM     17  CAO 2S9 d   1     -10.533  14.773 -11.262  0.00  0.00    -0.022 C 
ATOM     18  H   2S9 d   1      -9.877  13.951 -10.939  0.00  0.00     0.038 H 
ATOM     19  H   2S9 d   1     -11.006  15.232 -10.381  0.00  0.00     0.038 H 
BRANCH  17  20
ATOM     20  CAU 2S9 d   1     -11.623  14.216 -12.190  0.00  0.00     0.085 C 
ATOM     21  H   2S9 d   1     -12.073  15.051 -12.746  0.00  0.00     0.076 H 
ATOM     22  H   2S9 d   1     -11.159  13.512 -12.897  0.00  0.00     0.076 H 
BRANCH  20  23
ATOM     23  NBE 2S9 d   1     -12.688  13.511 -11.449  0.00  0.00    -0.071 N 
ATOM     24  CAW 2S9 d   1     -13.626  12.907 -12.417  0.00  0.00     0.084 C 
ATOM     25  CAT 2S9 d   1     -14.717  12.053 -11.751  0.00  0.00    -0.036 C 
ATOM     26  H   2S9 d   1     -14.112  13.715 -12.984  0.00  0.00     0.076 H 
ATOM     27  H   2S9 d   1     -13.054  12.268 -13.106  0.00  0.00     0.076 H 
ATOM     28  CBD 2S9 d   1     -14.080  10.916 -10.953  0.00  0.00    -0.017 C 
ATOM     29  H   2S9 d   1     -15.311  12.685 -11.074  0.00  0.00     0.036 H 
ATOM     30  H   2S9 d   1     -15.372  11.630 -12.527  0.00  0.00     0.036 H 
ATOM     31  CAS 2S9 d   1     -13.160  11.565  -9.918  0.00  0.00    -0.036 C 
ATOM     32  H   2S9 d   1     -13.455  10.320 -11.634  0.00  0.00     0.045 H 
ATOM     33  CAV 2S9 d   1     -12.101  12.434 -10.624  0.00  0.00     0.084 C 
ATOM     34  H   2S9 d   1     -12.657  10.780  -9.335  0.00  0.00     0.036 H 
ATOM     35  H   2S9 d   1     -13.758  12.196  -9.244  0.00  0.00     0.036 H 
ATOM     36  H   2S9 d   1     -11.494  11.787 -11.274  0.00  0.00     0.076 H 
ATOM     37  H   2S9 d   1     -11.457  12.892  -9.858  0.00  0.00     0.076 H 
ATOM     38  H   2S9 d   1     -13.178  14.164 -10.857  0.00  0.00     0.279 HD
BRANCH  28  39
ATOM     39  CBF 2S9 d   1     -15.152   9.949 -10.355  0.00  0.00     0.092 C 
BRANCH  39  40
ATOM     40  CBB 2S9 d   1     -15.807   9.182 -11.359  0.00  0.00    -0.020 A 
ATOM     41  CAL 2S9 d   1     -17.183   8.929 -11.281  0.00  0.00    -0.037 A 
ATOM     42  CAY 2S9 d   1     -17.840   8.174 -12.263  0.00  0.00     0.117 A 
ATOM     43  H   2S9 d   1     -17.750   9.324 -10.446  0.00  0.00     0.089 H 
ATOM     44  FAC 2S9 d   1     -19.202   7.905 -12.215  0.00  0.00    -0.206 F 
ATOM     45  CAF 2S9 d   1     -17.136   7.661 -13.337  0.00  0.00    -0.046 A 
ATOM     46  CAE 2S9 d   1     -15.780   7.902 -13.428  0.00  0.00    -0.080 A 
ATOM     47  H   2S9 d   1     -17.642   7.077 -14.097  0.00  0.00     0.088 H 
ATOM     48  CAI 2S9 d   1     -15.116   8.655 -12.451  0.00  0.00    -0.074 A 
ATOM     49  H   2S9 d   1     -15.221   7.503 -14.267  0.00  0.00     0.083 H 
ATOM     50  H   2S9 d   1     -14.050   8.831 -12.544  0.00  0.00     0.084 H 
ENDBRANCH  39  40
BRANCH  39  51
ATOM     51  CBC 2S9 d   1     -14.451   9.020  -9.296  0.00  0.00    -0.020 C 
ATOM     52  CAQ 2S9 d   1     -13.400   7.981  -9.761  0.00  0.00    -0.059 C 
ATOM     53  CAM 2S9 d   1     -13.231   6.985  -8.562  0.00  0.00    -0.065 C 
ATOM     54  H   2S9 d   1     -12.444   8.476  -9.986  0.00  0.00     0.033 H 
ATOM     55  H   2S9 d   1     -13.756   7.448 -10.655  0.00  0.00     0.033 H 
ATOM     56  CAN 2S9 d   1     -14.493   7.138  -7.765  0.00  0.00    -0.065 C 
ATOM     57  H   2S9 d   1     -12.353   7.252  -7.955  0.00  0.00     0.033 H 
ATOM     58  H   2S9 d   1     -13.124   5.953  -8.926  0.00  0.00     0.033 H 
ATOM     59  CAR 2S9 d   1     -15.415   8.086  -8.566  0.00  0.00    -0.059 C 
ATOM     60  H   2S9 d   1     -14.268   7.572  -6.779  0.00  0.00     0.033 H 
ATOM     61  H   2S9 d   1     -14.979   6.160  -7.633  0.00  0.00     0.033 H 
ATOM     62  H   2S9 d   1     -16.028   7.520  -9.283  0.00  0.00     0.033 H 
ATOM     63  H   2S9 d   1     -16.072   8.654  -7.891  0.00  0.00     0.033 H 
ATOM     64  H   2S9 d   1     -13.973   9.698  -8.574  0.00  0.00     0.045 H 
ENDBRANCH  39  51
BRANCH  39  65
ATOM     65  OAB 2S9 d   1     -16.130  10.743  -9.685  0.00  0.00    -0.384 OA
ATOM     66  H   2S9 d   1     -16.561  11.309 -10.314  0.00  0.00     0.211 HD
ENDBRANCH  39  65
ENDBRANCH  28  39
ENDBRANCH  20  23
ENDBRANCH  17  20
ENDBRANCH  14  17
ENDBRANCH  13  14
ENDBRANCH   1  13
TORSDOF 9
