REMARK  11 active torsions:
REMARK  status: ('A' for Active; 'I' for Inactive)
REMARK    1  A    between atoms: CBA_3  and  SBG_4 
REMARK    2  A    between atoms: SBG_4  and  NAA_7 
REMARK    3  A    between atoms: CAZ_10  and  OAY_11 
REMARK    4  A    between atoms: OAY_11  and  CAP_12 
REMARK    5  A    between atoms: CAP_12  and  CAO_13 
REMARK    6  A    between atoms: CAO_13  and  CAU_14 
REMARK    7  A    between atoms: CAU_14  and  NBE_15 
REMARK    8  A    between atoms: CBD_20  and  CBF_21 
REMARK    9  A    between atoms: CBF_21  and  CBC_22 
REMARK   10  A    between atoms: CBF_21  and  OAD_27 
REMARK   11  A    between atoms: CBF_21  and  CBB_28 
ROOT
ATOM      1  NBE 2SE d   1     -12.054  13.146 -11.745  0.00  0.00    -0.071 N 
ATOM      2  CAW 2SE d   1     -11.489  11.955 -11.014  0.00  0.00     0.084 C 
ATOM      3  CAT 2SE d   1     -12.572  11.243 -10.172  0.00  0.00    -0.036 C 
ATOM      4  CAV 2SE d   1     -13.012  12.747 -12.752  0.00  0.00     0.084 C 
ATOM      5  CAS 2SE d   1     -14.183  11.985 -12.106  0.00  0.00    -0.036 C 
ATOM      6  CBD 2SE d   1     -13.624  10.770 -11.294  0.00  0.00    -0.015 C 
ATOM      7  H   2SE d   1     -12.560  13.657 -11.038  0.00  0.00     0.279 HD
ATOM      8  H   2SE d   1     -10.683  12.294 -10.347  0.00  0.00     0.076 H 
ATOM      9  H   2SE d   1     -11.082  11.244 -11.749  0.00  0.00     0.076 H 
ATOM     10  H   2SE d   1     -13.038  11.935  -9.456  0.00  0.00     0.036 H 
ATOM     11  H   2SE d   1     -12.153  10.382  -9.631  0.00  0.00     0.036 H 
ATOM     12  H   2SE d   1     -12.516  12.095 -13.486  0.00  0.00     0.076 H 
ATOM     13  H   2SE d   1     -13.399  13.643 -13.260  0.00  0.00     0.076 H 
ATOM     14  H   2SE d   1     -14.862  11.621 -12.891  0.00  0.00     0.036 H 
ATOM     15  H   2SE d   1     -14.731  12.658 -11.430  0.00  0.00     0.036 H 
ATOM     16  H   2SE d   1     -13.079  10.133 -12.006  0.00  0.00     0.045 H 
ENDROOT
BRANCH   6  17
ATOM     17  CBF 2SE d   1     -14.756   9.886 -10.658  0.00  0.00     0.109 C 
BRANCH  17  18
ATOM     18  CBC 2SE d   1     -15.704   9.346 -11.767  0.00  0.00    -0.018 C 
ATOM     19  CAQ 2SE d   1     -15.173   8.351 -12.745  0.00  0.00    -0.059 C 
ATOM     20  CAM 2SE d   1     -16.398   8.118 -13.602  0.00  0.00    -0.065 C 
ATOM     21  H   2SE d   1     -14.846   7.427 -12.246  0.00  0.00     0.033 H 
ATOM     22  H   2SE d   1     -14.340   8.765 -13.332  0.00  0.00     0.033 H 
ATOM     23  CAN 2SE d   1     -17.450   7.964 -12.524  0.00  0.00    -0.065 C 
ATOM     24  H   2SE d   1     -16.302   7.207 -14.211  0.00  0.00     0.033 H 
ATOM     25  H   2SE d   1     -16.607   8.977 -14.257  0.00  0.00     0.033 H 
ATOM     26  CAR 2SE d   1     -16.919   8.675 -11.278  0.00  0.00    -0.059 C 
ATOM     27  H   2SE d   1     -17.617   6.898 -12.309  0.00  0.00     0.033 H 
ATOM     28  H   2SE d   1     -18.394   8.425 -12.849  0.00  0.00     0.033 H 
ATOM     29  H   2SE d   1     -17.649   9.406 -10.900  0.00  0.00     0.033 H 
ATOM     30  H   2SE d   1     -16.678   7.953 -10.484  0.00  0.00     0.033 H 
ATOM     31  H   2SE d   1     -16.010  10.236 -12.337  0.00  0.00     0.045 H 
ENDBRANCH  17  18
BRANCH  17  32
ATOM     32  OAD 2SE d   1     -15.453  10.780  -9.840  0.00  0.00    -0.383 OA
ATOM     33  H   2SE d   1     -14.872  11.108  -9.164  0.00  0.00     0.211 HD
ENDBRANCH  17  32
BRANCH  17  34
ATOM     34  CBB 2SE d   1     -14.251   8.804  -9.891  0.00  0.00     0.069 A 
ATOM     35  NAX 2SE d   1     -13.265   8.021 -10.420  0.00  0.00    -0.262 NA
ATOM     36  CAG 2SE d   1     -12.744   6.906  -9.740  0.00  0.00     0.003 A 
ATOM     37  CAE 2SE d   1     -13.207   6.611  -8.469  0.00  0.00    -0.066 A 
ATOM     38  H   2SE d   1     -11.988   6.284 -10.206  0.00  0.00     0.114 H 
ATOM     39  CAF 2SE d   1     -14.267   7.385  -7.935  0.00  0.00    -0.080 A 
ATOM     40  H   2SE d   1     -12.767   5.804  -7.894  0.00  0.00     0.085 H 
ATOM     41  CAH 2SE d   1     -14.755   8.504  -8.617  0.00  0.00    -0.056 A 
ATOM     42  H   2SE d   1     -14.706   7.106  -6.984  0.00  0.00     0.083 H 
ATOM     43  H   2SE d   1     -15.514   9.133  -8.166  0.00  0.00     0.086 H 
ENDBRANCH  17  34
ENDBRANCH   6  17
BRANCH   1  44
ATOM     44  CAU 2SE d   1     -11.142  14.163 -12.397  0.00  0.00     0.085 C 
ATOM     45  H   2SE d   1     -10.440  13.641 -13.064  0.00  0.00     0.076 H 
ATOM     46  H   2SE d   1     -11.750  14.867 -12.983  0.00  0.00     0.076 H 
BRANCH  44  47
ATOM     47  CAO 2SE d   1     -10.358  14.932 -11.360  0.00  0.00    -0.022 C 
ATOM     48  H   2SE d   1     -11.041  15.535 -10.744  0.00  0.00     0.038 H 
ATOM     49  H   2SE d   1      -9.803  14.234 -10.716  0.00  0.00     0.038 H 
BRANCH  47  50
ATOM     50  CAP 2SE d   1      -9.385  15.842 -12.099  0.00  0.00     0.028 C 
ATOM     51  H   2SE d   1      -8.571  16.171 -11.436  0.00  0.00     0.075 H 
ATOM     52  H   2SE d   1      -8.960  15.335 -12.978  0.00  0.00     0.075 H 
BRANCH  50  53
ATOM     53  OAY 2SE d   1     -10.217  16.959 -12.495  0.00  0.00    -0.351 OA
BRANCH  53  54
ATOM     54  CAZ 2SE d   1      -9.667  18.131 -12.858  0.00  0.00     0.068 A 
ATOM     55  CAI 2SE d   1     -10.532  19.156 -13.158  0.00  0.00    -0.049 A 
ATOM     56  CAK 2SE d   1     -10.051  20.397 -13.567  0.00  0.00    -0.058 A 
ATOM     57  H   2SE d   1     -11.601  18.997 -13.075  0.00  0.00     0.087 H 
ATOM     58  CBA 2SE d   1      -8.683  20.597 -13.680  0.00  0.00     0.079 A 
ATOM     59  H   2SE d   1     -10.741  21.201 -13.796  0.00  0.00     0.086 H 
ATOM     60  CAL 2SE d   1      -7.784  19.576 -13.371  0.00  0.00    -0.058 A 
ATOM     61  CAJ 2SE d   1      -8.274  18.339 -12.989  0.00  0.00    -0.049 A 
ATOM     62  H   2SE d   1      -6.715  19.749 -13.429  0.00  0.00     0.086 H 
ATOM     63  H   2SE d   1      -7.586  17.525 -12.789  0.00  0.00     0.087 H 
BRANCH  58  64
ATOM     64  SBG 2SE d   1      -8.154  22.209 -14.248  0.00  0.00     0.256 S 
ATOM     65  OAB 2SE d   1      -8.272  22.195 -15.724  0.00  0.00    -0.201 OA
ATOM     66  OAC 2SE d   1      -6.779  22.380 -13.680  0.00  0.00    -0.201 OA
BRANCH  64  67
ATOM     67  NAA 2SE d   1      -9.144  23.295 -13.684  0.00  0.00    -0.324 N 
ATOM     68  H   2SE d   1      -9.003  24.261 -13.901  0.00  0.00     0.169 HD
ATOM     69  H   2SE d   1      -9.914  23.019 -13.109  0.00  0.00     0.169 HD
ENDBRANCH  64  67
ENDBRANCH  58  64
ENDBRANCH  53  54
ENDBRANCH  50  53
ENDBRANCH  47  50
ENDBRANCH  44  47
ENDBRANCH   1  44
TORSDOF 11
