REMARK  9 active torsions:
REMARK  status: ('A' for Active; 'I' for Inactive)
REMARK    1  A    between atoms: CAZ_8  and  OAX_9 
REMARK    2  A    between atoms: OAX_9  and  CAP_10 
REMARK    3  A    between atoms: CAP_10  and  CAO_11 
REMARK    4  A    between atoms: CAO_11  and  CAU_12 
REMARK    5  A    between atoms: CAU_12  and  NBD_13 
REMARK    6  A    between atoms: CBC_18  and  CBE_19 
REMARK    7  A    between atoms: CBE_19  and  CBB_20 
REMARK    8  A    between atoms: CBE_19  and  NAB_25 
REMARK    9  A    between atoms: CBE_19  and  CBA_26 
ROOT
ATOM      1  CAK 2SF d   1      10.782  19.174  13.428  0.00  0.00    -0.049 A 
ATOM      2  CAI 2SF d   1      10.211  20.351  13.910  0.00  0.00    -0.060 A 
ATOM      3  CAY 2SF d   1       8.839  20.450  13.977  0.00  0.00     0.044 A 
ATOM      4  CAC 2SF d   1       8.226  21.656  14.522  0.00  0.00     0.099 C 
ATOM      5  NAA 2SF d   1       7.761  22.589  14.945  0.00  0.00    -0.191 NA
ATOM      6  CAJ 2SF d   1       8.059  19.404  13.555  0.00  0.00    -0.060 A 
ATOM      7  CAL 2SF d   1       8.608  18.190  13.116  0.00  0.00    -0.049 A 
ATOM      8  CAZ 2SF d   1       9.980  18.122  13.012  0.00  0.00     0.068 A 
ATOM      9  H   2SF d   1      11.861  19.081  13.378  0.00  0.00     0.087 H 
ATOM     10  H   2SF d   1      10.838  21.176  14.227  0.00  0.00     0.086 H 
ATOM     11  H   2SF d   1       6.981  19.519  13.561  0.00  0.00     0.086 H 
ATOM     12  H   2SF d   1       7.980  17.342  12.869  0.00  0.00     0.087 H 
ENDROOT
BRANCH   8  13
ATOM     13  OAX 2SF d   1      10.634  17.028  12.558  0.00  0.00    -0.351 OA
BRANCH  13  14
ATOM     14  CAP 2SF d   1       9.820  15.904  12.151  0.00  0.00     0.028 C 
ATOM     15  H   2SF d   1       8.949  16.242  11.571  0.00  0.00     0.075 H 
ATOM     16  H   2SF d   1       9.478  15.332  13.026  0.00  0.00     0.075 H 
BRANCH  14  17
ATOM     17  CAO 2SF d   1      10.764  15.053  11.276  0.00  0.00    -0.022 C 
ATOM     18  H   2SF d   1      11.346  15.693  10.596  0.00  0.00     0.038 H 
ATOM     19  H   2SF d   1      10.193  14.319  10.689  0.00  0.00     0.038 H 
BRANCH  17  20
ATOM     20  CAU 2SF d   1      11.681  14.351  12.270  0.00  0.00     0.085 C 
ATOM     21  H   2SF d   1      11.087  13.665  12.892  0.00  0.00     0.076 H 
ATOM     22  H   2SF d   1      12.165  15.102  12.912  0.00  0.00     0.076 H 
BRANCH  20  23
ATOM     23  NBD 2SF d   1      12.747  13.562  11.528  0.00  0.00    -0.071 N 
ATOM     24  CAW 2SF d   1      13.602  12.852  12.524  0.00  0.00     0.084 C 
ATOM     25  CAT 2SF d   1      14.751  12.084  11.947  0.00  0.00    -0.036 C 
ATOM     26  H   2SF d   1      12.965  12.146  13.077  0.00  0.00     0.076 H 
ATOM     27  H   2SF d   1      14.009  13.601  13.219  0.00  0.00     0.076 H 
ATOM     28  CBC 2SF d   1      14.171  11.054  10.975  0.00  0.00    -0.015 C 
ATOM     29  H   2SF d   1      15.303  11.574  12.750  0.00  0.00     0.036 H 
ATOM     30  H   2SF d   1      15.428  12.766  11.412  0.00  0.00     0.036 H 
ATOM     31  CAS 2SF d   1      13.257  11.746   9.915  0.00  0.00    -0.036 C 
ATOM     32  H   2SF d   1      13.497  10.418  11.569  0.00  0.00     0.044 H 
ATOM     33  CAV 2SF d   1      12.159  12.502  10.687  0.00  0.00     0.084 C 
ATOM     34  H   2SF d   1      13.847  12.451   9.311  0.00  0.00     0.036 H 
ATOM     35  H   2SF d   1      12.803  10.990   9.257  0.00  0.00     0.036 H 
ATOM     36  H   2SF d   1      11.461  12.957   9.969  0.00  0.00     0.076 H 
ATOM     37  H   2SF d   1      11.615  11.793  11.328  0.00  0.00     0.076 H 
ATOM     38  H   2SF d   1      13.299  14.189  10.963  0.00  0.00     0.279 HD
BRANCH  28  39
ATOM     39  CBE 2SF d   1      15.261  10.085  10.425  0.00  0.00     0.158 C 
BRANCH  39  40
ATOM     40  CBB 2SF d   1      14.603   9.095   9.389  0.00  0.00    -0.018 C 
ATOM     41  CAQ 2SF d   1      13.507   8.221   9.838  0.00  0.00    -0.059 C 
ATOM     42  CAM 2SF d   1      13.277   7.229   8.695  0.00  0.00    -0.065 C 
ATOM     43  H   2SF d   1      12.597   8.811  10.024  0.00  0.00     0.033 H 
ATOM     44  H   2SF d   1      13.793   7.688  10.757  0.00  0.00     0.033 H 
ATOM     45  CAN 2SF d   1      14.605   7.252   7.888  0.00  0.00    -0.065 C 
ATOM     46  H   2SF d   1      12.434   7.550   8.066  0.00  0.00     0.033 H 
ATOM     47  H   2SF d   1      13.079   6.221   9.089  0.00  0.00     0.033 H 
ATOM     48  CAR 2SF d   1      15.597   8.145   8.689  0.00  0.00    -0.059 C 
ATOM     49  H   2SF d   1      14.434   7.677   6.888  0.00  0.00     0.033 H 
ATOM     50  H   2SF d   1      15.007   6.233   7.789  0.00  0.00     0.033 H 
ATOM     51  H   2SF d   1      16.179   7.558   9.414  0.00  0.00     0.033 H 
ATOM     52  H   2SF d   1      16.283   8.690   8.024  0.00  0.00     0.033 H 
ATOM     53  H   2SF d   1      14.178   9.750   8.614  0.00  0.00     0.044 H 
ENDBRANCH  39  40
BRANCH  39  54
ATOM     54  NAB 2SF d   1      16.264  10.947   9.718  0.00  0.00    -0.065 N 
ATOM     55  H   2SF d   1      16.686  11.581  10.378  0.00  0.00     0.275 HD
ATOM     56  H   2SF d   1      15.803  11.474   8.993  0.00  0.00     0.275 HD
ATOM     57  H   2SF d   1      16.977  10.365   9.307  0.00  0.00     0.275 HD
ENDBRANCH  39  54
BRANCH  39  58
ATOM     58  CBA 2SF d   1      15.932   9.325  11.522  0.00  0.00    -0.022 A 
ATOM     59  CAG 2SF d   1      15.211   8.741  12.555  0.00  0.00    -0.074 A 
ATOM     60  CAE 2SF d   1      15.806   8.019  13.572  0.00  0.00    -0.082 A 
ATOM     61  H   2SF d   1      14.133   8.857  12.564  0.00  0.00     0.084 H 
ATOM     62  CAD 2SF d   1      17.157   7.794  13.573  0.00  0.00    -0.083 A 
ATOM     63  H   2SF d   1      15.197   7.626  14.378  0.00  0.00     0.083 H 
ATOM     64  CAF 2SF d   1      17.902   8.310  12.545  0.00  0.00    -0.082 A 
ATOM     65  H   2SF d   1      17.625   7.223  14.366  0.00  0.00     0.083 H 
ATOM     66  CAH 2SF d   1      17.304   9.065  11.526  0.00  0.00    -0.074 A 
ATOM     67  H   2SF d   1      18.971   8.132  12.519  0.00  0.00     0.083 H 
ATOM     68  H   2SF d   1      17.920   9.455  10.724  0.00  0.00     0.084 H 
ENDBRANCH  39  58
ENDBRANCH  28  39
ENDBRANCH  20  23
ENDBRANCH  17  20
ENDBRANCH  14  17
ENDBRANCH  13  14
ENDBRANCH   8  13
TORSDOF 9
