REMARK  11 active torsions:
REMARK  status: ('A' for Active; 'I' for Inactive)
REMARK    1  A    between atoms: N3_2  and  C8_7 
REMARK    2  A    between atoms: C5_4  and  C9_34 
REMARK    3  A    between atoms: N5_28  and  C7_6 
REMARK    4  A    between atoms: C9_34  and  C10_8 
REMARK       I    between atoms: C21_13  and  N6_18 
REMARK    5  A    between atoms: C18_23  and  C21_13 
REMARK    6  A    between atoms: N6_18  and  C22_14 
REMARK    7  A    between atoms: N7_20  and  C30_21 
REMARK    8  A    between atoms: C16_24  and  O3_25 
REMARK    9  A    between atoms: O3_25  and  C31_26 
REMARK   10  A    between atoms: C1_29  and  N5_28 
REMARK   11  A    between atoms: N4_36  and  C11_37 
ROOT
ATOM      1  N5  R78 d   1      20.799   6.018  21.670  0.00  0.00    -0.185 N 
ATOM      2  H   R78 d   1      20.695   5.033  21.389  0.00  0.00     0.184 HD
ENDROOT
BRANCH   1   3
ATOM      3  C7  R78 d   1      20.110   6.390  22.878  0.00  0.00     0.082 A 
ATOM      4  C20 R78 d   1      20.159   7.607  23.524  0.00  0.00    -0.053 A 
ATOM      5  C19 R78 d   1      19.448   7.846  24.684  0.00  0.00    -0.065 A 
ATOM      6  H   R78 d   1      20.773   8.399  23.110  0.00  0.00     0.087 H 
ATOM      7  C18 R78 d   1      18.660   6.840  25.231  0.00  0.00     0.034 A 
ATOM      8  H   R78 d   1      19.504   8.815  25.166  0.00  0.00     0.085 H 
ATOM      9  C17 R78 d   1      18.547   5.589  24.611  0.00  0.00    -0.033 A 
ATOM     10  C16 R78 d   1      19.291   5.377  23.407  0.00  0.00     0.096 A 
ATOM     11  H   R78 d   1      17.919   4.810  25.028  0.00  0.00     0.089 H 
BRANCH   7  12
ATOM     12  C21 R78 d   1      17.921   7.011  26.512  0.00  0.00     0.252 C 
ATOM     13  O2  R78 d   1      17.141   6.135  26.850  0.00  0.00    -0.268 OA
ATOM     14  N6  R78 d   1      18.076   8.157  27.216  0.00  0.00    -0.352 N 
ATOM     15  H   R78 d   1      18.643   8.902  26.864  0.00  0.00     0.163 HD
BRANCH  14  16
ATOM     16  C22 R78 d   1      17.381   8.281  28.528  0.00  0.00     0.015 C 
ATOM     17  C29 R78 d   1      18.417   8.880  29.503  0.00  0.00    -0.023 C 
ATOM     18  C28 R78 d   1      17.733   8.973  30.846  0.00  0.00     0.085 C 
ATOM     19  H   R78 d   1      18.726   9.880  29.163  0.00  0.00     0.038 H 
ATOM     20  H   R78 d   1      19.299   8.226  29.570  0.00  0.00     0.038 H 
ATOM     21  N7  R78 d   1      16.633   9.912  30.770  0.00  0.00    -0.075 N 
ATOM     22  H   R78 d   1      18.455   9.316  31.601  0.00  0.00     0.076 H 
ATOM     23  H   R78 d   1      17.349   7.982  31.130  0.00  0.00     0.076 H 
ATOM     24  C24 R78 d   1      15.616   9.384  29.854  0.00  0.00     0.085 C 
ATOM     25  H   R78 d   1      16.974  10.789  30.409  0.00  0.00     0.279 HD
ATOM     26  C23 R78 d   1      16.118   9.112  28.426  0.00  0.00    -0.023 C 
ATOM     27  H   R78 d   1      14.795  10.114  29.796  0.00  0.00     0.076 H 
ATOM     28  H   R78 d   1      15.237   8.439  30.270  0.00  0.00     0.076 H 
ATOM     29  H   R78 d   1      15.353   8.561  27.859  0.00  0.00     0.038 H 
ATOM     30  H   R78 d   1      16.336  10.063  27.919  0.00  0.00     0.038 H 
ATOM     31  H   R78 d   1      17.096   7.279  28.881  0.00  0.00     0.072 H 
BRANCH  21  32
ATOM     32  C30 R78 d   1      16.055  10.146  32.124  0.00  0.00     0.066 C 
ATOM     33  H   R78 d   1      15.222  10.860  32.049  0.00  0.00     0.068 H 
ATOM     34  H   R78 d   1      16.830  10.556  32.788  0.00  0.00     0.068 H 
ATOM     35  H   R78 d   1      15.686   9.195  32.535  0.00  0.00     0.068 H 
ENDBRANCH  21  32
ENDBRANCH  14  16
ENDBRANCH   7  12
BRANCH  10  36
ATOM     36  O3  R78 d   1      19.205   4.201  22.620  0.00  0.00    -0.354 OA
BRANCH  36  37
ATOM     37  C31 R78 d   1      18.286   3.151  23.180  0.00  0.00     0.010 C 
ATOM     38  H   R78 d   1      18.278   2.277  22.512  0.00  0.00     0.066 H 
ATOM     39  H   R78 d   1      17.268   3.560  23.261  0.00  0.00     0.066 H 
ATOM     40  H   R78 d   1      18.640   2.848  24.176  0.00  0.00     0.066 H 
ENDBRANCH  36  37
ENDBRANCH  10  36
ENDBRANCH   1   3
BRANCH   1  41
ATOM     41  C1  R78 d   1      21.566   6.778  20.848  0.00  0.00     0.728 A 
ATOM     42  N1  R78 d   1      22.099   6.026  19.849  0.00  0.00    -0.073 NA
ATOM     43  C4  R78 d   1      22.914   6.698  19.025  0.00  0.00     0.051 A 
ATOM     44  C3  R78 d   1      23.162   8.073  19.127  0.00  0.00     0.102 A 
ATOM     45  H   R78 d   1      23.410   6.146  18.234  0.00  0.00     0.119 H 
ATOM     46  C2  R78 d   1      22.490   8.754  20.182  0.00  0.00     0.174 A 
ATOM     47  N4  R78 d   1      24.117   8.774  18.388  0.00  0.00    -0.316 N 
ATOM     48  N3  R78 d   1      22.507  10.100  20.263  0.00  0.00    -0.345 N 
ATOM     49  N2  R78 d   1      21.747   8.105  21.030  0.00  0.00    -0.043 NA
ATOM     50  C5  R78 d   1      23.101  10.907  19.201  0.00  0.00     0.091 C 
ATOM     51  C6  R78 d   1      24.126  10.146  18.327  0.00  0.00     0.247 C 
ATOM     52  H   R78 d   1      23.628  11.743  19.684  0.00  0.00     0.087 H 
ATOM     53  O1  R78 d   1      24.862  10.791  17.611  0.00  0.00    -0.271 OA
BRANCH  48  54
ATOM     54  C8  R78 d   1      21.871  10.709  21.470  0.00  0.00     0.014 C 
ATOM     55  C15 R78 d   1      22.360  12.053  21.948  0.00  0.00    -0.046 C 
ATOM     56  C14 R78 d   1      21.442  12.098  23.234  0.00  0.00    -0.063 C 
ATOM     57  H   R78 d   1      22.141  12.864  21.238  0.00  0.00     0.036 H 
ATOM     58  H   R78 d   1      23.433  12.056  22.189  0.00  0.00     0.036 H 
ATOM     59  C13 R78 d   1      20.084  11.629  22.682  0.00  0.00    -0.063 C 
ATOM     60  H   R78 d   1      21.813  11.415  24.013  0.00  0.00     0.033 H 
ATOM     61  H   R78 d   1      21.376  13.118  23.641  0.00  0.00     0.033 H 
ATOM     62  C12 R78 d   1      20.370  10.867  21.406  0.00  0.00    -0.046 C 
ATOM     63  H   R78 d   1      19.442  12.496  22.469  0.00  0.00     0.033 H 
ATOM     64  H   R78 d   1      19.585  10.973  23.411  0.00  0.00     0.033 H 
ATOM     65  H   R78 d   1      19.864   9.890  21.401  0.00  0.00     0.036 H 
ATOM     66  H   R78 d   1      20.065  11.442  20.519  0.00  0.00     0.036 H 
ATOM     67  H   R78 d   1      22.086   9.995  22.279  0.00  0.00     0.072 H 
ENDBRANCH  48  54
BRANCH  50  68
ATOM     68  C9  R78 d   1      21.986  11.505  18.246  0.00  0.00    -0.041 C 
ATOM     69  H   R78 d   1      22.467  12.185  17.527  0.00  0.00     0.036 H 
ATOM     70  H   R78 d   1      21.265  12.068  18.857  0.00  0.00     0.036 H 
BRANCH  68  71
ATOM     71  C10 R78 d   1      21.225  10.422  17.463  0.00  0.00    -0.074 C 
ATOM     72  H   R78 d   1      20.468  10.897  16.821  0.00  0.00     0.027 H 
ATOM     73  H   R78 d   1      20.730   9.739  18.169  0.00  0.00     0.027 H 
ATOM     74  H   R78 d   1      21.932   9.856  16.839  0.00  0.00     0.027 H 
ENDBRANCH  68  71
ENDBRANCH  50  68
BRANCH  47  75
ATOM     75  C11 R78 d   1      25.045   7.944  17.618  0.00  0.00    -0.011 C 
ATOM     76  H   R78 d   1      25.751   8.590  17.076  0.00  0.00     0.057 H 
ATOM     77  H   R78 d   1      24.480   7.333  16.898  0.00  0.00     0.057 H 
ATOM     78  H   R78 d   1      25.601   7.285  18.301  0.00  0.00     0.057 H 
ENDBRANCH  47  75
ENDBRANCH   1  41
TORSDOF 11
