REMARK  14 active torsions:
REMARK  status: ('A' for Active; 'I' for Inactive)
REMARK    1  A    between atoms: C7_7  and  C2_8 
REMARK    2  A    between atoms: C4_10  and  C16_11 
REMARK    3  A    between atoms: C4_10  and  C34_21 
REMARK    4  A    between atoms: C16_11  and  C26_12 
REMARK    5  A    between atoms: C29_15  and  C31_16 
REMARK    6  A    between atoms: N1_24  and  C13_25 
REMARK    7  A    between atoms: C13_25  and  C14_26 
REMARK    8  A    between atoms: C13_25  and  C15_29 
REMARK    9  A    between atoms: C15_29  and  S1_30 
REMARK   10  A    between atoms: S1_30  and  C22_33 
REMARK   11  A    between atoms: C22_33  and  C24_34 
REMARK   12  A    between atoms: C22_33  and  C25_35 
REMARK   13  A    between atoms: C22_33  and  C23_36 
REMARK   14  A    between atoms: C1_37  and  C6_38 
ROOT
ATOM      1  C2  2U5 d   1      10.109 -24.974  -2.986  0.00  0.00    -0.004 C 
ATOM      2  C3  2U5 d   1       9.149 -25.887  -2.126  0.00  0.00    -0.040 C 
ATOM      3  C4  2U5 d   1       8.201 -26.694  -3.060  0.00  0.00     0.043 C 
ATOM      4  C5  2U5 d   1       7.464 -25.791  -4.052  0.00  0.00     0.229 C 
ATOM      5  O1  2U5 d   1       6.450 -26.244  -4.638  0.00  0.00    -0.272 OA
ATOM      6  N1  2U5 d   1       7.944 -24.501  -4.302  0.00  0.00    -0.336 N 
ATOM      7  C1  2U5 d   1       9.161 -23.912  -3.658  0.00  0.00     0.048 C 
ATOM      8  H   2U5 d   1      10.604 -25.586  -3.754  0.00  0.00     0.051 H 
ATOM      9  H   2U5 d   1       8.548 -25.254  -1.456  0.00  0.00     0.035 H 
ATOM     10  H   2U5 d   1       9.751 -26.586  -1.527  0.00  0.00     0.035 H 
ATOM     11  H   2U5 d   1       8.783 -23.269  -2.850  0.00  0.00     0.081 H 
ENDROOT
BRANCH   6  12
ATOM     12  C13 2U5 d   1       7.146 -23.529  -5.151  0.00  0.00     0.031 C 
ATOM     13  H   2U5 d   1       7.702 -22.582  -5.223  0.00  0.00     0.074 H 
BRANCH  12  14
ATOM     14  C14 2U5 d   1       6.942 -24.082  -6.516  0.00  0.00    -0.033 A 
ATOM     15  C32 2U5 d   1       7.911 -23.539  -7.579  0.00  0.00    -0.059 A 
ATOM     16  C33 2U5 d   1       6.461 -22.975  -7.506  0.00  0.00    -0.059 A 
ATOM     17  H   2U5 d   1       8.210 -24.175  -8.425  0.00  0.00     0.033 H 
ATOM     18  H   2U5 d   1       8.760 -22.909  -7.276  0.00  0.00     0.033 H 
ATOM     19  H   2U5 d   1       6.284 -21.951  -7.146  0.00  0.00     0.033 H 
ATOM     20  H   2U5 d   1       5.734 -23.217  -8.295  0.00  0.00     0.033 H 
ATOM     21  H   2U5 d   1       6.569 -25.117  -6.523  0.00  0.00     0.043 H 
ENDBRANCH  12  14
BRANCH  12  22
ATOM     22  C15 2U5 d   1       5.733 -23.252  -4.508  0.00  0.00     0.049 C 
ATOM     23  H   2U5 d   1       5.206 -24.209  -4.378  0.00  0.00     0.059 H 
ATOM     24  H   2U5 d   1       5.154 -22.604  -5.183  0.00  0.00     0.059 H 
BRANCH  22  25
ATOM     25  S1  2U5 d   1       5.880 -22.453  -2.925  0.00  0.00     0.153 S 
ATOM     26  O4  2U5 d   1       6.254 -23.566  -2.002  0.00  0.00    -0.227 OA
ATOM     27  O5  2U5 d   1       6.809 -21.309  -3.084  0.00  0.00    -0.227 OA
BRANCH  25  28
ATOM     28  C22 2U5 d   1       4.243 -21.826  -2.386  0.00  0.00     0.053 C 
BRANCH  28  29
ATOM     29  C24 2U5 d   1       3.822 -20.634  -3.220  0.00  0.00    -0.057 C 
ATOM     30  H   2U5 d   1       2.839 -20.276  -2.879  0.00  0.00     0.029 H 
ATOM     31  H   2U5 d   1       3.757 -20.931  -4.277  0.00  0.00     0.029 H 
ATOM     32  H   2U5 d   1       4.564 -19.829  -3.110  0.00  0.00     0.029 H 
ENDBRANCH  28  29
BRANCH  28  33
ATOM     33  C25 2U5 d   1       4.368 -21.310  -0.973  0.00  0.00    -0.057 C 
ATOM     34  H   2U5 d   1       3.393 -20.930  -0.634  0.00  0.00     0.029 H 
ATOM     35  H   2U5 d   1       5.109 -20.497  -0.944  0.00  0.00     0.029 H 
ATOM     36  H   2U5 d   1       4.693 -22.127  -0.312  0.00  0.00     0.029 H 
ENDBRANCH  28  33
BRANCH  28  37
ATOM     37  C23 2U5 d   1       3.236 -23.009  -2.435  0.00  0.00    -0.057 C 
ATOM     38  H   2U5 d   1       2.243 -22.659  -2.115  0.00  0.00     0.029 H 
ATOM     39  H   2U5 d   1       3.577 -23.809  -1.761  0.00  0.00     0.029 H 
ATOM     40  H   2U5 d   1       3.175 -23.396  -3.463  0.00  0.00     0.029 H 
ENDBRANCH  28  37
ENDBRANCH  25  28
ENDBRANCH  22  25
ENDBRANCH  12  22
ENDBRANCH   6  12
BRANCH   7  41
ATOM     41  C6  2U5 d   1      10.044 -22.979  -4.606  0.00  0.00    -0.035 A 
ATOM     42  C17 2U5 d   1      10.854 -23.560  -5.605  0.00  0.00    -0.073 A 
ATOM     43  C18 2U5 d   1      11.665 -22.664  -6.385  0.00  0.00    -0.061 A 
ATOM     44  H   2U5 d   1      10.864 -24.630  -5.776  0.00  0.00     0.084 H 
ATOM     45  C19 2U5 d   1      11.692 -21.311  -6.095  0.00  0.00     0.034 A 
ATOM     46  H   2U5 d   1      12.259 -23.051  -7.205  0.00  0.00     0.086 H 
ATOM     47 CL2  2U5 d   1      12.759 -20.284  -7.079  0.00  0.00    -0.084 Cl
ATOM     48  C20 2U5 d   1      10.885 -20.728  -5.137  0.00  0.00    -0.061 A 
ATOM     49  C21 2U5 d   1      10.056 -21.595  -4.355  0.00  0.00    -0.073 A 
ATOM     50  H   2U5 d   1      10.880 -19.655  -4.983  0.00  0.00     0.086 H 
ATOM     51  H   2U5 d   1       9.436 -21.183  -3.567  0.00  0.00     0.084 H 
ENDBRANCH   7  41
BRANCH   3  52
ATOM     52  C16 2U5 d   1       8.764 -27.911  -3.787  0.00  0.00    -0.010 C 
ATOM     53  H   2U5 d   1       9.664 -27.576  -4.324  0.00  0.00     0.044 H 
ATOM     54  H   2U5 d   1       8.002 -28.232  -4.513  0.00  0.00     0.044 H 
BRANCH  52  55
ATOM     55  C26 2U5 d   1       9.159 -29.141  -2.988  0.00  0.00     0.035 A 
ATOM     56  C27 2U5 d   1       8.348 -30.283  -2.971  0.00  0.00    -0.058 A 
ATOM     57  C28 2U5 d   1       8.720 -31.427  -2.251  0.00  0.00    -0.063 A 
ATOM     58  H   2U5 d   1       7.416 -30.282  -3.525  0.00  0.00     0.086 H 
ATOM     59  C29 2U5 d   1       9.977 -31.377  -1.620  0.00  0.00     0.058 A 
ATOM     60  H   2U5 d   1       8.078 -32.298  -2.184  0.00  0.00     0.085 H 
ATOM     61  C30 2U5 d   1      10.778 -30.226  -1.716  0.00  0.00     0.019 A 
ATOM     62  N2  2U5 d   1      10.371 -29.146  -2.429  0.00  0.00    -0.264 NA
ATOM     63  H   2U5 d   1      11.737 -30.201  -1.212  0.00  0.00     0.116 H 
BRANCH  59  64
ATOM     64  C31 2U5 d   1      10.507 -32.627  -0.845  0.00  0.00     0.210 C 
ATOM     65  O3  2U5 d   1      11.720 -32.640  -0.468  0.00  0.00    -0.644 OA
ATOM     66  O2  2U5 d   1       9.749 -33.633  -0.812  0.00  0.00    -0.644 OA
ENDBRANCH  59  64
ENDBRANCH  52  55
ENDBRANCH   3  52
BRANCH   3  67
ATOM     67  C34 2U5 d   1       7.006 -27.228  -2.155  0.00  0.00    -0.060 C 
ATOM     68  H   2U5 d   1       6.559 -26.387  -1.604  0.00  0.00     0.029 H 
ATOM     69  H   2U5 d   1       7.391 -27.971  -1.441  0.00  0.00     0.029 H 
ATOM     70  H   2U5 d   1       6.242 -27.694  -2.794  0.00  0.00     0.029 H 
ENDBRANCH   3  67
BRANCH   1  71
ATOM     71  C7  2U5 d   1      11.210 -24.237  -2.152  0.00  0.00    -0.050 A 
ATOM     72  C12 2U5 d   1      12.566 -24.166  -2.624  0.00  0.00    -0.055 A 
ATOM     73  C11 2U5 d   1      13.522 -23.490  -1.893  0.00  0.00     0.034 A 
ATOM     74  H   2U5 d   1      12.839 -24.645  -3.557  0.00  0.00     0.086 H 
ATOM     75 CL1  2U5 d   1      15.188 -23.373  -2.506  0.00  0.00    -0.084 Cl
ATOM     76  C10 2U5 d   1      13.250 -22.880  -0.692  0.00  0.00    -0.062 A 
ATOM     77  C9  2U5 d   1      11.917 -22.957  -0.169  0.00  0.00    -0.081 A 
ATOM     78  H   2U5 d   1      14.027 -22.352  -0.151  0.00  0.00     0.086 H 
ATOM     79  C8  2U5 d   1      10.924 -23.640  -0.926  0.00  0.00    -0.076 A 
ATOM     80  H   2U5 d   1      11.671 -22.504   0.784  0.00  0.00     0.083 H 
ATOM     81  H   2U5 d   1       9.914 -23.698  -0.537  0.00  0.00     0.084 H 
ENDBRANCH   1  71
TORSDOF 14
