REMARK  14 active torsions:
REMARK  status: ('A' for Active; 'I' for Inactive)
REMARK    1  A    between atoms: C6_7  and  C2_8 
REMARK    2  A    between atoms: C3_10  and  C22_11 
REMARK    3  A    between atoms: C3_10  and  C23_21 
REMARK    4  A    between atoms: C22_11  and  C24_12 
REMARK    5  A    between atoms: C27_15  and  C29_16 
REMARK    6  A    between atoms: N1_24  and  C17_25 
REMARK    7  A    between atoms: C17_25  and  C18_26 
REMARK    8  A    between atoms: C17_25  and  C19_29 
REMARK    9  A    between atoms: C19_29  and  S1_30 
REMARK   10  A    between atoms: S1_30  and  C30_33 
REMARK   11  A    between atoms: C30_33  and  C32_34 
REMARK   12  A    between atoms: C30_33  and  C33_35 
REMARK   13  A    between atoms: C30_33  and  C31_36 
REMARK   14  A    between atoms: C1_37  and  C5_38 
ROOT
ATOM      1  C2  2U6 d   1     -10.113  24.478  -2.768  0.00  0.00     0.089 C 
ATOM      2  O1  2U6 d   1      -9.282  25.354  -1.983  0.00  0.00    -0.358 OA
ATOM      3  C3  2U6 d   1      -8.299  26.012  -2.799  0.00  0.00     0.144 C 
ATOM      4  C4  2U6 d   1      -7.507  25.046  -3.676  0.00  0.00     0.255 C 
ATOM      5  O2  2U6 d   1      -6.436  25.443  -4.134  0.00  0.00    -0.270 OA
ATOM      6  N1  2U6 d   1      -7.965  23.740  -3.932  0.00  0.00    -0.332 N 
ATOM      7  C1  2U6 d   1      -9.251  23.306  -3.325  0.00  0.00     0.070 C 
ATOM      8  H   2U6 d   1     -10.555  25.049  -3.597  0.00  0.00     0.094 H 
ATOM      9  H   2U6 d   1      -8.974  22.686  -2.460  0.00  0.00     0.085 H 
ENDROOT
BRANCH   6  10
ATOM     10  C17 2U6 d   1      -7.061  22.789  -4.652  0.00  0.00     0.031 C 
ATOM     11  H   2U6 d   1      -7.597  21.828  -4.650  0.00  0.00     0.074 H 
BRANCH  10  12
ATOM     12  C18 2U6 d   1      -6.739  23.073  -6.125  0.00  0.00    -0.033 A 
ATOM     13  C20 2U6 d   1      -6.878  21.862  -7.035  0.00  0.00    -0.059 A 
ATOM     14  C21 2U6 d   1      -7.897  23.012  -7.116  0.00  0.00    -0.059 A 
ATOM     15  H   2U6 d   1      -7.177  20.890  -6.616  0.00  0.00     0.033 H 
ATOM     16  H   2U6 d   1      -6.161  21.703  -7.854  0.00  0.00     0.033 H 
ATOM     17  H   2U6 d   1      -7.909  23.677  -7.992  0.00  0.00     0.033 H 
ATOM     18  H   2U6 d   1      -8.925  22.864  -6.754  0.00  0.00     0.033 H 
ATOM     19  H   2U6 d   1      -5.926  23.805  -6.236  0.00  0.00     0.043 H 
ENDBRANCH  10  12
BRANCH  10  20
ATOM     20  C19 2U6 d   1      -5.746  22.567  -3.873  0.00  0.00     0.049 C 
ATOM     21  H   2U6 d   1      -5.246  23.539  -3.749  0.00  0.00     0.059 H 
ATOM     22  H   2U6 d   1      -5.102  21.896  -4.460  0.00  0.00     0.059 H 
BRANCH  20  23
ATOM     23  S1  2U6 d   1      -5.994  21.833  -2.228  0.00  0.00     0.153 S 
ATOM     24  O5  2U6 d   1      -6.670  20.505  -2.383  0.00  0.00    -0.227 OA
ATOM     25  O6  2U6 d   1      -6.855  22.732  -1.390  0.00  0.00    -0.227 OA
BRANCH  23  26
ATOM     26  C30 2U6 d   1      -4.389  21.623  -1.369  0.00  0.00     0.053 C 
BRANCH  26  27
ATOM     27  C32 2U6 d   1      -4.648  20.911  -0.047  0.00  0.00    -0.057 C 
ATOM     28  H   2U6 d   1      -3.697  20.773   0.488  0.00  0.00     0.029 H 
ATOM     29  H   2U6 d   1      -5.104  19.929  -0.242  0.00  0.00     0.029 H 
ATOM     30  H   2U6 d   1      -5.330  21.516   0.568  0.00  0.00     0.029 H 
ENDBRANCH  26  27
BRANCH  26  31
ATOM     31  C33 2U6 d   1      -3.760  22.994  -1.117  0.00  0.00    -0.057 C 
ATOM     32  H   2U6 d   1      -2.797  22.866  -0.601  0.00  0.00     0.029 H 
ATOM     33  H   2U6 d   1      -4.434  23.597  -0.491  0.00  0.00     0.029 H 
ATOM     34  H   2U6 d   1      -3.597  23.505  -2.078  0.00  0.00     0.029 H 
ENDBRANCH  26  31
BRANCH  26  35
ATOM     35  C31 2U6 d   1      -3.464  20.766  -2.224  0.00  0.00    -0.057 C 
ATOM     36  H   2U6 d   1      -2.501  20.640  -1.708  0.00  0.00     0.029 H 
ATOM     37  H   2U6 d   1      -3.299  21.259  -3.193  0.00  0.00     0.029 H 
ATOM     38  H   2U6 d   1      -3.924  19.780  -2.387  0.00  0.00     0.029 H 
ENDBRANCH  26  35
ENDBRANCH  23  26
ENDBRANCH  20  23
ENDBRANCH  10  20
ENDBRANCH   6  10
BRANCH   7  39
ATOM     39  C5  2U6 d   1     -10.115  22.414  -4.240  0.00  0.00    -0.032 A 
ATOM     40  C12 2U6 d   1     -10.764  22.996  -5.325  0.00  0.00    -0.073 A 
ATOM     41  C13 2U6 d   1     -11.566  22.225  -6.158  0.00  0.00    -0.061 A 
ATOM     42  H   2U6 d   1     -10.643  24.055  -5.521  0.00  0.00     0.084 H 
ATOM     43  C14 2U6 d   1     -11.730  20.873  -5.891  0.00  0.00     0.034 A 
ATOM     44  H   2U6 d   1     -12.060  22.677  -7.011  0.00  0.00     0.086 H 
ATOM     45 CL2  2U6 d   1     -12.736  19.916  -6.926  0.00  0.00    -0.084 Cl
ATOM     46  C15 2U6 d   1     -11.090  20.288  -4.805  0.00  0.00    -0.061 A 
ATOM     47  C16 2U6 d   1     -10.286  21.061  -3.972  0.00  0.00    -0.073 A 
ATOM     48  H   2U6 d   1     -11.217  19.230  -4.607  0.00  0.00     0.086 H 
ATOM     49  H   2U6 d   1      -9.795  20.609  -3.118  0.00  0.00     0.084 H 
ENDBRANCH   7  39
BRANCH   3  50
ATOM     50  C22 2U6 d   1      -8.734  27.259  -3.574  0.00  0.00     0.012 C 
ATOM     51  H   2U6 d   1      -9.589  26.973  -4.205  0.00  0.00     0.047 H 
ATOM     52  H   2U6 d   1      -7.891  27.560  -4.213  0.00  0.00     0.047 H 
BRANCH  50  53
ATOM     53  C24 2U6 d   1      -9.158  28.497  -2.755  0.00  0.00     0.037 A 
ATOM     54  C25 2U6 d   1      -8.273  29.574  -2.733  0.00  0.00    -0.058 A 
ATOM     55  C26 2U6 d   1      -8.590  30.723  -2.025  0.00  0.00    -0.063 A 
ATOM     56  H   2U6 d   1      -7.334  29.513  -3.271  0.00  0.00     0.086 H 
ATOM     57  C27 2U6 d   1      -9.809  30.772  -1.370  0.00  0.00     0.058 A 
ATOM     58  H   2U6 d   1      -7.902  31.560  -1.985  0.00  0.00     0.085 H 
ATOM     59  C28 2U6 d   1     -10.668  29.675  -1.432  0.00  0.00     0.019 A 
ATOM     60  N2  2U6 d   1     -10.336  28.582  -2.116  0.00  0.00    -0.264 NA
ATOM     61  H   2U6 d   1     -11.620  29.713  -0.915  0.00  0.00     0.116 H 
BRANCH  57  62
ATOM     62  C29 2U6 d   1     -10.185  32.035  -0.595  0.00  0.00     0.210 C 
ATOM     63  O4  2U6 d   1     -11.314  32.078  -0.057  0.00  0.00    -0.644 OA
ATOM     64  O3  2U6 d   1      -9.356  32.973  -0.589  0.00  0.00    -0.644 OA
ENDBRANCH  57  62
ENDBRANCH  50  53
ENDBRANCH   3  50
BRANCH   3  65
ATOM     65  C23 2U6 d   1      -7.252  26.455  -1.776  0.00  0.00    -0.039 C 
ATOM     66  H   2U6 d   1      -6.434  26.980  -2.292  0.00  0.00     0.032 H 
ATOM     67  H   2U6 d   1      -6.851  25.573  -1.256  0.00  0.00     0.032 H 
ATOM     68  H   2U6 d   1      -7.718  27.131  -1.044  0.00  0.00     0.032 H 
ENDBRANCH   3  65
BRANCH   1  69
ATOM     69  C6  2U6 d   1     -11.236  23.839  -1.921  0.00  0.00    -0.025 A 
ATOM     70  C11 2U6 d   1     -12.540  23.753  -2.407  0.00  0.00    -0.053 A 
ATOM     71  C10 2U6 d   1     -13.544  23.171  -1.629  0.00  0.00     0.034 A 
ATOM     72  H   2U6 d   1     -12.776  24.139  -3.392  0.00  0.00     0.087 H 
ATOM     73 CL1  2U6 d   1     -15.165  23.072  -2.248  0.00  0.00    -0.084 Cl
ATOM     74  C9  2U6 d   1     -13.256  22.674  -0.358  0.00  0.00    -0.062 A 
ATOM     75  C8  2U6 d   1     -11.957  22.759   0.135  0.00  0.00    -0.081 A 
ATOM     76  H   2U6 d   1     -14.039  22.224   0.242  0.00  0.00     0.086 H 
ATOM     77  C7  2U6 d   1     -10.957  23.339  -0.649  0.00  0.00    -0.074 A 
ATOM     78  H   2U6 d   1     -11.723  22.377   1.122  0.00  0.00     0.083 H 
ATOM     79  H   2U6 d   1      -9.946  23.402  -0.262  0.00  0.00     0.084 H 
ENDBRANCH   1  69
TORSDOF 14
