REMARK  13 active torsions:
REMARK  status: ('A' for Active; 'I' for Inactive)
REMARK    1  A    between atoms: C6_7  and  C2_8 
REMARK    2  A    between atoms: C3_10  and  C22_11 
REMARK    3  A    between atoms: C22_11  and  C23_12 
REMARK    4  A    between atoms: N1_17  and  C17_18 
REMARK    5  A    between atoms: C17_18  and  C19_19 
REMARK    6  A    between atoms: C17_18  and  C18_21 
REMARK    7  A    between atoms: C19_19  and  C21_20 
REMARK    8  A    between atoms: C18_21  and  S1_22 
REMARK    9  A    between atoms: S1_22  and  C20_25 
REMARK   10  A    between atoms: C20_25  and  C25_26 
REMARK   11  A    between atoms: C20_25  and  C26_27 
REMARK   12  A    between atoms: C20_25  and  C24_28 
REMARK   13  A    between atoms: C1_29  and  C5_30 
ROOT
ATOM      1  C2  2U7 d   1      15.094  -0.353 -36.908  0.00  0.00     0.088 C 
ATOM      2  O1  2U7 d   1      15.561  -1.605 -37.413  0.00  0.00    -0.364 OA
ATOM      3  C3  2U7 d   1      14.447  -2.419 -37.750  0.00  0.00     0.125 C 
ATOM      4  C4  2U7 d   1      13.601  -2.617 -36.502  0.00  0.00     0.250 C 
ATOM      5  O2  2U7 d   1      12.858  -3.591 -36.470  0.00  0.00    -0.270 OA
ATOM      6  N1  2U7 d   1      13.667  -1.702 -35.412  0.00  0.00    -0.333 N 
ATOM      7  C1  2U7 d   1      14.570  -0.522 -35.475  0.00  0.00     0.069 C 
ATOM      8  H   2U7 d   1      14.256  -0.016 -37.536  0.00  0.00     0.094 H 
ATOM      9  H   2U7 d   1      13.847  -1.950 -38.544  0.00  0.00     0.099 H 
ATOM     10  H   2U7 d   1      15.412  -0.689 -34.786  0.00  0.00     0.085 H 
ENDROOT
BRANCH   6  11
ATOM     11  C17 2U7 d   1      12.856  -1.947 -34.194  0.00  0.00     0.028 C 
ATOM     12  H   2U7 d   1      13.214  -1.288 -33.389  0.00  0.00     0.074 H 
BRANCH  11  13
ATOM     13  C19 2U7 d   1      11.380  -1.648 -34.467  0.00  0.00    -0.048 C 
ATOM     14  H   2U7 d   1      10.892  -2.564 -34.831  0.00  0.00     0.035 H 
ATOM     15  H   2U7 d   1      11.311  -0.865 -35.236  0.00  0.00     0.035 H 
BRANCH  13  16
ATOM     16  C21 2U7 d   1      10.662  -1.172 -33.214  0.00  0.00    -0.075 C 
ATOM     17  H   2U7 d   1       9.607  -0.968 -33.451  0.00  0.00     0.027 H 
ATOM     18  H   2U7 d   1      11.139  -0.252 -32.845  0.00  0.00     0.027 H 
ATOM     19  H   2U7 d   1      10.720  -1.951 -32.440  0.00  0.00     0.027 H 
ENDBRANCH  13  16
ENDBRANCH  11  13
BRANCH  11  20
ATOM     20  C18 2U7 d   1      12.997  -3.409 -33.747  0.00  0.00     0.048 C 
ATOM     21  H   2U7 d   1      12.701  -4.055 -34.586  0.00  0.00     0.059 H 
ATOM     22  H   2U7 d   1      12.318  -3.576 -32.898  0.00  0.00     0.059 H 
BRANCH  20  23
ATOM     23  S1  2U7 d   1      14.687  -3.882 -33.229  0.00  0.00     0.153 S 
ATOM     24  O5  2U7 d   1      15.682  -3.622 -34.323  0.00  0.00    -0.227 OA
ATOM     25  O6  2U7 d   1      15.018  -3.032 -32.035  0.00  0.00    -0.227 OA
BRANCH  23  26
ATOM     26  C20 2U7 d   1      14.717  -5.668 -32.766  0.00  0.00     0.053 C 
BRANCH  26  27
ATOM     27  C25 2U7 d   1      13.379  -6.075 -32.129  0.00  0.00    -0.057 C 
ATOM     28  H   2U7 d   1      13.411  -7.141 -31.858  0.00  0.00     0.029 H 
ATOM     29  H   2U7 d   1      12.564  -5.904 -32.847  0.00  0.00     0.029 H 
ATOM     30  H   2U7 d   1      13.205  -5.472 -31.226  0.00  0.00     0.029 H 
ENDBRANCH  26  27
BRANCH  26  31
ATOM     31  C26 2U7 d   1      14.980  -6.535 -34.001  0.00  0.00    -0.057 C 
ATOM     32  H   2U7 d   1      14.995  -7.595 -33.708  0.00  0.00     0.029 H 
ATOM     33  H   2U7 d   1      15.951  -6.262 -34.440  0.00  0.00     0.029 H 
ATOM     34  H   2U7 d   1      14.183  -6.370 -34.741  0.00  0.00     0.029 H 
ENDBRANCH  26  31
BRANCH  26  35
ATOM     35  C24 2U7 d   1      15.841  -5.892 -31.756  0.00  0.00    -0.057 C 
ATOM     36  H   2U7 d   1      15.871  -6.954 -31.470  0.00  0.00     0.029 H 
ATOM     37  H   2U7 d   1      15.659  -5.277 -30.862  0.00  0.00     0.029 H 
ATOM     38  H   2U7 d   1      16.802  -5.607 -32.208  0.00  0.00     0.029 H 
ENDBRANCH  26  35
ENDBRANCH  23  26
ENDBRANCH  20  23
ENDBRANCH  11  20
ENDBRANCH   6  11
BRANCH   7  39
ATOM     39  C5  2U7 d   1      13.868   0.801 -35.104  0.00  0.00    -0.032 A 
ATOM     40  C7  2U7 d   1      12.816   1.307 -35.878  0.00  0.00    -0.073 A 
ATOM     41  C8  2U7 d   1      12.199   2.514 -35.541  0.00  0.00    -0.061 A 
ATOM     42  H   2U7 d   1      12.477   0.756 -36.748  0.00  0.00     0.084 H 
ATOM     43  C9  2U7 d   1      12.652   3.215 -34.426  0.00  0.00     0.034 A 
ATOM     44  H   2U7 d   1      11.380   2.899 -36.138  0.00  0.00     0.086 H 
ATOM     45 CL1  2U7 d   1      11.919   4.718 -33.996  0.00  0.00    -0.084 Cl
ATOM     46  C10 2U7 d   1      13.700   2.720 -33.652  0.00  0.00    -0.061 A 
ATOM     47  C11 2U7 d   1      14.313   1.515 -33.998  0.00  0.00    -0.073 A 
ATOM     48  H   2U7 d   1      14.039   3.271 -32.782  0.00  0.00     0.086 H 
ATOM     49  H   2U7 d   1      15.137   1.136 -33.404  0.00  0.00     0.084 H 
ENDBRANCH   7  39
BRANCH   3  50
ATOM     50  C22 2U7 d   1      15.004  -3.764 -38.226  0.00  0.00     0.048 C 
ATOM     51  H   2U7 d   1      14.232  -4.541 -38.122  0.00  0.00     0.053 H 
ATOM     52  H   2U7 d   1      15.882  -4.035 -37.621  0.00  0.00     0.053 H 
BRANCH  50  53
ATOM     53  C23 2U7 d   1      15.410  -3.639 -39.689  0.00  0.00     0.175 C 
ATOM     54  O4  2U7 d   1      16.634  -3.665 -39.947  0.00  0.00    -0.648 OA
ATOM     55  O3  2U7 d   1      14.477  -3.474 -40.507  0.00  0.00    -0.648 OA
ENDBRANCH  50  53
ENDBRANCH   3  50
BRANCH   1  56
ATOM     56  C6  2U7 d   1      16.203   0.689 -37.007  0.00  0.00    -0.025 A 
ATOM     57  C16 2U7 d   1      15.908   1.938 -37.546  0.00  0.00    -0.053 A 
ATOM     58  C15 2U7 d   1      16.912   2.897 -37.633  0.00  0.00     0.034 A 
ATOM     59  H   2U7 d   1      14.906   2.161 -37.894  0.00  0.00     0.087 H 
ATOM     60 CL2  2U7 d   1      16.559   4.453 -38.296  0.00  0.00    -0.084 Cl
ATOM     61  C14 2U7 d   1      18.203   2.609 -37.189  0.00  0.00    -0.062 A 
ATOM     62  C13 2U7 d   1      18.498   1.361 -36.649  0.00  0.00    -0.081 A 
ATOM     63  H   2U7 d   1      18.980   3.361 -37.265  0.00  0.00     0.086 H 
ATOM     64  C12 2U7 d   1      17.498   0.393 -36.561  0.00  0.00    -0.074 A 
ATOM     65  H   2U7 d   1      19.500   1.142 -36.298  0.00  0.00     0.083 H 
ATOM     66  H   2U7 d   1      17.722  -0.585 -36.149  0.00  0.00     0.084 H 
ENDBRANCH   1  56
TORSDOF 13
