REMARK  13 active torsions:
REMARK  status: ('A' for Active; 'I' for Inactive)
REMARK    1  A    between atoms: C23_1  and  C22_2 
REMARK    2  A    between atoms: C22_2  and  C21_3 
REMARK    3  A    between atoms: C21_3  and  C20_4 
REMARK    4  A    between atoms: C20_4  and  C12_5 
REMARK    5  A    between atoms: C12_5  and  C24_6 
REMARK    6  A    between atoms: C12_5  and  O3_10 
REMARK    7  A    between atoms: C12_5  and  C9_11 
REMARK    8  A    between atoms: C6_16  and  N1_17 
REMARK    9  A    between atoms: C2_18  and  C13_20 
REMARK   10  A    between atoms: C14_21  and  C15_22 
REMARK   11  A    between atoms: N2_25  and  S1_26 
REMARK   12  A    between atoms: S1_26  and  C5_29 
REMARK   13  A    between atoms: C17_32  and  N4_33 
ROOT
ATOM      1  N1  2TE d   1      39.999 -21.506 -16.793  0.00  0.00    -0.363 N 
ATOM      2  C2  2TE d   1      39.939 -20.934 -15.483  0.00  0.00     0.083 C 
ATOM      3  C3  2TE d   1      41.308 -21.038 -14.781  0.00  0.00     0.022 C 
ATOM      4  C1  2TE d   1      40.885 -22.698 -17.010  0.00  0.00     0.008 C 
ATOM      5  C4  2TE d   1      42.191 -22.654 -16.209  0.00  0.00     0.008 C 
ATOM      6  N2  2TE d   1      41.835 -22.395 -14.828  0.00  0.00    -0.202 NA
ATOM      7  H   2TE d   1      39.610 -19.885 -15.520  0.00  0.00     0.095 H 
ATOM      8  H   2TE d   1      41.193 -20.736 -13.729  0.00  0.00     0.061 H 
ATOM      9  H   2TE d   1      42.017 -20.362 -15.281  0.00  0.00     0.061 H 
ATOM     10  H   2TE d   1      41.136 -22.753 -18.079  0.00  0.00     0.066 H 
ATOM     11  H   2TE d   1      40.329 -23.601 -16.717  0.00  0.00     0.066 H 
ATOM     12  H   2TE d   1      42.840 -21.851 -16.588  0.00  0.00     0.059 H 
ATOM     13  H   2TE d   1      42.715 -23.617 -16.289  0.00  0.00     0.059 H 
ENDROOT
BRANCH   1  14
ATOM     14  C6  2TE d   1      38.972 -21.244 -17.700  0.00  0.00     0.031 A 
ATOM     15  C11 2TE d   1      39.078 -21.626 -19.051  0.00  0.00    -0.057 A 
ATOM     16  C10 2TE d   1      38.012 -21.397 -19.924  0.00  0.00    -0.071 A 
ATOM     17  H   2TE d   1      39.985 -22.097 -19.413  0.00  0.00     0.086 H 
ATOM     18  C9  2TE d   1      36.845 -20.788 -19.465  0.00  0.00    -0.015 A 
ATOM     19  H   2TE d   1      38.093 -21.694 -20.963  0.00  0.00     0.084 H 
ATOM     20  C8  2TE d   1      36.714 -20.445 -18.145  0.00  0.00    -0.071 A 
ATOM     21  C7  2TE d   1      37.780 -20.668 -17.267  0.00  0.00    -0.057 A 
ATOM     22  H   2TE d   1      35.792 -20.004 -17.784  0.00  0.00     0.084 H 
ATOM     23  H   2TE d   1      37.676 -20.386 -16.226  0.00  0.00     0.086 H 
BRANCH  18  24
ATOM     24  C12 2TE d   1      35.677 -20.622 -20.395  0.00  0.00     0.182 C 
BRANCH  24  25
ATOM     25  C20 2TE d   1      35.575 -21.981 -20.999  0.00  0.00    -0.024 C 
ATOM     26  H   2TE d   1      36.447 -22.172 -21.642  0.00  0.00     0.038 H 
ATOM     27  H   2TE d   1      35.532 -22.741 -20.205  0.00  0.00     0.038 H 
BRANCH  25  28
ATOM     28  C21 2TE d   1      34.357 -22.022 -21.791  0.00  0.00    -0.062 C 
ATOM     29  H   2TE d   1      33.917 -21.203 -21.202  0.00  0.00     0.033 H 
ATOM     30  H   2TE d   1      34.881 -21.605 -22.664  0.00  0.00     0.033 H 
BRANCH  28  31
ATOM     31  C22 2TE d   1      33.267 -22.156 -22.473  0.00  0.00    -0.068 C 
ATOM     32  H   2TE d   1      32.675 -22.717 -21.735  0.00  0.00     0.032 H 
ATOM     33  H   2TE d   1      32.943 -21.105 -22.480  0.00  0.00     0.032 H 
BRANCH  31  34
ATOM     34  C23 2TE d   1      32.567 -22.624 -23.737  0.00  0.00    -0.077 C 
ATOM     35  H   2TE d   1      31.491 -22.410 -23.661  0.00  0.00     0.027 H 
ATOM     36  H   2TE d   1      32.718 -23.707 -23.860  0.00  0.00     0.027 H 
ATOM     37  H   2TE d   1      32.986 -22.095 -24.605  0.00  0.00     0.027 H 
ENDBRANCH  31  34
ENDBRANCH  28  31
ENDBRANCH  25  28
ENDBRANCH  24  25
BRANCH  24  38
ATOM     38  C24 2TE d   1      35.802 -19.564 -21.449  0.00  0.00     0.422 C 
ATOM     39  F2  2TE d   1      36.887 -19.793 -22.198  0.00  0.00    -0.167 F 
ATOM     40  F3  2TE d   1      34.716 -19.547 -22.234  0.00  0.00    -0.167 F 
ATOM     41  F1  2TE d   1      35.828 -18.459 -20.720  0.00  0.00    -0.167 F 
ENDBRANCH  24  38
BRANCH  24  42
ATOM     42  O3  2TE d   1      34.486 -20.405 -19.645  0.00  0.00    -0.376 OA
ATOM     43  H   2TE d   1      34.407 -21.076 -18.977  0.00  0.00     0.211 HD
ENDBRANCH  24  42
ENDBRANCH  18  24
ENDBRANCH   1  14
BRANCH   2  44
ATOM     44  C13 2TE d   1      38.971 -21.776 -14.785  0.00  0.00    -0.080 C 
ATOM     45  C14 2TE d   1      38.258 -22.620 -14.273  0.00  0.00    -0.109 C 
BRANCH  45  46
ATOM     46  C15 2TE d   1      37.396 -23.646 -13.725  0.00  0.00    -0.021 C 
ATOM     47  H   2TE d   1      37.387 -23.570 -12.628  0.00  0.00     0.044 H 
ATOM     48  H   2TE d   1      37.771 -24.637 -14.021  0.00  0.00     0.044 H 
ATOM     49  H   2TE d   1      36.374 -23.511 -14.110  0.00  0.00     0.044 H 
ENDBRANCH  45  46
ENDBRANCH   2  44
BRANCH   6  50
ATOM     50  S1  2TE d   1      43.199 -22.423 -14.074  0.00  0.00     0.245 S 
ATOM     51  O1  2TE d   1      42.919 -22.503 -12.619  0.00  0.00    -0.206 OA
ATOM     52  O2  2TE d   1      43.937 -23.619 -14.540  0.00  0.00    -0.206 OA
BRANCH  50  53
ATOM     53  C5  2TE d   1      44.137 -20.970 -14.428  0.00  0.00     0.092 A 
ATOM     54  C19 2TE d   1      45.102 -20.986 -15.441  0.00  0.00    -0.056 A 
ATOM     55  C18 2TE d   1      45.811 -19.817 -15.725  0.00  0.00    -0.038 A 
ATOM     56  H   2TE d   1      45.297 -21.895 -15.999  0.00  0.00     0.086 H 
ATOM     57  C17 2TE d   1      45.524 -18.674 -14.990  0.00  0.00     0.120 A 
ATOM     58  H   2TE d   1      46.568 -19.802 -16.501  0.00  0.00     0.089 H 
ATOM     59  N3  2TE d   1      44.613 -18.681 -13.994  0.00  0.00    -0.242 NA
ATOM     60  C16 2TE d   1      43.923 -19.779 -13.709  0.00  0.00     0.026 A 
ATOM     61  H   2TE d   1      43.187 -19.758 -12.914  0.00  0.00     0.117 H 
BRANCH  57  62
ATOM     62  N4  2TE d   1      46.181 -17.565 -15.249  0.00  0.00    -0.384 N 
ATOM     63  H   2TE d   1      45.979 -16.709 -14.712  0.00  0.00     0.157 HD
ATOM     64  H   2TE d   1      46.898 -17.552 -15.989  0.00  0.00     0.157 HD
ENDBRANCH  57  62
ENDBRANCH  50  53
ENDBRANCH   6  50
TORSDOF 13
