REMARK  10 active torsions:
REMARK  status: ('A' for Active; 'I' for Inactive)
REMARK    1  A    between atoms: C5_7  and  S1_8 
REMARK    2  A    between atoms: S1_8  and  N2_11 
REMARK    3  A    between atoms: C2_13  and  C13_14 
REMARK    4  A    between atoms: C14_15  and  C15_16 
REMARK    5  A    between atoms: N1_19  and  C6_20 
REMARK    6  A    between atoms: C9_25  and  C12_26 
REMARK    7  A    between atoms: C12_26  and  C21_27 
REMARK    8  A    between atoms: C12_26  and  O3_31 
REMARK    9  A    between atoms: C12_26  and  C20_32 
REMARK   10  A    between atoms: C20_32  and  O4_33 
ROOT
ATOM      1  N2  2TF d   1      -1.417 -47.121  15.076  0.00  0.00    -0.202 NA
ATOM      2  C3  2TF d   1      -2.264 -45.941  14.856  0.00  0.00     0.022 C 
ATOM      3  C2  2TF d   1      -1.671 -44.677  15.562  0.00  0.00     0.083 C 
ATOM      4  C4  2TF d   1      -1.462 -47.392  16.505  0.00  0.00     0.008 C 
ATOM      5  C1  2TF d   1      -0.691 -46.265  17.229  0.00  0.00     0.008 C 
ATOM      6  N1  2TF d   1      -1.245 -44.938  16.923  0.00  0.00    -0.363 N 
ATOM      7  H   2TF d   1      -3.268 -46.140  15.260  0.00  0.00     0.061 H 
ATOM      8  H   2TF d   1      -2.336 -45.748  13.775  0.00  0.00     0.061 H 
ATOM      9  H   2TF d   1      -2.387 -43.843  15.530  0.00  0.00     0.095 H 
ATOM     10  H   2TF d   1      -0.990 -48.363  16.716  0.00  0.00     0.059 H 
ATOM     11  H   2TF d   1      -2.507 -47.410  16.849  0.00  0.00     0.059 H 
ATOM     12  H   2TF d   1       0.362 -46.293  16.911  0.00  0.00     0.066 H 
ATOM     13  H   2TF d   1      -0.751 -46.434  18.314  0.00  0.00     0.066 H 
ENDROOT
BRANCH   6  14
ATOM     14  C6  2TF d   1      -0.996 -43.899  17.810  0.00  0.00     0.031 A 
ATOM     15  C11 2TF d   1      -1.057 -42.607  17.394  0.00  0.00    -0.057 A 
ATOM     16  C10 2TF d   1      -0.784 -41.566  18.269  0.00  0.00    -0.071 A 
ATOM     17  H   2TF d   1      -1.322 -42.387  16.366  0.00  0.00     0.086 H 
ATOM     18  C9  2TF d   1      -0.469 -41.783  19.591  0.00  0.00    -0.013 A 
ATOM     19  H   2TF d   1      -0.820 -40.548  17.899  0.00  0.00     0.084 H 
ATOM     20  C8  2TF d   1      -0.414 -43.077  20.042  0.00  0.00    -0.071 A 
ATOM     21  C7  2TF d   1      -0.667 -44.119  19.149  0.00  0.00    -0.057 A 
ATOM     22  H   2TF d   1      -0.177 -43.288  21.079  0.00  0.00     0.084 H 
ATOM     23  H   2TF d   1      -0.606 -45.140  19.509  0.00  0.00     0.086 H 
BRANCH  18  24
ATOM     24  C12 2TF d   1      -0.133 -40.614  20.477  0.00  0.00     0.204 C 
BRANCH  24  25
ATOM     25  C21 2TF d   1      -1.215 -40.328  21.505  0.00  0.00     0.424 C 
ATOM     26  F2  2TF d   1      -2.313 -40.057  20.821  0.00  0.00    -0.167 F 
ATOM     27  F3  2TF d   1      -1.232 -41.378  22.355  0.00  0.00    -0.167 F 
ATOM     28  F1  2TF d   1      -0.994 -39.216  22.200  0.00  0.00    -0.167 F 
ENDBRANCH  24  25
BRANCH  24  29
ATOM     29  O3  2TF d   1       0.071 -39.452  19.684  0.00  0.00    -0.375 OA
ATOM     30  H   2TF d   1       0.747 -39.625  19.039  0.00  0.00     0.211 HD
ENDBRANCH  24  29
BRANCH  24  31
ATOM     31  C20 2TF d   1       1.225 -40.851  21.100  0.00  0.00     0.058 C 
ATOM     32  H   2TF d   1       1.961 -41.136  20.334  0.00  0.00     0.079 H 
ATOM     33  H   2TF d   1       1.170 -41.638  21.866  0.00  0.00     0.079 H 
BRANCH  31  34
ATOM     34  O4  2TF d   1       1.571 -39.580  21.695  0.00  0.00    -0.397 OA
ATOM     35  H   2TF d   1       1.600 -38.913  21.019  0.00  0.00     0.209 HD
ENDBRANCH  31  34
ENDBRANCH  24  31
ENDBRANCH  18  24
ENDBRANCH   6  14
BRANCH   3  36
ATOM     36  C13 2TF d   1      -0.410 -44.372  14.825  0.00  0.00    -0.080 C 
ATOM     37  C14 2TF d   1       0.615 -44.082  14.266  0.00  0.00    -0.109 C 
BRANCH  37  38
ATOM     38  C15 2TF d   1       1.870 -43.829  13.537  0.00  0.00    -0.021 C 
ATOM     39  H   2TF d   1       2.218 -42.808  13.750  0.00  0.00     0.044 H 
ATOM     40  H   2TF d   1       1.695 -43.939  12.457  0.00  0.00     0.044 H 
ATOM     41  H   2TF d   1       2.634 -44.552  13.860  0.00  0.00     0.044 H 
ENDBRANCH  37  38
ENDBRANCH   3  36
BRANCH   1  42
ATOM     42  S1  2TF d   1      -2.013 -48.328  14.234  0.00  0.00     0.245 S 
ATOM     43  O1  2TF d   1      -1.865 -47.933  12.822  0.00  0.00    -0.206 OA
ATOM     44  O2  2TF d   1      -1.359 -49.587  14.603  0.00  0.00    -0.206 OA
BRANCH  42  45
ATOM     45  C5  2TF d   1      -3.734 -48.429  14.509  0.00  0.00     0.092 A 
ATOM     46  C19 2TF d   1      -4.250 -49.111  15.609  0.00  0.00    -0.056 A 
ATOM     47  C18 2TF d   1      -5.612 -49.089  15.850  0.00  0.00    -0.038 A 
ATOM     48  H   2TF d   1      -3.588 -49.656  16.272  0.00  0.00     0.086 H 
ATOM     49  C17 2TF d   1      -6.413 -48.406  14.955  0.00  0.00     0.120 A 
ATOM     50  H   2TF d   1      -6.037 -49.591  16.712  0.00  0.00     0.089 H 
ATOM     51  N4  2TF d   1      -7.724 -48.396  15.139  0.00  0.00    -0.384 N 
ATOM     52  N3  2TF d   1      -5.880 -47.753  13.873  0.00  0.00    -0.242 NA
ATOM     53  H   2TF d   1      -8.333 -47.891  14.479  0.00  0.00     0.157 HD
ATOM     54  H   2TF d   1      -8.135 -48.893  15.942  0.00  0.00     0.157 HD
ATOM     55  C16 2TF d   1      -4.590 -47.745  13.644  0.00  0.00     0.026 A 
ATOM     56  H   2TF d   1      -4.190 -47.211  12.789  0.00  0.00     0.117 H 
ENDBRANCH  42  45
ENDBRANCH   1  42
TORSDOF 10
