REMARK  9 active torsions:
REMARK  status: ('A' for Active; 'I' for Inactive)
REMARK    1  A    between atoms: C17_3  and  N4_4 
REMARK    2  A    between atoms: C15_7  and  S2_8 
REMARK    3  A    between atoms: S2_8  and  N2_11 
REMARK    4  A    between atoms: C2_13  and  C5_14 
REMARK    5  A    between atoms: C6_15  and  C7_16 
REMARK    6  A    between atoms: N1_19  and  C8_20 
REMARK    7  A    between atoms: C11_25  and  S1_26 
REMARK    8  A    between atoms: S1_26  and  C14_27 
REMARK    9  A    between atoms: S1_26  and  N5_32 
ROOT
ATOM      1  N2  2TG d   1      41.447 -22.385 -14.929  0.00  0.00    -0.202 NA
ATOM      2  C3  2TG d   1      40.864 -21.063 -14.709  0.00  0.00     0.022 C 
ATOM      3  C2  2TG d   1      39.489 -20.972 -15.404  0.00  0.00     0.083 C 
ATOM      4  C4  2TG d   1      41.708 -22.604 -16.331  0.00  0.00     0.008 C 
ATOM      5  C1  2TG d   1      40.380 -22.663 -17.068  0.00  0.00     0.008 C 
ATOM      6  N1  2TG d   1      39.545 -21.496 -16.765  0.00  0.00    -0.363 N 
ATOM      7  H6  2TG d   1      41.534 -20.296 -15.124  0.00  0.00     0.061 H 
ATOM      8  H7  2TG d   1      40.739 -20.895 -13.629  0.00  0.00     0.061 H 
ATOM      9  H8  2TG d   1      39.128 -19.933 -15.400  0.00  0.00     0.095 H 
ATOM     10  H12 2TG d   1      42.248 -23.553 -16.464  0.00  0.00     0.059 H 
ATOM     11  H13 2TG d   1      42.316 -21.778 -16.728  0.00  0.00     0.059 H 
ATOM     12  H14 2TG d   1      39.844 -23.575 -16.766  0.00  0.00     0.066 H 
ATOM     13  H15 2TG d   1      40.573 -22.693 -18.151  0.00  0.00     0.066 H 
ENDROOT
BRANCH   6  14
ATOM     14  C8  2TG d   1      38.570 -21.101 -17.649  0.00  0.00     0.031 A 
ATOM     15  C13 2TG d   1      38.549 -21.507 -18.972  0.00  0.00    -0.056 A 
ATOM     16  C12 2TG d   1      37.549 -21.081 -19.837  0.00  0.00    -0.061 A 
ATOM     17  H16 2TG d   1      39.326 -22.168 -19.339  0.00  0.00     0.087 H 
ATOM     18  C11 2TG d   1      36.531 -20.274 -19.369  0.00  0.00     0.048 A 
ATOM     19  H17 2TG d   1      37.568 -21.382 -20.878  0.00  0.00     0.085 H 
ATOM     20  C10 2TG d   1      36.535 -19.906 -18.054  0.00  0.00    -0.061 A 
ATOM     21  C9  2TG d   1      37.540 -20.315 -17.190  0.00  0.00    -0.056 A 
ATOM     22  H19 2TG d   1      35.734 -19.280 -17.677  0.00  0.00     0.085 H 
ATOM     23  H18 2TG d   1      37.513 -20.014 -16.149  0.00  0.00     0.087 H 
BRANCH  18  24
ATOM     24  S1  2TG d   1      35.247 -19.727 -20.375  0.00  0.00     0.171 S 
ATOM     25  O1  2TG d   1      33.970 -20.035 -19.677  0.00  0.00    -0.234 OA
BRANCH  24  26
ATOM     26  C14 2TG d   1      35.210 -20.682 -21.929  0.00  0.00     0.484 C 
ATOM     27  F2  2TG d   1      34.003 -20.700 -22.634  0.00  0.00    -0.158 F 
ATOM     28  F3  2TG d   1      35.525 -21.983 -21.717  0.00  0.00    -0.158 F 
ATOM     29  F1  2TG d   1      36.215 -20.000 -22.517  0.00  0.00    -0.158 F 
ENDBRANCH  24  26
BRANCH  24  30
ATOM     30  N5  2TG d   1      35.293 -18.145 -20.658  0.00  0.00    -0.241 NA
ATOM     31  H20 2TG d   1      35.317 -17.496 -19.887  0.00  0.00     0.198 HD
ENDBRANCH  24  30
ENDBRANCH  18  24
ENDBRANCH   6  14
BRANCH   3  32
ATOM     32  C5  2TG d   1      38.550 -21.882 -14.681  0.00  0.00    -0.080 C 
ATOM     33  C6  2TG d   1      37.758 -22.684 -14.219  0.00  0.00    -0.109 C 
BRANCH  33  34
ATOM     34  C7  2TG d   1      36.909 -23.710 -13.613  0.00  0.00    -0.021 C 
ATOM     35  H9  2TG d   1      35.855 -23.500 -13.849  0.00  0.00     0.044 H 
ATOM     36  H10 2TG d   1      37.049 -23.704 -12.522  0.00  0.00     0.044 H 
ATOM     37  H11 2TG d   1      37.185 -24.697 -14.013  0.00  0.00     0.044 H 
ENDBRANCH  33  34
ENDBRANCH   3  32
BRANCH   1  38
ATOM     38  S2  2TG d   1      42.831 -22.449 -14.151  0.00  0.00     0.245 S 
ATOM     39  O2  2TG d   1      42.491 -22.530 -12.716  0.00  0.00    -0.206 OA
ATOM     40  O3  2TG d   1      43.678 -23.598 -14.569  0.00  0.00    -0.206 OA
BRANCH  38  41
ATOM     41  C15 2TG d   1      43.733 -20.997 -14.442  0.00  0.00     0.092 A 
ATOM     42  C19 2TG d   1      44.601 -20.899 -15.529  0.00  0.00    -0.056 A 
ATOM     43  C18 2TG d   1      45.276 -19.713 -15.753  0.00  0.00    -0.038 A 
ATOM     44  H1  2TG d   1      44.745 -21.744 -16.192  0.00  0.00     0.086 H 
ATOM     45  C17 2TG d   1      45.062 -18.670 -14.884  0.00  0.00     0.120 A 
ATOM     46  H2  2TG d   1      45.955 -19.609 -16.591  0.00  0.00     0.089 H 
ATOM     47  N3  2TG d   1      44.225 -18.815 -13.828  0.00  0.00    -0.242 NA
ATOM     48  C16 2TG d   1      43.568 -19.927 -13.586  0.00  0.00     0.026 A 
ATOM     49  H5  2TG d   1      42.908 -20.003 -12.729  0.00  0.00     0.117 H 
BRANCH  45  50
ATOM     50  N4  2TG d   1      45.703 -17.523 -15.059  0.00  0.00    -0.384 N 
ATOM     51  H3  2TG d   1      45.544 -16.740 -14.409  0.00  0.00     0.157 HD
ATOM     52  H4  2TG d   1      46.360 -17.415 -15.845  0.00  0.00     0.157 HD
ENDBRANCH  45  50
ENDBRANCH  38  41
ENDBRANCH   1  38
TORSDOF 9
