REMARK  9 active torsions:
REMARK  status: ('A' for Active; 'I' for Inactive)
REMARK    1  A    between atoms: C11_1  and  N3_2 
REMARK    2  A    between atoms: N3_2  and  S2_3 
REMARK    3  A    between atoms: S2_3  and  C16_6 
REMARK    4  A    between atoms: C5_11  and  N1_12 
REMARK    5  A    between atoms: C2_13  and  C17_15 
REMARK    6  A    between atoms: C18_16  and  C19_17 
REMARK    7  A    between atoms: N2_20  and  S1_21 
REMARK    8  A    between atoms: S1_21  and  C10_24 
REMARK    9  A    between atoms: C14_27  and  N5_28 
ROOT
ATOM      1  N1  2TJ d   1      73.297  84.262  -5.387  0.00  0.00    -0.363 N 
ATOM      2  C2  2TJ d   1      72.916  84.458  -6.792  0.00  0.00     0.083 C 
ATOM      3  C3  2TJ d   1      72.321  83.187  -7.406  0.00  0.00     0.022 C 
ATOM      4  C1  2TJ d   1      73.905  82.964  -5.015  0.00  0.00     0.008 C 
ATOM      5  C4  2TJ d   1      73.225  81.767  -5.726  0.00  0.00     0.008 C 
ATOM      6  N2  2TJ d   1      73.156  82.016  -7.155  0.00  0.00    -0.202 NA
ATOM      7  H   2TJ d   1      72.198  85.285  -6.889  0.00  0.00     0.095 H 
ATOM      8  H   2TJ d   1      72.225  83.329  -8.493  0.00  0.00     0.061 H 
ATOM      9  H   2TJ d   1      71.326  83.014  -6.970  0.00  0.00     0.061 H 
ATOM     10  H   2TJ d   1      73.811  82.829  -3.928  0.00  0.00     0.066 H 
ATOM     11  H   2TJ d   1      74.969  82.981  -5.292  0.00  0.00     0.066 H 
ATOM     12  H   2TJ d   1      72.207  81.637  -5.329  0.00  0.00     0.059 H 
ATOM     13  H   2TJ d   1      73.810  80.854  -5.543  0.00  0.00     0.059 H 
ENDROOT
BRANCH   1  14
ATOM     14  C5  2TJ d   1      73.433  85.322  -4.522  0.00  0.00     0.031 A 
ATOM     15  C9  2TJ d   1      73.293  86.608  -4.970  0.00  0.00    -0.056 A 
ATOM     16  C8  2TJ d   1      73.442  87.651  -4.073  0.00  0.00    -0.058 A 
ATOM     17  H   2TJ d   1      73.069  86.806  -6.012  0.00  0.00     0.087 H 
ATOM     18  C16 2TJ d   1      73.698  87.414  -2.742  0.00  0.00     0.079 A 
ATOM     19  H   2TJ d   1      73.356  88.673  -4.425  0.00  0.00     0.086 H 
ATOM     20  C7  2TJ d   1      73.818  86.142  -2.258  0.00  0.00    -0.058 A 
ATOM     21  C6  2TJ d   1      73.691  85.110  -3.154  0.00  0.00    -0.056 A 
ATOM     22  H   2TJ d   1      74.006  85.955  -1.207  0.00  0.00     0.086 H 
ATOM     23  H   2TJ d   1      73.793  84.092  -2.795  0.00  0.00     0.087 H 
BRANCH  18  24
ATOM     24  S2  2TJ d   1      73.851  88.764  -1.710  0.00  0.00     0.258 S 
ATOM     25  O3  2TJ d   1      72.980  89.814  -2.309  0.00  0.00    -0.201 OA
ATOM     26  O4  2TJ d   1      75.328  89.155  -1.604  0.00  0.00    -0.201 OA
BRANCH  24  27
ATOM     27  N3  2TJ d   1      73.307  88.502  -0.345  0.00  0.00    -0.320 N 
ATOM     28  H   2TJ d   1      73.578  87.787   0.299  0.00  0.00     0.171 HD
BRANCH  27  29
ATOM     29  C11 2TJ d   1      72.246  89.573  -0.160  0.00  0.00    -0.011 C 
ATOM     30  H   2TJ d   1      71.781  89.461   0.831  0.00  0.00     0.057 H 
ATOM     31  H   2TJ d   1      71.478  89.466  -0.940  0.00  0.00     0.057 H 
ATOM     32  H   2TJ d   1      72.711  90.567  -0.237  0.00  0.00     0.057 H 
ENDBRANCH  27  29
ENDBRANCH  24  27
ENDBRANCH  18  24
ENDBRANCH   1  14
BRANCH   2  33
ATOM     33  C17 2TJ d   1      74.210  84.783  -7.467  0.00  0.00    -0.080 C 
ATOM     34  C18 2TJ d   1      75.314  84.995  -7.972  0.00  0.00    -0.109 C 
BRANCH  34  35
ATOM     35  C19 2TJ d   1      76.674  85.227  -8.524  0.00  0.00    -0.021 C 
ATOM     36  H   2TJ d   1      76.592  85.648  -9.537  0.00  0.00     0.044 H 
ATOM     37  H   2TJ d   1      77.220  84.273  -8.567  0.00  0.00     0.044 H 
ATOM     38  H   2TJ d   1      77.217  85.932  -7.877  0.00  0.00     0.044 H 
ENDBRANCH  34  35
ENDBRANCH   2  33
BRANCH   6  39
ATOM     39  S1  2TJ d   1      72.532  80.732  -7.906  0.00  0.00     0.245 S 
ATOM     40  O1  2TJ d   1      72.783  80.930  -9.352  0.00  0.00    -0.206 OA
ATOM     41  O2  2TJ d   1      73.132  79.492  -7.371  0.00  0.00    -0.206 OA
BRANCH  39  42
ATOM     42  C10 2TJ d   1      70.843  80.647  -7.650  0.00  0.00     0.092 A 
ATOM     43  C12 2TJ d   1      70.338  79.904  -6.593  0.00  0.00    -0.056 A 
ATOM     44  C13 2TJ d   1      68.984  79.888  -6.320  0.00  0.00    -0.038 A 
ATOM     45  H   2TJ d   1      71.015  79.328  -5.973  0.00  0.00     0.086 H 
ATOM     46  C14 2TJ d   1      68.166  80.623  -7.145  0.00  0.00     0.120 A 
ATOM     47  H   2TJ d   1      68.583  79.319  -5.489  0.00  0.00     0.089 H 
ATOM     48  N4  2TJ d   1      68.680  81.325  -8.183  0.00  0.00    -0.242 NA
ATOM     49  C15 2TJ d   1      69.971  81.357  -8.451  0.00  0.00     0.026 A 
ATOM     50  H   2TJ d   1      70.343  81.934  -9.290  0.00  0.00     0.117 H 
BRANCH  46  51
ATOM     51  N5  2TJ d   1      66.856  80.613  -6.919  0.00  0.00    -0.384 N 
ATOM     52  H   2TJ d   1      66.225  81.156  -7.525  0.00  0.00     0.157 HD
ATOM     53  H   2TJ d   1      66.472  80.062  -6.138  0.00  0.00     0.157 HD
ENDBRANCH  46  51
ENDBRANCH  39  42
ENDBRANCH   6  39
TORSDOF 9
