REMARK  6 active torsions:
REMARK  status: ('A' for Active; 'I' for Inactive)
REMARK    1  A    between atoms: C1_1  and  C2_4 
REMARK    2  A    between atoms: C2_4  and  C3_5 
REMARK    3  A    between atoms: C3_5  and  O7_6 
REMARK    4  A    between atoms: C3_5  and  C4_7 
REMARK    5  A    between atoms: C3_5  and  C6_11 
REMARK    6  A    between atoms: C4_7  and  C5_8 
ROOT
ATOM      1  C3  CIT d   1      10.354   7.759   2.783  0.00  0.00     0.164 C 
ENDROOT
BRANCH   1   2
ATOM      2  C2  CIT d   1      10.466   8.889   1.754  0.00  0.00     0.054 C 
ATOM      3  H1  CIT d   1       9.471   9.324   1.577  0.00  0.00     0.054 H 
ATOM      4  H2  CIT d   1      11.143   9.667   2.136  0.00  0.00     0.054 H 
BRANCH   2   5
ATOM      5  C1  CIT d   1      11.013   8.336   0.458  0.00  0.00     0.176 C 
ATOM      6  O1  CIT d   1      10.681   7.188   0.085  0.00  0.00    -0.648 OA
ATOM      7  O2  CIT d   1      11.812   9.003  -0.248  0.00  0.00    -0.648 OA
ENDBRANCH   2   5
ENDBRANCH   1   2
BRANCH   1   8
ATOM      8  O7  CIT d   1       9.434   6.752   2.295  0.00  0.00    -0.378 OA
ATOM      9  H3  CIT d   1       9.756   6.402   1.473  0.00  0.00     0.211 HD
ENDBRANCH   1   8
BRANCH   1  10
ATOM     10  C4  CIT d   1       9.893   8.369   4.115  0.00  0.00     0.054 C 
ATOM     11  H4  CIT d   1       9.065   9.062   3.906  0.00  0.00     0.054 H 
ATOM     12  H5  CIT d   1      10.737   8.926   4.548  0.00  0.00     0.054 H 
BRANCH  10  13
ATOM     13  C5  CIT d   1       9.417   7.358   5.142  0.00  0.00     0.176 C 
ATOM     14  O3  CIT d   1       9.029   7.737   6.281  0.00  0.00    -0.648 OA
ATOM     15  O4  CIT d   1       9.424   6.135   4.879  0.00  0.00    -0.648 OA
ENDBRANCH  10  13
ENDBRANCH   1  10
BRANCH   1  16
ATOM     16  C6  CIT d   1      11.727   7.133   2.922  0.00  0.00     0.210 C 
ATOM     17  O5  CIT d   1      12.736   7.848   3.056  0.00  0.00    -0.646 OA
ATOM     18  O6  CIT d   1      11.865   5.887   2.878  0.00  0.00    -0.646 OA
ENDBRANCH   1  16
TORSDOF 6
