REMARK  2 active torsions:
REMARK  status: ('A' for Active; 'I' for Inactive)
REMARK    1  A    between atoms: C12_2  and  C11_4 
REMARK    2  A    between atoms: C11_4  and  C9_5 
ROOT
ATOM      1  C9  2SX d   1     -17.836 -30.727  33.864  0.00  0.00    -0.020 A 
ATOM      2  C5  2SX d   1     -18.783 -31.834  33.937  0.00  0.00    -0.000 A 
ATOM      3  C4  2SX d   1     -19.329 -32.531  35.010  0.00  0.00    -0.053 A 
ATOM      4  C1  2SX d   1     -20.205 -33.560  34.786  0.00  0.00     0.011 A 
ATOM      5 BR1  2SX d   1     -20.893 -34.490  36.300  0.00  0.00    -0.051 Br
ATOM      6  C8  2SX d   1     -17.655 -30.460  32.556  0.00  0.00    -0.015 A 
ATOM      7  N7  2SX d   1     -18.430 -31.308  31.791  0.00  0.00    -0.365 N 
ATOM      8  C6  2SX d   1     -19.125 -32.169  32.614  0.00  0.00     0.043 A 
ATOM      9  C3  2SX d   1     -20.015 -33.215  32.397  0.00  0.00    -0.055 A 
ATOM     10  C2  2SX d   1     -20.550 -33.895  33.474  0.00  0.00    -0.064 A 
ATOM     11  H   2SX d   1     -19.061 -32.260  36.025  0.00  0.00     0.086 H 
ATOM     12  H   2SX d   1     -16.995 -29.689  32.161  0.00  0.00     0.112 H 
ATOM     13  H   2SX d   1     -18.481 -31.299  30.762  0.00  0.00     0.165 HD
ATOM     14  H   2SX d   1     -20.288 -33.496  31.386  0.00  0.00     0.087 H 
ATOM     15  H   2SX d   1     -21.250 -34.703  33.298  0.00  0.00     0.085 H 
ENDROOT
BRANCH   1  16
ATOM     16  C11 2SX d   1     -17.201 -30.044  35.054  0.00  0.00     0.042 C 
ATOM     17  H   2SX d   1     -16.341 -29.454  34.704  0.00  0.00     0.056 H 
ATOM     18  H   2SX d   1     -17.943 -29.374  35.513  0.00  0.00     0.056 H 
BRANCH  16  19
ATOM     19  C12 2SX d   1     -16.719 -31.029  36.106  0.00  0.00     0.177 C 
ATOM     20  O14 2SX d   1     -16.064 -32.009  35.806  0.00  0.00    -0.648 OA
ATOM     21  O13 2SX d   1     -17.026 -30.819  37.395  0.00  0.00    -0.648 OA
ENDBRANCH  16  19
ENDBRANCH   1  16
TORSDOF 2
