REMARK  10 active torsions:
REMARK  status: ('A' for Active; 'I' for Inactive)
REMARK    1  A    between atoms: C01_1  and  C05_2 
REMARK    2  A    between atoms: C22_12  and  C23_13 
REMARK    3  A    between atoms: C24_14  and  C25_15 
REMARK    4  A    between atoms: C25_15  and  O27_16 
REMARK    5  A    between atoms: C25_15  and  C41_21 
REMARK    6  A    between atoms: O27_16  and  C28_17 
REMARK    7  A    between atoms: C28_17  and  C29_18 
REMARK    8  A    between atoms: C28_17  and  C33_19 
REMARK    9  A    between atoms: C28_17  and  C37_20 
REMARK   10  A    between atoms: N45_24  and  C46_25 
ROOT
ATOM      1  C23 2SQ d   1     -45.734 -15.182  15.620  0.00  0.00     0.012 A 
ATOM      2  C24 2SQ d   1     -46.618 -14.179  15.510  0.00  0.00     0.066 A 
ATOM      3  N45 2SQ d   1     -48.012 -14.412  15.742  0.00  0.00    -0.318 N 
ATOM      4  C50 2SQ d   1     -48.501 -15.675  16.086  0.00  0.00     0.258 A 
ATOM      5  O51 2SQ d   1     -49.693 -15.840  16.264  0.00  0.00    -0.267 OA
ATOM      6  C52 2SQ d   1     -47.513 -16.770  16.204  0.00  0.00     0.043 A 
ATOM      7  C53 2SQ d   1     -47.940 -18.053  16.543  0.00  0.00    -0.067 A 
ATOM      8  C55 2SQ d   1     -47.025 -19.086  16.661  0.00  0.00    -0.082 A 
ATOM      9  C57 2SQ d   1     -45.685 -18.860  16.438  0.00  0.00    -0.082 A 
ATOM     10  C59 2SQ d   1     -45.240 -17.594  16.098  0.00  0.00    -0.071 A 
ATOM     11  C61 2SQ d   1     -46.147 -16.535  15.984  0.00  0.00    -0.007 A 
ATOM     12  H   2SQ d   1     -48.993 -18.243  16.715  0.00  0.00     0.085 H 
ATOM     13  H   2SQ d   1     -47.366 -20.079  16.931  0.00  0.00     0.083 H 
ATOM     14  H   2SQ d   1     -44.977 -19.676  16.529  0.00  0.00     0.083 H 
ATOM     15  H   2SQ d   1     -44.185 -17.423  15.919  0.00  0.00     0.084 H 
ENDROOT
BRANCH   1  16
ATOM     16  C22 2SQ d   1     -44.269 -14.966  15.400  0.00  0.00    -0.013 A 
ATOM     17  C05 2SQ d   1     -43.552 -15.108  14.053  0.00  0.00    -0.042 A 
ATOM     18  C06 2SQ d   1     -42.074 -14.851  13.962  0.00  0.00    -0.015 A 
ATOM     19  C07 2SQ d   1     -41.433 -15.014  12.611  0.00  0.00    -0.036 C 
ATOM     20  C17 2SQ d   1     -41.377 -14.510  15.041  0.00  0.00     0.114 A 
ATOM     21  C10 2SQ d   1     -39.921 -14.948  12.733  0.00  0.00    -0.041 C 
ATOM     22  H   2SQ d   1     -41.779 -14.209  11.946  0.00  0.00     0.040 H 
ATOM     23  H   2SQ d   1     -41.721 -15.988  12.188  0.00  0.00     0.040 H 
ATOM     24  C13 2SQ d   1     -39.534 -13.890  13.733  0.00  0.00     0.026 C 
ATOM     25  H   2SQ d   1     -39.486 -14.700  11.753  0.00  0.00     0.036 H 
ATOM     26  H   2SQ d   1     -39.539 -15.924  13.068  0.00  0.00     0.036 H 
ATOM     27  O16 2SQ d   1     -40.038 -14.248  15.037  0.00  0.00    -0.347 OA
ATOM     28  H   2SQ d   1     -39.962 -12.924  13.428  0.00  0.00     0.075 H 
ATOM     29  H   2SQ d   1     -38.438 -13.809  13.774  0.00  0.00     0.075 H 
ATOM     30  C18 2SQ d   1     -41.995 -14.373  16.281  0.00  0.00     0.151 A 
ATOM     31  F19 2SQ d   1     -41.324 -14.002  17.441  0.00  0.00    -0.203 F 
ATOM     32  C20 2SQ d   1     -43.434 -14.576  16.595  0.00  0.00    -0.032 A 
ATOM     33  H   2SQ d   1     -43.845 -14.455  17.591  0.00  0.00     0.089 H 
BRANCH  17  34
ATOM     34  C01 2SQ d   1     -44.365 -15.503  12.813  0.00  0.00    -0.050 C 
ATOM     35  H   2SQ d   1     -43.698 -15.559  11.940  0.00  0.00     0.033 H 
ATOM     36  H   2SQ d   1     -45.145 -14.749  12.631  0.00  0.00     0.033 H 
ATOM     37  H   2SQ d   1     -44.834 -16.484  12.979  0.00  0.00     0.033 H 
ENDBRANCH  17  34
ENDBRANCH   1  16
BRANCH   2  38
ATOM     38  C25 2SQ d   1     -46.140 -12.778  15.135  0.00  0.00     0.163 C 
ATOM     39  H   2SQ d   1     -45.041 -12.772  15.172  0.00  0.00     0.110 H 
BRANCH  38  40
ATOM     40  O27 2SQ d   1     -46.638 -11.795  16.053  0.00  0.00    -0.359 OA
BRANCH  40  41
ATOM     41  C28 2SQ d   1     -45.990 -11.476  17.325  0.00  0.00     0.051 C 
BRANCH  41  42
ATOM     42  C29 2SQ d   1     -44.498 -11.253  17.195  0.00  0.00    -0.048 C 
ATOM     43  H   2SQ d   1     -44.075 -11.018  18.183  0.00  0.00     0.031 H 
ATOM     44  H   2SQ d   1     -44.311 -10.415  16.508  0.00  0.00     0.031 H 
ATOM     45  H   2SQ d   1     -44.024 -12.164  16.800  0.00  0.00     0.031 H 
ENDBRANCH  41  42
BRANCH  41  46
ATOM     46  C33 2SQ d   1     -46.292 -12.609  18.278  0.00  0.00    -0.048 C 
ATOM     47  H   2SQ d   1     -45.820 -12.406  19.250  0.00  0.00     0.031 H 
ATOM     48  H   2SQ d   1     -45.895 -13.549  17.867  0.00  0.00     0.031 H 
ATOM     49  H   2SQ d   1     -47.380 -12.697  18.410  0.00  0.00     0.031 H 
ENDBRANCH  41  46
BRANCH  41  50
ATOM     50  C37 2SQ d   1     -46.674 -10.203  17.769  0.00  0.00    -0.048 C 
ATOM     51  H   2SQ d   1     -46.252  -9.876  18.730  0.00  0.00     0.031 H 
ATOM     52  H   2SQ d   1     -47.752 -10.388  17.886  0.00  0.00     0.031 H 
ATOM     53  H   2SQ d   1     -46.516  -9.419  17.014  0.00  0.00     0.031 H 
ENDBRANCH  41  50
ENDBRANCH  40  41
ENDBRANCH  38  40
BRANCH  38  54
ATOM     54  C41 2SQ d   1     -46.581 -12.387  13.737  0.00  0.00     0.209 C 
ATOM     55  O42 2SQ d   1     -46.785 -13.355  12.884  0.00  0.00    -0.646 OA
ATOM     56  O44 2SQ d   1     -46.734 -11.194  13.457  0.00  0.00    -0.646 OA
ENDBRANCH  38  54
ENDBRANCH   2  38
BRANCH   3  57
ATOM     57  C46 2SQ d   1     -48.996 -13.329  15.616  0.00  0.00    -0.011 C 
ATOM     58  H   2SQ d   1     -48.481 -12.396  15.343  0.00  0.00     0.057 H 
ATOM     59  H   2SQ d   1     -49.517 -13.194  16.575  0.00  0.00     0.057 H 
ATOM     60  H   2SQ d   1     -49.727 -13.586  14.835  0.00  0.00     0.057 H 
ENDBRANCH   3  57
TORSDOF 10
