REMARK  4 active torsions:
REMARK  status: ('A' for Active; 'I' for Inactive)
REMARK    1  A    between atoms: C10_7  and  C6_8 
REMARK    2  A    between atoms: C6_8  and  N2_9 
REMARK    3  A    between atoms: C7_11  and  C11_12 
REMARK    4  A    between atoms: C11_12  and  C15_13 
ROOT
ATOM      1  N2  2SY d   1     -18.916 -32.102  31.638  0.00  0.00    -0.351 N 
ATOM      2  C5  2SY d   1     -18.045 -31.151  32.124  0.00  0.00    -0.012 A 
ATOM      3  C7  2SY d   1     -18.211 -31.034  33.457  0.00  0.00    -0.020 A 
ATOM      4  C3  2SY d   1     -19.238 -32.001  33.855  0.00  0.00    -0.001 A 
ATOM      5  C1  2SY d   1     -19.634 -32.651  32.681  0.00  0.00     0.045 A 
ATOM      6  C8  2SY d   1     -19.825 -32.346  35.077  0.00  0.00    -0.070 A 
ATOM      7  C12 2SY d   1     -20.778 -33.320  35.119  0.00  0.00    -0.082 A 
ATOM      8  C9  2SY d   1     -21.180 -33.972  33.953  0.00  0.00    -0.081 A 
ATOM      9  C4  2SY d   1     -20.608 -33.637  32.743  0.00  0.00    -0.056 A 
ATOM     10  H   2SY d   1     -17.334 -30.583  31.525  0.00  0.00     0.112 H 
ATOM     11  H   2SY d   1     -19.523 -31.841  35.987  0.00  0.00     0.084 H 
ATOM     12  H   2SY d   1     -21.228 -33.590  36.068  0.00  0.00     0.083 H 
ATOM     13  H   2SY d   1     -21.942 -34.742  33.998  0.00  0.00     0.083 H 
ATOM     14  H   2SY d   1     -20.921 -34.146  31.838  0.00  0.00     0.087 H 
ENDROOT
BRANCH   1  15
ATOM     15  C6  2SY d   1     -19.054 -32.592  30.254  0.00  0.00     0.023 C 
ATOM     16  H   2SY d   1     -18.192 -33.245  30.053  0.00  0.00     0.072 H 
ATOM     17  H   2SY d   1     -19.980 -33.184  30.210  0.00  0.00     0.072 H 
BRANCH  15  18
ATOM     18  C10 2SY d   1     -19.117 -31.582  29.135  0.00  0.00    -0.038 A 
ATOM     19  C13 2SY d   1     -20.183 -30.704  29.049  0.00  0.00    -0.054 A 
ATOM     20  C16 2SY d   1     -20.266 -29.791  28.004  0.00  0.00     0.034 A 
ATOM     21  H   2SY d   1     -20.961 -30.728  29.804  0.00  0.00     0.086 H 
ATOM     22 CL2  2SY d   1     -21.626 -28.671  27.916  0.00  0.00    -0.084 Cl
ATOM     23  C20 2SY d   1     -19.263 -29.775  27.038  0.00  0.00    -0.062 A 
ATOM     24  C17 2SY d   1     -18.204 -30.660  27.116  0.00  0.00    -0.081 A 
ATOM     25  H   2SY d   1     -19.313 -29.065  26.221  0.00  0.00     0.086 H 
ATOM     26  C14 2SY d   1     -18.122 -31.563  28.163  0.00  0.00    -0.075 A 
ATOM     27  H   2SY d   1     -17.433 -30.647  26.354  0.00  0.00     0.083 H 
ATOM     28  H   2SY d   1     -17.287 -32.251  28.225  0.00  0.00     0.084 H 
ENDBRANCH  15  18
ENDBRANCH   1  15
BRANCH   3  29
ATOM     29  C11 2SY d   1     -17.512 -30.090  34.395  0.00  0.00     0.042 C 
ATOM     30  H   2SY d   1     -18.262 -29.451  34.883  0.00  0.00     0.056 H 
ATOM     31  H   2SY d   1     -16.816 -29.463  33.818  0.00  0.00     0.056 H 
BRANCH  29  32
ATOM     32  C15 2SY d   1     -16.739 -30.834  35.454  0.00  0.00     0.177 C 
ATOM     33  O19 2SY d   1     -15.970 -31.711  35.121  0.00  0.00    -0.648 OA
ATOM     34  O18 2SY d   1     -16.890 -30.511  36.758  0.00  0.00    -0.648 OA
ENDBRANCH  29  32
ENDBRANCH   3  29
TORSDOF 4
