REMARK  5 active torsions:
REMARK  status: ('A' for Active; 'I' for Inactive)
REMARK    1  A    between atoms: C2_2  and  C4_4 
REMARK    2  A    between atoms: C4_4  and  C5_5 
REMARK    3  A    between atoms: N7_12  and  C8_14 
REMARK    4  A    between atoms: C8_14  and  C9_15 
REMARK    5  A    between atoms: C13_17  and  C15_18 
ROOT
ATOM      1  C15 2T2 d   1     -21.226 -29.087  27.836  0.00  0.00    -0.078 C 
ATOM      2  C16 2T2 d   1     -22.080 -28.315  27.550  0.00  0.00    -0.149 C 
ATOM      3  H   2T2 d   1     -22.840 -27.628  27.295  0.00  0.00     0.166 H 
ENDROOT
BRANCH   1   4
ATOM      4  C13 2T2 d   1     -20.169 -30.041  28.034  0.00  0.00     0.017 A 
ATOM      5  C14 2T2 d   1     -20.241 -30.923  29.122  0.00  0.00    -0.057 A 
ATOM      6  C9  2T2 d   1     -19.204 -31.839  29.331  0.00  0.00    -0.039 A 
ATOM      7  H   2T2 d   1     -21.091 -30.895  29.794  0.00  0.00     0.086 H 
ATOM      8  C10 2T2 d   1     -18.129 -31.879  28.439  0.00  0.00    -0.075 A 
ATOM      9  C11 2T2 d   1     -18.087 -30.992  27.381  0.00  0.00    -0.081 A 
ATOM     10  H   2T2 d   1     -17.333 -32.602  28.577  0.00  0.00     0.084 H 
ATOM     11  C12 2T2 d   1     -19.071 -30.081  27.179  0.00  0.00    -0.065 A 
ATOM     12  H   2T2 d   1     -17.248 -31.025  26.696  0.00  0.00     0.083 H 
ATOM     13  H   2T2 d   1     -19.003 -29.384  26.352  0.00  0.00     0.085 H 
BRANCH   6  14
ATOM     14  C8  2T2 d   1     -19.260 -32.833  30.462  0.00  0.00     0.023 C 
ATOM     15  H   2T2 d   1     -20.251 -33.310  30.436  0.00  0.00     0.072 H 
ATOM     16  H   2T2 d   1     -18.483 -33.590  30.278  0.00  0.00     0.072 H 
BRANCH  14  17
ATOM     17  N7  2T2 d   1     -19.055 -32.308  31.821  0.00  0.00    -0.351 N 
ATOM     18  C17 2T2 d   1     -19.727 -32.805  32.918  0.00  0.00     0.045 A 
ATOM     19  C22 2T2 d   1     -19.279 -32.096  34.039  0.00  0.00    -0.001 A 
ATOM     20  C18 2T2 d   1     -20.685 -33.795  33.064  0.00  0.00    -0.056 A 
ATOM     21  C5  2T2 d   1     -18.284 -31.136  33.539  0.00  0.00    -0.020 A 
ATOM     22  C21 2T2 d   1     -19.804 -32.402  35.296  0.00  0.00    -0.070 A 
ATOM     23  C6  2T2 d   1     -18.197 -31.312  32.214  0.00  0.00    -0.012 A 
ATOM     24  H   2T2 d   1     -17.544 -30.749  31.549  0.00  0.00     0.112 H 
ATOM     25  C20 2T2 d   1     -20.748 -33.381  35.431  0.00  0.00    -0.082 A 
ATOM     26  H   2T2 d   1     -19.461 -31.860  36.170  0.00  0.00     0.084 H 
ATOM     27  C19 2T2 d   1     -21.200 -34.085  34.314  0.00  0.00    -0.081 A 
ATOM     28  H   2T2 d   1     -21.148 -33.612  36.412  0.00  0.00     0.083 H 
ATOM     29  H   2T2 d   1     -21.953 -34.857  34.426  0.00  0.00     0.083 H 
ATOM     30  H   2T2 d   1     -21.032 -34.344  32.196  0.00  0.00     0.087 H 
BRANCH  21  31
ATOM     31  C4  2T2 d   1     -17.511 -30.133  34.353  0.00  0.00     0.042 C 
ATOM     32  H   2T2 d   1     -16.775 -29.623  33.713  0.00  0.00     0.056 H 
ATOM     33  H   2T2 d   1     -18.201 -29.391  34.781  0.00  0.00     0.056 H 
BRANCH  31  34
ATOM     34  C2  2T2 d   1     -16.800 -30.867  35.462  0.00  0.00     0.177 C 
ATOM     35  O3  2T2 d   1     -16.917 -30.523  36.612  0.00  0.00    -0.648 OA
ATOM     36  O1  2T2 d   1     -16.054 -31.927  35.163  0.00  0.00    -0.648 OA
ENDBRANCH  31  34
ENDBRANCH  21  31
ENDBRANCH  14  17
ENDBRANCH   6  14
ENDBRANCH   1   4
TORSDOF 5
