REMARK  7 active torsions:
REMARK  status: ('A' for Active; 'I' for Inactive)
REMARK    1  A    between atoms: N23_2  and  C20_4 
REMARK    2  A    between atoms: C16_7  and  O19_8 
REMARK    3  A    between atoms: O19_8  and  C22_9 
REMARK    4  A    between atoms: C15_11  and  C3_12 
REMARK    5  A    between atoms: C3_12  and  N2_13 
REMARK    6  A    between atoms: C8_20  and  C11_22 
REMARK    7  A    between atoms: C11_22  and  C12_23 
ROOT
ATOM      1  N2  2T7 d   1     -19.506 -32.523  32.100  0.00  0.00    -0.351 N 
ATOM      2  C10 2T7 d   1     -19.932 -33.115  33.257  0.00  0.00     0.045 A 
ATOM      3  C5  2T7 d   1     -20.782 -34.179  33.518  0.00  0.00    -0.056 A 
ATOM      4  C4  2T7 d   1     -21.011 -34.563  34.822  0.00  0.00    -0.081 A 
ATOM      5  C9  2T7 d   1     -19.309 -32.441  34.323  0.00  0.00    -0.001 A 
ATOM      6  C6  2T7 d   1     -19.550 -32.845  35.636  0.00  0.00    -0.070 A 
ATOM      7  C1  2T7 d   1     -20.389 -33.897  35.871  0.00  0.00    -0.082 A 
ATOM      8  C8  2T7 d   1     -18.480 -31.395  33.721  0.00  0.00    -0.020 A 
ATOM      9  C7  2T7 d   1     -18.647 -31.487  32.387  0.00  0.00    -0.012 A 
ATOM     10  H   2T7 d   1     -21.263 -34.706  32.702  0.00  0.00     0.087 H 
ATOM     11  H   2T7 d   1     -21.680 -35.390  35.030  0.00  0.00     0.083 H 
ATOM     12  H   2T7 d   1     -19.076 -32.329  36.463  0.00  0.00     0.084 H 
ATOM     13  H   2T7 d   1     -20.572 -34.217  36.890  0.00  0.00     0.083 H 
ATOM     14  H   2T7 d   1     -18.174 -30.840  31.649  0.00  0.00     0.112 H 
ENDROOT
BRANCH   1  15
ATOM     15  C3  2T7 d   1     -19.956 -32.946  30.773  0.00  0.00     0.026 C 
ATOM     16  H   2T7 d   1     -20.032 -34.043  30.750  0.00  0.00     0.072 H 
ATOM     17  H   2T7 d   1     -20.943 -32.505  30.568  0.00  0.00     0.072 H 
BRANCH  15  18
ATOM     18  C15 2T7 d   1     -18.986 -32.496  29.718  0.00  0.00    -0.004 A 
ATOM     19  C16 2T7 d   1     -17.824 -33.226  29.544  0.00  0.00     0.076 A 
ATOM     20  C18 2T7 d   1     -16.898 -32.857  28.575  0.00  0.00    -0.048 A 
ATOM     21  C21 2T7 d   1     -17.165 -31.747  27.785  0.00  0.00    -0.048 A 
ATOM     22  H   2T7 d   1     -15.985 -33.425  28.439  0.00  0.00     0.087 H 
ATOM     23  C20 2T7 d   1     -18.337 -31.024  27.954  0.00  0.00     0.103 A 
ATOM     24  H   2T7 d   1     -16.451 -31.442  27.029  0.00  0.00     0.087 H 
ATOM     25  C17 2T7 d   1     -19.248 -31.399  28.928  0.00  0.00    -0.041 A 
ATOM     26  H   2T7 d   1     -20.162 -30.832  29.067  0.00  0.00     0.088 H 
BRANCH  19  27
ATOM     27  O19 2T7 d   1     -17.601 -34.299  30.350  0.00  0.00    -0.355 OA
BRANCH  27  28
ATOM     28  C22 2T7 d   1     -16.232 -34.641  30.570  0.00  0.00     0.010 C 
ATOM     29  H   2T7 d   1     -16.175 -35.518  31.232  0.00  0.00     0.066 H 
ATOM     30  H   2T7 d   1     -15.713 -33.792  31.040  0.00  0.00     0.066 H 
ATOM     31  H   2T7 d   1     -15.754 -34.876  29.608  0.00  0.00     0.066 H 
ENDBRANCH  27  28
ENDBRANCH  19  27
BRANCH  23  32
ATOM     32  N23 2T7 d   1     -18.630 -29.824  27.121  0.00  0.00    -0.116 N 
ATOM     33  O25 2T7 d   1     -19.676 -29.779  26.492  0.00  0.00    -0.532 OA
ATOM     34  O24 2T7 d   1     -17.840 -28.879  27.061  0.00  0.00    -0.532 OA
ENDBRANCH  23  32
ENDBRANCH  15  18
ENDBRANCH   1  15
BRANCH   8  35
ATOM     35  C11 2T7 d   1     -17.636 -30.404  34.481  0.00  0.00     0.042 C 
ATOM     36  H   2T7 d   1     -18.291 -29.657  34.953  0.00  0.00     0.056 H 
ATOM     37  H   2T7 d   1     -16.951 -29.901  33.783  0.00  0.00     0.056 H 
BRANCH  35  38
ATOM     38  C12 2T7 d   1     -16.832 -31.106  35.548  0.00  0.00     0.177 C 
ATOM     39  O13 2T7 d   1     -16.863 -30.627  36.800  0.00  0.00    -0.648 OA
ATOM     40  O14 2T7 d   1     -16.185 -32.101  35.271  0.00  0.00    -0.648 OA
ENDBRANCH  35  38
ENDBRANCH   8  35
TORSDOF 7
