REMARK  9 active torsions:
REMARK  status: ('A' for Active; 'I' for Inactive)
REMARK    1  A    between atoms: C1_1  and  N2_2 
REMARK    2  A    between atoms: N5_5  and  C8_8 
REMARK    3  A    between atoms: C8_8  and  C9_9 
REMARK    4  A    between atoms: C12_12  and  C15_15 
REMARK    5  A    between atoms: C16_16  and  C17_17 
REMARK    6  A    between atoms: C20_20  and  C23_23 
REMARK    7  A    between atoms: C25_25  and  C38_38 
REMARK    8  A    between atoms: C28_28  and  N29_29 
REMARK       I    between atoms: C38_38  and  N40_40 
REMARK    9  A    between atoms: N40_40  and  O41_41 
ROOT
ATOM      1  C17 2SZ d   1       2.851  12.059  23.139  0.00  0.00     0.018 A 
ATOM      2  C18 2SZ d   1       4.186  12.310  23.528  0.00  0.00    -0.064 A 
ATOM      3  C19 2SZ d   1       5.182  12.395  22.569  0.00  0.00    -0.071 A 
ATOM      4  C20 2SZ d   1       4.892  12.119  21.214  0.00  0.00    -0.022 A 
ATOM      5  C21 2SZ d   1       3.566  11.798  20.841  0.00  0.00    -0.071 A 
ATOM      6  C22 2SZ d   1       2.550  11.760  21.788  0.00  0.00    -0.064 A 
ATOM      7  H   2SZ d   1       4.431  12.436  24.576  0.00  0.00     0.085 H 
ATOM      8  H   2SZ d   1       6.188  12.675  22.859  0.00  0.00     0.084 H 
ATOM      9  H   2SZ d   1       3.340  11.579  19.804  0.00  0.00     0.084 H 
ATOM     10  H   2SZ d   1       1.538  11.504  21.496  0.00  0.00     0.085 H 
ENDROOT
BRANCH   1  11
ATOM     11  C16 2SZ d   1       1.831  11.970  24.140  0.00  0.00    -0.061 C 
ATOM     12  C15 2SZ d   1       0.982  11.894  24.950  0.00  0.00    -0.060 C 
BRANCH  12  13
ATOM     13  C12 2SZ d   1      -0.057  11.802  25.925  0.00  0.00     0.035 A 
ATOM     14  C11 2SZ d   1      -1.323  11.322  25.583  0.00  0.00    -0.061 A 
ATOM     15  C10 2SZ d   1      -2.295  11.171  26.582  0.00  0.00    -0.056 A 
ATOM     16  H   2SZ d   1      -1.552  11.068  24.554  0.00  0.00     0.085 H 
ATOM     17  C9  2SZ d   1      -1.976  11.518  27.899  0.00  0.00     0.060 A 
ATOM     18  H   2SZ d   1      -3.280  10.791  26.337  0.00  0.00     0.086 H 
ATOM     19  N14 2SZ d   1      -0.765  11.970  28.187  0.00  0.00    -0.262 NA
ATOM     20  C13 2SZ d   1       0.187  12.130  27.267  0.00  0.00     0.021 A 
ATOM     21  H   2SZ d   1       1.157  12.517  27.558  0.00  0.00     0.117 H 
BRANCH  17  22
ATOM     22  C8  2SZ d   1      -3.017  11.441  29.001  0.00  0.00     0.123 C 
ATOM     23  H   2SZ d   1      -2.639  11.973  29.886  0.00  0.00     0.085 H 
ATOM     24  H   2SZ d   1      -3.942  11.922  28.651  0.00  0.00     0.085 H 
BRANCH  22  25
ATOM     25  N5  2SZ d   1      -3.315  10.045  29.374  0.00  0.00    -0.063 N 
ATOM     26  C4  2SZ d   1      -4.491   9.499  28.657  0.00  0.00     0.106 C 
ATOM     27  C3  2SZ d   1      -4.707   8.016  29.016  0.00  0.00     0.105 C 
ATOM     28  H   2SZ d   1      -5.385  10.073  28.940  0.00  0.00     0.078 H 
ATOM     29  H   2SZ d   1      -4.326   9.588  27.573  0.00  0.00     0.078 H 
ATOM     30  N2  2SZ d   1      -4.800   7.891  30.487  0.00  0.00    -0.072 N 
ATOM     31  H   2SZ d   1      -5.638   7.656  28.555  0.00  0.00     0.078 H 
ATOM     32  H   2SZ d   1      -3.860   7.419  28.647  0.00  0.00     0.078 H 
ATOM     33  C7  2SZ d   1      -3.613   8.413  31.209  0.00  0.00     0.105 C 
ATOM     34  H   2SZ d   1      -5.577   8.469  30.767  0.00  0.00     0.279 HD
ATOM     35  C6  2SZ d   1      -3.423   9.898  30.847  0.00  0.00     0.106 C 
ATOM     36  H   2SZ d   1      -2.720   7.843  30.912  0.00  0.00     0.078 H 
ATOM     37  H   2SZ d   1      -3.767   8.314  32.294  0.00  0.00     0.078 H 
ATOM     38  H   2SZ d   1      -4.286  10.476  31.210  0.00  0.00     0.078 H 
ATOM     39  H   2SZ d   1      -2.504  10.275  31.320  0.00  0.00     0.078 H 
ATOM     40  H   2SZ d   1      -2.523   9.492  29.084  0.00  0.00     0.280 HD
BRANCH  30  41
ATOM     41  C1  2SZ d   1      -5.120   6.522  30.916  0.00  0.00     0.066 C 
ATOM     42  H   2SZ d   1      -6.002   6.162  30.366  0.00  0.00     0.068 H 
ATOM     43  H   2SZ d   1      -5.334   6.516  31.995  0.00  0.00     0.068 H 
ATOM     44  H   2SZ d   1      -4.264   5.863  30.708  0.00  0.00     0.068 H 
ENDBRANCH  30  41
ENDBRANCH  22  25
ENDBRANCH  17  22
ENDBRANCH  12  13
ENDBRANCH   1  11
BRANCH   4  45
ATOM     45  C23 2SZ d   1       5.967  12.209  20.179  0.00  0.00     0.022 A 
ATOM     46  C24 2SZ d   1       5.727  13.036  19.074  0.00  0.00    -0.052 A 
ATOM     47  C25 2SZ d   1       6.706  13.202  18.072  0.00  0.00     0.052 A 
ATOM     48  H   2SZ d   1       4.779  13.554  18.988  0.00  0.00     0.086 H 
ATOM     49  C26 2SZ d   1       7.881  12.443  18.155  0.00  0.00     0.020 A 
ATOM     50  N27 2SZ d   1       8.112  11.693  19.226  0.00  0.00    -0.241 NA
ATOM     51  H   2SZ d   1       8.601  12.468  17.345  0.00  0.00     0.116 H 
ATOM     52  C28 2SZ d   1       7.210  11.508  20.208  0.00  0.00     0.146 A 
BRANCH  47  53
ATOM     53  C38 2SZ d   1       6.348  13.905  16.822  0.00  0.00     0.276 C 
ATOM     54  O39 2SZ d   1       5.223  13.719  16.365  0.00  0.00    -0.265 OA
ATOM     55  N40 2SZ d   1       7.217  14.595  16.060  0.00  0.00    -0.233 N 
ATOM     56  H   2SZ d   1       8.162  14.753  16.346  0.00  0.00     0.197 HD
BRANCH  55  57
ATOM     57  O41 2SZ d   1       6.711  15.086  14.824  0.00  0.00    -0.287 OA
ATOM     58  H   2SZ d   1       6.415  14.357  14.292  0.00  0.00     0.244 HD
ENDBRANCH  55  57
ENDBRANCH  47  53
BRANCH  52  59
ATOM     59  N29 2SZ d   1       7.510  10.520  21.168  0.00  0.00    -0.287 N 
ATOM     60  C30 2SZ d   1       6.707   9.466  21.456  0.00  0.00     0.073 A 
ATOM     61  N31 2SZ d   1       7.257   8.682  22.338  0.00  0.00    -0.241 NA
ATOM     62  H   2SZ d   1       5.729   9.297  21.008  0.00  0.00     0.144 H 
ATOM     63  C32 2SZ d   1       8.499   9.154  22.636  0.00  0.00     0.085 A 
ATOM     64  C33 2SZ d   1       8.681  10.339  21.887  0.00  0.00     0.070 A 
ATOM     65  C37 2SZ d   1       9.524   8.713  23.486  0.00  0.00    -0.053 A 
ATOM     66  C34 2SZ d   1       9.882  11.042  21.975  0.00  0.00    -0.054 A 
ATOM     67  C35 2SZ d   1      10.885  10.602  22.828  0.00  0.00    -0.081 A 
ATOM     68  H   2SZ d   1      10.033  11.933  21.377  0.00  0.00     0.087 H 
ATOM     69  C36 2SZ d   1      10.700   9.444  23.583  0.00  0.00    -0.081 A 
ATOM     70  H   2SZ d   1      11.812  11.158  22.907  0.00  0.00     0.083 H 
ATOM     71  H   2SZ d   1      11.484   9.111  24.253  0.00  0.00     0.083 H 
ATOM     72  H   2SZ d   1       9.398   7.805  24.065  0.00  0.00     0.087 H 
ENDBRANCH  52  59
ENDBRANCH   4  45
TORSDOF 9
