REMARK  4 active torsions:
REMARK  status: ('A' for Active; 'I' for Inactive)
REMARK    1  A    between atoms: C_2  and  CA_4 
REMARK    2  A    between atoms: CA_4  and  N_5 
REMARK    3  A    between atoms: CA_4  and  CB_6 
REMARK    4  A    between atoms: CAM_12  and  CAK_13 
ROOT
ATOM      1  CB  2V0 d   1      64.446   8.460  46.869  0.00  0.00     0.114 C 
ATOM      2  NAH 2V0 d   1      65.462   7.613  46.194  0.00  0.00    -0.264 NA
ATOM      3  SAI 2V0 d   1      64.736  10.131  46.367  0.00  0.00    -0.134 SA
ATOM      4  CAG 2V0 d   1      64.528   9.820  44.571  0.00  0.00     0.004 C 
ATOM      5  CAJ 2V0 d   1      65.452   8.882  44.152  0.00  0.00    -0.023 C 
ATOM      6  CAA 2V0 d   1      65.927   8.989  42.853  0.00  0.00    -0.112 C 
ATOM      7  CAM 2V0 d   1      65.761   7.731  44.891  0.00  0.00     0.135 C 
ATOM      8  H   2V0 d   1      63.450   8.203  46.480  0.00  0.00     0.097 H 
ATOM      9  H   2V0 d   1      64.682  10.758  44.017  0.00  0.00     0.056 H 
ATOM     10  H   2V0 d   1      63.512   9.444  44.380  0.00  0.00     0.056 H 
ATOM     11  H   2V0 d   1      66.656   8.272  42.479  0.00  0.00     0.067 H 
ATOM     12  H   2V0 d   1      65.570   9.790  42.207  0.00  0.00     0.067 H 
ENDROOT
BRANCH   1  13
ATOM     13  CA  2V0 d   1      64.448   8.022  48.349  0.00  0.00     0.212 C 
ATOM     14  H   2V0 d   1      63.677   8.600  48.879  0.00  0.00     0.106 H 
BRANCH  13  15
ATOM     15  C   2V0 d   1      64.142   6.529  48.526  0.00  0.00     0.207 C 
ATOM     16  O   2V0 d   1      63.031   6.108  48.128  0.00  0.00    -0.646 OA
ATOM     17  OXT 2V0 d   1      65.018   5.846  49.097  0.00  0.00    -0.646 OA
ENDBRANCH  13  15
BRANCH  13  18
ATOM     18  N   2V0 d   1      65.757   8.305  48.953  0.00  0.00    -0.062 N 
ATOM     19  H   2V0 d   1      65.751   8.017  49.919  0.00  0.00     0.275 HD
ATOM     20  H   2V0 d   1      65.945   9.294  48.899  0.00  0.00     0.275 HD
ATOM     21  H   2V0 d   1      66.473   7.799  48.456  0.00  0.00     0.275 HD
ENDBRANCH  13  18
ENDBRANCH   1  13
BRANCH   7  22
ATOM     22  CAK 2V0 d   1      66.714   6.850  44.391  0.00  0.00     0.229 C 
ATOM     23  OAE 2V0 d   1      66.371   5.703  44.029  0.00  0.00    -0.643 OA
ATOM     24  OAC 2V0 d   1      67.921   7.174  44.375  0.00  0.00    -0.643 OA
ENDBRANCH   7  22
TORSDOF 4
