REMARK  9 active torsions:
REMARK  status: ('A' for Active; 'I' for Inactive)
REMARK    1  A    between atoms: C19_3  and  N6_4 
REMARK    2  A    between atoms: C16_7  and  S1_8 
REMARK    3  A    between atoms: S1_8  and  N3_11 
REMARK    4  A    between atoms: N2_16  and  C6_17 
REMARK    5  A    between atoms: C1_20  and  C4_21 
REMARK    6  A    between atoms: C4_21  and  C21_22 
REMARK    7  A    between atoms: C4_21  and  C22_26 
REMARK    8  A    between atoms: C4_21  and  O1_30 
REMARK    9  A    between atoms: C5_32  and  C7_33 
ROOT
ATOM      1  N3  2TO d   1      41.830 -22.551 -15.224  0.00  0.00    -0.203 NA
ATOM      2  C10 2TO d   1      42.193 -22.097 -16.556  0.00  0.00     0.008 C 
ATOM      3  C11 2TO d   1      40.990 -22.092 -17.483  0.00  0.00     0.008 C 
ATOM      4  C9  2TO d   1      40.852 -21.649 -14.651  0.00  0.00     0.008 C 
ATOM      5  C8  2TO d   1      39.581 -21.939 -15.392  0.00  0.00     0.008 C 
ATOM      6  N2  2TO d   1      39.765 -21.659 -16.813  0.00  0.00    -0.363 N 
ATOM      7  H   2TO d   1      42.960 -22.770 -16.968  0.00  0.00     0.059 H 
ATOM      8  H   2TO d   1      42.598 -21.076 -16.489  0.00  0.00     0.059 H 
ATOM      9  H   2TO d   1      40.839 -23.111 -17.869  0.00  0.00     0.066 H 
ATOM     10  H   2TO d   1      41.194 -21.409 -18.321  0.00  0.00     0.066 H 
ATOM     11  H   2TO d   1      41.157 -20.602 -14.799  0.00  0.00     0.059 H 
ATOM     12  H   2TO d   1      40.727 -21.846 -13.576  0.00  0.00     0.059 H 
ATOM     13  H   2TO d   1      38.774 -21.305 -14.996  0.00  0.00     0.066 H 
ATOM     14  H   2TO d   1      39.314 -22.998 -15.260  0.00  0.00     0.066 H 
ENDROOT
BRANCH   6  15
ATOM     15  C6  2TO d   1      38.693 -21.262 -17.597  0.00  0.00     0.136 A 
ATOM     16  N1  2TO d   1      38.623 -21.873 -18.779  0.00  0.00    -0.242 NA
ATOM     17  C3  2TO d   1      37.649 -21.623 -19.663  0.00  0.00     0.014 A 
ATOM     18  C1  2TO d   1      36.607 -20.744 -19.391  0.00  0.00     0.013 A 
ATOM     19  H   2TO d   1      37.674 -22.123 -20.624  0.00  0.00     0.115 H 
ATOM     20  C2  2TO d   1      36.670 -20.088 -18.174  0.00  0.00    -0.058 A 
ATOM     21  C5  2TO d   1      37.697 -20.345 -17.246  0.00  0.00     0.022 A 
ATOM     22  H   2TO d   1      35.908 -19.357 -17.929  0.00  0.00     0.086 H 
BRANCH  18  23
ATOM     23  C4  2TO d   1      35.445 -20.468 -20.359  0.00  0.00     0.283 C 
BRANCH  23  24
ATOM     24  C21 2TO d   1      35.826 -19.457 -21.438  0.00  0.00     0.431 C 
ATOM     25  F2  2TO d   1      36.827 -19.964 -22.148  0.00  0.00    -0.167 F 
ATOM     26  F3  2TO d   1      36.126 -18.341 -20.812  0.00  0.00    -0.167 F 
ATOM     27  F1  2TO d   1      34.812 -19.129 -22.252  0.00  0.00    -0.167 F 
ENDBRANCH  23  24
BRANCH  23  28
ATOM     28  C22 2TO d   1      34.876 -21.732 -20.972  0.00  0.00     0.431 C 
ATOM     29  F5  2TO d   1      34.596 -22.586 -20.040  0.00  0.00    -0.167 F 
ATOM     30  F6  2TO d   1      35.687 -22.312 -21.768  0.00  0.00    -0.167 F 
ATOM     31  F4  2TO d   1      33.763 -21.419 -21.626  0.00  0.00    -0.167 F 
ENDBRANCH  23  28
BRANCH  23  32
ATOM     32  O1  2TO d   1      34.315 -19.971 -19.651  0.00  0.00    -0.370 OA
ATOM     33  H   2TO d   1      34.068 -20.592 -18.976  0.00  0.00     0.211 HD
ENDBRANCH  23  32
ENDBRANCH  18  23
BRANCH  21  34
ATOM     34  C7  2TO d   1      37.636 -19.622 -16.044  0.00  0.00    -0.005 A 
ATOM     35  C15 2TO d   1      36.404 -19.373 -15.440  0.00  0.00    -0.069 A 
ATOM     36  C14 2TO d   1      36.347 -18.607 -14.269  0.00  0.00    -0.065 A 
ATOM     37  H   2TO d   1      35.494 -19.771 -15.875  0.00  0.00     0.085 H 
ATOM     38  C13 2TO d   1      37.533 -18.126 -13.707  0.00  0.00     0.002 A 
ATOM     39  H   2TO d   1      35.393 -18.389 -13.803  0.00  0.00     0.085 H 
ATOM     40  N4  2TO d   1      38.695 -18.372 -14.322  0.00  0.00    -0.272 NA
ATOM     41  H   2TO d   1      37.511 -17.560 -12.783  0.00  0.00     0.114 H 
ATOM     42  C12 2TO d   1      38.778 -19.102 -15.438  0.00  0.00     0.013 A 
ATOM     43  H   2TO d   1      39.750 -19.293 -15.879  0.00  0.00     0.116 H 
ENDBRANCH  21  34
ENDBRANCH   6  15
BRANCH   1  44
ATOM     44  S1  2TO d   1      43.155 -22.532 -14.296  0.00  0.00     0.245 S 
ATOM     45  O2  2TO d   1      43.982 -23.641 -14.697  0.00  0.00    -0.206 OA
ATOM     46  O3  2TO d   1      42.740 -22.696 -12.872  0.00  0.00    -0.206 OA
BRANCH  44  47
ATOM     47  C16 2TO d   1      43.951 -20.995 -14.498  0.00  0.00     0.092 A 
ATOM     48  C17 2TO d   1      44.860 -20.800 -15.518  0.00  0.00    -0.056 A 
ATOM     49  C18 2TO d   1      45.426 -19.562 -15.663  0.00  0.00    -0.038 A 
ATOM     50  H   2TO d   1      45.120 -21.610 -16.190  0.00  0.00     0.086 H 
ATOM     51  C19 2TO d   1      45.115 -18.534 -14.782  0.00  0.00     0.120 A 
ATOM     52  H   2TO d   1      46.123 -19.382 -16.473  0.00  0.00     0.089 H 
ATOM     53  N5  2TO d   1      44.232 -18.767 -13.794  0.00  0.00    -0.242 NA
ATOM     54  C20 2TO d   1      43.653 -19.949 -13.649  0.00  0.00     0.026 A 
ATOM     55  H   2TO d   1      42.934 -20.097 -12.851  0.00  0.00     0.117 H 
BRANCH  51  56
ATOM     56  N6  2TO d   1      45.694 -17.327 -14.918  0.00  0.00    -0.384 N 
ATOM     57  H   2TO d   1      45.461 -16.567 -14.263  0.00  0.00     0.157 HD
ATOM     58  H   2TO d   1      46.370 -17.163 -15.677  0.00  0.00     0.157 HD
ENDBRANCH  51  56
ENDBRANCH  44  47
ENDBRANCH   1  44
TORSDOF 9
