REMARK  23 active torsions:
REMARK  status: ('A' for Active; 'I' for Inactive)
REMARK    1  A    between atoms: C1'_1  and  CA_7 
REMARK    2  A    between atoms: CA_7  and  C_8 
REMARK       I    between atoms: C_8  and  N_10 
REMARK    3  A    between atoms: N_10  and  CA_11 
REMARK    4  A    between atoms: CA_11  and  C_12 
REMARK    5  A    between atoms: CA_11  and  CB_14 
REMARK       I    between atoms: C_12  and  N_21 
REMARK    6  A    between atoms: CB_14  and  CG_15 
REMARK    7  A    between atoms: CG_15  and  CD_16 
REMARK    8  A    between atoms: CD_16  and  NE_17 
REMARK       I    between atoms: NE_17  and  CZ_18 
REMARK       I    between atoms: CZ_18  and  NH1_19 
REMARK       I    between atoms: CZ_18  and  NH2_20 
REMARK    9  A    between atoms: N_21  and  CA_22 
REMARK   10  A    between atoms: CA_22  and  C_23 
REMARK   11  A    between atoms: CA_22  and  CB_25 
REMARK       I    between atoms: C_23  and  N_28 
REMARK   12  A    between atoms: CB_25  and  CG1_26 
REMARK   13  A    between atoms: CB_25  and  CG2_27 
REMARK   14  A    between atoms: N_28  and  CA_29 
REMARK   15  A    between atoms: CA_29  and  C_30 
REMARK   16  A    between atoms: CA_29  and  CB_32 
REMARK       I    between atoms: C_30  and  N23_39 
REMARK   17  A    between atoms: CB_32  and  CG_33 
REMARK   18  A    between atoms: CG_33  and  CD_34 
REMARK   19  A    between atoms: CD_34  and  NE_35 
REMARK       I    between atoms: NE_35  and  CZ_36 
REMARK       I    between atoms: CZ_36  and  NH1_37 
REMARK       I    between atoms: CZ_36  and  NH2_38 
REMARK   20  A    between atoms: N23_39  and  C16_40 
REMARK   21  A    between atoms: C16_40  and  C17_41 
REMARK   22  A    between atoms: C24_44  and  C27_45 
REMARK   23  A    between atoms: C27_45  and  N35_46 
ROOT
ATOM      1  CA  VAL d   1      27.396  30.730  -6.783  0.00  0.00     0.092 C 
ATOM      2  H   VAL d   1      28.203  31.477  -6.756  0.00  0.00     0.088 H 
ENDROOT
BRANCH   1   3
ATOM      3  N   VAL d   1      28.006  29.411  -6.611  0.00  0.00    -0.346 N 
ATOM      4  C   ARG d   1      29.323  29.274  -6.484  0.00  0.00     0.241 C 
ATOM      5  O   ARG d   1      30.082  30.238  -6.456  0.00  0.00    -0.271 OA
ATOM      6  H   VAL d   1      27.423  28.599  -6.589  0.00  0.00     0.163 HD
BRANCH   4   7
ATOM      7  CA  ARG d   1      29.870  27.852  -6.366  0.00  0.00     0.089 C 
ATOM      8  H   ARG d   1      29.061  27.142  -6.594  0.00  0.00     0.087 H 
BRANCH   7   9
ATOM      9  N   ARG d   1      30.955  27.661  -7.328  0.00  0.00    -0.348 N 
ATOM     10  C   HY1 d   1      30.899  26.732  -8.279  0.00  0.00     0.222 C 
ATOM     11  O   HY1 d   1      29.948  25.954  -8.421  0.00  0.00    -0.273 OA
ATOM     12  H   ARG d   1      31.764  28.246  -7.269  0.00  0.00     0.163 HD
BRANCH  10  13
ATOM     13  CA  HY1 d   1      32.123  26.698  -9.169  0.00  0.00     0.033 C 
ATOM     14  H   HY1 d   1      31.786  26.558 -10.207  0.00  0.00     0.054 H 
ATOM     15  H   HY1 d   1      32.638  27.666  -9.078  0.00  0.00     0.054 H 
BRANCH  13  16
ATOM     16  C1' HY1 d   1      33.115  25.608  -8.848  0.00  0.00    -0.050 A 
ATOM     17  C2' HY1 d   1      34.161  25.838  -7.930  0.00  0.00    -0.076 A 
ATOM     18  C3' HY1 d   1      35.101  24.841  -7.605  0.00  0.00    -0.082 A 
ATOM     19  H   HY1 d   1      34.244  26.812  -7.460  0.00  0.00     0.084 H 
ATOM     20  C4' HY1 d   1      34.990  23.578  -8.215  0.00  0.00    -0.083 A 
ATOM     21  H   HY1 d   1      35.897  25.043  -6.897  0.00  0.00     0.083 H 
ATOM     22  C5' HY1 d   1      33.948  23.314  -9.144  0.00  0.00    -0.082 A 
ATOM     23  H   HY1 d   1      35.705  22.800  -7.974  0.00  0.00     0.083 H 
ATOM     24  C6' HY1 d   1      33.013  24.340  -9.453  0.00  0.00    -0.076 A 
ATOM     25  H   HY1 d   1      33.867  22.340  -9.613  0.00  0.00     0.083 H 
ATOM     26  H   HY1 d   1      32.215  24.145 -10.160  0.00  0.00     0.084 H 
ENDBRANCH  13  16
ENDBRANCH  10  13
ENDBRANCH   7   9
BRANCH   7  27
ATOM     27  CB  ARG d   1      30.379  27.578  -4.948  0.00  0.00    -0.036 C 
ATOM     28  H   ARG d   1      29.560  27.773  -4.240  0.00  0.00     0.036 H 
ATOM     29  H   ARG d   1      31.215  28.262  -4.740  0.00  0.00     0.036 H 
BRANCH  27  30
ATOM     30  CG  ARG d   1      30.865  26.144  -4.741  0.00  0.00    -0.048 C 
ATOM     31  H   ARG d   1      31.319  26.057  -3.743  0.00  0.00     0.035 H 
ATOM     32  H   ARG d   1      31.616  25.902  -5.508  0.00  0.00     0.035 H 
BRANCH  30  33
ATOM     33  CD  ARG d   1      29.716  25.174  -4.849  0.00  0.00     0.009 C 
ATOM     34  H   ARG d   1      29.230  25.314  -5.826  0.00  0.00     0.064 H 
ATOM     35  H   ARG d   1      28.996  25.393  -4.047  0.00  0.00     0.064 H 
BRANCH  33  36
ATOM     36  NE  ARG d   1      30.132  23.783  -4.732  0.00  0.00    -0.227 N 
ATOM     37  CZ  ARG d   1      30.266  22.963  -5.767  0.00  0.00     0.665 C 
ATOM     38  NH1 ARG d   1      30.640  21.703  -5.580  0.00  0.00    -0.235 N 
ATOM     39  NH2 ARG d   1      30.025  23.406  -6.994  0.00  0.00    -0.235 N 
ATOM     40  H   ARG d   1      30.742  21.071  -6.387  0.00  0.00     0.174 HD
ATOM     41  H   ARG d   1      30.828  21.357  -4.628  0.00  0.00     0.174 HD
ATOM     42  H   ARG d   1      29.735  24.383  -7.141  0.00  0.00     0.174 HD
ATOM     43  H   ARG d   1      30.128  22.773  -7.800  0.00  0.00     0.174 HD
ATOM     44  H   ARG d   1      30.334  23.414  -3.792  0.00  0.00     0.177 HD
ENDBRANCH  33  36
ENDBRANCH  30  33
ENDBRANCH  27  30
ENDBRANCH   7  27
ENDBRANCH   4   7
ENDBRANCH   1   3
BRANCH   1  45
ATOM     45  C   VAL d   1      26.376  31.096  -5.717  0.00  0.00     0.241 C 
ATOM     46  O   VAL d   1      25.795  30.220  -5.071  0.00  0.00    -0.271 OA
ATOM     47  N   ARG d   1      26.155  32.396  -5.544  0.00  0.00    -0.346 N 
ATOM     48  H   ARG d   1      26.669  33.057  -6.090  0.00  0.00     0.163 HD
BRANCH  47  49
ATOM     49  CA  ARG d   1      25.179  32.875  -4.575  0.00  0.00     0.089 C 
ATOM     50  H   ARG d   1      25.358  32.415  -3.592  0.00  0.00     0.087 H 
BRANCH  49  51
ATOM     51  C   ARG d   1      23.812  32.457  -5.117  0.00  0.00     0.240 C 
ATOM     52  O   ARG d   1      23.552  32.585  -6.315  0.00  0.00    -0.271 OA
ATOM     53  N23 00S d   1      22.943  31.966  -4.237  0.00  0.00    -0.355 N 
ATOM     54  H   00S d   1      23.215  31.902  -3.277  0.00  0.00     0.162 HD
BRANCH  53  55
ATOM     55  C16 00S d   1      21.611  31.518  -4.618  0.00  0.00     0.019 C 
ATOM     56  H   00S d   1      21.320  32.002  -5.562  0.00  0.00     0.071 H 
ATOM     57  H   00S d   1      20.895  31.792  -3.829  0.00  0.00     0.071 H 
BRANCH  55  58
ATOM     58  C17 00S d   1      21.605  30.027  -4.800  0.00  0.00    -0.040 A 
ATOM     59  C22 00S d   1      21.335  29.177  -3.709  0.00  0.00    -0.074 A 
ATOM     60  C21 00S d   1      21.463  27.770  -3.831  0.00  0.00    -0.069 A 
ATOM     61  H   00S d   1      21.025  29.605  -2.763  0.00  0.00     0.084 H 
ATOM     62  C24 00S d   1      21.856  27.186  -5.047  0.00  0.00     0.007 A 
ATOM     63  H   00S d   1      21.255  27.137  -2.976  0.00  0.00     0.085 H 
ATOM     64  C19 00S d   1      22.115  28.028  -6.147  0.00  0.00    -0.069 A 
ATOM     65  C18 00S d   1      21.986  29.452  -6.026  0.00  0.00    -0.074 A 
ATOM     66  H   00S d   1      22.415  27.595  -7.095  0.00  0.00     0.085 H 
ATOM     67  H   00S d   1      22.183  30.087  -6.882  0.00  0.00     0.084 H 
BRANCH  62  68
ATOM     68  C27 00S d   1      21.994  25.693  -5.171  0.00  0.00     0.102 C 
ATOM     69  N34 00S d   1      22.717  25.140  -6.137  0.00  0.00    -0.385 N 
ATOM     70  H   00S d   1      23.188  25.735  -6.833  0.00  0.00     0.157 HD
ATOM     71  H   00S d   1      22.807  24.115  -6.191  0.00  0.00     0.157 HD
BRANCH  68  72
ATOM     72  N35 00S d   1      21.383  24.928  -4.269  0.00  0.00    -0.385 N 
ATOM     73  H   00S d   1      21.459  23.902  -4.327  0.00  0.00     0.157 HD
ATOM     74  H   00S d   1      20.834  25.362  -3.513  0.00  0.00     0.157 HD
ENDBRANCH  68  72
ENDBRANCH  62  68
ENDBRANCH  55  58
ENDBRANCH  53  55
ENDBRANCH  49  51
BRANCH  49  75
ATOM     75  CB  ARG d   1      25.256  34.396  -4.448  0.00  0.00    -0.036 C 
ATOM     76  H   ARG d   1      24.454  34.725  -3.771  0.00  0.00     0.036 H 
ATOM     77  H   ARG d   1      25.095  34.832  -5.445  0.00  0.00     0.036 H 
BRANCH  75  78
ATOM     78  CG  ARG d   1      26.578  34.921  -3.908  0.00  0.00    -0.048 C 
ATOM     79  H   ARG d   1      27.397  34.573  -4.555  0.00  0.00     0.035 H 
ATOM     80  H   ARG d   1      26.729  34.540  -2.887  0.00  0.00     0.035 H 
BRANCH  78  81
ATOM     81  CD  ARG d   1      26.574  36.440  -3.879  0.00  0.00     0.009 C 
ATOM     82  H   ARG d   1      25.759  36.773  -3.220  0.00  0.00     0.064 H 
ATOM     83  H   ARG d   1      26.393  36.806  -4.900  0.00  0.00     0.064 H 
BRANCH  81  84
ATOM     84  NE  ARG d   1      27.823  37.021  -3.396  0.00  0.00    -0.227 N 
ATOM     85  CZ  ARG d   1      28.999  36.887  -4.006  0.00  0.00     0.665 C 
ATOM     86  NH1 ARG d   1      29.084  36.179  -5.126  0.00  0.00    -0.235 N 
ATOM     87  NH2 ARG d   1      30.087  37.472  -3.505  0.00  0.00    -0.235 N 
ATOM     88  H   ARG d   1      29.992  36.073  -5.601  0.00  0.00     0.174 HD
ATOM     89  H   ARG d   1      28.242  35.736  -5.520  0.00  0.00     0.174 HD
ATOM     90  H   ARG d   1      30.023  38.022  -2.636  0.00  0.00     0.174 HD
ATOM     91  H   ARG d   1      30.992  37.374  -3.987  0.00  0.00     0.174 HD
ATOM     92  H   ARG d   1      27.793  37.571  -2.526  0.00  0.00     0.177 HD
ENDBRANCH  81  84
ENDBRANCH  78  81
ENDBRANCH  75  78
ENDBRANCH  49  75
ENDBRANCH  47  49
ENDBRANCH   1  45
BRANCH   1  93
ATOM     93  CB  VAL d   1      26.688  30.806  -8.145  0.00  0.00    -0.033 C 
ATOM     94  H   VAL d   1      26.350  31.838  -8.318  0.00  0.00     0.042 H 
BRANCH  93  95
ATOM     95  CG1 VAL d   1      27.650  30.406  -9.242  0.00  0.00    -0.071 C 
ATOM     96  H   VAL d   1      27.140  30.462 -10.215  0.00  0.00     0.028 H 
ATOM     97  H   VAL d   1      27.997  29.377  -9.068  0.00  0.00     0.028 H 
ATOM     98  H   VAL d   1      28.512  31.089  -9.241  0.00  0.00     0.028 H 
ENDBRANCH  93  95
BRANCH  93  99
ATOM     99  CG2 VAL d   1      25.476  29.871  -8.162  0.00  0.00    -0.071 C 
ATOM    100  H   VAL d   1      24.777  30.162  -7.364  0.00  0.00     0.028 H 
ATOM    101  H   VAL d   1      25.809  28.836  -7.997  0.00  0.00     0.028 H 
ATOM    102  H   VAL d   1      24.971  29.943  -9.136  0.00  0.00     0.028 H 
ENDBRANCH  93  99
ENDBRANCH   1  93
TORSDOF 23
