REMARK  10 active torsions:
REMARK  status: ('A' for Active; 'I' for Inactive)
REMARK    1  A    between atoms: CAA_1  and  CAM_2 
REMARK    2  A    between atoms: CAM_2  and  OAP_3 
REMARK    3  A    between atoms: OAP_3  and  CAR_4 
REMARK    4  A    between atoms: CAS_13  and  CAU_14 
REMARK    5  A    between atoms: NAY_16  and  CAZ_17 
REMARK    6  A    between atoms: CAZ_17  and  CAC_18 
REMARK    7  A    between atoms: CAZ_17  and  CAD_19 
REMARK    8  A    between atoms: CAZ_17  and  CAB_20 
REMARK    9  A    between atoms: CAT_21  and  NAF_22 
REMARK   10  A    between atoms: CAV_23  and  CAQ_24 
REMARK       I    between atoms: CAQ_24  and  NAE_26 
ROOT
ATOM      1  CAU UW1 d   1       0.278 -19.580 -30.664  0.00  0.00     0.108 A 
ATOM      2  NAO UW1 d   1      -0.324 -18.455 -30.300  0.00  0.00    -0.168 NA
ATOM      3  NAY UW1 d   1      -1.614 -18.807 -29.992  0.00  0.00    -0.244 N 
ATOM      4  CAT UW1 d   1      -1.830 -20.125 -30.167  0.00  0.00     0.136 A 
ATOM      5  CAV UW1 d   1      -0.604 -20.692 -30.583  0.00  0.00     0.108 A 
ENDROOT
BRANCH   1   6
ATOM      6  CAS UW1 d   1       1.691 -19.489 -31.066  0.00  0.00     0.014 A 
ATOM      7  CAL UW1 d   1       2.150 -20.047 -32.229  0.00  0.00    -0.057 A 
ATOM      8  CAW UW1 d   1       3.499 -19.898 -32.606  0.00  0.00    -0.006 A 
ATOM      9  H   UW1 d   1       1.472 -20.606 -32.863  0.00  0.00     0.086 H 
ATOM     10  CAI UW1 d   1       4.057 -20.469 -33.764  0.00  0.00    -0.068 A 
ATOM     11  CAX UW1 d   1       4.329 -19.131 -31.770  0.00  0.00     0.069 A 
ATOM     12  CAH UW1 d   1       5.386 -20.365 -34.017  0.00  0.00    -0.050 A 
ATOM     13  H   UW1 d   1       3.418 -20.998 -34.462  0.00  0.00     0.085 H 
ATOM     14  CAR UW1 d   1       6.211 -19.699 -33.134  0.00  0.00     0.070 A 
ATOM     15  H   UW1 d   1       5.801 -20.807 -34.916  0.00  0.00     0.087 H 
ATOM     16  CAK UW1 d   1       5.706 -19.021 -32.059  0.00  0.00    -0.022 A 
ATOM     17  H   UW1 d   1       6.352 -18.410 -31.440  0.00  0.00     0.091 H 
ATOM     18  NAN UW1 d   1       3.858 -18.541 -30.636  0.00  0.00    -0.259 NA
ATOM     19  CAJ UW1 d   1       2.598 -18.750 -30.325  0.00  0.00     0.015 A 
ATOM     20  H   UW1 d   1       2.236 -18.304 -29.406  0.00  0.00     0.116 H 
BRANCH  14  21
ATOM     21  OAP UW1 d   1       7.549 -19.862 -33.351  0.00  0.00    -0.351 OA
BRANCH  21  22
ATOM     22  CAM UW1 d   1       8.465 -19.216 -32.440  0.00  0.00     0.023 C 
ATOM     23  H   UW1 d   1       8.322 -18.126 -32.478  0.00  0.00     0.074 H 
ATOM     24  H   UW1 d   1       8.287 -19.574 -31.415  0.00  0.00     0.074 H 
BRANCH  22  25
ATOM     25  CAA UW1 d   1       9.882 -19.565 -32.869  0.00  0.00    -0.056 C 
ATOM     26  H   UW1 d   1      10.600 -19.084 -32.189  0.00  0.00     0.030 H 
ATOM     27  H   UW1 d   1      10.053 -19.208 -33.895  0.00  0.00     0.030 H 
ATOM     28  H   UW1 d   1      10.018 -20.656 -32.833  0.00  0.00     0.030 H 
ENDBRANCH  22  25
ENDBRANCH  21  22
ENDBRANCH  14  21
ENDBRANCH   1   6
BRANCH   5  29
ATOM     29  CAQ UW1 d   1      -0.439 -22.142 -30.772  0.00  0.00     0.255 C 
ATOM     30  OAG UW1 d   1      -1.423 -22.854 -30.915  0.00  0.00    -0.268 OA
ATOM     31  NAE UW1 d   1       0.767 -22.676 -30.761  0.00  0.00    -0.366 N 
ATOM     32  H   UW1 d   1       0.879 -23.661 -30.890  0.00  0.00     0.159 HD
ATOM     33  H   UW1 d   1       1.570 -22.096 -30.624  0.00  0.00     0.159 HD
ENDBRANCH   5  29
BRANCH   3  34
ATOM     34  CAZ UW1 d   1      -2.525 -17.704 -29.520  0.00  0.00     0.047 C 
BRANCH  34  35
ATOM     35  CAC UW1 d   1      -1.746 -16.390 -29.472  0.00  0.00    -0.052 C 
ATOM     36  H   UW1 d   1      -2.409 -15.583 -29.128  0.00  0.00     0.030 H 
ATOM     37  H   UW1 d   1      -1.369 -16.151 -30.477  0.00  0.00     0.030 H 
ATOM     38  H   UW1 d   1      -0.899 -16.491 -28.777  0.00  0.00     0.030 H 
ENDBRANCH  34  35
BRANCH  34  39
ATOM     39  CAD UW1 d   1      -3.689 -17.559 -30.500  0.00  0.00    -0.052 C 
ATOM     40  H   UW1 d   1      -4.357 -16.754 -30.159  0.00  0.00     0.030 H 
ATOM     41  H   UW1 d   1      -4.249 -18.505 -30.547  0.00  0.00     0.030 H 
ATOM     42  H   UW1 d   1      -3.299 -17.313 -31.499  0.00  0.00     0.030 H 
ENDBRANCH  34  39
BRANCH  34  43
ATOM     43  CAB UW1 d   1      -3.034 -18.042 -28.116  0.00  0.00    -0.052 C 
ATOM     44  H   UW1 d   1      -3.700 -17.240 -27.765  0.00  0.00     0.030 H 
ATOM     45  H   UW1 d   1      -2.180 -18.136 -27.429  0.00  0.00     0.030 H 
ATOM     46  H   UW1 d   1      -3.587 -18.992 -28.145  0.00  0.00     0.030 H 
ENDBRANCH  34  43
ENDBRANCH   3  34
BRANCH   4  47
ATOM     47  NAF UW1 d   1      -3.032 -20.718 -30.056  0.00  0.00    -0.383 N 
ATOM     48  H   UW1 d   1      -3.121 -21.733 -30.204  0.00  0.00     0.157 HD
ATOM     49  H   UW1 d   1      -3.864 -20.157 -29.823  0.00  0.00     0.157 HD
ENDBRANCH   4  47
TORSDOF 10
