REMARK  25 active torsions:
REMARK  status: ('A' for Active; 'I' for Inactive)
REMARK    1  A    between atoms: N_1  and  CA_2 
REMARK    2  A    between atoms: CA_2  and  C_3 
REMARK    3  A    between atoms: CA_2  and  CB_5 
REMARK       I    between atoms: C_3  and  N_9 
REMARK    4  A    between atoms: CB_5  and  CG_6 
REMARK    5  A    between atoms: N_9  and  CA_10 
REMARK    6  A    between atoms: CA_10  and  C_11 
REMARK    7  A    between atoms: CA_10  and  CB_13 
REMARK       I    between atoms: C_11  and  N_14 
REMARK    8  A    between atoms: N_14  and  CA_15 
REMARK    9  A    between atoms: CA_15  and  C_16 
REMARK   10  A    between atoms: CA_15  and  CB_18 
REMARK       I    between atoms: C_16  and  N_23 
REMARK   11  A    between atoms: CB_18  and  CG_19 
REMARK   12  A    between atoms: CG_19  and  CD_20 
REMARK   13  A    between atoms: N_23  and  CA_24 
REMARK   14  A    between atoms: CA_24  and  C_25 
REMARK   15  A    between atoms: CA_24  and  CB_27 
REMARK       I    between atoms: C_25  and  N_34 
REMARK   16  A    between atoms: CB_27  and  CG_28 
REMARK   17  A    between atoms: N_34  and  CA_35 
REMARK   18  A    between atoms: CA_35  and  C_36 
REMARK   19  A    between atoms: CA_35  and  CB_38 
REMARK       I    between atoms: C_36  and  N_45 
REMARK   20  A    between atoms: CB_38  and  CG_39 
REMARK   21  A    between atoms: CG_39  and  CD_40 
REMARK   22  A    between atoms: CD_40  and  NE_41 
REMARK       I    between atoms: NE_41  and  CZ_42 
REMARK       I    between atoms: CZ_42  and  NH1_43 
REMARK   23  A    between atoms: N_45  and  CA_46 
REMARK   24  A    between atoms: CA_46  and  C_47 
REMARK   25  A    between atoms: CA_46  and  CB_49 
ROOT
ATOM      1  CA  PHE d   1       0.653   7.414  38.937  0.00  0.00     0.093 C 
ATOM      2  H   PHE d   1       1.062   7.415  39.958  0.00  0.00     0.088 H 
ENDROOT
BRANCH   1   3
ATOM      3  N   PHE d   1       0.805   6.066  38.393  0.00  0.00    -0.346 N 
ATOM      4  C   GLU d   1       0.694   5.005  39.182  0.00  0.00     0.241 C 
ATOM      5  O   GLU d   1       0.435   5.101  40.386  0.00  0.00    -0.271 OA
ATOM      6  H   PHE d   1       0.994   5.942  37.419  0.00  0.00     0.163 HD
BRANCH   4   7
ATOM      7  CA  GLU d   1       0.899   3.638  38.527  0.00  0.00     0.090 C 
ATOM      8  H   GLU d   1       0.161   2.945  38.956  0.00  0.00     0.087 H 
BRANCH   7   9
ATOM      9  N   GLU d   1       0.688   3.673  37.078  0.00  0.00    -0.346 N 
ATOM     10  C   ALA d   1      -0.491   3.980  36.547  0.00  0.00     0.240 C 
ATOM     11  O   ALA d   1      -1.451   4.367  37.223  0.00  0.00    -0.271 OA
ATOM     12  H   GLU d   1       1.453   3.460  36.471  0.00  0.00     0.163 HD
BRANCH  10  13
ATOM     13  CA  ALA d   1      -0.598   3.845  35.025  0.00  0.00     0.086 C 
ATOM     14  H   ALA d   1      -1.375   4.540  34.675  0.00  0.00     0.086 H 
BRANCH  13  15
ATOM     15  N   ALA d   1       0.660   4.192  34.347  0.00  0.00    -0.346 N 
ATOM     16  C   ASP d   1       1.314   5.327  34.604  0.00  0.00     0.249 C 
ATOM     17  O   ASP d   1       0.905   6.177  35.389  0.00  0.00    -0.271 OA
ATOM     18  H   ALA d   1       1.037   3.558  33.672  0.00  0.00     0.163 HD
BRANCH  16  19
ATOM     19  CA  ASP d   1       2.601   5.570  33.832  0.00  0.00     0.185 C 
ATOM     20  H   ASP d   1       3.289   6.130  34.483  0.00  0.00     0.100 H 
BRANCH  19  21
ATOM     21  N   ASP d   1       3.278   4.328  33.446  0.00  0.00    -0.066 N 
ATOM     22  H   ASP d   1       4.121   4.548  32.939  0.00  0.00     0.275 HD
ATOM     23  H   ASP d   1       2.667   3.780  32.860  0.00  0.00     0.275 HD
ATOM     24  H   ASP d   1       3.511   3.801  34.273  0.00  0.00     0.275 HD
ENDBRANCH  19  21
BRANCH  19  25
ATOM     25  CB  ASP d   1       2.274   6.443  32.616  0.00  0.00     0.050 C 
ATOM     26  H   ASP d   1       1.492   7.162  32.901  0.00  0.00     0.052 H 
ATOM     27  H   ASP d   1       1.900   5.795  31.810  0.00  0.00     0.052 H 
BRANCH  25  28
ATOM     28  CG  ASP d   1       3.474   7.213  32.100  0.00  0.00     0.175 C 
ATOM     29  OD1 ASP d   1       4.569   7.139  32.710  0.00  0.00    -0.648 OA
ATOM     30  OD2 ASP d   1       3.307   7.906  31.080  0.00  0.00    -0.648 OA
ENDBRANCH  25  28
ENDBRANCH  19  25
ENDBRANCH  16  19
ENDBRANCH  13  15
BRANCH  13  31
ATOM     31  CB  ALA d   1      -1.015   2.440  34.662  0.00  0.00    -0.049 C 
ATOM     32  H   ALA d   1      -1.956   2.193  35.175  0.00  0.00     0.030 H 
ATOM     33  H   ALA d   1      -0.232   1.733  34.973  0.00  0.00     0.030 H 
ATOM     34  H   ALA d   1      -1.161   2.370  33.574  0.00  0.00     0.030 H 
ENDBRANCH  13  31
ENDBRANCH  10  13
ENDBRANCH   7   9
BRANCH   7  35
ATOM     35  CB  GLU d   1       2.304   3.107  38.852  0.00  0.00    -0.029 C 
ATOM     36  H   GLU d   1       2.392   2.092  38.437  0.00  0.00     0.037 H 
ATOM     37  H   GLU d   1       2.412   3.067  39.946  0.00  0.00     0.037 H 
BRANCH  35  38
ATOM     38  CG  GLU d   1       3.450   3.956  38.289  0.00  0.00     0.018 C 
ATOM     39  H   GLU d   1       4.324   3.838  38.946  0.00  0.00     0.049 H 
ATOM     40  H   GLU d   1       3.132   5.009  38.286  0.00  0.00     0.049 H 
BRANCH  38  41
ATOM     41  CD  GLU d   1       3.862   3.572  36.863  0.00  0.00     0.172 C 
ATOM     42  OE1 GLU d   1       3.085   2.878  36.161  0.00  0.00    -0.648 OA
ATOM     43  OE2 GLU d   1       4.984   3.949  36.458  0.00  0.00    -0.648 OA
ENDBRANCH  38  41
ENDBRANCH  35  38
ENDBRANCH   7  35
ENDBRANCH   4   7
ENDBRANCH   1   3
BRANCH   1  44
ATOM     44  C   PHE d   1      -0.799   7.841  39.012  0.00  0.00     0.241 C 
ATOM     45  O   PHE d   1      -1.116   8.861  39.611  0.00  0.00    -0.271 OA
ATOM     46  N   ARG d   1      -1.680   7.054  38.411  0.00  0.00    -0.346 N 
ATOM     47  H   ARG d   1      -1.381   6.188  38.011  0.00  0.00     0.163 HD
BRANCH  46  48
ATOM     48  CA  ARG d   1      -3.084   7.444  38.330  0.00  0.00     0.089 C 
ATOM     49  H   ARG d   1      -3.151   8.487  38.672  0.00  0.00     0.087 H 
BRANCH  48  50
ATOM     50  C   ARG d   1      -4.012   6.614  39.229  0.00  0.00     0.241 C 
ATOM     51  O   ARG d   1      -5.201   6.927  39.354  0.00  0.00    -0.271 OA
ATOM     52  N   HIS d   1      -3.469   5.563  39.837  0.00  0.00    -0.345 N 
ATOM     53  H   HIS d   1      -2.507   5.353  39.665  0.00  0.00     0.163 HD
BRANCH  52  54
ATOM     54  CA  HIS d   1      -4.225   4.701  40.749  0.00  0.00     0.093 C 
ATOM     55  H   HIS d   1      -5.253   4.609  40.368  0.00  0.00     0.089 H 
BRANCH  54  56
ATOM     56  C   HIS d   1      -4.281   5.292  42.159  0.00  0.00     0.196 C 
ATOM     57  O   HIS d   1      -5.304   5.211  42.845  0.00  0.00    -0.646 OA
ATOM     58  O1  HIS d   1      -3.265   5.872  42.628  0.00  0.00    -0.646 OA
ENDBRANCH  54  56
BRANCH  54  59
ATOM     59  CB  HIS d   1      -3.594   3.309  40.804  0.00  0.00    -0.048 C 
ATOM     60  H   HIS d   1      -4.170   2.672  41.491  0.00  0.00     0.030 H 
ATOM     61  H   HIS d   1      -2.557   3.390  41.162  0.00  0.00     0.030 H 
ATOM     62  H   HIS d   1      -3.601   2.863  39.798  0.00  0.00     0.030 H 
ENDBRANCH  54  59
ENDBRANCH  52  54
ENDBRANCH  48  50
BRANCH  48  63
ATOM     63  CB  ARG d   1      -3.559   7.396  36.876  0.00  0.00    -0.036 C 
ATOM     64  H   ARG d   1      -4.653   7.506  36.869  0.00  0.00     0.036 H 
ATOM     65  H   ARG d   1      -3.286   6.416  36.458  0.00  0.00     0.036 H 
BRANCH  63  66
ATOM     66  CG  ARG d   1      -2.964   8.481  35.975  0.00  0.00    -0.048 C 
ATOM     67  H   ARG d   1      -1.876   8.332  35.907  0.00  0.00     0.035 H 
ATOM     68  H   ARG d   1      -3.173   9.467  36.417  0.00  0.00     0.035 H 
BRANCH  66  69
ATOM     69  CD  ARG d   1      -3.566   8.430  34.556  0.00  0.00     0.009 C 
ATOM     70  H   ARG d   1      -3.199   9.292  33.980  0.00  0.00     0.064 H 
ATOM     71  H   ARG d   1      -4.662   8.478  34.630  0.00  0.00     0.064 H 
BRANCH  69  72
ATOM     72  NE  ARG d   1      -3.188   7.198  33.863  0.00  0.00    -0.227 N 
ATOM     73  CZ  ARG d   1      -3.954   6.115  33.790  0.00  0.00     0.665 C 
ATOM     74  NH1 ARG d   1      -5.159   6.119  34.345  0.00  0.00    -0.235 N 
ATOM     75  NH2 ARG d   1      -3.516   5.028  33.156  0.00  0.00    -0.235 N 
ATOM     76  H   ARG d   1      -5.754   5.280  34.289  0.00  0.00     0.174 HD
ATOM     77  H   ARG d   1      -5.499   6.961  34.831  0.00  0.00     0.174 HD
ATOM     78  H   ARG d   1      -2.580   5.025  32.725  0.00  0.00     0.174 HD
ATOM     79  H   ARG d   1      -4.113   4.191  33.097  0.00  0.00     0.174 HD
ATOM     80  H   ARG d   1      -2.268   7.168  33.401  0.00  0.00     0.177 HD
ENDBRANCH  69  72
ENDBRANCH  66  69
ENDBRANCH  63  66
ENDBRANCH  48  63
ENDBRANCH  46  48
ENDBRANCH   1  44
BRANCH   1  81
ATOM     81  CB  PHE d   1       1.438   8.417  38.104  0.00  0.00    -0.014 C 
ATOM     82  H   PHE d   1       1.278   9.421  38.524  0.00  0.00     0.043 H 
ATOM     83  H   PHE d   1       1.059   8.387  37.072  0.00  0.00     0.043 H 
BRANCH  81  84
ATOM     84  CG  PHE d   1       2.919   8.138  38.079  0.00  0.00    -0.056 A 
ATOM     85  CD1 PHE d   1       3.679   8.285  39.229  0.00  0.00    -0.077 A 
ATOM     86  CE1 PHE d   1       5.045   8.018  39.224  0.00  0.00    -0.082 A 
ATOM     87  H   PHE d   1       3.202   8.613  40.146  0.00  0.00     0.084 H 
ATOM     88  CZ  PHE d   1       5.653   7.611  38.050  0.00  0.00    -0.083 A 
ATOM     89  H   PHE d   1       5.627   8.128  40.132  0.00  0.00     0.083 H 
ATOM     90  CE2 PHE d   1       4.902   7.460  36.895  0.00  0.00    -0.082 A 
ATOM     91  H   PHE d   1       6.718   7.410  38.033  0.00  0.00     0.083 H 
ATOM     92  CD2 PHE d   1       3.535   7.723  36.920  0.00  0.00    -0.077 A 
ATOM     93  H   PHE d   1       5.377   7.138  35.975  0.00  0.00     0.083 H 
ATOM     94  H   PHE d   1       2.949   7.599  36.016  0.00  0.00     0.084 H 
ENDBRANCH  81  84
ENDBRANCH   1  81
TORSDOF 25
