REMARK WARNING: 32 MAX_TORS EXCEEDED!!!
REMARK  33 active torsions:
REMARK  status: ('A' for Active; 'I' for Inactive)
REMARK    1  A    between atoms: CAM_10  and  CAA_2 
REMARK    2  A    between atoms: CBL_32  and  CAB_3 
REMARK    3  A    between atoms: CBM_33  and  CAC_4 
REMARK    4  A    between atoms: CBN_34  and  CAD_5 
REMARK    5  A    between atoms: CBO_35  and  CAE_6 
REMARK    6  A    between atoms: CBP_36  and  CAF_7 
REMARK    7  A    between atoms: CAN_11  and  CAM_10 
REMARK    8  A    between atoms: CAO_12  and  CAN_11 
REMARK    9  A    between atoms: CAP_13  and  CAO_12 
REMARK   10  A    between atoms: CAQ_14  and  CAP_13 
REMARK   11  A    between atoms: CAY_21  and  CAQ_14 
REMARK   12  A    between atoms: CAX_20  and  CAR_15 
REMARK   13  A    between atoms: CAR_15  and  CAZ_22 
REMARK   14  A    between atoms: CAS_16  and  CBA_23 
REMARK   15  A    between atoms: CBC_25  and  CAS_16 
REMARK   16  A    between atoms: CBB_24  and  CAT_17 
REMARK   17  A    between atoms: CAT_17  and  CBD_26 
REMARK   18  A    between atoms: CAU_18  and  CBE_27 
REMARK   19  A    between atoms: CBG_29  and  CAU_18 
REMARK   20  A    between atoms: CBF_28  and  CAV_19 
REMARK   21  A    between atoms: CAV_19  and  CBH_30 
REMARK   22  A    between atoms: OBI_31  and  CAX_20 
REMARK   23  A    between atoms: CBL_32  and  CAY_21 
REMARK   24  A    between atoms: CAZ_22  and  CBM_33 
REMARK   25  A    between atoms: CBA_23  and  CBL_32 
REMARK   26  A    between atoms: CBM_33  and  CBB_24 
REMARK   27  A    between atoms: CBN_34  and  CBC_25 
REMARK   28  A    between atoms: CBD_26  and  CBO_35 
REMARK   29  A    between atoms: CBE_27  and  CBN_34 
REMARK   30  A    between atoms: CBO_35  and  CBF_28 
REMARK   31  A    between atoms: CBP_36  and  CBG_29 
REMARK   32  A    between atoms: CBH_30  and  CBP_36 
REMARK   33  A    between atoms: OBI_31  and  PBV_37 
ROOT
ATOM      1  CBG PMK d   1       2.768 -17.970 -31.781  0.00  0.00    -0.062 C 
ATOM      2  H   PMK d   1       2.221 -17.043 -32.010  0.00  0.00     0.033 H 
ATOM      3  H   PMK d   1       2.281 -18.817 -32.287  0.00  0.00     0.033 H 
ENDROOT
BRANCH   1   4
ATOM      4  CAU PMK d   1       2.782 -18.207 -30.258  0.00  0.00    -0.064 C 
ATOM      5  H   PMK d   1       3.634 -18.849 -29.989  0.00  0.00     0.033 H 
ATOM      6  H   PMK d   1       2.869 -17.244 -29.733  0.00  0.00     0.033 H 
BRANCH   4   7
ATOM      7  CBE PMK d   1       1.469 -18.896 -29.865  0.00  0.00    -0.062 C 
ATOM      8  H   PMK d   1       1.306 -19.783 -30.495  0.00  0.00     0.033 H 
ATOM      9  H   PMK d   1       0.627 -18.199 -29.988  0.00  0.00     0.033 H 
BRANCH   7  10
ATOM     10  CBN PMK d   1       1.594 -19.318 -28.380  0.00  0.00    -0.058 C 
ATOM     11  H   PMK d   1       2.471 -18.823 -27.937  0.00  0.00     0.039 H 
BRANCH  10  12
ATOM     12  CAD PMK d   1       0.354 -18.890 -27.630  0.00  0.00    -0.073 C 
ATOM     13  H   PMK d   1       0.442 -19.189 -26.575  0.00  0.00     0.028 H 
ATOM     14  H   PMK d   1      -0.529 -19.372 -28.076  0.00  0.00     0.028 H 
ATOM     15  H   PMK d   1       0.246 -17.797 -27.693  0.00  0.00     0.028 H 
ENDBRANCH  10  12
BRANCH  10  16
ATOM     16  CBC PMK d   1       1.775 -20.842 -28.279  0.00  0.00    -0.062 C 
ATOM     17  H   PMK d   1       0.799 -21.334 -28.405  0.00  0.00     0.033 H 
ATOM     18  H   PMK d   1       2.461 -21.181 -29.069  0.00  0.00     0.033 H 
BRANCH  16  19
ATOM     19  CAS PMK d   1       2.363 -21.212 -26.893  0.00  0.00    -0.064 C 
ATOM     20  H   PMK d   1       3.407 -20.871 -26.824  0.00  0.00     0.033 H 
ATOM     21  H   PMK d   1       1.770 -20.741 -26.095  0.00  0.00     0.033 H 
BRANCH  19  22
ATOM     22  CBA PMK d   1       2.299 -22.762 -26.759  0.00  0.00    -0.062 C 
ATOM     23  H   PMK d   1       2.065 -23.169 -27.754  0.00  0.00     0.033 H 
ATOM     24  H   PMK d   1       1.480 -22.999 -26.064  0.00  0.00     0.033 H 
BRANCH  22  25
ATOM     25  CBL PMK d   1       3.552 -23.482 -26.252  0.00  0.00    -0.058 C 
ATOM     26  H   PMK d   1       3.263 -24.088 -25.381  0.00  0.00     0.039 H 
BRANCH  25  27
ATOM     27  CAB PMK d   1       4.654 -22.559 -25.840  0.00  0.00    -0.073 C 
ATOM     28  H   PMK d   1       5.514 -23.148 -25.490  0.00  0.00     0.028 H 
ATOM     29  H   PMK d   1       4.301 -21.907 -25.027  0.00  0.00     0.028 H 
ATOM     30  H   PMK d   1       4.957 -21.943 -26.700  0.00  0.00     0.028 H 
ENDBRANCH  25  27
BRANCH  25  31
ATOM     31  CAY PMK d   1       4.110 -24.402 -27.339  0.00  0.00    -0.062 C 
ATOM     32  H   PMK d   1       3.281 -24.799 -27.943  0.00  0.00     0.033 H 
ATOM     33  H   PMK d   1       4.794 -23.832 -27.985  0.00  0.00     0.033 H 
BRANCH  31  34
ATOM     34  CAQ PMK d   1       4.876 -25.572 -26.685  0.00  0.00    -0.065 C 
ATOM     35  H   PMK d   1       5.860 -25.223 -26.338  0.00  0.00     0.033 H 
ATOM     36  H   PMK d   1       4.302 -25.959 -25.830  0.00  0.00     0.033 H 
BRANCH  34  37
ATOM     37  CAP PMK d   1       5.062 -26.695 -27.742  0.00  0.00    -0.065 C 
ATOM     38  H   PMK d   1       4.102 -27.204 -27.912  0.00  0.00     0.033 H 
ATOM     39  H   PMK d   1       5.417 -26.257 -28.687  0.00  0.00     0.033 H 
BRANCH  37  40
ATOM     40  CAO PMK d   1       6.106 -27.714 -27.216  0.00  0.00    -0.065 C 
ATOM     41  H   PMK d   1       6.760 -28.023 -28.045  0.00  0.00     0.033 H 
ATOM     42  H   PMK d   1       6.710 -27.240 -26.429  0.00  0.00     0.033 H 
BRANCH  40  43
ATOM     43  CAN PMK d   1       5.402 -28.954 -26.637  0.00  0.00    -0.065 C 
ATOM     44  H   PMK d   1       4.784 -28.662 -25.775  0.00  0.00     0.033 H 
ATOM     45  H   PMK d   1       4.764 -29.413 -27.407  0.00  0.00     0.033 H 
BRANCH  43  46
ATOM     46  CAM PMK d   1       6.478 -29.954 -26.190  0.00  0.00    -0.069 C 
ATOM     47  H   PMK d   1       7.254 -30.027 -26.966  0.00  0.00     0.032 H 
ATOM     48  H   PMK d   1       6.931 -29.607 -25.250  0.00  0.00     0.032 H 
BRANCH  46  49
ATOM     49  CAA PMK d   1       5.845 -31.331 -25.972  0.00  0.00    -0.077 C 
ATOM     50  H   PMK d   1       6.619 -32.044 -25.652  0.00  0.00     0.027 H 
ATOM     51  H   PMK d   1       5.392 -31.679 -26.912  0.00  0.00     0.027 H 
ATOM     52  H   PMK d   1       5.069 -31.259 -25.195  0.00  0.00     0.027 H 
ENDBRANCH  46  49
ENDBRANCH  43  46
ENDBRANCH  40  43
ENDBRANCH  37  40
ENDBRANCH  34  37
ENDBRANCH  31  34
ENDBRANCH  25  31
ENDBRANCH  22  25
ENDBRANCH  19  22
ENDBRANCH  16  19
ENDBRANCH  10  16
ENDBRANCH   7  10
ENDBRANCH   4   7
ENDBRANCH   1   4
BRANCH   1  53
ATOM     53  CBP PMK d   1       4.235 -17.846 -32.257  0.00  0.00    -0.058 C 
ATOM     54  H   PMK d   1       4.899 -17.732 -31.387  0.00  0.00     0.039 H 
BRANCH  53  55
ATOM     55  CAF PMK d   1       4.355 -16.627 -33.155  0.00  0.00    -0.073 C 
ATOM     56  H   PMK d   1       4.073 -15.726 -32.590  0.00  0.00     0.028 H 
ATOM     57  H   PMK d   1       3.685 -16.741 -34.020  0.00  0.00     0.028 H 
ATOM     58  H   PMK d   1       5.393 -16.530 -33.505  0.00  0.00     0.028 H 
ENDBRANCH  53  55
BRANCH  53  59
ATOM     59  CBH PMK d   1       4.630 -19.116 -33.047  0.00  0.00    -0.062 C 
ATOM     60  H   PMK d   1       4.000 -19.951 -32.707  0.00  0.00     0.033 H 
ATOM     61  H   PMK d   1       4.451 -18.934 -34.117  0.00  0.00     0.033 H 
BRANCH  59  62
ATOM     62  CAV PMK d   1       6.123 -19.508 -32.852  0.00  0.00    -0.064 C 
ATOM     63  H   PMK d   1       6.767 -18.893 -33.498  0.00  0.00     0.033 H 
ATOM     64  H   PMK d   1       6.420 -19.372 -31.802  0.00  0.00     0.033 H 
BRANCH  62  65
ATOM     65  CBF PMK d   1       6.229 -21.009 -33.254  0.00  0.00    -0.062 C 
ATOM     66  H   PMK d   1       5.759 -21.123 -34.242  0.00  0.00     0.033 H 
ATOM     67  H   PMK d   1       5.667 -21.593 -32.511  0.00  0.00     0.033 H 
BRANCH  65  68
ATOM     68  CBO PMK d   1       7.648 -21.605 -33.341  0.00  0.00    -0.058 C 
ATOM     69  H   PMK d   1       7.781 -22.284 -32.486  0.00  0.00     0.039 H 
BRANCH  68  70
ATOM     70  CAE PMK d   1       8.691 -20.539 -33.268  0.00  0.00    -0.073 C 
ATOM     71  H   PMK d   1       9.689 -20.997 -33.333  0.00  0.00     0.028 H 
ATOM     72  H   PMK d   1       8.597 -19.999 -32.315  0.00  0.00     0.028 H 
ATOM     73  H   PMK d   1       8.556 -19.836 -34.103  0.00  0.00     0.028 H 
ENDBRANCH  68  70
BRANCH  68  74
ATOM     74  CBD PMK d   1       7.863 -22.414 -34.648  0.00  0.00    -0.062 C 
ATOM     75  H   PMK d   1       6.950 -22.353 -35.258  0.00  0.00     0.033 H 
ATOM     76  H   PMK d   1       8.705 -21.975 -35.203  0.00  0.00     0.033 H 
BRANCH  74  77
ATOM     77  CAT PMK d   1       8.177 -23.913 -34.360  0.00  0.00    -0.064 C 
ATOM     78  H   PMK d   1       8.681 -23.988 -33.385  0.00  0.00     0.033 H 
ATOM     79  H   PMK d   1       7.231 -24.473 -34.328  0.00  0.00     0.033 H 
BRANCH  77  80
ATOM     80  CBB PMK d   1       9.097 -24.544 -35.451  0.00  0.00    -0.062 C 
ATOM     81  H   PMK d   1       9.905 -25.093 -34.946  0.00  0.00     0.033 H 
ATOM     82  H   PMK d   1       9.527 -23.730 -36.053  0.00  0.00     0.033 H 
BRANCH  80  83
ATOM     83  CBM PMK d   1       8.372 -25.517 -36.402  0.00  0.00    -0.058 C 
ATOM     84  H   PMK d   1       8.003 -26.369 -35.813  0.00  0.00     0.039 H 
BRANCH  83  85
ATOM     85  CAC PMK d   1       7.211 -24.822 -37.063  0.00  0.00    -0.073 C 
ATOM     86  H   PMK d   1       6.700 -25.524 -37.739  0.00  0.00     0.028 H 
ATOM     87  H   PMK d   1       7.579 -23.960 -37.639  0.00  0.00     0.028 H 
ATOM     88  H   PMK d   1       6.505 -24.475 -36.294  0.00  0.00     0.028 H 
ENDBRANCH  83  85
BRANCH  83  89
ATOM     89  CAZ PMK d   1       9.285 -26.039 -37.517  0.00  0.00    -0.060 C 
ATOM     90  H   PMK d   1       8.642 -26.435 -38.317  0.00  0.00     0.033 H 
ATOM     91  H   PMK d   1       9.865 -25.187 -37.901  0.00  0.00     0.033 H 
BRANCH  89  92
ATOM     92  CAR PMK d   1      10.277 -27.140 -37.129  0.00  0.00    -0.044 C 
ATOM     93  H   PMK d   1      11.159 -26.679 -36.661  0.00  0.00     0.036 H 
ATOM     94  H   PMK d   1       9.795 -27.821 -36.412  0.00  0.00     0.036 H 
BRANCH  92  95
ATOM     95  CAX PMK d   1      10.721 -27.937 -38.351  0.00  0.00     0.032 C 
ATOM     96  H   PMK d   1      11.620 -28.519 -38.101  0.00  0.00     0.075 H 
ATOM     97  H   PMK d   1      10.949 -27.246 -39.176  0.00  0.00     0.075 H 
BRANCH  95  98
ATOM     98  OBI PMK d   1       9.680 -28.822 -38.749  0.00  0.00    -0.283 OA
BRANCH  98  99
ATOM     99  PBV PMK d   1       9.722 -30.378 -38.398  0.00  0.00     0.422 P 
ATOM    100  O1  PMK d   1       8.516 -31.124 -38.830  0.00  0.00    -0.617 OA
ATOM    101  OAG PMK d   1      10.835 -31.120 -39.032  0.00  0.00    -0.617 OA
ATOM    102  OAL PMK d   1       9.844 -30.698 -36.953  0.00  0.00    -0.617 OA
ENDBRANCH  98  99
ENDBRANCH  95  98
ENDBRANCH  92  95
ENDBRANCH  89  92
ENDBRANCH  83  89
ENDBRANCH  80  83
ENDBRANCH  77  80
ENDBRANCH  74  77
ENDBRANCH  68  74
ENDBRANCH  65  68
ENDBRANCH  62  65
ENDBRANCH  59  62
ENDBRANCH  53  59
ENDBRANCH   1  53
TORSDOF 33
