REMARK  6 active torsions:
REMARK  status: ('A' for Active; 'I' for Inactive)
REMARK    1  A    between atoms: C4_8  and  C1_1 
REMARK       I    between atoms: N1_2  and  C18_22 
REMARK    2  A    between atoms: C10_14  and  O1_3 
REMARK    3  A    between atoms: C18_22  and  O3_7 
REMARK    4  A    between atoms: O3_7  and  C19_23 
REMARK    5  A    between atoms: C7_11  and  C8_12 
REMARK    6  A    between atoms: C10_14  and  C9_13 
ROOT
ATOM      1  N1  2U8 d   1     -20.796  -4.351  45.504  0.00  0.00    -0.323 N 
ATOM      2  O2  2U8 d   1     -18.766  -5.390  45.075  0.00  0.00    -0.238 OA
ATOM      3  C10 2U8 d   1     -23.827  -3.601  43.276  0.00  0.00     0.127 C 
ATOM      4  C11 2U8 d   1     -23.077  -2.506  42.466  0.00  0.00    -0.025 C 
ATOM      5  C12 2U8 d   1     -21.692  -2.942  41.942  0.00  0.00    -0.060 C 
ATOM      6  C13 2U8 d   1     -20.769  -3.554  43.001  0.00  0.00    -0.045 C 
ATOM      7  C14 2U8 d   1     -21.402  -4.344  44.173  0.00  0.00     0.024 C 
ATOM      8  C15 2U8 d   1     -22.923  -4.161  44.413  0.00  0.00     0.008 C 
ATOM      9  C16 2U8 d   1     -23.006  -3.423  45.759  0.00  0.00    -0.041 C 
ATOM     10  C17 2U8 d   1     -21.670  -3.680  46.464  0.00  0.00     0.001 C 
ATOM     11  C18 2U8 d   1     -19.561  -4.900  45.877  0.00  0.00     0.362 C 
ATOM     12  H   2U8 d   1     -22.939  -1.630  43.116  0.00  0.00     0.038 H 
ATOM     13  H   2U8 d   1     -23.700  -2.228  41.603  0.00  0.00     0.038 H 
ATOM     14  H   2U8 d   1     -21.191  -2.058  41.521  0.00  0.00     0.033 H 
ATOM     15  H   2U8 d   1     -21.845  -3.689  41.149  0.00  0.00     0.033 H 
ATOM     16  H   2U8 d   1     -20.191  -2.729  43.442  0.00  0.00     0.036 H 
ATOM     17  H   2U8 d   1     -20.087  -4.241  42.478  0.00  0.00     0.036 H 
ATOM     18  H   2U8 d   1     -21.295  -5.383  43.827  0.00  0.00     0.073 H 
ATOM     19  H   2U8 d   1     -23.321  -5.172  44.585  0.00  0.00     0.049 H 
ATOM     20  H   2U8 d   1     -23.838  -3.818  46.361  0.00  0.00     0.036 H 
ATOM     21  H   2U8 d   1     -23.151  -2.345  45.596  0.00  0.00     0.036 H 
ATOM     22  H   2U8 d   1     -21.221  -2.727  46.780  0.00  0.00     0.064 H 
ATOM     23  H   2U8 d   1     -21.826  -4.321  47.344  0.00  0.00     0.064 H 
ENDROOT
BRANCH   3  24
ATOM     24  O1  2U8 d   1     -24.983  -2.980  43.763  0.00  0.00    -0.377 OA
ATOM     25  H   2U8 d   1     -25.515  -2.686  43.033  0.00  0.00     0.211 HD
ENDBRANCH   3  24
BRANCH   3  26
ATOM     26  C9  2U8 d   1     -24.194  -4.764  42.440  0.00  0.00    -0.062 C 
ATOM     27  C4  2U8 d   1     -24.502  -5.688  41.696  0.00  0.00    -0.064 C 
BRANCH  27  28
ATOM     28  C1  2U8 d   1     -24.942  -6.788  40.839  0.00  0.00     0.018 A 
ATOM     29  C2  2U8 d   1     -25.145  -8.081  41.352  0.00  0.00    -0.065 A 
ATOM     30  C5  2U8 d   1     -25.556  -9.119  40.514  0.00  0.00    -0.081 A 
ATOM     31  H   2U8 d   1     -24.981  -8.273  42.406  0.00  0.00     0.085 H 
ATOM     32  C6  2U8 d   1     -25.770  -8.881  39.145  0.00  0.00    -0.077 A 
ATOM     33  H   2U8 d   1     -25.711 -10.112  40.920  0.00  0.00     0.083 H 
ATOM     34  C7  2U8 d   1     -25.569  -7.587  38.612  0.00  0.00    -0.061 A 
ATOM     35  H   2U8 d   1     -26.089  -9.690  38.498  0.00  0.00     0.084 H 
ATOM     36  C3  2U8 d   1     -25.150  -6.538  39.467  0.00  0.00    -0.059 A 
ATOM     37  H   2U8 d   1     -24.989  -5.543  39.067  0.00  0.00     0.086 H 
BRANCH  34  38
ATOM     38  C8  2U8 d   1     -25.793  -7.315  37.147  0.00  0.00    -0.051 C 
ATOM     39  H   2U8 d   1     -25.584  -6.256  36.935  0.00  0.00     0.033 H 
ATOM     40  H   2U8 d   1     -26.837  -7.542  36.887  0.00  0.00     0.033 H 
ATOM     41  H   2U8 d   1     -25.121  -7.948  36.550  0.00  0.00     0.033 H 
ENDBRANCH  34  38
ENDBRANCH  27  28
ENDBRANCH   3  26
BRANCH  11  42
ATOM     42  O3  2U8 d   1     -19.514  -5.179  47.189  0.00  0.00    -0.309 OA
BRANCH  42  43
ATOM     43  C19 2U8 d   1     -18.397  -5.879  47.715  0.00  0.00     0.015 C 
ATOM     44  H   2U8 d   1     -18.528  -6.018  48.798  0.00  0.00     0.067 H 
ATOM     45  H   2U8 d   1     -17.480  -5.300  47.528  0.00  0.00     0.067 H 
ATOM     46  H   2U8 d   1     -18.316  -6.861  47.226  0.00  0.00     0.067 H 
ENDBRANCH  42  43
ENDBRANCH  11  42
TORSDOF 6
