REMARK  20 active torsions:
REMARK  status: ('A' for Active; 'I' for Inactive)
REMARK    1  A    between atoms: C44_6  and  O45_42 
REMARK    2  A    between atoms: C43_7  and  O46_43 
REMARK    3  A    between atoms: C12_13  and  C8_8 
REMARK    4  A    between atoms: C10_9  and  N11_30 
REMARK    5  A    between atoms: C24_23  and  C25_12 
REMARK    6  A    between atoms: C13_15  and  C12_13 
REMARK    7  A    between atoms: C1_14  and  C30_16 
REMARK    8  A    between atoms: C1_14  and  C2_21 
REMARK       I    between atoms: N23_31  and  C13_15 
REMARK    9  A    between atoms: C3_24  and  C4_17 
REMARK   10  A    between atoms: C16_25  and  C17_18 
REMARK   11  A    between atoms: C16_25  and  C18_19 
REMARK   12  A    between atoms: C16_25  and  C19_20 
REMARK   13  A    between atoms: C2_21  and  C3_24 
REMARK   14  A    between atoms: C28_22  and  C24_23 
REMARK   15  A    between atoms: O27_44  and  C28_22 
REMARK   16  A    between atoms: C24_23  and  N23_31 
REMARK   17  A    between atoms: C3_24  and  N34_29 
REMARK   18  A    between atoms: O15_45  and  C16_25 
REMARK   19  A    between atoms: N14_27  and  O15_45 
REMARK   20  A    between atoms: N26_28  and  O27_44 
ROOT
ATOM      1  C28 2U4 d   1     -34.809   9.105   1.945  0.00  0.00     0.072 C 
ATOM      2  H13 2U4 d   1     -35.446   8.230   2.141  0.00  0.00     0.082 H 
ATOM      3  H14 2U4 d   1     -34.076   8.858   1.163  0.00  0.00     0.082 H 
ENDROOT
BRANCH   1   4
ATOM      4  C24 2U4 d   1     -34.060   9.472   3.230  0.00  0.00     0.086 C 
ATOM      5  H15 2U4 d   1     -33.648   8.547   3.660  0.00  0.00     0.087 H 
BRANCH   4   6
ATOM      6  C25 2U4 d   1     -32.944  10.436   2.957  0.00  0.00     0.112 C 
ATOM      7  O29 2U4 d   1     -33.056  11.604   3.244  0.00  0.00    -0.305 OA
ATOM      8  H4  2U4 d   1     -32.024  10.080   2.496  0.00  0.00     0.146 H 
ENDBRANCH   4   6
BRANCH   4   9
ATOM      9  N23 2U4 d   1     -34.912  10.120   4.218  0.00  0.00    -0.343 N 
ATOM     10  C13 2U4 d   1     -34.950   9.672   5.484  0.00  0.00     0.275 C 
ATOM     11  O22 2U4 d   1     -34.318   8.696   5.846  0.00  0.00    -0.266 OA
ATOM     12  H19 2U4 d   1     -35.473  10.904   3.952  0.00  0.00     0.163 HD
BRANCH  10  13
ATOM     13  C12 2U4 d   1     -35.743  10.415   6.484  0.00  0.00     0.180 C 
ATOM     14  N14 2U4 d   1     -37.032  10.625   6.318  0.00  0.00    -0.125 NA
BRANCH  13  15
ATOM     15  C8  2U4 d   1     -34.998  10.964   7.653  0.00  0.00     0.102 A 
ATOM     16  C7  2U4 d   1     -33.645  10.961   7.763  0.00  0.00    -0.011 A 
ATOM     17  S6  2U4 d   1     -33.188  11.721   9.286  0.00  0.00    -0.062 SA
ATOM     18  H3  2U4 d   1     -32.953  10.554   7.028  0.00  0.00     0.098 H 
ATOM     19  C10 2U4 d   1     -34.890  11.978   9.646  0.00  0.00     0.164 A 
ATOM     20  N9  2U4 d   1     -35.626  11.512   8.689  0.00  0.00    -0.222 NA
BRANCH  19  21
ATOM     21  N11 2U4 d   1     -35.397  12.575  10.785  0.00  0.00    -0.378 N 
ATOM     22  H17 2U4 d   1     -36.415  12.679  10.902  0.00  0.00     0.158 HD
ATOM     23  H18 2U4 d   1     -34.757  12.916  11.517  0.00  0.00     0.158 HD
ENDBRANCH  19  21
ENDBRANCH  13  15
BRANCH  14  24
ATOM     24  O15 2U4 d   1     -37.753  10.105   5.189  0.00  0.00    -0.234 OA
BRANCH  24  25
ATOM     25  C16 2U4 d   1     -39.021  10.707   4.812  0.00  0.00     0.171 C 
BRANCH  25  26
ATOM     26  C17 2U4 d   1     -40.096  10.437   5.864  0.00  0.00     0.211 C 
ATOM     27  O20 2U4 d   1     -40.045   9.396   6.519  0.00  0.00    -0.646 OA
ATOM     28  O21 2U4 d   1     -41.022  11.229   6.074  0.00  0.00    -0.646 OA
ENDBRANCH  25  26
BRANCH  25  29
ATOM     29  C18 2U4 d   1     -39.463  10.096   3.478  0.00  0.00    -0.036 C 
ATOM     30  H5  2U4 d   1     -38.694  10.286   2.715  0.00  0.00     0.032 H 
ATOM     31  H6  2U4 d   1     -40.413  10.552   3.163  0.00  0.00     0.032 H 
ATOM     32  H7  2U4 d   1     -39.599   9.011   3.599  0.00  0.00     0.032 H 
ENDBRANCH  25  29
BRANCH  25  33
ATOM     33  C19 2U4 d   1     -38.850  12.210   4.537  0.00  0.00    -0.036 C 
ATOM     34  H8  2U4 d   1     -38.531  12.717   5.459  0.00  0.00     0.032 H 
ATOM     35  H9  2U4 d   1     -39.808  12.632   4.199  0.00  0.00     0.032 H 
ATOM     36  H10 2U4 d   1     -38.089  12.356   3.756  0.00  0.00     0.032 H 
ENDBRANCH  25  33
ENDBRANCH  24  25
ENDBRANCH  14  24
ENDBRANCH  10  13
ENDBRANCH   4   9
ENDBRANCH   1   4
BRANCH   1  37
ATOM     37  O27 2U4 d   1     -35.629  10.182   1.488  0.00  0.00    -0.254 OA
BRANCH  37  38
ATOM     38  N26 2U4 d   1     -34.874  11.161   0.811  0.00  0.00    -0.131 NA
ATOM     39  C1  2U4 d   1     -35.319  11.990  -0.063  0.00  0.00     0.140 C 
BRANCH  39  40
ATOM     40  C30 2U4 d   1     -34.264  12.868  -0.584  0.00  0.00     0.227 C 
ATOM     41  O31 2U4 d   1     -34.415  14.076  -0.628  0.00  0.00    -0.643 OA
ATOM     42  O32 2U4 d   1     -33.196  12.362  -0.920  0.00  0.00    -0.643 OA
ENDBRANCH  39  40
BRANCH  39  43
ATOM     43  C2  2U4 d   1     -36.779  12.019  -0.499  0.00  0.00     0.013 C 
ATOM     44  H11 2U4 d   1     -37.129  13.062  -0.487  0.00  0.00     0.046 H 
ATOM     45  H12 2U4 d   1     -37.371  11.425   0.213  0.00  0.00     0.046 H 
BRANCH  43  46
ATOM     46  C3  2U4 d   1     -36.989  11.444  -1.914  0.00  0.00     0.112 C 
ATOM     47  H16 2U4 d   1     -36.401  12.103  -2.570  0.00  0.00     0.091 H 
BRANCH  46  48
ATOM     48  C4  2U4 d   1     -36.482  10.046  -2.151  0.00  0.00     0.197 C 
ATOM     49  O33 2U4 d   1     -36.483   9.206  -1.255  0.00  0.00    -0.646 OA
ATOM     50  O5  2U4 d   1     -36.144   9.759  -3.291  0.00  0.00    -0.646 OA
ENDBRANCH  46  48
BRANCH  46  51
ATOM     51  N34 2U4 d   1     -38.375  11.473  -2.423  0.00  0.00    -0.264 N 
ATOM     52  C35 2U4 d   1     -38.801  12.340  -3.383  0.00  0.00     0.262 A 
ATOM     53  C40 2U4 d   1     -40.222  12.062  -3.693  0.00  0.00     0.051 A 
ATOM     54  O37 2U4 d   1     -38.150  13.240  -3.897  0.00  0.00    -0.267 OA
ATOM     55  C41 2U4 d   1     -41.127  12.573  -4.630  0.00  0.00    -0.032 A 
ATOM     56  C39 2U4 d   1     -40.600  10.985  -2.836  0.00  0.00     0.051 A 
ATOM     57  C44 2U4 d   1     -42.428  12.062  -4.677  0.00  0.00     0.099 A 
ATOM     58  H1  2U4 d   1     -40.822  13.358  -5.313  0.00  0.00     0.089 H 
ATOM     59  C43 2U4 d   1     -42.813  11.012  -3.818  0.00  0.00     0.099 A 
ATOM     60  C42 2U4 d   1     -41.899  10.471  -2.901  0.00  0.00    -0.032 A 
ATOM     61  H2  2U4 d   1     -42.198   9.660  -2.247  0.00  0.00     0.089 H 
ATOM     62  C36 2U4 d   1     -39.387  10.631  -2.054  0.00  0.00     0.262 A 
ATOM     63  O38 2U4 d   1     -39.343   9.732  -1.220  0.00  0.00    -0.267 OA
BRANCH  57  64
ATOM     64  O45 2U4 d   1     -43.325  12.587  -5.554  0.00  0.00    -0.358 OA
ATOM     65  H20 2U4 d   1     -42.909  13.280  -6.054  0.00  0.00     0.217 HD
ENDBRANCH  57  64
BRANCH  59  66
ATOM     66  O46 2U4 d   1     -44.079  10.514  -3.870  0.00  0.00    -0.358 OA
ATOM     67  H21 2U4 d   1     -44.171   9.817  -3.231  0.00  0.00     0.217 HD
ENDBRANCH  59  66
ENDBRANCH  46  51
ENDBRANCH  43  46
ENDBRANCH  39  43
ENDBRANCH  37  38
ENDBRANCH   1  37
TORSDOF 20
