REMARK  2 active torsions:
REMARK  status: ('A' for Active; 'I' for Inactive)
REMARK    1  A    between atoms: C3_3  and  O3_4 
REMARK    2  A    between atoms: C4_5  and  O4_6 
ROOT
ATOM      1  C1  CAQ d   1     -31.347   1.574  15.740  0.00  0.00    -0.080 A 
ATOM      2  C2  CAQ d   1     -31.403   0.245  15.317  0.00  0.00    -0.048 A 
ATOM      3  C3  CAQ d   1     -30.263  -0.569  15.435  0.00  0.00     0.098 A 
ATOM      4  C4  CAQ d   1     -29.082  -0.063  15.964  0.00  0.00     0.098 A 
ATOM      5  C5  CAQ d   1     -29.021   1.271  16.382  0.00  0.00    -0.048 A 
ATOM      6  C6  CAQ d   1     -30.157   2.086  16.267  0.00  0.00    -0.080 A 
ATOM      7  H   CAQ d   1     -32.223   2.207  15.660  0.00  0.00     0.083 H 
ATOM      8  H   CAQ d   1     -32.319  -0.157  14.900  0.00  0.00     0.087 H 
ATOM      9  H   CAQ d   1     -28.101   1.672  16.792  0.00  0.00     0.087 H 
ATOM     10  H   CAQ d   1     -30.112   3.120  16.589  0.00  0.00     0.083 H 
ENDROOT
BRANCH   3  11
ATOM     11  O3  CAQ d   1     -30.223  -1.883  15.063  0.00  0.00    -0.358 OA
ATOM     12  H   CAQ d   1     -29.356  -2.232  15.232  0.00  0.00     0.217 HD
ENDBRANCH   3  11
BRANCH   4  13
ATOM     13  O4  CAQ d   1     -28.042  -0.943  16.038  0.00  0.00    -0.358 OA
ATOM     14  H   CAQ d   1     -28.288  -1.677  16.589  0.00  0.00     0.217 HD
ENDBRANCH   4  13
TORSDOF 2
