REMARK  7 active torsions:
REMARK  status: ('A' for Active; 'I' for Inactive)
REMARK    1  A    between atoms: C14_3  and  N3_4 
REMARK    2  A    between atoms: C12_7  and  S2_8 
REMARK    3  A    between atoms: S2_8  and  C1_11 
REMARK    4  A    between atoms: C7_22  and  C10_23 
REMARK    5  A    between atoms: C10_23  and  C17_24 
REMARK    6  A    between atoms: C10_23  and  C11_28 
REMARK    7  A    between atoms: C10_23  and  O1_29 
ROOT
ATOM      1  C1  2UW d   1     -40.013  24.864  16.030  0.00  0.00     0.105 A 
ATOM      2  S1  2UW d   1     -38.436  24.224  16.149  0.00  0.00    -0.076 SA
ATOM      3  C2  2UW d   1     -40.752  24.581  17.117  0.00  0.00    -0.054 A 
ATOM      4  C4  2UW d   1     -40.057  23.856  18.017  0.00  0.00    -0.062 A 
ATOM      5  C3  2UW d   1     -38.782  23.537  17.667  0.00  0.00     0.036 A 
ATOM      6  C5  2UW d   1     -37.850  22.809  18.415  0.00  0.00     0.095 A 
ATOM      7  C9  2UW d   1     -36.577  22.450  17.918  0.00  0.00     0.064 A 
ATOM      8  C8  2UW d   1     -35.701  21.746  18.745  0.00  0.00    -0.049 A 
ATOM      9 CL1  2UW d   1     -36.040  22.846  16.277  0.00  0.00    -0.082 Cl
ATOM     10  N1  2UW d   1     -38.191  22.476  19.683  0.00  0.00    -0.257 NA
ATOM     11  C6  2UW d   1     -37.352  21.805  20.477  0.00  0.00     0.012 A 
ATOM     12  C7  2UW d   1     -36.092  21.404  20.030  0.00  0.00     0.004 A 
ATOM     13  H   2UW d   1     -41.785  24.898  17.254  0.00  0.00     0.086 H 
ATOM     14  H   2UW d   1     -40.490  23.545  18.966  0.00  0.00     0.085 H 
ATOM     15  H   2UW d   1     -34.718  21.467  18.384  0.00  0.00     0.087 H 
ATOM     16  H   2UW d   1     -37.656  21.567  21.490  0.00  0.00     0.115 H 
ENDROOT
BRANCH   1  17
ATOM     17  S2  2UW d   1     -40.568  25.779  14.753  0.00  0.00     0.214 S 
ATOM     18  O2  2UW d   1     -41.998  25.934  14.935  0.00  0.00    -0.217 OA
ATOM     19  O3  2UW d   1     -40.108  25.295  13.451  0.00  0.00    -0.217 OA
BRANCH  17  20
ATOM     20  C12 2UW d   1     -39.790  27.331  14.809  0.00  0.00     0.082 A 
ATOM     21  C16 2UW d   1     -40.195  28.258  15.748  0.00  0.00    -0.057 A 
ATOM     22  C15 2UW d   1     -39.549  29.464  15.845  0.00  0.00    -0.038 A 
ATOM     23  H   2UW d   1     -41.024  28.033  16.409  0.00  0.00     0.086 H 
ATOM     24  C14 2UW d   1     -38.507  29.729  14.996  0.00  0.00     0.120 A 
ATOM     25  H   2UW d   1     -39.858  30.196  16.582  0.00  0.00     0.089 H 
ATOM     26  N2  2UW d   1     -38.110  28.820  14.068  0.00  0.00    -0.242 NA
ATOM     27  C13 2UW d   1     -38.711  27.630  13.989  0.00  0.00     0.026 A 
ATOM     28  H   2UW d   1     -38.354  26.892  13.280  0.00  0.00     0.117 H 
BRANCH  24  29
ATOM     29  N3  2UW d   1     -37.922  30.910  15.110  0.00  0.00    -0.384 N 
ATOM     30  H   2UW d   1     -37.134  31.156  14.494  0.00  0.00     0.157 HD
ATOM     31  H   2UW d   1     -38.255  31.584  15.815  0.00  0.00     0.157 HD
ENDBRANCH  24  29
ENDBRANCH  17  20
ENDBRANCH   1  17
BRANCH  12  32
ATOM     32  C10 2UW d   1     -35.125  20.663  20.935  0.00  0.00     0.180 C 
BRANCH  32  33
ATOM     33  C17 2UW d   1     -35.730  19.528  21.678  0.00  0.00     0.422 C 
ATOM     34  F2  2UW d   1     -36.508  20.107  22.573  0.00  0.00    -0.167 F 
ATOM     35  F3  2UW d   1     -36.421  18.717  20.914  0.00  0.00    -0.167 F 
ATOM     36  F1  2UW d   1     -34.699  18.886  22.203  0.00  0.00    -0.167 F 
ENDBRANCH  32  33
BRANCH  32  37
ATOM     37  C11 2UW d   1     -34.600  21.610  22.026  0.00  0.00    -0.035 C 
ATOM     38  H   2UW d   1     -34.131  22.487  21.556  0.00  0.00     0.032 H 
ATOM     39  H   2UW d   1     -33.856  21.083  22.642  0.00  0.00     0.032 H 
ATOM     40  H   2UW d   1     -35.437  21.938  22.661  0.00  0.00     0.032 H 
ENDBRANCH  32  37
BRANCH  32  41
ATOM     41  O1  2UW d   1     -34.117  20.097  20.149  0.00  0.00    -0.376 OA
ATOM     42  H   2UW d   1     -34.499  19.458  19.558  0.00  0.00     0.211 HD
ENDBRANCH  32  41
ENDBRANCH  12  32
TORSDOF 7
