REMARK  8 active torsions:
REMARK  status: ('A' for Active; 'I' for Inactive)
REMARK    1  A    between atoms: C17_3  and  N2_4 
REMARK    2  A    between atoms: C15_7  and  S1_8 
REMARK    3  A    between atoms: S1_8  and  C5_11 
REMARK    4  A    between atoms: C2_16  and  C7_17 
REMARK    5  A    between atoms: C10_22  and  C13_23 
REMARK    6  A    between atoms: C13_23  and  C20_24 
REMARK    7  A    between atoms: C13_23  and  C14_28 
REMARK    8  A    between atoms: C13_23  and  O1_29 
ROOT
ATOM      1  C5  2UX d   1     -41.330 -21.888  15.776  0.00  0.00     0.064 A 
ATOM      2  C6  2UX d   1     -40.438 -20.852  15.502  0.00  0.00    -0.061 A 
ATOM      3  C1  2UX d   1     -39.405 -20.563  16.389  0.00  0.00    -0.071 A 
ATOM      4  C4  2UX d   1     -41.186 -22.639  16.924  0.00  0.00    -0.061 A 
ATOM      5  C3  2UX d   1     -40.166 -22.318  17.820  0.00  0.00    -0.071 A 
ATOM      6  C2  2UX d   1     -39.254 -21.282  17.563  0.00  0.00    -0.026 A 
ATOM      7  H   2UX d   1     -40.549 -20.269  14.595  0.00  0.00     0.085 H 
ATOM      8  H   2UX d   1     -38.709 -19.764  16.158  0.00  0.00     0.084 H 
ATOM      9  H   2UX d   1     -41.856 -23.467  17.127  0.00  0.00     0.085 H 
ATOM     10  H   2UX d   1     -40.075 -22.884  18.740  0.00  0.00     0.084 H 
ENDROOT
BRANCH   6  11
ATOM     11  C7  2UX d   1     -38.195 -20.981  18.469  0.00  0.00    -0.026 A 
ATOM     12  C12 2UX d   1     -37.182 -20.091  18.134  0.00  0.00    -0.072 A 
ATOM     13  C11 2UX d   1     -36.121 -19.818  19.010  0.00  0.00    -0.073 A 
ATOM     14  H   2UX d   1     -37.212 -19.595  17.171  0.00  0.00     0.084 H 
ATOM     15  C10 2UX d   1     -36.088 -20.380  20.280  0.00  0.00    -0.016 A 
ATOM     16  H   2UX d   1     -35.319 -19.162  18.693  0.00  0.00     0.084 H 
ATOM     17  C9  2UX d   1     -37.113 -21.238  20.655  0.00  0.00    -0.073 A 
ATOM     18  C8  2UX d   1     -38.146 -21.540  19.758  0.00  0.00    -0.072 A 
ATOM     19  H   2UX d   1     -37.114 -21.676  21.646  0.00  0.00     0.084 H 
ATOM     20  H   2UX d   1     -38.929 -22.223  20.066  0.00  0.00     0.084 H 
BRANCH  15  21
ATOM     21  C13 2UX d   1     -34.948 -20.030  21.237  0.00  0.00     0.179 C 
BRANCH  21  22
ATOM     22  C20 2UX d   1     -34.311 -21.217  21.925  0.00  0.00     0.422 C 
ATOM     23  F2  2UX d   1     -35.164 -21.773  22.753  0.00  0.00    -0.167 F 
ATOM     24  F3  2UX d   1     -33.898 -22.093  21.009  0.00  0.00    -0.167 F 
ATOM     25  F1  2UX d   1     -33.270 -20.742  22.601  0.00  0.00    -0.167 F 
ENDBRANCH  21  22
BRANCH  21  26
ATOM     26  C14 2UX d   1     -35.461 -19.030  22.298  0.00  0.00    -0.035 C 
ATOM     27  H   2UX d   1     -35.924 -18.168  21.796  0.00  0.00     0.032 H 
ATOM     28  H   2UX d   1     -34.618 -18.686  22.915  0.00  0.00     0.032 H 
ATOM     29  H   2UX d   1     -36.206 -19.525  22.938  0.00  0.00     0.032 H 
ENDBRANCH  21  26
BRANCH  21  30
ATOM     30  O1  2UX d   1     -33.849 -19.571  20.495  0.00  0.00    -0.376 OA
ATOM     31  H   2UX d   1     -33.560 -20.255  19.902  0.00  0.00     0.211 HD
ENDBRANCH  21  30
ENDBRANCH  15  21
ENDBRANCH   6  11
BRANCH   1  32
ATOM     32  S1  2UX d   1     -42.563 -22.180  14.678  0.00  0.00     0.208 S 
ATOM     33  O2  2UX d   1     -43.387 -23.329  15.158  0.00  0.00    -0.217 OA
ATOM     34  O3  2UX d   1     -42.009 -22.294  13.362  0.00  0.00    -0.217 OA
BRANCH  32  35
ATOM     35  C15 2UX d   1     -43.540 -20.748  14.765  0.00  0.00     0.081 A 
ATOM     36  C19 2UX d   1     -44.482 -20.683  15.782  0.00  0.00    -0.057 A 
ATOM     37  C18 2UX d   1     -45.219 -19.561  15.958  0.00  0.00    -0.038 A 
ATOM     38  H   2UX d   1     -44.628 -21.534  16.438  0.00  0.00     0.086 H 
ATOM     39  C17 2UX d   1     -44.968 -18.482  15.111  0.00  0.00     0.120 A 
ATOM     40  H   2UX d   1     -45.978 -19.503  16.730  0.00  0.00     0.089 H 
ATOM     41  N1  2UX d   1     -44.032 -18.560  14.135  0.00  0.00    -0.242 NA
ATOM     42  C16 2UX d   1     -43.314 -19.657  13.969  0.00  0.00     0.026 A 
ATOM     43  H   2UX d   1     -42.547 -19.693  13.204  0.00  0.00     0.117 H 
BRANCH  39  44
ATOM     44  N2  2UX d   1     -45.715 -17.415  15.258  0.00  0.00    -0.384 N 
ATOM     45  H   2UX d   1     -45.565 -16.594  14.654  0.00  0.00     0.157 HD
ATOM     46  H   2UX d   1     -46.452 -17.397  15.977  0.00  0.00     0.157 HD
ENDBRANCH  39  44
ENDBRANCH  32  35
ENDBRANCH   1  32
TORSDOF 8
