REMARK  10 active torsions:
REMARK  status: ('A' for Active; 'I' for Inactive)
REMARK    1  A    between atoms: C17_6  and  N3_7 
REMARK    2  A    between atoms: N3_7  and  C6_8 
REMARK    3  A    between atoms: C10_10  and  S1_11 
REMARK    4  A    between atoms: S1_11  and  C12_14 
REMARK    5  A    between atoms: C14_17  and  N5_18 
REMARK    6  A    between atoms: C7_23  and  C4_24 
REMARK    7  A    between atoms: C1_29  and  C11_30 
REMARK    8  A    between atoms: C11_30  and  C24_31 
REMARK    9  A    between atoms: C11_30  and  C23_35 
REMARK   10  A    between atoms: C11_30  and  O1_36 
ROOT
ATOM      1  C6  2UY d   1      39.211 -20.731 -16.133  0.00  0.00     0.142 A 
ATOM      2  N2  2UY d   1      40.237 -21.014 -15.338  0.00  0.00    -0.218 NA
ATOM      3  C10 2UY d   1      41.193 -21.885 -15.682  0.00  0.00     0.158 A 
ATOM      4  C9  2UY d   1      41.189 -22.521 -16.911  0.00  0.00    -0.043 A 
ATOM      5  C8  2UY d   1      40.136 -22.249 -17.765  0.00  0.00    -0.064 A 
ATOM      6  C7  2UY d   1      39.131 -21.350 -17.389  0.00  0.00     0.039 A 
ATOM      7  H   2UY d   1      41.980 -23.206 -17.193  0.00  0.00     0.088 H 
ATOM      8  H   2UY d   1      40.088 -22.735 -18.733  0.00  0.00     0.085 H 
ENDROOT
BRANCH   6   9
ATOM      9  C4  2UY d   1      38.080 -21.071 -18.304  0.00  0.00     0.070 A 
ATOM     10  C3  2UY d   1      38.131 -21.540 -19.642  0.00  0.00    -0.054 A 
ATOM     11  C2  2UY d   1      37.094 -21.227 -20.521  0.00  0.00    -0.070 A 
ATOM     12  H   2UY d   1      38.970 -22.138 -19.979  0.00  0.00     0.087 H 
ATOM     13  C1  2UY d   1      36.021 -20.448 -20.055  0.00  0.00     0.002 A 
ATOM     14  H   2UY d   1      37.115 -21.579 -21.546  0.00  0.00     0.084 H 
ATOM     15  C5  2UY d   1      36.025 -19.988 -18.734  0.00  0.00     0.012 A 
ATOM     16  N1  2UY d   1      37.026 -20.295 -17.923  0.00  0.00    -0.260 NA
ATOM     17  H   2UY d   1      35.205 -19.378 -18.373  0.00  0.00     0.115 H 
BRANCH  13  18
ATOM     18  C11 2UY d   1      34.831 -20.077 -20.958  0.00  0.00     0.180 C 
BRANCH  18  19
ATOM     19  C24 2UY d   1      34.408 -21.314 -21.772  0.00  0.00     0.422 C 
ATOM     20  F2  2UY d   1      33.837 -22.168 -20.919  0.00  0.00    -0.167 F 
ATOM     21  F3  2UY d   1      35.482 -21.909 -22.283  0.00  0.00    -0.167 F 
ATOM     22  F1  2UY d   1      33.545 -20.961 -22.764  0.00  0.00    -0.167 F 
ENDBRANCH  18  19
BRANCH  18  23
ATOM     23  C23 2UY d   1      35.217 -18.903 -21.860  0.00  0.00    -0.035 C 
ATOM     24  H   2UY d   1      35.511 -18.044 -21.238  0.00  0.00     0.032 H 
ATOM     25  H   2UY d   1      34.357 -18.624 -22.487  0.00  0.00     0.032 H 
ATOM     26  H   2UY d   1      36.060 -19.196 -22.503  0.00  0.00     0.032 H 
ENDBRANCH  18  23
BRANCH  18  27
ATOM     27  O1  2UY d   1      33.720 -19.727 -20.111  0.00  0.00    -0.376 OA
ATOM     28  H   2UY d   1      33.947 -18.964 -19.592  0.00  0.00     0.211 HD
ENDBRANCH  18  27
ENDBRANCH  13  18
ENDBRANCH   6   9
BRANCH   1  29
ATOM     29  N3  2UY d   1      38.262 -19.877 -15.708  0.00  0.00    -0.340 N 
ATOM     30  H   2UY d   1      37.406 -19.811 -16.277  0.00  0.00     0.167 HD
BRANCH  29  31
ATOM     31  C17 2UY d   1      38.324 -19.098 -14.606  0.00  0.00     0.033 A 
ATOM     32  C18 2UY d   1      37.160 -18.376 -14.269  0.00  0.00    -0.057 A 
ATOM     33  C19 2UY d   1      37.153 -17.532 -13.153  0.00  0.00    -0.081 A 
ATOM     34  H   2UY d   1      36.268 -18.475 -14.877  0.00  0.00     0.086 H 
ATOM     35  C20 2UY d   1      38.311 -17.406 -12.369  0.00  0.00    -0.083 A 
ATOM     36  H   2UY d   1      36.258 -16.978 -12.895  0.00  0.00     0.083 H 
ATOM     37  C21 2UY d   1      39.465 -18.113 -12.698  0.00  0.00    -0.081 A 
ATOM     38  H   2UY d   1      38.307 -16.755 -11.502  0.00  0.00     0.083 H 
ATOM     39  C22 2UY d   1      39.488 -18.948 -13.813  0.00  0.00    -0.057 A 
ATOM     40  H   2UY d   1      40.352 -18.013 -12.082  0.00  0.00     0.083 H 
ATOM     41  H   2UY d   1      40.395 -19.482 -14.073  0.00  0.00     0.086 H 
ENDBRANCH  29  31
ENDBRANCH   1  29
BRANCH   3  42
ATOM     42  S1  2UY d   1      42.518 -22.178 -14.597  0.00  0.00     0.225 S 
ATOM     43  O2  2UY d   1      42.072 -22.314 -13.144  0.00  0.00    -0.216 OA
ATOM     44  O3  2UY d   1      43.272 -23.368 -15.135  0.00  0.00    -0.216 OA
BRANCH  42  45
ATOM     45  C12 2UY d   1      43.508 -20.770 -14.756  0.00  0.00     0.083 A 
ATOM     46  C16 2UY d   1      44.451 -20.719 -15.785  0.00  0.00    -0.057 A 
ATOM     47  C15 2UY d   1      45.257 -19.588 -15.923  0.00  0.00    -0.038 A 
ATOM     48  H   2UY d   1      44.556 -21.552 -16.471  0.00  0.00     0.086 H 
ATOM     49  C14 2UY d   1      45.079 -18.539 -15.023  0.00  0.00     0.120 A 
ATOM     50  H   2UY d   1      46.001 -19.527 -16.709  0.00  0.00     0.089 H 
ATOM     51  N4  2UY d   1      44.143 -18.627 -14.030  0.00  0.00    -0.242 NA
ATOM     52  C13 2UY d   1      43.350 -19.696 -13.879  0.00  0.00     0.026 A 
ATOM     53  H   2UY d   1      42.603 -19.726 -13.094  0.00  0.00     0.117 H 
BRANCH  49  54
ATOM     54  N5  2UY d   1      45.833 -17.459 -15.130  0.00  0.00    -0.384 N 
ATOM     55  H   2UY d   1      45.710 -16.678 -14.470  0.00  0.00     0.157 HD
ATOM     56  H   2UY d   1      46.544 -17.399 -15.873  0.00  0.00     0.157 HD
ENDBRANCH  49  54
ENDBRANCH  42  45
ENDBRANCH   3  42
TORSDOF 10
