REMARK  6 active torsions:
REMARK  status: ('A' for Active; 'I' for Inactive)
REMARK    1  A    between atoms: C5_4  and  N15_9 
REMARK    2  A    between atoms: C6_5  and  C11_8 
REMARK    3  A    between atoms: C16_10  and  C35_24 
REMARK    4  A    between atoms: C18_12  and  C31_21 
REMARK    5  A    between atoms: C19_13  and  C20_14 
REMARK    6  A    between atoms: C38_26  and  C45_30 
ROOT
ATOM      1  N15 2V8 d   1       8.221 -15.822   9.141  0.00  0.00    -0.292 N 
ATOM      2  C16 2V8 d   1       8.253 -14.583   8.740  0.00  0.00     0.146 A 
ATOM      3  N17 2V8 d   1       7.694 -14.481   7.631  0.00  0.00    -0.221 NA
ATOM      4  C18 2V8 d   1       7.245 -15.765   7.195  0.00  0.00     0.163 A 
ATOM      5  C19 2V8 d   1       7.659 -16.547   8.202  0.00  0.00     0.087 A 
ENDROOT
BRANCH   1   6
ATOM      6  C5  2V8 d   1       8.765 -16.339  10.277  0.00  0.00     0.049 A 
ATOM      7  C3  2V8 d   1      10.173 -16.509  10.248  0.00  0.00    -0.035 A 
ATOM      8  C2  2V8 d   1      10.872 -17.036  11.344  0.00  0.00     0.036 A 
ATOM      9  H   2V8 d   1      10.722 -16.225   9.357  0.00  0.00     0.089 H 
ATOM     10 CL1  2V8 d   1      12.618 -17.262  11.296  0.00  0.00    -0.084 Cl
ATOM     11  C9  2V8 d   1      10.155 -17.411  12.479  0.00  0.00    -0.061 A 
ATOM     12  C7  2V8 d   1       8.761 -17.258  12.525  0.00  0.00    -0.073 A 
ATOM     13  H   2V8 d   1      10.679 -17.824  13.333  0.00  0.00     0.086 H 
ATOM     14  C6  2V8 d   1       8.056 -16.733  11.427  0.00  0.00    -0.035 A 
ATOM     15  H   2V8 d   1       8.220 -17.548  13.419  0.00  0.00     0.084 H 
BRANCH  14  16
ATOM     16  C11 2V8 d   1       6.546 -16.598  11.557  0.00  0.00    -0.049 C 
ATOM     17  H   2V8 d   1       6.134 -16.177  10.628  0.00  0.00     0.033 H 
ATOM     18  H   2V8 d   1       6.309 -15.931  12.399  0.00  0.00     0.033 H 
ATOM     19  H   2V8 d   1       6.104 -17.589  11.738  0.00  0.00     0.033 H 
ENDBRANCH  14  16
ENDBRANCH   1   6
BRANCH   2  20
ATOM     20  C35 2V8 d   1       8.777 -13.361   9.456  0.00  0.00     0.011 A 
ATOM     21  C36 2V8 d   1       9.659 -12.471   8.835  0.00  0.00    -0.064 A 
ATOM     22  C38 2V8 d   1      10.120 -11.334   9.510  0.00  0.00    -0.061 A 
ATOM     23  H   2V8 d   1       9.989 -12.663   7.821  0.00  0.00     0.085 H 
ATOM     24  C39 2V8 d   1       9.678 -11.070  10.807  0.00  0.00    -0.077 A 
ATOM     25  C41 2V8 d   1       8.778 -11.939  11.431  0.00  0.00    -0.082 A 
ATOM     26  H   2V8 d   1      10.033 -10.190  11.331  0.00  0.00     0.084 H 
ATOM     27  C43 2V8 d   1       8.327 -13.076  10.755  0.00  0.00    -0.069 A 
ATOM     28  H   2V8 d   1       8.431 -11.731  12.437  0.00  0.00     0.083 H 
ATOM     29  H   2V8 d   1       7.623 -13.744  11.238  0.00  0.00     0.085 H 
BRANCH  22  30
ATOM     30  C45 2V8 d   1      11.108 -10.392   8.828  0.00  0.00    -0.051 C 
ATOM     31  H   2V8 d   1      11.334 -10.766   7.819  0.00  0.00     0.033 H 
ATOM     32  H   2V8 d   1      12.036 -10.344   9.418  0.00  0.00     0.033 H 
ATOM     33  H   2V8 d   1      10.667  -9.387   8.756  0.00  0.00     0.033 H 
ENDBRANCH  22  30
ENDBRANCH   2  20
BRANCH   5  34
ATOM     34  C20 2V8 d   1       7.421 -18.031   8.330  0.00  0.00    -0.005 A 
ATOM     35  C21 2V8 d   1       8.456 -18.942   8.509  0.00  0.00    -0.050 A 
ATOM     36  C23 2V8 d   1       8.135 -20.291   8.666  0.00  0.00     0.035 A 
ATOM     37  H   2V8 d   1       9.488 -18.612   8.526  0.00  0.00     0.087 H 
ATOM     38  C24 2V8 d   1       6.808 -20.745   8.671  0.00  0.00    -0.062 A 
ATOM     39 CL2  2V8 d   1       9.440 -21.410   8.861  0.00  0.00    -0.084 Cl
ATOM     40  C26 2V8 d   1       5.772 -19.821   8.502  0.00  0.00    -0.081 A 
ATOM     41  H   2V8 d   1       6.588 -21.798   8.804  0.00  0.00     0.086 H 
ATOM     42  C28 2V8 d   1       6.089 -18.470   8.351  0.00  0.00    -0.071 A 
ATOM     43  H   2V8 d   1       4.739 -20.149   8.489  0.00  0.00     0.083 H 
ATOM     44  H   2V8 d   1       5.289 -17.745   8.248  0.00  0.00     0.084 H 
ENDBRANCH   5  34
BRANCH   4  45
ATOM     45  C31 2V8 d   1       6.579 -16.055   5.930  0.00  0.00     0.231 C 
ATOM     46  O32 2V8 d   1       6.330 -17.201   5.632  0.00  0.00    -0.643 OA
ATOM     47  O33 2V8 d   1       6.303 -15.079   5.092  0.00  0.00    -0.643 OA
ENDBRANCH   4  45
TORSDOF 6
