REMARK  8 active torsions:
REMARK  status: ('A' for Active; 'I' for Inactive)
REMARK    1  A    between atoms: C21_21  and  C22_22 
REMARK    2  A    between atoms: C23_23  and  C29_29 
REMARK    3  A    between atoms: C24_24  and  C30_30 
REMARK    4  A    between atoms: N31_31  and  C25_25 
REMARK    5  A    between atoms: O36_36  and  C26_26 
REMARK    6  A    between atoms: C27_27  and  O36_36 
REMARK    7  A    between atoms: S37_37  and  C28_28 
REMARK    8  A    between atoms: N31_31  and  S37_37 
ROOT
ATOM      1  C8  2UU d   1      11.741   1.573   9.099  0.00  0.00    -0.071 A 
ATOM      2  C10 2UU d   1      10.786   0.591   8.963  0.00  0.00    -0.063 A 
ATOM      3  C18 2UU d   1      11.446   2.192   6.830  0.00  0.00    -0.045 A 
ATOM      4  C21 2UU d   1      12.067   2.388   8.037  0.00  0.00    -0.023 A 
ATOM      5  C23 2UU d   1      10.138   0.420   7.760  0.00  0.00     0.068 A 
ATOM      6  C25 2UU d   1      10.489   1.221   6.698  0.00  0.00     0.060 A 
ATOM      7  H   2UU d   1      12.242   1.706  10.051  0.00  0.00     0.084 H 
ATOM      8  H   2UU d   1      10.544  -0.049   9.804  0.00  0.00     0.085 H 
ATOM      9  H   2UU d   1      11.713   2.807   5.978  0.00  0.00     0.088 H 
ENDROOT
BRANCH   6  10
ATOM     10  N31 2UU d   1       9.826   1.142   5.447  0.00  0.00    -0.280 N 
ATOM     11  H   2UU d   1       9.844   0.308   4.896  0.00  0.00     0.179 HD
BRANCH  10  12
ATOM     12  S37 2UU d   1       8.991   2.549   4.924  0.00  0.00     0.263 S 
ATOM     13  O33 2UU d   1       9.981   3.310   4.187  0.00  0.00    -0.200 OA
ATOM     14  O34 2UU d   1       7.772   2.046   4.321  0.00  0.00    -0.200 OA
BRANCH  12  15
ATOM     15  C28 2UU d   1       8.520   3.492   6.341  0.00  0.00     0.080 A 
ATOM     16  C16 2UU d   1       9.233   4.619   6.676  0.00  0.00    -0.058 A 
ATOM     17  C14 2UU d   1       8.852   5.334   7.790  0.00  0.00    -0.049 A 
ATOM     18  H   2UU d   1      10.077   4.938   6.076  0.00  0.00     0.086 H 
ATOM     19  C27 2UU d   1       7.767   4.905   8.536  0.00  0.00     0.076 A 
ATOM     20  H   2UU d   1       9.397   6.225   8.080  0.00  0.00     0.087 H 
ATOM     21  C15 2UU d   1       7.062   3.778   8.187  0.00  0.00    -0.049 A 
ATOM     22  C17 2UU d   1       7.440   3.063   7.075  0.00  0.00    -0.058 A 
ATOM     23  H   2UU d   1       6.216   3.456   8.783  0.00  0.00     0.087 H 
ATOM     24  H   2UU d   1       6.894   2.174   6.781  0.00  0.00     0.086 H 
BRANCH  19  25
ATOM     25  O36 2UU d   1       7.318   5.559   9.664  0.00  0.00    -0.311 OA
BRANCH  25  26
ATOM     26  C26 2UU d   1       7.351   6.940   9.641  0.00  0.00     0.076 A 
ATOM     27  C12 2UU d   1       6.898   7.676   8.566  0.00  0.00    -0.050 A 
ATOM     28  C4  2UU d   1       6.961   9.053   8.625  0.00  0.00    -0.080 A 
ATOM     29  H   2UU d   1       6.499   7.180   7.689  0.00  0.00     0.087 H 
ATOM     30  C1  2UU d   1       7.452   9.677   9.752  0.00  0.00    -0.083 A 
ATOM     31  H   2UU d   1       6.623   9.646   7.783  0.00  0.00     0.083 H 
ATOM     32  C5  2UU d   1       7.889   8.938  10.830  0.00  0.00    -0.080 A 
ATOM     33  H   2UU d   1       7.495  10.759   9.791  0.00  0.00     0.083 H 
ATOM     34  C13 2UU d   1       7.843   7.566  10.766  0.00  0.00    -0.050 A 
ATOM     35  H   2UU d   1       8.265   9.433  11.718  0.00  0.00     0.083 H 
ATOM     36  H   2UU d   1       8.195   6.974  11.603  0.00  0.00     0.087 H 
ENDBRANCH  25  26
ENDBRANCH  19  25
ENDBRANCH  12  15
ENDBRANCH  10  12
ENDBRANCH   6  10
BRANCH   5  37
ATOM     37  C29 2UU d   1       9.075  -0.591   7.591  0.00  0.00     0.211 C 
ATOM     38  O32 2UU d   1       8.174  -0.495   6.766  0.00  0.00    -0.644 OA
ATOM     39  O35 2UU d   1       9.262  -1.615   8.459  0.00  0.00    -0.644 OA
ENDBRANCH   5  37
BRANCH   4  40
ATOM     40  C22 2UU d   1      13.045   3.442   8.139  0.00  0.00    -0.015 A 
ATOM     41  C9  2UU d   1      14.212   3.261   7.453  0.00  0.00    -0.071 A 
ATOM     42  C11 2UU d   1      15.206   4.199   7.505  0.00  0.00    -0.075 A 
ATOM     43  H   2UU d   1      14.352   2.364   6.861  0.00  0.00     0.084 H 
ATOM     44  C24 2UU d   1      15.050   5.347   8.255  0.00  0.00    -0.051 A 
ATOM     45  H   2UU d   1      16.125   4.039   6.952  0.00  0.00     0.084 H 
ATOM     46  C20 2UU d   1      13.861   5.557   8.926  0.00  0.00    -0.019 A 
ATOM     47  C7  2UU d   1      13.652   6.716   9.650  0.00  0.00    -0.072 A 
ATOM     48  C19 2UU d   1      12.859   4.607   8.863  0.00  0.00    -0.014 A 
ATOM     49  C3  2UU d   1      12.478   6.948  10.311  0.00  0.00    -0.082 A 
ATOM     50  H   2UU d   1      14.439   7.460   9.695  0.00  0.00     0.084 H 
ATOM     51  C2  2UU d   1      11.478   6.015  10.241  0.00  0.00    -0.082 A 
ATOM     52  H   2UU d   1      12.341   7.859  10.883  0.00  0.00     0.083 H 
ATOM     53  C6  2UU d   1      11.671   4.856   9.525  0.00  0.00    -0.071 A 
ATOM     54  H   2UU d   1      10.536   6.189  10.749  0.00  0.00     0.083 H 
ATOM     55  H   2UU d   1      10.874   4.122   9.479  0.00  0.00     0.084 H 
BRANCH  44  56
ATOM     56  C30 2UU d   1      16.177   6.337   8.284  0.00  0.00    -0.050 C 
ATOM     57  H   2UU d   1      17.015   5.957   7.681  0.00  0.00     0.033 H 
ATOM     58  H   2UU d   1      16.509   6.484   9.322  0.00  0.00     0.033 H 
ATOM     59  H   2UU d   1      15.833   7.296   7.870  0.00  0.00     0.033 H 
ENDBRANCH  44  56
ENDBRANCH   4  40
TORSDOF 8
