REMARK  6 active torsions:
REMARK  status: ('A' for Active; 'I' for Inactive)
REMARK    1  A    between atoms: C8_8  and  C9_9 
REMARK    2  A    between atoms: C10_10  and  C13_13 
REMARK    3  A    between atoms: C15_15  and  C11_11 
REMARK    4  A    between atoms: C12_12  and  O18_18 
REMARK    5  A    between atoms: C16_16  and  C14_14 
REMARK    6  A    between atoms: C15_15  and  C16_16 
ROOT
ATOM      1  C1  2UV d   1      14.378   9.441  10.210  0.00  0.00    -0.072 A 
ATOM      2  C2  2UV d   1      12.910  11.095  10.960  0.00  0.00    -0.072 A 
ATOM      3  C4  2UV d   1      15.427  10.154  10.747  0.00  0.00    -0.076 A 
ATOM      4  C5  2UV d   1      13.952  11.835  11.486  0.00  0.00    -0.076 A 
ATOM      5  C8  2UV d   1      13.087   9.898  10.288  0.00  0.00    -0.026 A 
ATOM      6  C11 2UV d   1      15.248  11.371  11.362  0.00  0.00    -0.058 A 
ATOM      7  H   2UV d   1      14.577   8.498   9.715  0.00  0.00     0.084 H 
ATOM      8  H   2UV d   1      11.901  11.472  11.080  0.00  0.00     0.084 H 
ATOM      9  H   2UV d   1      16.428   9.742  10.683  0.00  0.00     0.084 H 
ATOM     10  H   2UV d   1      13.754  12.773  11.992  0.00  0.00     0.084 H 
ENDROOT
BRANCH   5  11
ATOM     11  C9  2UV d   1      11.962   9.213   9.669  0.00  0.00    -0.025 A 
ATOM     12  C3  2UV d   1      11.980   7.887   9.271  0.00  0.00    -0.070 A 
ATOM     13  C6  2UV d   1      10.869   7.261   8.735  0.00  0.00    -0.049 A 
ATOM     14  H   2UV d   1      12.897   7.320   9.383  0.00  0.00     0.085 H 
ATOM     15  C12 2UV d   1       9.699   7.971   8.588  0.00  0.00     0.082 A 
ATOM     16  H   2UV d   1      10.919   6.221   8.434  0.00  0.00     0.087 H 
ATOM     17  C10 2UV d   1       9.660   9.310   8.929  0.00  0.00     0.074 A 
ATOM     18  C7  2UV d   1      10.779   9.900   9.488  0.00  0.00    -0.053 A 
ATOM     19  H   2UV d   1      10.725  10.938   9.795  0.00  0.00     0.086 H 
BRANCH  15  20
ATOM     20  O18 2UV d   1       8.590   7.372   8.013  0.00  0.00    -0.360 OA
ATOM     21  H   2UV d   1       7.852   7.438   8.608  0.00  0.00     0.217 HD
ENDBRANCH  15  20
BRANCH  17  22
ATOM     22  C13 2UV d   1       8.418  10.092   8.783  0.00  0.00     0.212 C 
ATOM     23  O17 2UV d   1       8.430  11.297   9.125  0.00  0.00    -0.644 OA
ATOM     24  O19 2UV d   1       7.437   9.490   8.282  0.00  0.00    -0.644 OA
ENDBRANCH  17  22
ENDBRANCH   5  11
BRANCH   6  25
ATOM     25  C15 2UV d   1      16.406  12.133  11.941  0.00  0.00    -0.041 C 
ATOM     26  H   2UV d   1      17.160  11.428  12.322  0.00  0.00     0.040 H 
ATOM     27  H   2UV d   1      16.054  12.773  12.763  0.00  0.00     0.040 H 
BRANCH  25  28
ATOM     28  C16 2UV d   1      17.014  12.989  10.855  0.00  0.00    -0.065 C 
ATOM     29  H   2UV d   1      17.451  12.338  10.084  0.00  0.00     0.032 H 
ATOM     30  H   2UV d   1      16.228  13.614  10.405  0.00  0.00     0.032 H 
BRANCH  28  31
ATOM     31  C14 2UV d   1      18.098  13.884  11.422  0.00  0.00    -0.076 C 
ATOM     32  H   2UV d   1      18.526  14.497  10.616  0.00  0.00     0.027 H 
ATOM     33  H   2UV d   1      18.888  13.264  11.870  0.00  0.00     0.027 H 
ATOM     34  H   2UV d   1      17.666  14.540  12.192  0.00  0.00     0.027 H 
ENDBRANCH  28  31
ENDBRANCH  25  28
ENDBRANCH   6  25
TORSDOF 6
