REMARK  5 active torsions:
REMARK  status: ('A' for Active; 'I' for Inactive)
REMARK    1  A    between atoms: C1_1  and  O2_2 
REMARK    2  A    between atoms: O2_2  and  C12_14 
REMARK    3  A    between atoms: C8_10  and  C14_4 
REMARK    4  A    between atoms: C14_4  and  C10_11 
REMARK    5  A    between atoms: C14_4  and  C15_17 
ROOT
ATOM      1  C1  NPS d   1      10.261  21.154 123.353  0.00  0.00     0.069 A 
ATOM      2  C2  NPS d   1      11.373  20.761 122.550  0.00  0.00    -0.050 A 
ATOM      3  C3  NPS d   1      11.421  19.483 122.016  0.00  0.00    -0.070 A 
ATOM      4  C4  NPS d   1      10.350  18.607 122.298  0.00  0.00    -0.025 A 
ATOM      5  C5  NPS d   1       9.278  19.012 123.084  0.00  0.00    -0.023 A 
ATOM      6  C6  NPS d   1       9.195  20.298 123.637  0.00  0.00    -0.040 A 
ATOM      7  C7  NPS d   1      10.374  17.312 121.769  0.00  0.00    -0.065 A 
ATOM      8  C8  NPS d   1       9.331  16.438 122.003  0.00  0.00    -0.043 A 
ATOM      9  C13 NPS d   1       8.225  18.113 123.338  0.00  0.00    -0.072 A 
ATOM     10  C11 NPS d   1       8.254  16.840 122.803  0.00  0.00    -0.075 A 
ATOM     11  H   NPS d   1      12.178  21.460 122.358  0.00  0.00     0.087 H 
ATOM     12  H   NPS d   1      12.255  19.166 121.401  0.00  0.00     0.085 H 
ATOM     13  H   NPS d   1       8.355  20.608 124.248  0.00  0.00     0.089 H 
ATOM     14  H   NPS d   1      11.219  16.992 121.170  0.00  0.00     0.085 H 
ATOM     15  H   NPS d   1       7.389  18.421 123.955  0.00  0.00     0.084 H 
ATOM     16  H   NPS d   1       7.442  16.151 123.003  0.00  0.00     0.084 H 
ENDROOT
BRANCH   8  17
ATOM     17  C14 NPS d   1       9.364  15.047 121.454  0.00  0.00     0.052 C 
ATOM     18  H   NPS d   1      10.222  14.908 120.779  0.00  0.00     0.063 H 
BRANCH  17  19
ATOM     19  C10 NPS d   1       8.070  14.832 120.762  0.00  0.00    -0.060 C 
ATOM     20  H   NPS d   1       7.984  15.534 119.919  0.00  0.00     0.029 H 
ATOM     21  H   NPS d   1       7.244  15.003 121.468  0.00  0.00     0.029 H 
ATOM     22  H   NPS d   1       8.023  13.800 120.385  0.00  0.00     0.029 H 
ENDBRANCH  17  19
BRANCH  17  23
ATOM     23  C15 NPS d   1       9.384  14.052 122.575  0.00  0.00     0.181 C 
ATOM     24  O   NPS d   1       9.158  12.829 122.340  0.00  0.00    -0.647 OA
ATOM     25  OXT NPS d   1       9.577  14.442 123.766  0.00  0.00    -0.647 OA
ENDBRANCH  17  23
ENDBRANCH   8  17
BRANCH   1  26
ATOM     26  O2  NPS d   1      10.225  22.439 123.843  0.00  0.00    -0.356 OA
BRANCH  26  27
ATOM     27  C12 NPS d   1      11.118  23.329 123.233  0.00  0.00     0.010 C 
ATOM     28  H   NPS d   1      11.014  24.324 123.691  0.00  0.00     0.066 H 
ATOM     29  H   NPS d   1      10.893  23.395 122.158  0.00  0.00     0.066 H 
ATOM     30  H   NPS d   1      12.148  22.968 123.371  0.00  0.00     0.066 H 
ENDBRANCH  26  27
ENDBRANCH   1  26
TORSDOF 5
