REMARK WARNING: 32 MAX_TORS EXCEEDED!!!
REMARK  75 active torsions:
REMARK  status: ('A' for Active; 'I' for Inactive)
REMARK    1  A    between atoms: OAB_1  and  CAC_2 
REMARK    2  A    between atoms: CAC_2  and  CAD_3 
REMARK    3  A    between atoms: CAD_3  and  OAE_4 
REMARK    4  A    between atoms: OAE_4  and  CAF_5 
REMARK    5  A    between atoms: CAF_5  and  CAG_6 
REMARK    6  A    between atoms: CAG_6  and  OAH_7 
REMARK    7  A    between atoms: OAH_7  and  CAI_8 
REMARK    8  A    between atoms: CAI_8  and  CAJ_9 
REMARK    9  A    between atoms: CAJ_9  and  OAK_10 
REMARK   10  A    between atoms: OAK_10  and  CAL_11 
REMARK   11  A    between atoms: CAL_11  and  CAM_12 
REMARK   12  A    between atoms: CAM_12  and  OAN_13 
REMARK   13  A    between atoms: OAN_13  and  CAO_14 
REMARK   14  A    between atoms: CAO_14  and  CAP_15 
REMARK   15  A    between atoms: CAP_15  and  OAQ_16 
REMARK   16  A    between atoms: OAQ_16  and  CAR_17 
REMARK   17  A    between atoms: CAR_17  and  CAS_18 
REMARK   18  A    between atoms: CAS_18  and  OAT_19 
REMARK   19  A    between atoms: OAT_19  and  CAU_20 
REMARK   20  A    between atoms: CAU_20  and  CAV_21 
REMARK   21  A    between atoms: CAV_21  and  OAW_22 
REMARK   22  A    between atoms: OAW_22  and  CAX_23 
REMARK   23  A    between atoms: CAX_23  and  CAY_24 
REMARK   24  A    between atoms: CAY_24  and  OAZ_25 
REMARK   25  A    between atoms: OAZ_25  and  CBA_26 
REMARK   26  A    between atoms: CBA_26  and  CBB_27 
REMARK   27  A    between atoms: CBB_27  and  OBC_28 
REMARK   28  A    between atoms: OBC_28  and  CCG_29 
REMARK   29  A    between atoms: CCG_29  and  CCF_30 
REMARK   30  A    between atoms: CCF_30  and  OCE_31 
REMARK   31  A    between atoms: OCE_31  and  CCD_32 
REMARK   32  A    between atoms: CCD_32  and  CCC_33 
REMARK   33  A    between atoms: CCC_33  and  OCB_34 
REMARK   34  A    between atoms: OCB_34  and  CCA_35 
REMARK   35  A    between atoms: CCA_35  and  CBZ_36 
REMARK   36  A    between atoms: CBZ_36  and  OBY_37 
REMARK   37  A    between atoms: OBY_37  and  CBX_38 
REMARK   38  A    between atoms: CBX_38  and  CBW_39 
REMARK   39  A    between atoms: CBW_39  and  OBV_40 
REMARK   40  A    between atoms: OBV_40  and  CBU_41 
REMARK   41  A    between atoms: CBU_41  and  CBT_42 
REMARK   42  A    between atoms: CBT_42  and  OBS_43 
REMARK   43  A    between atoms: OBS_43  and  CBR_44 
REMARK   44  A    between atoms: CBR_44  and  CBQ_45 
REMARK   45  A    between atoms: CBQ_45  and  OBP_46 
REMARK   46  A    between atoms: OBP_46  and  CBO_47 
REMARK   47  A    between atoms: CBO_47  and  CBN_48 
REMARK   48  A    between atoms: CBN_48  and  OBM_49 
REMARK   49  A    between atoms: OBM_49  and  CBL_50 
REMARK   50  A    between atoms: CBL_50  and  CBK_51 
REMARK   51  A    between atoms: CBK_51  and  OBJ_52 
REMARK   52  A    between atoms: OBJ_52  and  CBI_53 
REMARK   53  A    between atoms: CBI_53  and  CBH_54 
REMARK   54  A    between atoms: CBH_54  and  OBG_55 
REMARK   55  A    between atoms: OBG_55  and  CBF_56 
REMARK   56  A    between atoms: CBF_56  and  CBE_57 
REMARK   57  A    between atoms: CBE_57  and  OBD_58 
REMARK   58  A    between atoms: OBD_58  and  CCH_59 
REMARK   59  A    between atoms: CCH_59  and  CCI_60 
REMARK   60  A    between atoms: CCI_60  and  OCJ_61 
REMARK   61  A    between atoms: OCJ_61  and  CCK_62 
REMARK   62  A    between atoms: CCK_62  and  CCL_63 
REMARK   63  A    between atoms: CCL_63  and  OCM_64 
REMARK   64  A    between atoms: OCM_64  and  CCN_65 
REMARK   65  A    between atoms: CCN_65  and  CCO_66 
REMARK   66  A    between atoms: CCO_66  and  OCP_67 
REMARK   67  A    between atoms: OCP_67  and  CCQ_68 
REMARK   68  A    between atoms: CCQ_68  and  CCR_69 
REMARK   69  A    between atoms: CCR_69  and  OCS_70 
REMARK   70  A    between atoms: OCS_70  and  CCT_71 
REMARK   71  A    between atoms: CCT_71  and  CCU_72 
REMARK   72  A    between atoms: CCU_72  and  OCV_73 
REMARK   73  A    between atoms: OCV_73  and  CCW_74 
REMARK   74  A    between atoms: CCW_74  and  CCX_75 
REMARK   75  A    between atoms: CCX_75  and  OCY_76 
ROOT
ATOM      1  CBX PEU d   1      15.408 -55.635   6.620  0.00  0.00     0.039 C 
ATOM      2  H   PEU d   1      16.427 -55.927   6.327  0.00  0.00     0.077 H 
ATOM      3  H   PEU d   1      14.840 -56.530   6.914  0.00  0.00     0.077 H 
ENDROOT
BRANCH   1   4
ATOM      4  OBY PEU d   1      14.763 -55.029   5.499  0.00  0.00    -0.387 OA
BRANCH   4   5
ATOM      5  CBZ PEU d   1      15.673 -54.917   4.406  0.00  0.00     0.039 C 
ATOM      6  H   PEU d   1      15.913 -53.855   4.250  0.00  0.00     0.077 H 
ATOM      7  H   PEU d   1      16.593 -55.469   4.650  0.00  0.00     0.077 H 
BRANCH   5   8
ATOM      8  CCA PEU d   1      15.086 -55.482   3.126  0.00  0.00     0.039 C 
ATOM      9  H   PEU d   1      14.317 -56.227   3.377  0.00  0.00     0.077 H 
ATOM     10  H   PEU d   1      14.631 -54.667   2.544  0.00  0.00     0.077 H 
BRANCH   8  11
ATOM     11  OCB PEU d   1      16.109 -56.104   2.347  0.00  0.00    -0.387 OA
BRANCH  11  12
ATOM     12  CCC PEU d   1      17.139 -55.214   1.899  0.00  0.00     0.039 C 
ATOM     13  H   PEU d   1      17.662 -54.790   2.769  0.00  0.00     0.077 H 
ATOM     14  H   PEU d   1      17.856 -55.767   1.274  0.00  0.00     0.077 H 
BRANCH  12  15
ATOM     15  CCD PEU d   1      16.519 -54.093   1.086  0.00  0.00     0.039 C 
ATOM     16  H   PEU d   1      15.710 -54.511   0.469  0.00  0.00     0.077 H 
ATOM     17  H   PEU d   1      16.104 -53.344   1.777  0.00  0.00     0.077 H 
BRANCH  15  18
ATOM     18  OCE PEU d   1      17.456 -53.457   0.236  0.00  0.00    -0.387 OA
BRANCH  18  19
ATOM     19  CCF PEU d   1      16.819 -52.403  -0.476  0.00  0.00     0.039 C 
ATOM     20  H   PEU d   1      16.029 -52.819  -1.119  0.00  0.00     0.077 H 
ATOM     21  H   PEU d   1      16.376 -51.693   0.237  0.00  0.00     0.077 H 
BRANCH  19  22
ATOM     22  CCG PEU d   1      17.844 -51.688  -1.332  0.00  0.00     0.039 C 
ATOM     23  H   PEU d   1      18.718 -51.439  -0.712  0.00  0.00     0.077 H 
ATOM     24  H   PEU d   1      18.154 -52.353  -2.151  0.00  0.00     0.077 H 
BRANCH  22  25
ATOM     25  OBC PEU d   1      17.309 -50.489  -1.884  0.00  0.00    -0.387 OA
BRANCH  25  26
ATOM     26  CBB PEU d   1      18.325 -49.498  -2.051  0.00  0.00     0.039 C 
ATOM     27  H   PEU d   1      19.292 -49.904  -1.720  0.00  0.00     0.077 H 
ATOM     28  H   PEU d   1      18.390 -49.214  -3.112  0.00  0.00     0.077 H 
BRANCH  26  29
ATOM     29  CBA PEU d   1      17.976 -48.275  -1.218  0.00  0.00     0.039 C 
ATOM     30  H   PEU d   1      16.957 -48.382  -0.817  0.00  0.00     0.077 H 
ATOM     31  H   PEU d   1      18.690 -48.181  -0.386  0.00  0.00     0.077 H 
BRANCH  29  32
ATOM     32  OAZ PEU d   1      18.045 -47.115  -2.038  0.00  0.00    -0.387 OA
BRANCH  32  33
ATOM     33  CAY PEU d   1      19.044 -46.209  -1.587  0.00  0.00     0.039 C 
ATOM     34  H   PEU d   1      18.573 -45.417  -0.986  0.00  0.00     0.077 H 
ATOM     35  H   PEU d   1      19.775 -46.751  -0.970  0.00  0.00     0.077 H 
BRANCH  33  36
ATOM     36  CAX PEU d   1      19.754 -45.584  -2.775  0.00  0.00     0.039 C 
ATOM     37  H   PEU d   1      20.099 -46.377  -3.455  0.00  0.00     0.077 H 
ATOM     38  H   PEU d   1      19.059 -44.920  -3.309  0.00  0.00     0.077 H 
BRANCH  36  39
ATOM     39  OAW PEU d   1      20.873 -44.831  -2.319  0.00  0.00    -0.387 OA
BRANCH  39  40
ATOM     40  CAV PEU d   1      21.927 -45.650  -1.820  0.00  0.00     0.039 C 
ATOM     41  H   PEU d   1      21.929 -45.625  -0.720  0.00  0.00     0.077 H 
ATOM     42  H   PEU d   1      21.788 -46.686  -2.163  0.00  0.00     0.077 H 
BRANCH  40  43
ATOM     43  CAU PEU d   1      23.247 -45.105  -2.350  0.00  0.00     0.039 C 
ATOM     44  H   PEU d   1      23.213 -45.088  -3.449  0.00  0.00     0.077 H 
ATOM     45  H   PEU d   1      23.390 -44.082  -1.972  0.00  0.00     0.077 H 
BRANCH  43  46
ATOM     46  OAT PEU d   1      24.345 -45.914  -1.931  0.00  0.00    -0.387 OA
BRANCH  46  47
ATOM     47  CAS PEU d   1      24.242 -47.259  -2.394  0.00  0.00     0.039 C 
ATOM     48  H   PEU d   1      25.066 -47.851  -1.970  0.00  0.00     0.077 H 
ATOM     49  H   PEU d   1      23.280 -47.681  -2.067  0.00  0.00     0.077 H 
BRANCH  47  50
ATOM     50  CAR PEU d   1      24.320 -47.310  -3.918  0.00  0.00     0.039 C 
ATOM     51  H   PEU d   1      24.059 -46.329  -4.341  0.00  0.00     0.077 H 
ATOM     52  H   PEU d   1      25.337 -47.587  -4.233  0.00  0.00     0.077 H 
BRANCH  50  53
ATOM     53  OAQ PEU d   1      23.387 -48.295  -4.360  0.00  0.00    -0.387 OA
BRANCH  53  54
ATOM     54  CAP PEU d   1      23.863 -49.155  -5.397  0.00  0.00     0.039 C 
ATOM     55  H   PEU d   1      23.008 -49.703  -5.820  0.00  0.00     0.077 H 
ATOM     56  H   PEU d   1      24.327 -48.538  -6.181  0.00  0.00     0.077 H 
BRANCH  54  57
ATOM     57  CAO PEU d   1      24.895 -50.168  -4.897  0.00  0.00     0.039 C 
ATOM     58  H   PEU d   1      24.594 -51.171  -5.234  0.00  0.00     0.077 H 
ATOM     59  H   PEU d   1      25.874 -49.914  -5.329  0.00  0.00     0.077 H 
BRANCH  57  60
ATOM     60  OAN PEU d   1      25.014 -50.181  -3.472  0.00  0.00    -0.387 OA
BRANCH  60  61
ATOM     61  CAM PEU d   1      23.936 -50.843  -2.812  0.00  0.00     0.039 C 
ATOM     62  H   PEU d   1      23.147 -50.117  -2.565  0.00  0.00     0.077 H 
ATOM     63  H   PEU d   1      23.523 -51.625  -3.465  0.00  0.00     0.077 H 
BRANCH  61  64
ATOM     64  CAL PEU d   1      24.480 -51.470  -1.535  0.00  0.00     0.039 C 
ATOM     65  H   PEU d   1      24.837 -50.682  -0.856  0.00  0.00     0.077 H 
ATOM     66  H   PEU d   1      23.689 -52.051  -1.039  0.00  0.00     0.077 H 
BRANCH  64  67
ATOM     67  OAK PEU d   1      25.562 -52.331  -1.888  0.00  0.00    -0.387 OA
BRANCH  67  68
ATOM     68  CAJ PEU d   1      25.185 -53.294  -2.873  0.00  0.00     0.039 C 
ATOM     69  H   PEU d   1      24.656 -52.787  -3.693  0.00  0.00     0.077 H 
ATOM     70  H   PEU d   1      26.088 -53.783  -3.267  0.00  0.00     0.077 H 
BRANCH  68  71
ATOM     71  CAI PEU d   1      24.270 -54.346  -2.258  0.00  0.00     0.039 C 
ATOM     72  H   PEU d   1      24.824 -54.907  -1.491  0.00  0.00     0.077 H 
ATOM     73  H   PEU d   1      23.404 -53.850  -1.795  0.00  0.00     0.077 H 
BRANCH  71  74
ATOM     74  OAH PEU d   1      23.815 -55.246  -3.264  0.00  0.00    -0.387 OA
BRANCH  74  75
ATOM     75  CAG PEU d   1      23.173 -56.393  -2.716  0.00  0.00     0.039 C 
ATOM     76  H   PEU d   1      23.826 -57.271  -2.833  0.00  0.00     0.077 H 
ATOM     77  H   PEU d   1      22.971 -56.226  -1.648  0.00  0.00     0.077 H 
BRANCH  75  78
ATOM     78  CAF PEU d   1      21.862 -56.632  -3.451  0.00  0.00     0.039 C 
ATOM     79  H   PEU d   1      22.060 -56.917  -4.495  0.00  0.00     0.077 H 
ATOM     80  H   PEU d   1      21.290 -57.430  -2.955  0.00  0.00     0.077 H 
BRANCH  78  81
ATOM     81  OAE PEU d   1      21.135 -55.407  -3.407  0.00  0.00    -0.387 OA
BRANCH  81  82
ATOM     82  CAD PEU d   1      19.923 -55.389  -4.159  0.00  0.00     0.039 C 
ATOM     83  H   PEU d   1      20.112 -55.708  -5.195  0.00  0.00     0.077 H 
ATOM     84  H   PEU d   1      19.179 -56.056  -3.700  0.00  0.00     0.077 H 
BRANCH  82  85
ATOM     85  CAC PEU d   1      19.430 -53.949  -4.131  0.00  0.00     0.036 C 
ATOM     86  H   PEU d   1      19.846 -53.396  -4.986  0.00  0.00     0.077 H 
ATOM     87  H   PEU d   1      18.331 -53.930  -4.181  0.00  0.00     0.077 H 
BRANCH  85  88
ATOM     88  OAB PEU d   1      19.870 -53.353  -2.907  0.00  0.00    -0.399 OA
ATOM     89  H   PEU d   1      20.819 -53.376  -2.868  0.00  0.00     0.209 HD
ENDBRANCH  85  88
ENDBRANCH  82  85
ENDBRANCH  81  82
ENDBRANCH  78  81
ENDBRANCH  75  78
ENDBRANCH  74  75
ENDBRANCH  71  74
ENDBRANCH  68  71
ENDBRANCH  67  68
ENDBRANCH  64  67
ENDBRANCH  61  64
ENDBRANCH  60  61
ENDBRANCH  57  60
ENDBRANCH  54  57
ENDBRANCH  53  54
ENDBRANCH  50  53
ENDBRANCH  47  50
ENDBRANCH  46  47
ENDBRANCH  43  46
ENDBRANCH  40  43
ENDBRANCH  39  40
ENDBRANCH  36  39
ENDBRANCH  33  36
ENDBRANCH  32  33
ENDBRANCH  29  32
ENDBRANCH  26  29
ENDBRANCH  25  26
ENDBRANCH  22  25
ENDBRANCH  19  22
ENDBRANCH  18  19
ENDBRANCH  15  18
ENDBRANCH  12  15
ENDBRANCH  11  12
ENDBRANCH   8  11
ENDBRANCH   5   8
ENDBRANCH   4   5
ENDBRANCH   1   4
BRANCH   1  90
ATOM     90  CBW PEU d   1      15.492 -54.693   7.816  0.00  0.00     0.039 C 
ATOM     91  H   PEU d   1      15.595 -53.659   7.456  0.00  0.00     0.077 H 
ATOM     92  H   PEU d   1      16.368 -54.958   8.426  0.00  0.00     0.077 H 
BRANCH  90  93
ATOM     93  OBV PEU d   1      14.312 -54.798   8.616  0.00  0.00    -0.387 OA
BRANCH  93  94
ATOM     94  CBU PEU d   1      14.041 -56.151   8.977  0.00  0.00     0.039 C 
ATOM     95  H   PEU d   1      14.943 -56.588   9.430  0.00  0.00     0.077 H 
ATOM     96  H   PEU d   1      13.775 -56.716   8.072  0.00  0.00     0.077 H 
BRANCH  94  97
ATOM     97  CBT PEU d   1      12.890 -56.244   9.975  0.00  0.00     0.039 C 
ATOM     98  H   PEU d   1      12.957 -55.407  10.685  0.00  0.00     0.077 H 
ATOM     99  H   PEU d   1      12.960 -57.196  10.522  0.00  0.00     0.077 H 
BRANCH  97 100
ATOM    100  OBS PEU d   1      11.635 -56.184   9.293  0.00  0.00    -0.387 OA
BRANCH 100 101
ATOM    101  CBR PEU d   1      11.361 -57.377   8.567  0.00  0.00     0.039 C 
ATOM    102  H   PEU d   1      10.460 -57.855   8.979  0.00  0.00     0.077 H 
ATOM    103  H   PEU d   1      12.216 -58.063   8.659  0.00  0.00     0.077 H 
BRANCH 101 104
ATOM    104  CBQ PEU d   1      11.131 -57.053   7.098  0.00  0.00     0.039 C 
ATOM    105  H   PEU d   1      11.995 -56.495   6.707  0.00  0.00     0.077 H 
ATOM    106  H   PEU d   1      10.223 -56.441   6.996  0.00  0.00     0.077 H 
BRANCH 104 107
ATOM    107  OBP PEU d   1      10.973 -58.263   6.358  0.00  0.00    -0.387 OA
BRANCH 107 108
ATOM    108  CBO PEU d   1      10.329 -58.026   5.108  0.00  0.00     0.039 C 
ATOM    109  H   PEU d   1      10.361 -58.942   4.499  0.00  0.00     0.077 H 
ATOM    110  H   PEU d   1      10.847 -57.214   4.576  0.00  0.00     0.077 H 
BRANCH 108 111
ATOM    111  CBN PEU d   1       8.879 -57.629   5.354  0.00  0.00     0.039 C 
ATOM    112  H   PEU d   1       8.639 -56.743   4.748  0.00  0.00     0.077 H 
ATOM    113  H   PEU d   1       8.745 -57.391   6.420  0.00  0.00     0.077 H 
BRANCH 111 114
ATOM    114  OBM PEU d   1       7.995 -58.697   4.996  0.00  0.00    -0.387 OA
BRANCH 114 115
ATOM    115  CBL PEU d   1       8.066 -59.818   5.876  0.00  0.00     0.039 C 
ATOM    116  H   PEU d   1       7.771 -59.511   6.890  0.00  0.00     0.077 H 
ATOM    117  H   PEU d   1       9.094 -60.208   5.895  0.00  0.00     0.077 H 
BRANCH 115 118
ATOM    118  CBK PEU d   1       7.119 -60.898   5.374  0.00  0.00     0.039 C 
ATOM    119  H   PEU d   1       7.053 -60.840   4.277  0.00  0.00     0.077 H 
ATOM    120  H   PEU d   1       6.122 -60.737   5.810  0.00  0.00     0.077 H 
BRANCH 118 121
ATOM    121  OBJ PEU d   1       7.591 -62.191   5.748  0.00  0.00    -0.387 OA
BRANCH 121 122
ATOM    122  CBI PEU d   1       6.615 -63.205   5.496  0.00  0.00     0.039 C 
ATOM    123  H   PEU d   1       6.253 -63.108   4.462  0.00  0.00     0.077 H 
ATOM    124  H   PEU d   1       5.774 -63.076   6.193  0.00  0.00     0.077 H 
BRANCH 122 125
ATOM    125  CBH PEU d   1       7.214 -64.595   5.687  0.00  0.00     0.039 C 
ATOM    126  H   PEU d   1       8.169 -64.652   5.144  0.00  0.00     0.077 H 
ATOM    127  H   PEU d   1       6.517 -65.344   5.283  0.00  0.00     0.077 H 
BRANCH 125 128
ATOM    128  OBG PEU d   1       7.447 -64.873   7.067  0.00  0.00    -0.387 OA
BRANCH 128 129
ATOM    129  CBF PEU d   1       6.640 -65.953   7.531  0.00  0.00     0.039 C 
ATOM    130  H   PEU d   1       6.491 -66.673   6.713  0.00  0.00     0.077 H 
ATOM    131  H   PEU d   1       5.665 -65.563   7.858  0.00  0.00     0.077 H 
BRANCH 129 132
ATOM    132  CBE PEU d   1       7.320 -66.653   8.700  0.00  0.00     0.039 C 
ATOM    133  H   PEU d   1       7.393 -65.954   9.546  0.00  0.00     0.077 H 
ATOM    134  H   PEU d   1       8.329 -66.967   8.395  0.00  0.00     0.077 H 
BRANCH 132 135
ATOM    135  OBD PEU d   1       6.574 -67.802   9.104  0.00  0.00    -0.387 OA
BRANCH 135 136
ATOM    136  CCH PEU d   1       5.259 -67.489   9.546  0.00  0.00     0.039 C 
ATOM    137  H   PEU d   1       4.605 -67.367   8.670  0.00  0.00     0.077 H 
ATOM    138  H   PEU d   1       5.286 -66.550  10.118  0.00  0.00     0.077 H 
BRANCH 136 139
ATOM    139  CCI PEU d   1       4.703 -68.598  10.433  0.00  0.00     0.039 C 
ATOM    140  H   PEU d   1       5.411 -68.804  11.249  0.00  0.00     0.077 H 
ATOM    141  H   PEU d   1       4.559 -69.509   9.834  0.00  0.00     0.077 H 
BRANCH 139 142
ATOM    142  OCJ PEU d   1       3.452 -68.188  10.981  0.00  0.00    -0.387 OA
BRANCH 142 143
ATOM    143  CCK PEU d   1       2.526 -67.791   9.976  0.00  0.00     0.039 C 
ATOM    144  H   PEU d   1       2.209 -68.675   9.404  0.00  0.00     0.077 H 
ATOM    145  H   PEU d   1       3.010 -67.071   9.300  0.00  0.00     0.077 H 
BRANCH 143 146
ATOM    146  CCL PEU d   1       1.304 -67.140  10.613  0.00  0.00     0.039 C 
ATOM    147  H   PEU d   1       1.590 -66.681  11.571  0.00  0.00     0.077 H 
ATOM    148  H   PEU d   1       0.531 -67.903  10.788  0.00  0.00     0.077 H 
BRANCH 146 149
ATOM    149  OCM PEU d   1       0.792 -66.135   9.736  0.00  0.00    -0.387 OA
BRANCH 149 150
ATOM    150  CCN PEU d   1       1.474 -64.892   9.899  0.00  0.00     0.039 C 
ATOM    151  H   PEU d   1       2.372 -64.883   9.264  0.00  0.00     0.077 H 
ATOM    152  H   PEU d   1       1.768 -64.773  10.952  0.00  0.00     0.077 H 
BRANCH 150 153
ATOM    153  CCO PEU d   1       0.561 -63.739   9.497  0.00  0.00     0.039 C 
ATOM    154  H   PEU d   1       0.950 -62.800   9.919  0.00  0.00     0.077 H 
ATOM    155  H   PEU d   1      -0.452 -63.923   9.883  0.00  0.00     0.077 H 
BRANCH 153 156
ATOM    156  OCP PEU d   1       0.515 -63.636   8.075  0.00  0.00    -0.387 OA
BRANCH 156 157
ATOM    157  CCQ PEU d   1       0.302 -62.299   7.626  0.00  0.00     0.039 C 
ATOM    158  H   PEU d   1       1.090 -61.648   8.032  0.00  0.00     0.077 H 
ATOM    159  H   PEU d   1      -0.680 -61.949   7.977  0.00  0.00     0.077 H 
BRANCH 157 160
ATOM    160  CCR PEU d   1       0.341 -62.249   6.099  0.00  0.00     0.039 C 
ATOM    161  H   PEU d   1      -0.577 -62.705   5.699  0.00  0.00     0.077 H 
ATOM    162  H   PEU d   1       1.216 -62.812   5.741  0.00  0.00     0.077 H 
BRANCH 160 163
ATOM    163  OCS PEU d   1       0.432 -60.897   5.640  0.00  0.00    -0.387 OA
BRANCH 163 164
ATOM    164  CCT PEU d   1      -0.195 -60.686   4.374  0.00  0.00     0.039 C 
ATOM    165  H   PEU d   1      -0.998 -59.944   4.491  0.00  0.00     0.077 H 
ATOM    166  H   PEU d   1      -0.623 -61.637   4.023  0.00  0.00     0.077 H 
BRANCH 164 167
ATOM    167  CCU PEU d   1       0.804 -60.178   3.338  0.00  0.00     0.039 C 
ATOM    168  H   PEU d   1       1.687 -59.776   3.857  0.00  0.00     0.077 H 
ATOM    169  H   PEU d   1       0.332 -59.380   2.745  0.00  0.00     0.077 H 
BRANCH 167 170
ATOM    170  OCV PEU d   1       1.217 -61.230   2.460  0.00  0.00    -0.387 OA
BRANCH 170 171
ATOM    171  CCW PEU d   1       2.616 -61.518   2.556  0.00  0.00     0.039 C 
ATOM    172  H   PEU d   1       2.802 -62.105   3.467  0.00  0.00     0.077 H 
ATOM    173  H   PEU d   1       3.177 -60.573   2.608  0.00  0.00     0.077 H 
BRANCH 171 174
ATOM    174  CCX PEU d   1       3.086 -62.314   1.342  0.00  0.00     0.036 C 
ATOM    175  H   PEU d   1       3.148 -61.644   0.472  0.00  0.00     0.077 H 
ATOM    176  H   PEU d   1       2.364 -63.118   1.135  0.00  0.00     0.077 H 
BRANCH 174 177
ATOM    177  OCY PEU d   1       4.369 -62.887   1.586  0.00  0.00    -0.399 OA
ATOM    178  H   PEU d   1       4.646 -63.378   0.821  0.00  0.00     0.209 HD
ENDBRANCH 174 177
ENDBRANCH 171 174
ENDBRANCH 170 171
ENDBRANCH 167 170
ENDBRANCH 164 167
ENDBRANCH 163 164
ENDBRANCH 160 163
ENDBRANCH 157 160
ENDBRANCH 156 157
ENDBRANCH 153 156
ENDBRANCH 150 153
ENDBRANCH 149 150
ENDBRANCH 146 149
ENDBRANCH 143 146
ENDBRANCH 142 143
ENDBRANCH 139 142
ENDBRANCH 136 139
ENDBRANCH 135 136
ENDBRANCH 132 135
ENDBRANCH 129 132
ENDBRANCH 128 129
ENDBRANCH 125 128
ENDBRANCH 122 125
ENDBRANCH 121 122
ENDBRANCH 118 121
ENDBRANCH 115 118
ENDBRANCH 114 115
ENDBRANCH 111 114
ENDBRANCH 108 111
ENDBRANCH 107 108
ENDBRANCH 104 107
ENDBRANCH 101 104
ENDBRANCH 100 101
ENDBRANCH  97 100
ENDBRANCH  94  97
ENDBRANCH  93  94
ENDBRANCH  90  93
ENDBRANCH   1  90
TORSDOF 75
