REMARK  30 active torsions:
REMARK  status: ('A' for Active; 'I' for Inactive)
REMARK    1  A    between atoms: N_1  and  CA_2 
REMARK    2  A    between atoms: CA_2  and  C_3 
REMARK       I    between atoms: C_3  and  N_5 
REMARK    3  A    between atoms: N_5  and  CA_6 
REMARK    4  A    between atoms: CA_15  and  CB_18 
REMARK    5  A    between atoms: CA_20  and  CB_23 
REMARK    6  A    between atoms: CB_23  and  CG_24 
REMARK    7  A    between atoms: CG_24  and  CD1_25 
REMARK    8  A    between atoms: CG_24  and  CD2_26 
REMARK    9  A    between atoms: CA_32  and  CB_35 
REMARK   10  A    between atoms: CB_35  and  CG_36 
REMARK   11  A    between atoms: CG_36  and  CD_37 
REMARK   12  A    between atoms: CD_37  and  NE_38 
REMARK       I    between atoms: NE_38  and  CZ_39 
REMARK       I    between atoms: CZ_39  and  NH1_40 
REMARK       I    between atoms: CZ_39  and  NH2_41 
REMARK   13  A    between atoms: CA_53  and  CB_56 
REMARK   14  A    between atoms: CB_56  and  CG_57 
REMARK   15  A    between atoms: CG_57  and  CD_58 
REMARK   16  A    between atoms: CA_62  and  CB_65 
REMARK   17  A    between atoms: CB_65  and  CG_66 
REMARK       I    between atoms: CG_66  and  ND2_68 
REMARK   18  A    between atoms: CA_70  and  CB_73 
REMARK   19  A    between atoms: CB_73  and  CG_74 
REMARK   20  A    between atoms: CA_80  and  CB_83 
REMARK   21  A    between atoms: CB_83  and  CG_84 
REMARK   22  A    between atoms: CG_84  and  CD_85 
REMARK   23  A    between atoms: CD_85  and  NE_86 
REMARK       I    between atoms: NE_86  and  CZ_87 
REMARK       I    between atoms: CZ_87  and  NH1_88 
REMARK   24  A    between atoms: CA_91  and  C_92 
REMARK       I    between atoms: C_92  and  N_96 
REMARK   25  A    between atoms: N_96  and  CA_97 
REMARK   26  A    between atoms: CA_97  and  C_98 
REMARK   27  A    between atoms: CA_97  and  CB_100 
REMARK       I    between atoms: C_98  and  N_104 
REMARK   28  A    between atoms: CB_100  and  CG_101 
REMARK   29  A    between atoms: CG_101  and  CD1_102 
REMARK   30  A    between atoms: CG_101  and  CD2_103 
ROOT
ATOM      1  N   GLY d   1      29.945  12.188 -14.340  0.00  0.00    -0.351 N 
ATOM      2  CA  GLY d   1      29.999  10.741 -14.271  0.00  0.00     0.069 C 
ATOM      3  C   GLY d   1      29.195  10.191 -13.123  0.00  0.00     0.236 C 
ATOM      4  O   GLY d   1      28.298  10.843 -12.600  0.00  0.00    -0.272 OA
ATOM      5  N   GLY d   1      27.780   9.292  -9.772  0.00  0.00    -0.351 N 
ATOM      6  CA  GLY d   1      27.718  10.019  -8.511  0.00  0.00     0.069 C 
ATOM      7  C   GLY d   1      26.907  11.283  -8.635  0.00  0.00     0.236 C 
ATOM      8  O   GLY d   1      26.367  11.775  -7.654  0.00  0.00    -0.272 OA
ATOM      9  H   GLY d   1      29.275  12.632 -14.936  0.00  0.00     0.163 HD
ATOM     10  H   GLY d   1      31.047  10.432 -14.148  0.00  0.00     0.078 H 
ATOM     11  H   GLY d   1      29.603  10.328 -15.210  0.00  0.00     0.078 H 
ATOM     12  H   GLY d   1      26.926   8.986 -10.193  0.00  0.00     0.163 HD
ATOM     13  H   GLY d   1      28.740  10.280  -8.200  0.00  0.00     0.078 H 
ATOM     14  H   GLY d   1      27.257   9.373  -7.750  0.00  0.00     0.078 H 
ATOM     15  CA  81S d   1      30.593  18.522  -8.608  0.00  0.00     0.090 C 
ATOM     16  CB  81S d   1      29.163  18.575  -8.888  0.00  0.00    -0.025 C 
ATOM     17  CG  81S d   1      28.425  17.295  -8.987  0.00  0.00     0.012 C 
ATOM     18  CD1 81S d   1      28.361  16.614  -7.606  0.00  0.00    -0.001 C 
ATOM     19  SE  81S d   1      27.881  15.005  -7.577  0.00  0.00    -0.096 SA
ATOM     20  SD2 81S d   1      26.906  17.568  -9.689  0.00  0.00    -0.092 SA
ATOM     21  C   81S d   1      31.221  17.999  -9.701  0.00  0.00     0.241 C 
ATOM     22  O   81S d   1      31.411  18.668 -10.720  0.00  0.00    -0.271 OA
ATOM     23  H   81S d   1      30.787  17.944  -7.692  0.00  0.00     0.087 H 
ATOM     24  H   81S d   1      29.037  19.100  -9.846  0.00  0.00     0.038 H 
ATOM     25  H   81S d   1      28.694  19.161  -8.084  0.00  0.00     0.038 H 
ATOM     26  H   81S d   1      28.984  16.626  -9.658  0.00  0.00     0.059 H 
ATOM     27  H   81S d   1      27.653  17.184  -6.986  0.00  0.00     0.051 H 
ATOM     28  H   81S d   1      29.365  16.670  -7.160  0.00  0.00     0.051 H 
ATOM     29  N   ALA d   1      31.616  16.730  -9.606  0.00  0.00    -0.346 N 
ATOM     30  CA  ALA d   1      32.201  16.011 -10.739  0.00  0.00     0.086 C 
ATOM     31  C   ALA d   1      31.132  15.550 -11.755  0.00  0.00     0.240 C 
ATOM     32  O   ALA d   1      29.919  15.642 -11.510  0.00  0.00    -0.271 OA
ATOM     33  H   ALA d   1      31.509  16.254  -8.733  0.00  0.00     0.163 HD
ATOM     34  H   ALA d   1      32.889  16.695 -11.258  0.00  0.00     0.086 H 
ATOM     35  N   LEU d   1      31.606  15.073 -12.901  0.00  0.00    -0.346 N 
ATOM     36  CA  LEU d   1      30.768  14.424 -13.898  0.00  0.00     0.089 C 
ATOM     37  C   LEU d   1      30.776  12.927 -13.620  0.00  0.00     0.240 C 
ATOM     38  O   LEU d   1      31.528  12.442 -12.768  0.00  0.00    -0.271 OA
ATOM     39  H   LEU d   1      32.584  15.164 -13.087  0.00  0.00     0.163 HD
ATOM     40  H   LEU d   1      29.742  14.815 -13.831  0.00  0.00     0.087 H 
ATOM     41  N   ARG d   1      29.531   8.972 -12.744  0.00  0.00    -0.346 N 
ATOM     42  CA  ARG d   1      28.820   8.252 -11.703  0.00  0.00     0.089 C 
ATOM     43  C   ARG d   1      28.928   9.019 -10.386  0.00  0.00     0.240 C 
ATOM     44  O   ARG d   1      30.030   9.354  -9.949  0.00  0.00    -0.271 OA
ATOM     45  N   ARG d   1      21.301  19.147  -9.727  0.00  0.00    -0.346 N 
ATOM     46  CA  ARG d   1      21.349  20.527 -10.241  0.00  0.00     0.089 C 
ATOM     47  C   ARG d   1      22.735  20.918 -10.733  0.00  0.00     0.241 C 
ATOM     48  O   ARG d   1      22.869  21.535 -11.786  0.00  0.00    -0.271 OA
ATOM     49  H   ARG d   1      30.306   8.527 -13.192  0.00  0.00     0.163 HD
ATOM     50  H   ARG d   1      27.760   8.160 -11.983  0.00  0.00     0.087 H 
ATOM     51  H   ARG d   1      20.989  18.986  -8.791  0.00  0.00     0.163 HD
ATOM     52  H   ARG d   1      20.641  20.605 -11.079  0.00  0.00     0.087 H 
ATOM     53  N   CYS d   1      26.800  11.800  -9.853  0.00  0.00    -0.346 N 
ATOM     54  CA  CYS d   1      26.229  13.111 -10.078  0.00  0.00     0.098 C 
ATOM     55  C   CYS d   1      25.002  13.121 -11.025  0.00  0.00     0.241 C 
ATOM     56  O   CYS d   1      24.547  14.177 -11.453  0.00  0.00    -0.271 OA
ATOM     57  CB  CYS d   1      27.372  14.040 -10.511  0.00  0.00     0.013 C 
ATOM     58  SG  CYS d   1      28.665  14.069  -9.218  0.00  0.00    -0.095 SA
ATOM     59  N   CYS d   1      23.756  20.543  -9.960  0.00  0.00    -0.345 N 
ATOM     60  CA  CYS d   1      25.156  20.867 -10.262  0.00  0.00     0.098 C 
ATOM     61  CB  CYS d   1      26.032  20.622  -9.014  0.00  0.00     0.013 C 
ATOM     62  SG  CYS d   1      26.050  18.905  -8.389  0.00  0.00    -0.095 SA
ATOM     63  H   CYS d   1      27.123  11.269 -10.637  0.00  0.00     0.163 HD
ATOM     64  H   CYS d   1      25.862  13.477  -9.108  0.00  0.00     0.088 H 
ATOM     65  H   CYS d   1      26.980  15.057 -10.659  0.00  0.00     0.053 H 
ATOM     66  H   CYS d   1      27.805  13.673 -11.453  0.00  0.00     0.053 H 
ATOM     67  H   CYS d   1      23.558  20.015  -9.134  0.00  0.00     0.163 HD
ATOM     68  H   CYS d   1      25.189  21.939 -10.505  0.00  0.00     0.088 H 
ATOM     69  H   CYS d   1      25.662  21.272  -8.207  0.00  0.00     0.053 H 
ATOM     70  H   CYS d   1      27.066  20.902  -9.265  0.00  0.00     0.053 H 
ATOM     71  N   GLU d   1      24.428  11.945 -11.275  0.00  0.00    -0.346 N 
ATOM     72  CA  GLU d   1      23.166  11.831 -12.016  0.00  0.00     0.090 C 
ATOM     73  C   GLU d   1      22.049  12.556 -11.256  0.00  0.00     0.241 C 
ATOM     74  O   GLU d   1      22.041  12.556 -10.013  0.00  0.00    -0.271 OA
ATOM     75  H   GLU d   1      24.872  11.111 -10.947  0.00  0.00     0.163 HD
ATOM     76  H   GLU d   1      23.294  12.295 -13.005  0.00  0.00     0.087 H 
ATOM     77  N   ASN d   1      21.146  13.199 -12.005  0.00  0.00    -0.346 N 
ATOM     78  CA  ASN d   1      19.954  13.828 -11.440  0.00  0.00     0.097 C 
ATOM     79  C   ASN d   1      20.300  14.892 -10.369  0.00  0.00     0.241 C 
ATOM     80  O   ASN d   1      19.661  14.974  -9.311  0.00  0.00    -0.271 OA
ATOM     81  H   ASN d   1      21.293  13.251 -12.993  0.00  0.00     0.163 HD
ATOM     82  H   ASN d   1      19.420  14.340 -12.254  0.00  0.00     0.088 H 
ATOM     83  N   HIS d   1      21.329  15.689 -10.661  0.00  0.00    -0.346 N 
ATOM     84  CA  HIS d   1      21.794  16.760  -9.773  0.00  0.00     0.094 C 
ATOM     85  C   HIS d   1      21.662  18.111 -10.476  0.00  0.00     0.241 C 
ATOM     86  O   HIS d   1      21.936  18.213 -11.672  0.00  0.00    -0.271 OA
ATOM     87  H   HIS d   1      21.807  15.550 -11.528  0.00  0.00     0.163 HD
ATOM     88  H   HIS d   1      21.197  16.753  -8.849  0.00  0.00     0.088 H 
ENDROOT
BRANCH  60  89
ATOM     89  C   CYS d   1      25.791  20.116 -11.443  0.00  0.00     0.241 C 
ATOM     90  O   CYS d   1      26.931  20.419 -11.802  0.00  0.00    -0.271 OA
ATOM     91  N   LEU d   1      25.094  19.133 -12.022  0.00  0.00    -0.346 N 
ATOM     92  H   LEU d   1      24.143  18.988 -11.748  0.00  0.00     0.163 HD
BRANCH  91  93
ATOM     93  CA  LEU d   1      25.682  18.253 -13.055  0.00  0.00     0.089 C 
ATOM     94  H   LEU d   1      26.621  17.852 -12.646  0.00  0.00     0.087 H 
BRANCH  93  95
ATOM     95  C   LEU d   1      26.027  18.989 -14.362  0.00  0.00     0.238 C 
ATOM     96  O   LEU d   1      25.377  19.977 -14.736  0.00  0.00    -0.271 OA
ATOM     97  N   NH2 d   1      27.092  18.489 -15.061  0.00  0.00    -0.368 N 
ATOM     98  H   NH2 d   1      27.372  18.918 -15.920  0.00  0.00     0.159 HD
ATOM     99  H   NH2 d   1      27.590  17.695 -14.713  0.00  0.00     0.159 HD
ENDBRANCH  93  95
BRANCH  93 100
ATOM    100  CB  LEU d   1      24.749  17.064 -13.351  0.00  0.00    -0.035 C 
ATOM    101  H   LEU d   1      23.765  17.482 -13.609  0.00  0.00     0.037 H 
ATOM    102  H   LEU d   1      24.667  16.479 -12.423  0.00  0.00     0.037 H 
BRANCH 100 103
ATOM    103  CG  LEU d   1      25.130  16.081 -14.473  0.00  0.00    -0.059 C 
ATOM    104  H   LEU d   1      25.216  16.657 -15.406  0.00  0.00     0.038 H 
BRANCH 103 105
ATOM    105  CD1 LEU d   1      26.467  15.408 -14.218  0.00  0.00    -0.073 C 
ATOM    106  H   LEU d   1      26.694  14.718 -15.044  0.00  0.00     0.028 H 
ATOM    107  H   LEU d   1      26.421  14.846 -13.274  0.00  0.00     0.028 H 
ATOM    108  H   LEU d   1      27.255  16.172 -14.152  0.00  0.00     0.028 H 
ENDBRANCH 103 105
BRANCH 103 109
ATOM    109  CD2 LEU d   1      24.045  15.031 -14.665  0.00  0.00    -0.073 C 
ATOM    110  H   LEU d   1      23.081  15.529 -14.849  0.00  0.00     0.028 H 
ATOM    111  H   LEU d   1      23.970  14.411 -13.759  0.00  0.00     0.028 H 
ATOM    112  H   LEU d   1      24.299  14.394 -15.525  0.00  0.00     0.028 H 
ENDBRANCH 103 109
ENDBRANCH 100 103
ENDBRANCH  93 100
ENDBRANCH  91  93
ENDBRANCH  60  89
BRANCH  46 113
ATOM    113  CB  ARG d   1      20.949  21.517  -9.156  0.00  0.00    -0.036 C 
ATOM    114  H   ARG d   1      21.156  22.535  -9.518  0.00  0.00     0.036 H 
ATOM    115  H   ARG d   1      21.555  21.317  -8.260  0.00  0.00     0.036 H 
BRANCH 113 116
ATOM    116  CG  ARG d   1      19.493  21.430  -8.779  0.00  0.00    -0.048 C 
ATOM    117  H   ARG d   1      19.260  20.392  -8.498  0.00  0.00     0.035 H 
ATOM    118  H   ARG d   1      18.883  21.721  -9.647  0.00  0.00     0.035 H 
BRANCH 116 119
ATOM    119  CD  ARG d   1      19.155  22.339  -7.616  0.00  0.00     0.009 C 
ATOM    120  H   ARG d   1      19.324  23.388  -7.900  0.00  0.00     0.064 H 
ATOM    121  H   ARG d   1      19.785  22.088  -6.750  0.00  0.00     0.064 H 
BRANCH 119 122
ATOM    122  NE  ARG d   1      17.753  22.137  -7.283  0.00  0.00    -0.227 N 
ATOM    123  CZ  ARG d   1      17.283  21.123  -6.561  0.00  0.00     0.665 C 
ATOM    124  NH1 ARG d   1      15.977  21.032  -6.340  0.00  0.00    -0.235 N 
ATOM    125  NH2 ARG d   1      18.100  20.211  -6.046  0.00  0.00    -0.235 N 
ATOM    126  H   ARG d   1      15.602  20.251  -5.782  0.00  0.00     0.174 HD
ATOM    127  H   ARG d   1      15.339  21.742  -6.726  0.00  0.00     0.174 HD
ATOM    128  H   ARG d   1      19.114  20.275  -6.213  0.00  0.00     0.174 HD
ATOM    129  H   ARG d   1      17.719  19.440  -5.479  0.00  0.00     0.174 HD
ATOM    130  H   ARG d   1      17.075  22.829  -7.632  0.00  0.00     0.177 HD
ENDBRANCH 119 122
ENDBRANCH 116 119
ENDBRANCH 113 116
ENDBRANCH  46 113
BRANCH  84 131
ATOM    131  CB  HIS d   1      23.281  16.583  -9.438  0.00  0.00     0.004 C 
ATOM    132  H   HIS d   1      23.699  17.573  -9.204  0.00  0.00     0.046 H 
ATOM    133  H   HIS d   1      23.785  16.173 -10.326  0.00  0.00     0.046 H 
BRANCH 131 134
ATOM    134  CG  HIS d   1      23.563  15.676  -8.284  0.00  0.00     0.053 A 
ATOM    135  ND1 HIS d   1      23.323  14.321  -8.322  0.00  0.00    -0.247 NA
ATOM    136  CE1 HIS d   1      23.699  13.778  -7.175  0.00  0.00     0.064 A 
ATOM    137  NE2 HIS d   1      24.188  14.730  -6.402  0.00  0.00    -0.359 N 
ATOM    138  H   HIS d   1      23.619  12.724  -6.913  0.00  0.00     0.143 H 
ATOM    139  CD2 HIS d   1      24.125  15.925  -7.076  0.00  0.00     0.002 A 
ATOM    140  H   HIS d   1      24.556  14.598  -5.449  0.00  0.00     0.166 HD
ATOM    141  H   HIS d   1      24.464  16.892  -6.708  0.00  0.00     0.114 H 
ENDBRANCH 131 134
ENDBRANCH  84 131
BRANCH  15 142
ATOM    142  N   81S d   1      31.181  19.870  -8.541  0.00  0.00    -0.346 N 
ATOM    143  C   GLY d   1      32.353  20.128  -7.966  0.00  0.00     0.243 C 
ATOM    144  O   GLY d   1      33.104  19.253  -7.529  0.00  0.00    -0.272 OA
ATOM    145  H   81S d   1      30.674  20.630  -8.948  0.00  0.00     0.163 HD
BRANCH 143 146
ATOM    146  CA  GLY d   1      32.753  21.593  -7.889  0.00  0.00     0.152 C 
ATOM    147  H   GLY d   1      32.047  22.184  -8.490  0.00  0.00     0.090 H 
ATOM    148  H   GLY d   1      32.703  21.919  -6.840  0.00  0.00     0.090 H 
BRANCH 146 149
ATOM    149  N   GLY d   1      34.135  21.830  -8.400  0.00  0.00    -0.071 N 
ATOM    150  H   GLY d   1      34.356  22.811  -8.330  0.00  0.00     0.274 HD
ATOM    151  H   GLY d   1      34.191  21.541  -9.364  0.00  0.00     0.274 HD
ATOM    152  H   GLY d   1      34.792  21.298  -7.851  0.00  0.00     0.274 HD
ENDBRANCH 146 149
ENDBRANCH 143 146
ENDBRANCH  15 142
BRANCH  78 153
ATOM    153  CB  ASN d   1      19.031  12.725 -10.878  0.00  0.00     0.036 C 
ATOM    154  H   ASN d   1      19.432  12.395  -9.908  0.00  0.00     0.051 H 
ATOM    155  H   ASN d   1      19.030  11.879 -11.581  0.00  0.00     0.051 H 
BRANCH 153 156
ATOM    156  CG  ASN d   1      17.594  13.185 -10.675  0.00  0.00     0.217 C 
ATOM    157  OD1 ASN d   1      17.073  13.992 -11.437  0.00  0.00    -0.274 OA
ATOM    158  ND2 ASN d   1      16.943  12.654  -9.642  0.00  0.00    -0.370 N 
ATOM    159  H   ASN d   1      15.996  12.918  -9.459  0.00  0.00     0.159 HD
ATOM    160  H   ASN d   1      17.401  11.991  -9.050  0.00  0.00     0.159 HD
ENDBRANCH 153 156
ENDBRANCH  78 153
BRANCH  30 161
ATOM    161  CB  ALA d   1      32.999  14.814 -10.236  0.00  0.00    -0.049 C 
ATOM    162  H   ALA d   1      33.436  14.278 -11.092  0.00  0.00     0.030 H 
ATOM    163  H   ALA d   1      32.333  14.137  -9.681  0.00  0.00     0.030 H 
ATOM    164  H   ALA d   1      33.804  15.163  -9.572  0.00  0.00     0.030 H 
ENDBRANCH  30 161
BRANCH  72 165
ATOM    165  CB  GLU d   1      22.755  10.370 -12.202  0.00  0.00    -0.029 C 
ATOM    166  H   GLU d   1      21.765  10.355 -12.681  0.00  0.00     0.037 H 
ATOM    167  H   GLU d   1      22.687   9.908 -11.206  0.00  0.00     0.037 H 
BRANCH 165 168
ATOM    168  CG  GLU d   1      23.698   9.527 -13.047  0.00  0.00     0.018 C 
ATOM    169  H   GLU d   1      24.214  10.191 -13.756  0.00  0.00     0.049 H 
ATOM    170  H   GLU d   1      23.099   8.791 -13.603  0.00  0.00     0.049 H 
BRANCH 168 171
ATOM    171  CD  GLU d   1      24.745   8.781 -12.243  0.00  0.00     0.172 C 
ATOM    172  OE1 GLU d   1      25.019   9.155 -11.073  0.00  0.00    -0.648 OA
ATOM    173  OE2 GLU d   1      25.309   7.812 -12.797  0.00  0.00    -0.648 OA
ENDBRANCH 168 171
ENDBRANCH 165 168
ENDBRANCH  72 165
BRANCH  36 174
ATOM    174  CB  LEU d   1      31.318  14.665 -15.309  0.00  0.00    -0.035 C 
ATOM    175  H   LEU d   1      30.827  13.937 -15.972  0.00  0.00     0.037 H 
ATOM    176  H   LEU d   1      32.397  14.456 -15.271  0.00  0.00     0.037 H 
BRANCH 174 177
ATOM    177  CG  LEU d   1      31.154  16.043 -15.963  0.00  0.00    -0.059 C 
ATOM    178  H   LEU d   1      30.132  16.102 -16.366  0.00  0.00     0.038 H 
BRANCH 177 179
ATOM    179  CD1 LEU d   1      31.328  17.203 -14.994  0.00  0.00    -0.073 C 
ATOM    180  H   LEU d   1      31.197  18.153 -15.532  0.00  0.00     0.028 H 
ATOM    181  H   LEU d   1      32.336  17.166 -14.555  0.00  0.00     0.028 H 
ATOM    182  H   LEU d   1      30.577  17.128 -14.194  0.00  0.00     0.028 H 
ENDBRANCH 177 179
BRANCH 177 183
ATOM    183  CD2 LEU d   1      32.133  16.165 -17.124  0.00  0.00    -0.073 C 
ATOM    184  H   LEU d   1      31.992  15.319 -17.813  0.00  0.00     0.028 H 
ATOM    185  H   LEU d   1      33.163  16.156 -16.738  0.00  0.00     0.028 H 
ATOM    186  H   LEU d   1      31.951  17.108 -17.660  0.00  0.00     0.028 H 
ENDBRANCH 177 183
ENDBRANCH 174 177
ENDBRANCH  36 174
BRANCH  42 187
ATOM    187  CB  ARG d   1      29.419   6.861 -11.541  0.00  0.00    -0.036 C 
ATOM    188  H   ARG d   1      28.898   6.356 -10.715  0.00  0.00     0.036 H 
ATOM    189  H   ARG d   1      30.484   6.972 -11.289  0.00  0.00     0.036 H 
BRANCH 187 190
ATOM    190  CG  ARG d   1      29.311   5.985 -12.779  0.00  0.00    -0.048 C 
ATOM    191  H   ARG d   1      29.547   6.587 -13.669  0.00  0.00     0.035 H 
ATOM    192  H   ARG d   1      28.285   5.598 -12.859  0.00  0.00     0.035 H 
BRANCH 190 193
ATOM    193  CD  ARG d   1      30.277   4.821 -12.695  0.00  0.00     0.009 C 
ATOM    194  H   ARG d   1      29.984   4.057 -13.430  0.00  0.00     0.064 H 
ATOM    195  H   ARG d   1      30.235   4.391 -11.683  0.00  0.00     0.064 H 
BRANCH 193 196
ATOM    196  NE  ARG d   1      31.642   5.253 -12.974  0.00  0.00    -0.227 N 
ATOM    197  CZ  ARG d   1      32.680   4.437 -13.139  0.00  0.00     0.665 C 
ATOM    198  NH1 ARG d   1      32.539   3.118 -13.042  0.00  0.00    -0.235 N 
ATOM    199  NH2 ARG d   1      33.873   4.951 -13.404  0.00  0.00    -0.235 N 
ATOM    200  H   ARG d   1      33.354   2.502 -13.173  0.00  0.00     0.174 HD
ATOM    201  H   ARG d   1      31.615   2.713 -12.836  0.00  0.00     0.174 HD
ATOM    202  H   ARG d   1      33.989   5.972 -13.480  0.00  0.00     0.174 HD
ATOM    203  H   ARG d   1      34.684   4.330 -13.534  0.00  0.00     0.174 HD
ATOM    204  H   ARG d   1      31.815   6.266 -13.049  0.00  0.00     0.177 HD
ENDBRANCH 193 196
ENDBRANCH 190 193
ENDBRANCH 187 190
ENDBRANCH  42 187
TORSDOF 30
