REMARK  29 active torsions:
REMARK  status: ('A' for Active; 'I' for Inactive)
REMARK    1  A    between atoms: N_1  and  CA_2 
REMARK    2  A    between atoms: CA_2  and  C_3 
REMARK       I    between atoms: C_3  and  N_5 
REMARK    3  A    between atoms: N_5  and  CA_6 
REMARK    4  A    between atoms: CA_15  and  CB_18 
REMARK    5  A    between atoms: CB_18  and  CG_19 
REMARK    6  A    between atoms: CG_19  and  CD1_20 
REMARK    7  A    between atoms: CG_19  and  CD2_21 
REMARK    8  A    between atoms: CA_27  and  CB_30 
REMARK    9  A    between atoms: CB_30  and  CG_31 
REMARK   10  A    between atoms: CG_31  and  CD_32 
REMARK   11  A    between atoms: CD_32  and  NE_33 
REMARK       I    between atoms: NE_33  and  CZ_34 
REMARK       I    between atoms: CZ_34  and  NH1_35 
REMARK       I    between atoms: CZ_34  and  NH2_36 
REMARK   12  A    between atoms: CA_48  and  CB_51 
REMARK   13  A    between atoms: CB_51  and  CG_52 
REMARK   14  A    between atoms: CG_52  and  CD_53 
REMARK   15  A    between atoms: CA_57  and  CB_60 
REMARK   16  A    between atoms: CB_60  and  CG_61 
REMARK       I    between atoms: CG_61  and  ND2_63 
REMARK   17  A    between atoms: CA_65  and  CB_68 
REMARK   18  A    between atoms: CB_68  and  CG_69 
REMARK   19  A    between atoms: CA_75  and  CB_78 
REMARK   20  A    between atoms: CB_78  and  CG_79 
REMARK   21  A    between atoms: CG_79  and  CD_80 
REMARK   22  A    between atoms: CD_80  and  NE_81 
REMARK       I    between atoms: NE_81  and  CZ_82 
REMARK       I    between atoms: CZ_82  and  NH1_83 
REMARK   23  A    between atoms: CA_86  and  C_87 
REMARK       I    between atoms: C_87  and  N_91 
REMARK   24  A    between atoms: N_91  and  CA_92 
REMARK   25  A    between atoms: CA_92  and  C_93 
REMARK   26  A    between atoms: CA_92  and  CB_95 
REMARK       I    between atoms: C_93  and  N_99 
REMARK   27  A    between atoms: CB_95  and  CG_96 
REMARK   28  A    between atoms: CG_96  and  CD1_97 
REMARK   29  A    between atoms: CG_96  and  CD2_98 
ROOT
ATOM      1  N   GLY d   1      48.715  66.300  14.010  0.00  0.00    -0.351 N 
ATOM      2  CA  GLY d   1      48.474  64.849  13.988  0.00  0.00     0.069 C 
ATOM      3  C   GLY d   1      49.305  64.091  12.962  0.00  0.00     0.236 C 
ATOM      4  O   GLY d   1      50.311  64.592  12.490  0.00  0.00    -0.272 OA
ATOM      5  N   GLY d   1      50.685  62.932   9.673  0.00  0.00    -0.351 N 
ATOM      6  CA  GLY d   1      50.818  63.639   8.409  0.00  0.00     0.069 C 
ATOM      7  C   GLY d   1      51.572  64.928   8.599  0.00  0.00     0.236 C 
ATOM      8  O   GLY d   1      52.060  65.508   7.638  0.00  0.00    -0.272 OA
ATOM      9  H   GLY d   1      49.451  66.659  14.584  0.00  0.00     0.163 HD
ATOM     10  H   GLY d   1      47.411  64.680  13.763  0.00  0.00     0.078 H 
ATOM     11  H   GLY d   1      48.706  64.446  14.985  0.00  0.00     0.078 H 
ATOM     12  H   GLY d   1      51.504  62.545  10.096  0.00  0.00     0.163 HD
ATOM     13  H   GLY d   1      49.816  63.861   8.012  0.00  0.00     0.078 H 
ATOM     14  H   GLY d   1      51.363  63.004   7.695  0.00  0.00     0.078 H 
ATOM     15  CA  81S d   1      48.160  71.297  11.094  0.00  0.00     0.090 C 
ATOM     16  CB  81S d   1      49.310  71.752  10.316  0.00  0.00    -0.025 C 
ATOM     17  CG  81S d   1      50.141  70.676   9.750  0.00  0.00     0.012 C 
ATOM     18  CD1 81S d   1      49.581  70.119   8.436  0.00  0.00    -0.001 C 
ATOM     19  SE  81S d   1      50.191  68.585   8.071  0.00  0.00    -0.096 SA
ATOM     20  SD2 81S d   1      51.770  71.090   9.615  0.00  0.00    -0.092 SA
ATOM     21  C   81S d   1      48.557  70.574  12.201  0.00  0.00     0.241 C 
ATOM     22  O   81S d   1      49.528  70.919  12.882  0.00  0.00    -0.271 OA
ATOM     23  H   81S d   1      47.483  70.713  10.453  0.00  0.00     0.087 H 
ATOM     24  H   81S d   1      49.945  72.365  10.972  0.00  0.00     0.038 H 
ATOM     25  H   81S d   1      48.938  72.369   9.485  0.00  0.00     0.038 H 
ATOM     26  H   81S d   1      50.097  69.850  10.475  0.00  0.00     0.059 H 
ATOM     27  H   81S d   1      49.846  70.807   7.620  0.00  0.00     0.051 H 
ATOM     28  H   81S d   1      48.486  70.053   8.519  0.00  0.00     0.051 H 
ATOM     29  N   LEU d   1      47.840  69.483  12.492  0.00  0.00    -0.346 N 
ATOM     30  CA  LEU d   1      48.120  68.626  13.648  0.00  0.00     0.089 C 
ATOM     31  C   LEU d   1      47.987  67.152  13.292  0.00  0.00     0.240 C 
ATOM     32  O   LEU d   1      47.216  66.794  12.397  0.00  0.00    -0.271 OA
ATOM     33  H   LEU d   1      47.077  69.240  11.893  0.00  0.00     0.163 HD
ATOM     34  H   LEU d   1      49.138  68.832  14.011  0.00  0.00     0.087 H 
ATOM     35  N   ARG d   1      48.894  62.870  12.650  0.00  0.00    -0.346 N 
ATOM     36  CA  ARG d   1      49.556  62.069  11.623  0.00  0.00     0.089 C 
ATOM     37  C   ARG d   1      49.520  62.781  10.285  0.00  0.00     0.240 C 
ATOM     38  O   ARG d   1      48.462  63.166   9.827  0.00  0.00    -0.271 OA
ATOM     39  N   ARG d   1      57.067  72.775   9.685  0.00  0.00    -0.346 N 
ATOM     40  CA  ARG d   1      57.052  74.130  10.242  0.00  0.00     0.089 C 
ATOM     41  C   ARG d   1      55.655  74.544  10.706  0.00  0.00     0.241 C 
ATOM     42  O   ARG d   1      55.535  75.286  11.672  0.00  0.00    -0.271 OA
ATOM     43  H   ARG d   1      48.107  62.485  13.132  0.00  0.00     0.163 HD
ATOM     44  H   ARG d   1      50.602  61.903  11.920  0.00  0.00     0.087 H 
ATOM     45  H   ARG d   1      57.327  72.635   8.730  0.00  0.00     0.163 HD
ATOM     46  H   ARG d   1      57.712  74.134  11.122  0.00  0.00     0.087 H 
ATOM     47  N   CYS d   1      51.710  65.364   9.850  0.00  0.00    -0.346 N 
ATOM     48  CA  CYS d   1      52.243  66.692  10.153  0.00  0.00     0.098 C 
ATOM     49  C   CYS d   1      53.533  66.725  11.003  0.00  0.00     0.241 C 
ATOM     50  O   CYS d   1      54.038  67.805  11.332  0.00  0.00    -0.271 OA
ATOM     51  CB  CYS d   1      51.133  67.509  10.816  0.00  0.00     0.013 C 
ATOM     52  SG  CYS d   1      49.656  67.598   9.776  0.00  0.00    -0.095 SA
ATOM     53  N   CYS d   1      54.606  74.052  10.046  0.00  0.00    -0.345 N 
ATOM     54  CA  CYS d   1      53.223  74.430  10.394  0.00  0.00     0.098 C 
ATOM     55  CB  CYS d   1      52.279  74.269   9.176  0.00  0.00     0.013 C 
ATOM     56  SG  CYS d   1      52.172  72.641   8.360  0.00  0.00    -0.095 SA
ATOM     57  H   CYS d   1      51.441  64.766  10.605  0.00  0.00     0.163 HD
ATOM     58  H   CYS d   1      52.489  67.168   9.192  0.00  0.00     0.088 H 
ATOM     59  H   CYS d   1      51.502  68.529  10.999  0.00  0.00     0.053 H 
ATOM     60  H   CYS d   1      50.867  67.038  11.774  0.00  0.00     0.053 H 
ATOM     61  H   CYS d   1      54.761  73.410   9.295  0.00  0.00     0.163 HD
ATOM     62  H   CYS d   1      53.248  75.499  10.652  0.00  0.00     0.088 H 
ATOM     63  H   CYS d   1      52.607  74.992   8.415  0.00  0.00     0.053 H 
ATOM     64  H   CYS d   1      51.265  74.528   9.515  0.00  0.00     0.053 H 
ATOM     65  N   GLU d   1      54.095  65.555  11.297  0.00  0.00    -0.346 N 
ATOM     66  CA  GLU d   1      55.397  65.456  11.963  0.00  0.00     0.090 C 
ATOM     67  C   GLU d   1      56.464  66.252  11.212  0.00  0.00     0.241 C 
ATOM     68  O   GLU d   1      56.504  66.243   9.958  0.00  0.00    -0.271 OA
ATOM     69  H   GLU d   1      53.612  64.714  11.055  0.00  0.00     0.163 HD
ATOM     70  H   GLU d   1      55.297  65.864  12.980  0.00  0.00     0.087 H 
ATOM     71  N   ASN d   1      57.315  66.939  11.965  0.00  0.00    -0.346 N 
ATOM     72  CA  ASN d   1      58.525  67.560  11.402  0.00  0.00     0.097 C 
ATOM     73  C   ASN d   1      58.162  68.581  10.315  0.00  0.00     0.241 C 
ATOM     74  O   ASN d   1      58.827  68.665   9.270  0.00  0.00    -0.271 OA
ATOM     75  H   ASN d   1      57.129  67.037  12.943  0.00  0.00     0.163 HD
ATOM     76  H   ASN d   1      59.051  68.095  12.206  0.00  0.00     0.088 H 
ATOM     77  N   HIS d   1      57.084  69.327  10.570  0.00  0.00    -0.346 N 
ATOM     78  CA  HIS d   1      56.609  70.416   9.715  0.00  0.00     0.094 C 
ATOM     79  C   HIS d   1      56.739  71.732  10.436  0.00  0.00     0.241 C 
ATOM     80  O   HIS d   1      56.484  71.818  11.653  0.00  0.00    -0.271 OA
ATOM     81  H   HIS d   1      56.566  69.128  11.402  0.00  0.00     0.163 HD
ATOM     82  H   HIS d   1      57.200  70.430   8.788  0.00  0.00     0.088 H 
ENDROOT
BRANCH  54  83
ATOM     83  C   CYS d   1      52.638  73.698  11.609  0.00  0.00     0.241 C 
ATOM     84  O   CYS d   1      51.532  74.006  12.033  0.00  0.00    -0.271 OA
ATOM     85  N   LEU d   1      53.376  72.746  12.170  0.00  0.00    -0.346 N 
ATOM     86  H   LEU d   1      54.343  72.673  11.925  0.00  0.00     0.163 HD
BRANCH  85  87
ATOM     87  CA  LEU d   1      52.819  71.807  13.130  0.00  0.00     0.089 C 
ATOM     88  H   LEU d   1      51.985  71.271  12.653  0.00  0.00     0.087 H 
BRANCH  87  89
ATOM     89  C   LEU d   1      52.291  72.534  14.364  0.00  0.00     0.238 C 
ATOM     90  O   LEU d   1      52.970  73.397  14.895  0.00  0.00    -0.271 OA
ATOM     91  N   NH2 d   1      51.067  72.150  14.832  0.00  0.00    -0.368 N 
ATOM     92  H   NH2 d   1      50.677  72.596  15.638  0.00  0.00     0.159 HD
ATOM     93  H   NH2 d   1      50.560  71.423  14.369  0.00  0.00     0.159 HD
ENDBRANCH  87  89
BRANCH  87  94
ATOM     94  CB  LEU d   1      53.886  70.793  13.547  0.00  0.00    -0.035 C 
ATOM     95  H   LEU d   1      54.753  71.364  13.910  0.00  0.00     0.037 H 
ATOM     96  H   LEU d   1      54.169  70.230  12.645  0.00  0.00     0.037 H 
BRANCH  94  97
ATOM     97  CG  LEU d   1      53.534  69.766  14.630  0.00  0.00    -0.059 C 
ATOM     98  H   LEU d   1      53.251  70.314  15.541  0.00  0.00     0.038 H 
BRANCH  97  99
ATOM     99  CD1 LEU d   1      52.370  68.892  14.225  0.00  0.00    -0.073 C 
ATOM    100  H   LEU d   1      52.154  68.173  15.029  0.00  0.00     0.028 H 
ATOM    101  H   LEU d   1      52.624  68.346  13.304  0.00  0.00     0.028 H 
ATOM    102  H   LEU d   1      51.485  69.520  14.047  0.00  0.00     0.028 H 
ENDBRANCH  97  99
BRANCH  97 103
ATOM    103  CD2 LEU d   1      54.744  68.899  14.945  0.00  0.00    -0.073 C 
ATOM    104  H   LEU d   1      55.588  69.540  15.239  0.00  0.00     0.028 H 
ATOM    105  H   LEU d   1      55.020  68.316  14.054  0.00  0.00     0.028 H 
ATOM    106  H   LEU d   1      54.499  68.214  15.770  0.00  0.00     0.028 H 
ENDBRANCH  97 103
ENDBRANCH  94  97
ENDBRANCH  87  94
ENDBRANCH  85  87
ENDBRANCH  54  83
BRANCH  40 107
ATOM    107  CB  ARG d   1      57.604  75.148   9.235  0.00  0.00    -0.036 C 
ATOM    108  H   ARG d   1      57.198  76.140   9.481  0.00  0.00     0.036 H 
ATOM    109  H   ARG d   1      57.275  74.857   8.226  0.00  0.00     0.036 H 
BRANCH 107 110
ATOM    110  CG  ARG d   1      59.121  75.230   9.244  0.00  0.00    -0.048 C 
ATOM    111  H   ARG d   1      59.529  74.226   9.057  0.00  0.00     0.035 H 
ATOM    112  H   ARG d   1      59.449  75.581  10.233  0.00  0.00     0.035 H 
BRANCH 110 113
ATOM    113  CD  ARG d   1      59.660  76.179   8.187  0.00  0.00     0.009 C 
ATOM    114  H   ARG d   1      60.741  76.317   8.335  0.00  0.00     0.064 H 
ATOM    115  H   ARG d   1      59.151  77.151   8.272  0.00  0.00     0.064 H 
BRANCH 113 116
ATOM    116  NE  ARG d   1      59.419  75.621   6.873  0.00  0.00    -0.227 N 
ATOM    117  CZ  ARG d   1      60.141  74.644   6.326  0.00  0.00     0.665 C 
ATOM    118  NH1 ARG d   1      61.187  74.125   6.969  0.00  0.00    -0.235 N 
ATOM    119  NH2 ARG d   1      59.818  74.189   5.121  0.00  0.00    -0.235 N 
ATOM    120  H   ARG d   1      61.736  73.370   6.534  0.00  0.00     0.174 HD
ATOM    121  H   ARG d   1      61.446  74.479   7.901  0.00  0.00     0.174 HD
ATOM    122  H   ARG d   1      59.011  74.587   4.620  0.00  0.00     0.174 HD
ATOM    123  H   ARG d   1      60.375  73.439   4.688  0.00  0.00     0.174 HD
ATOM    124  H   ARG d   1      58.637  76.005   6.324  0.00  0.00     0.177 HD
ENDBRANCH 113 116
ENDBRANCH 110 113
ENDBRANCH 107 110
ENDBRANCH  40 107
BRANCH  78 125
ATOM    125  CB  HIS d   1      55.123  70.266   9.383  0.00  0.00     0.004 C 
ATOM    126  H   HIS d   1      54.716  71.264   9.165  0.00  0.00     0.046 H 
ATOM    127  H   HIS d   1      54.614  69.847  10.263  0.00  0.00     0.046 H 
BRANCH 125 128
ATOM    128  CG  HIS d   1      54.841  69.381   8.214  0.00  0.00     0.053 A 
ATOM    129  ND1 HIS d   1      55.177  68.044   8.194  0.00  0.00    -0.247 NA
ATOM    130  CE1 HIS d   1      54.794  67.515   7.043  0.00  0.00     0.064 A 
ATOM    131  NE2 HIS d   1      54.222  68.460   6.318  0.00  0.00    -0.359 N 
ATOM    132  H   HIS d   1      54.928  66.476   6.744  0.00  0.00     0.143 H 
ATOM    133  CD2 HIS d   1      54.235  69.637   7.028  0.00  0.00     0.002 A 
ATOM    134  H   HIS d   1      53.830  68.335   5.374  0.00  0.00     0.166 HD
ATOM    135  H   HIS d   1      53.834  70.595   6.700  0.00  0.00     0.114 H 
ENDBRANCH 125 128
ENDBRANCH  78 125
BRANCH  15 136
ATOM    136  N   81S d   1      47.472  72.449  11.710  0.00  0.00    -0.346 N 
ATOM    137  C   GLY d   1      46.163  72.465  11.952  0.00  0.00     0.243 C 
ATOM    138  O   GLY d   1      45.453  71.465  11.883  0.00  0.00    -0.272 OA
ATOM    139  H   81S d   1      48.013  73.253  11.956  0.00  0.00     0.163 HD
BRANCH 137 140
ATOM    140  CA  GLY d   1      45.567  73.801  12.365  0.00  0.00     0.152 C 
ATOM    141  H   GLY d   1      46.199  74.608  11.966  0.00  0.00     0.090 H 
ATOM    142  H   GLY d   1      44.556  73.883  11.941  0.00  0.00     0.090 H 
BRANCH 140 143
ATOM    143  N   GLY d   1      45.478  73.951  13.851  0.00  0.00    -0.071 N 
ATOM    144  H   GLY d   1      45.078  74.849  14.075  0.00  0.00     0.274 HD
ATOM    145  H   GLY d   1      46.401  73.885  14.251  0.00  0.00     0.274 HD
ATOM    146  H   GLY d   1      44.895  73.220  14.228  0.00  0.00     0.274 HD
ENDBRANCH 140 143
ENDBRANCH 137 140
ENDBRANCH  15 136
BRANCH  72 147
ATOM    147  CB  ASN d   1      59.449  66.453  10.872  0.00  0.00     0.036 C 
ATOM    148  H   ASN d   1      59.027  66.068   9.932  0.00  0.00     0.051 H 
ATOM    149  H   ASN d   1      59.484  65.644  11.616  0.00  0.00     0.051 H 
BRANCH 147 150
ATOM    150  CG  ASN d   1      60.870  66.921  10.604  0.00  0.00     0.217 C 
ATOM    151  OD1 ASN d   1      61.440  67.678  11.376  0.00  0.00    -0.274 OA
ATOM    152  ND2 ASN d   1      61.452  66.457   9.487  0.00  0.00    -0.370 N 
ATOM    153  H   ASN d   1      62.386  66.731   9.259  0.00  0.00     0.159 HD
ATOM    154  H   ASN d   1      60.951  65.837   8.883  0.00  0.00     0.159 HD
ENDBRANCH 147 150
ENDBRANCH  72 147
BRANCH  30 155
ATOM    155  CB  LEU d   1      47.104  68.897  14.753  0.00  0.00    -0.035 C 
ATOM    156  H   LEU d   1      47.069  67.989  15.373  0.00  0.00     0.037 H 
ATOM    157  H   LEU d   1      46.133  69.038  14.255  0.00  0.00     0.037 H 
BRANCH 155 158
ATOM    158  CG  LEU d   1      47.271  70.069  15.713  0.00  0.00    -0.059 C 
ATOM    159  H   LEU d   1      47.424  70.999  15.146  0.00  0.00     0.038 H 
BRANCH 158 160
ATOM    160  CD1 LEU d   1      45.990  70.158  16.521  0.00  0.00    -0.073 C 
ATOM    161  H   LEU d   1      46.062  70.994  17.232  0.00  0.00     0.028 H 
ATOM    162  H   LEU d   1      45.839  69.219  17.073  0.00  0.00     0.028 H 
ATOM    163  H   LEU d   1      45.140  70.326  15.843  0.00  0.00     0.028 H 
ENDBRANCH 158 160
BRANCH 158 164
ATOM    164  CD2 LEU d   1      48.456  69.845  16.633  0.00  0.00    -0.073 C 
ATOM    165  H   LEU d   1      49.377  69.782  16.035  0.00  0.00     0.028 H 
ATOM    166  H   LEU d   1      48.316  68.907  17.190  0.00  0.00     0.028 H 
ATOM    167  H   LEU d   1      48.534  70.683  17.341  0.00  0.00     0.028 H 
ENDBRANCH 158 164
ENDBRANCH 155 158
ENDBRANCH  30 155
BRANCH  66 168
ATOM    168  CB  GLU d   1      55.866  64.002  12.055  0.00  0.00    -0.029 C 
ATOM    169  H   GLU d   1      56.889  64.002  12.459  0.00  0.00     0.037 H 
ATOM    170  H   GLU d   1      55.874  63.585  11.037  0.00  0.00     0.037 H 
BRANCH 168 171
ATOM    171  CG  GLU d   1      55.019  63.086  12.928  0.00  0.00     0.018 C 
ATOM    172  H   GLU d   1      54.642  63.675  13.777  0.00  0.00     0.049 H 
ATOM    173  H   GLU d   1      55.663  62.276  13.300  0.00  0.00     0.049 H 
BRANCH 171 174
ATOM    174  CD  GLU d   1      53.828  62.457  12.223  0.00  0.00     0.172 C 
ATOM    175  OE1 GLU d   1      53.491  62.852  11.065  0.00  0.00    -0.648 OA
ATOM    176  OE2 GLU d   1      53.213  61.536  12.831  0.00  0.00    -0.648 OA
ENDBRANCH 171 174
ENDBRANCH 168 171
ENDBRANCH  66 168
BRANCH  36 177
ATOM    177  CB  ARG d   1      48.862  60.735  11.462  0.00  0.00    -0.036 C 
ATOM    178  H   ARG d   1      49.261  60.239  10.565  0.00  0.00     0.036 H 
ATOM    179  H   ARG d   1      47.784  60.914  11.333  0.00  0.00     0.036 H 
BRANCH 177 180
ATOM    180  CG  ARG d   1      49.058  59.817  12.646  0.00  0.00    -0.048 C 
ATOM    181  H   ARG d   1      48.871  60.376  13.575  0.00  0.00     0.035 H 
ATOM    182  H   ARG d   1      50.091  59.440  12.647  0.00  0.00     0.035 H 
BRANCH 180 183
ATOM    183  CD  ARG d   1      48.100  58.651  12.563  0.00  0.00     0.009 C 
ATOM    184  H   ARG d   1      48.425  57.872  13.269  0.00  0.00     0.064 H 
ATOM    185  H   ARG d   1      48.117  58.248  11.539  0.00  0.00     0.064 H 
BRANCH 183 186
ATOM    186  NE  ARG d   1      46.735  59.046  12.892  0.00  0.00    -0.227 N 
ATOM    187  CZ  ARG d   1      45.741  58.186  13.094  0.00  0.00     0.665 C 
ATOM    188  NH1 ARG d   1      45.949  56.873  12.983  0.00  0.00    -0.235 N 
ATOM    189  NH2 ARG d   1      44.533  58.637  13.397  0.00  0.00    -0.235 N 
ATOM    190  H   ARG d   1      45.174  56.214  13.141  0.00  0.00     0.174 HD
ATOM    191  H   ARG d   1      46.885  56.519  12.739  0.00  0.00     0.174 HD
ATOM    192  H   ARG d   1      44.368  59.650  13.484  0.00  0.00     0.174 HD
ATOM    193  H   ARG d   1      43.758  57.975  13.546  0.00  0.00     0.174 HD
ATOM    194  H   ARG d   1      46.529  60.052  12.973  0.00  0.00     0.177 HD
ENDBRANCH 183 186
ENDBRANCH 180 183
ENDBRANCH 177 180
ENDBRANCH  36 177
TORSDOF 29
