REMARK  30 active torsions:
REMARK  status: ('A' for Active; 'I' for Inactive)
REMARK    1  A    between atoms: N_1  and  CA_2 
REMARK    2  A    between atoms: CA_2  and  C_3 
REMARK       I    between atoms: C_3  and  N_5 
REMARK    3  A    between atoms: N_5  and  CA_6 
REMARK    4  A    between atoms: CA_15  and  CB_18 
REMARK    5  A    between atoms: CA_20  and  CB_23 
REMARK    6  A    between atoms: CB_23  and  CG_24 
REMARK    7  A    between atoms: CG_24  and  CD1_25 
REMARK    8  A    between atoms: CG_24  and  CD2_26 
REMARK    9  A    between atoms: CA_32  and  CB_35 
REMARK   10  A    between atoms: CB_35  and  CG_36 
REMARK   11  A    between atoms: CG_36  and  CD_37 
REMARK   12  A    between atoms: CD_37  and  NE_38 
REMARK       I    between atoms: NE_38  and  CZ_39 
REMARK       I    between atoms: CZ_39  and  NH1_40 
REMARK       I    between atoms: CZ_39  and  NH2_41 
REMARK   13  A    between atoms: CA_53  and  CB_56 
REMARK   14  A    between atoms: CB_56  and  CG_57 
REMARK   15  A    between atoms: CG_57  and  CD_58 
REMARK   16  A    between atoms: CA_62  and  CB_65 
REMARK   17  A    between atoms: CB_65  and  CG_66 
REMARK       I    between atoms: CG_66  and  ND2_68 
REMARK   18  A    between atoms: CA_70  and  CB_73 
REMARK   19  A    between atoms: CB_73  and  CG_74 
REMARK   20  A    between atoms: CA_80  and  CB_83 
REMARK   21  A    between atoms: CB_83  and  CG_84 
REMARK   22  A    between atoms: CG_84  and  CD_85 
REMARK   23  A    between atoms: CD_85  and  NE_86 
REMARK       I    between atoms: NE_86  and  CZ_87 
REMARK       I    between atoms: CZ_87  and  NH1_88 
REMARK   24  A    between atoms: CA_91  and  C_92 
REMARK       I    between atoms: C_92  and  N_96 
REMARK   25  A    between atoms: N_96  and  CA_97 
REMARK   26  A    between atoms: CA_97  and  C_98 
REMARK   27  A    between atoms: CA_97  and  CB_100 
REMARK       I    between atoms: C_98  and  N_104 
REMARK   28  A    between atoms: CB_100  and  CG_101 
REMARK   29  A    between atoms: CG_101  and  CD1_102 
REMARK   30  A    between atoms: CG_101  and  CD2_103 
ROOT
ATOM      1  N   GLY d   1      30.093  12.325 -14.260  0.00  0.00    -0.351 N 
ATOM      2  CA  GLY d   1      30.310  10.900 -14.048  0.00  0.00     0.069 C 
ATOM      3  C   GLY d   1      29.342  10.326 -13.040  0.00  0.00     0.236 C 
ATOM      4  O   GLY d   1      28.371  10.977 -12.628  0.00  0.00    -0.272 OA
ATOM      5  N   GLY d   1      27.752   9.506  -9.817  0.00  0.00    -0.351 N 
ATOM      6  CA  GLY d   1      27.611  10.325  -8.623  0.00  0.00     0.069 C 
ATOM      7  C   GLY d   1      26.856  11.601  -8.921  0.00  0.00     0.236 C 
ATOM      8  O   GLY d   1      26.348  12.253  -8.006  0.00  0.00    -0.272 OA
ATOM      9  H   GLY d   1      29.159  12.680 -14.295  0.00  0.00     0.163 HD
ATOM     10  H   GLY d   1      31.336  10.747 -13.682  0.00  0.00     0.078 H 
ATOM     11  H   GLY d   1      30.180  10.374 -15.005  0.00  0.00     0.078 H 
ATOM     12  H   GLY d   1      26.926   9.167 -10.268  0.00  0.00     0.163 HD
ATOM     13  H   GLY d   1      28.611  10.580  -8.243  0.00  0.00     0.078 H 
ATOM     14  H   GLY d   1      27.063   9.754  -7.859  0.00  0.00     0.078 H 
ATOM     15  CA  81R d   1      26.230  17.606 -14.051  0.00  0.00     0.090 C 
ATOM     16  CB  81R d   1      26.726  17.241 -12.713  0.00  0.00    -0.025 C 
ATOM     17  CG  81R d   1      26.793  18.324 -11.690  0.00  0.00     0.012 C 
ATOM     18  CD1 81R d   1      27.787  17.909 -10.571  0.00  0.00    -0.001 C 
ATOM     19  SE  81R d   1      27.508  16.414  -9.813  0.00  0.00    -0.096 SA
ATOM     20  SD2 81R d   1      25.243  18.709 -11.106  0.00  0.00    -0.092 SA
ATOM     21  C   81R d   1      26.376  16.470 -14.903  0.00  0.00     0.241 C 
ATOM     22  O   81R d   1      25.662  15.472 -14.753  0.00  0.00    -0.271 OA
ATOM     23  H   81R d   1      26.770  18.483 -14.438  0.00  0.00     0.087 H 
ATOM     24  H   81R d   1      27.742  16.839 -12.836  0.00  0.00     0.038 H 
ATOM     25  H   81R d   1      26.066  16.454 -12.319  0.00  0.00     0.038 H 
ATOM     26  H   81R d   1      27.194  19.227 -12.174  0.00  0.00     0.059 H 
ATOM     27  H   81R d   1      27.756  18.687  -9.794  0.00  0.00     0.051 H 
ATOM     28  H   81R d   1      28.793  17.874 -11.015  0.00  0.00     0.051 H 
ATOM     29  N   ALA d   1      27.306  16.551 -15.855  0.00  0.00    -0.346 N 
ATOM     30  CA  ALA d   1      27.613  15.421 -16.737  0.00  0.00     0.086 C 
ATOM     31  C   ALA d   1      29.028  14.904 -16.471  0.00  0.00     0.240 C 
ATOM     32  O   ALA d   1      29.741  14.542 -17.397  0.00  0.00    -0.271 OA
ATOM     33  H   ALA d   1      27.809  17.408 -15.971  0.00  0.00     0.163 HD
ATOM     34  H   ALA d   1      26.901  14.610 -16.526  0.00  0.00     0.086 H 
ATOM     35  N   LEU d   1      29.413  14.842 -15.198  0.00  0.00    -0.346 N 
ATOM     36  CA  LEU d   1      30.807  14.600 -14.821  0.00  0.00     0.089 C 
ATOM     37  C   LEU d   1      31.114  13.160 -14.408  0.00  0.00     0.240 C 
ATOM     38  O   LEU d   1      32.269  12.804 -14.262  0.00  0.00    -0.271 OA
ATOM     39  H   LEU d   1      28.730  14.964 -14.478  0.00  0.00     0.163 HD
ATOM     40  H   LEU d   1      31.420  14.809 -15.710  0.00  0.00     0.087 H 
ATOM     41  N   ARG d   1      29.631   9.093 -12.660  0.00  0.00    -0.346 N 
ATOM     42  CA  ARG d   1      28.893   8.385 -11.632  0.00  0.00     0.089 C 
ATOM     43  C   ARG d   1      28.933   9.191 -10.331  0.00  0.00     0.240 C 
ATOM     44  O   ARG d   1      30.011   9.520  -9.811  0.00  0.00    -0.271 OA
ATOM     45  N   ARG d   1      21.165  18.910  -9.305  0.00  0.00    -0.346 N 
ATOM     46  CA  ARG d   1      20.871  20.300  -9.610  0.00  0.00     0.089 C 
ATOM     47  C   ARG d   1      22.185  21.064  -9.526  0.00  0.00     0.241 C 
ATOM     48  O   ARG d   1      22.774  21.160  -8.457  0.00  0.00    -0.271 OA
ATOM     49  H   ARG d   1      30.396   8.626 -13.103  0.00  0.00     0.163 HD
ATOM     50  H   ARG d   1      27.847   8.268 -11.950  0.00  0.00     0.087 H 
ATOM     51  H   ARG d   1      21.335  18.647  -8.355  0.00  0.00     0.163 HD
ATOM     52  H   ARG d   1      20.459  20.382 -10.627  0.00  0.00     0.087 H 
ATOM     53  N   CYS d   1      26.770  11.943 -10.210  0.00  0.00    -0.346 N 
ATOM     54  CA  CYS d   1      26.180  13.196 -10.669  0.00  0.00     0.098 C 
ATOM     55  C   CYS d   1      24.796  13.069 -11.321  0.00  0.00     0.241 C 
ATOM     56  O   CYS d   1      24.224  14.075 -11.723  0.00  0.00    -0.271 OA
ATOM     57  CB  CYS d   1      27.140  13.887 -11.649  0.00  0.00     0.013 C 
ATOM     58  SG  CYS d   1      28.417  14.865 -10.827  0.00  0.00    -0.095 SA
ATOM     59  N   CYS d   1      22.666  21.580 -10.647  0.00  0.00    -0.345 N 
ATOM     60  CA  CYS d   1      23.811  22.498 -10.618  0.00  0.00     0.098 C 
ATOM     61  CB  CYS d   1      25.082  21.810 -11.122  0.00  0.00     0.013 C 
ATOM     62  SG  CYS d   1      25.623  20.431 -10.091  0.00  0.00    -0.095 SA
ATOM     63  H   CYS d   1      27.128  11.308 -10.895  0.00  0.00     0.163 HD
ATOM     64  H   CYS d   1      26.064  13.841  -9.786  0.00  0.00     0.088 H 
ATOM     65  H   CYS d   1      26.555  14.553 -12.300  0.00  0.00     0.053 H 
ATOM     66  H   CYS d   1      27.631  13.115 -12.260  0.00  0.00     0.053 H 
ATOM     67  H   CYS d   1      22.245  21.342 -11.522  0.00  0.00     0.163 HD
ATOM     68  H   CYS d   1      23.975  22.822  -9.580  0.00  0.00     0.088 H 
ATOM     69  H   CYS d   1      25.890  22.556 -11.155  0.00  0.00     0.053 H 
ATOM     70  H   CYS d   1      24.892  21.430 -12.137  0.00  0.00     0.053 H 
ATOM     71  N   GLU d   1      24.266  11.852 -11.433  0.00  0.00    -0.346 N 
ATOM     72  CA  GLU d   1      22.962  11.629 -12.061  0.00  0.00     0.090 C 
ATOM     73  C   GLU d   1      21.882  12.438 -11.346  0.00  0.00     0.241 C 
ATOM     74  O   GLU d   1      21.869  12.503 -10.109  0.00  0.00    -0.271 OA
ATOM     75  H   GLU d   1      24.774  11.067 -11.078  0.00  0.00     0.163 HD
ATOM     76  H   GLU d   1      23.019  11.950 -13.112  0.00  0.00     0.087 H 
ATOM     77  N   ASN d   1      20.992  13.052 -12.116  0.00  0.00    -0.346 N 
ATOM     78  CA  ASN d   1      19.809  13.690 -11.547  0.00  0.00     0.097 C 
ATOM     79  C   ASN d   1      20.171  14.727 -10.463  0.00  0.00     0.241 C 
ATOM     80  O   ASN d   1      19.548  14.762  -9.407  0.00  0.00    -0.271 OA
ATOM     81  H   ASN d   1      21.135  13.078 -13.105  0.00  0.00     0.163 HD
ATOM     82  H   ASN d   1      19.270  14.212 -12.352  0.00  0.00     0.088 H 
ATOM     83  N   HIS d   1      21.190  15.554 -10.724  0.00  0.00    -0.346 N 
ATOM     84  CA  HIS d   1      21.611  16.591  -9.767  0.00  0.00     0.094 C 
ATOM     85  C   HIS d   1      21.214  17.982 -10.247  0.00  0.00     0.241 C 
ATOM     86  O   HIS d   1      20.956  18.210 -11.434  0.00  0.00    -0.271 OA
ATOM     87  H   HIS d   1      21.679  15.466 -11.592  0.00  0.00     0.163 HD
ATOM     88  H   HIS d   1      21.102  16.394  -8.812  0.00  0.00     0.088 H 
ENDROOT
BRANCH  60  89
ATOM     89  C   CYS d   1      23.516  23.714 -11.470  0.00  0.00     0.241 C 
ATOM     90  O   CYS d   1      23.669  23.663 -12.694  0.00  0.00    -0.271 OA
ATOM     91  N   LEU d   1      23.076  24.799 -10.835  0.00  0.00    -0.346 N 
ATOM     92  H   LEU d   1      22.917  24.765  -9.848  0.00  0.00     0.163 HD
BRANCH  91  93
ATOM     93  CA  LEU d   1      22.823  26.041 -11.568  0.00  0.00     0.089 C 
ATOM     94  H   LEU d   1      22.296  25.779 -12.498  0.00  0.00     0.087 H 
BRANCH  93  95
ATOM     95  C   LEU d   1      24.138  26.719 -11.946  0.00  0.00     0.238 C 
ATOM     96  O   LEU d   1      24.182  27.492 -12.894  0.00  0.00    -0.271 OA
ATOM     97  N   NH2 d   1      25.227  26.408 -11.192  0.00  0.00    -0.368 N 
ATOM     98  H   NH2 d   1      26.113  26.824 -11.397  0.00  0.00     0.159 HD
ATOM     99  H   NH2 d   1      25.142  25.763 -10.432  0.00  0.00     0.159 HD
ENDBRANCH  93  95
BRANCH  93 100
ATOM    100  CB  LEU d   1      21.924  27.008 -10.778  0.00  0.00    -0.035 C 
ATOM    101  H   LEU d   1      22.149  28.028 -11.122  0.00  0.00     0.037 H 
ATOM    102  H   LEU d   1      22.187  26.913  -9.714  0.00  0.00     0.037 H 
BRANCH 100 103
ATOM    103  CG  LEU d   1      20.408  26.800 -10.902  0.00  0.00    -0.059 C 
ATOM    104  H   LEU d   1      19.916  27.562 -10.279  0.00  0.00     0.038 H 
BRANCH 103 105
ATOM    105  CD1 LEU d   1      19.916  26.986 -12.336  0.00  0.00    -0.073 C 
ATOM    106  H   LEU d   1      18.828  26.827 -12.374  0.00  0.00     0.028 H 
ATOM    107  H   LEU d   1      20.416  26.258 -12.992  0.00  0.00     0.028 H 
ATOM    108  H   LEU d   1      20.150  28.006 -12.675  0.00  0.00     0.028 H 
ENDBRANCH 103 105
BRANCH 103 109
ATOM    109  CD2 LEU d   1      20.002  25.431 -10.374  0.00  0.00    -0.073 C 
ATOM    110  H   LEU d   1      20.364  25.314  -9.342  0.00  0.00     0.028 H 
ATOM    111  H   LEU d   1      20.443  24.648 -11.008  0.00  0.00     0.028 H 
ATOM    112  H   LEU d   1      18.906  25.342 -10.390  0.00  0.00     0.028 H 
ENDBRANCH 103 109
ENDBRANCH 100 103
ENDBRANCH  93 100
ENDBRANCH  91  93
ENDBRANCH  60  89
BRANCH  46 113
ATOM    113  CB  ARG d   1      19.849  20.848  -8.607  0.00  0.00    -0.036 C 
ATOM    114  H   ARG d   1      20.155  20.525  -7.601  0.00  0.00     0.036 H 
ATOM    115  H   ARG d   1      18.869  20.412  -8.850  0.00  0.00     0.036 H 
BRANCH 113 116
ATOM    116  CG  ARG d   1      19.695  22.363  -8.586  0.00  0.00    -0.048 C 
ATOM    117  H   ARG d   1      19.513  22.722  -9.610  0.00  0.00     0.035 H 
ATOM    118  H   ARG d   1      20.619  22.815  -8.197  0.00  0.00     0.035 H 
BRANCH 116 119
ATOM    119  CD  ARG d   1      18.527  22.769  -7.698  0.00  0.00     0.009 C 
ATOM    120  H   ARG d   1      17.582  22.611  -8.238  0.00  0.00     0.064 H 
ATOM    121  H   ARG d   1      18.622  23.831  -7.427  0.00  0.00     0.064 H 
BRANCH 119 122
ATOM    122  NE  ARG d   1      18.541  21.953  -6.489  0.00  0.00    -0.227 N 
ATOM    123  CZ  ARG d   1      17.663  21.001  -6.173  0.00  0.00     0.665 C 
ATOM    124  NH1 ARG d   1      16.610  20.726  -6.936  0.00  0.00    -0.235 N 
ATOM    125  NH2 ARG d   1      17.837  20.331  -5.051  0.00  0.00    -0.235 N 
ATOM    126  H   ARG d   1      15.953  19.983  -6.659  0.00  0.00     0.174 HD
ATOM    127  H   ARG d   1      16.451  21.256  -7.805  0.00  0.00     0.174 HD
ATOM    128  H   ARG d   1      18.649  20.534  -4.450  0.00  0.00     0.174 HD
ATOM    129  H   ARG d   1      17.161  19.604  -4.775  0.00  0.00     0.174 HD
ATOM    130  H   ARG d   1      19.301  22.129  -5.816  0.00  0.00     0.177 HD
ENDBRANCH 119 122
ENDBRANCH 116 119
ENDBRANCH 113 116
ENDBRANCH  46 113
BRANCH  84 131
ATOM    131  CB  HIS d   1      23.123  16.563  -9.520  0.00  0.00     0.004 C 
ATOM    132  H   HIS d   1      23.455  17.586  -9.291  0.00  0.00     0.046 H 
ATOM    133  H   HIS d   1      23.617  16.215 -10.439  0.00  0.00     0.046 H 
BRANCH 131 134
ATOM    134  CG  HIS d   1      23.540  15.672  -8.397  0.00  0.00     0.053 A 
ATOM    135  ND1 HIS d   1      23.273  14.321  -8.386  0.00  0.00    -0.247 NA
ATOM    136  CE1 HIS d   1      23.753  13.790  -7.271  0.00  0.00     0.064 A 
ATOM    137  NE2 HIS d   1      24.334  14.745  -6.570  0.00  0.00    -0.359 N 
ATOM    138  H   HIS d   1      23.680  12.743  -6.982  0.00  0.00     0.143 H 
ATOM    139  CD2 HIS d   1      24.221  15.933  -7.255  0.00  0.00     0.002 A 
ATOM    140  H   HIS d   1      24.797  14.621  -5.658  0.00  0.00     0.166 HD
ATOM    141  H   HIS d   1      24.607  16.901  -6.939  0.00  0.00     0.114 H 
ENDBRANCH 131 134
ENDBRANCH  84 131
BRANCH  15 142
ATOM    142  N   81R d   1      24.793  17.838 -14.018  0.00  0.00    -0.346 N 
ATOM    143  C   GLY d   1      24.288  19.065 -14.107  0.00  0.00     0.243 C 
ATOM    144  O   GLY d   1      24.991  20.090 -14.241  0.00  0.00    -0.272 OA
ATOM    145  H   81R d   1      24.173  17.059 -13.927  0.00  0.00     0.163 HD
BRANCH 143 146
ATOM    146  CA  GLY d   1      22.777  19.155 -13.998  0.00  0.00     0.152 C 
ATOM    147  H   GLY d   1      22.329  18.463 -14.726  0.00  0.00     0.090 H 
ATOM    148  H   GLY d   1      22.479  18.861 -12.981  0.00  0.00     0.090 H 
BRANCH 146 149
ATOM    149  N   GLY d   1      22.268  20.525 -14.267  0.00  0.00    -0.071 N 
ATOM    150  H   GLY d   1      21.264  20.533 -14.183  0.00  0.00     0.274 HD
ATOM    151  H   GLY d   1      22.529  20.803 -15.200  0.00  0.00     0.274 HD
ATOM    152  H   GLY d   1      22.666  21.168 -13.601  0.00  0.00     0.274 HD
ENDBRANCH 146 149
ENDBRANCH 143 146
ENDBRANCH  15 142
BRANCH  78 153
ATOM    153  CB  ASN d   1      18.899  12.589 -10.972  0.00  0.00     0.036 C 
ATOM    154  H   ASN d   1      19.351  12.212 -10.043  0.00  0.00     0.051 H 
ATOM    155  H   ASN d   1      18.833  11.772 -11.705  0.00  0.00     0.051 H 
BRANCH 153 156
ATOM    156  CG  ASN d   1      17.496  13.074 -10.663  0.00  0.00     0.217 C 
ATOM    157  OD1 ASN d   1      16.930  13.893 -11.386  0.00  0.00    -0.274 OA
ATOM    158  ND2 ASN d   1      16.918  12.554  -9.583  0.00  0.00    -0.370 N 
ATOM    159  H   ASN d   1      15.993  12.834  -9.327  0.00  0.00     0.159 HD
ATOM    160  H   ASN d   1      17.409  11.883  -9.027  0.00  0.00     0.159 HD
ENDBRANCH 153 156
ENDBRANCH  78 153
BRANCH  30 161
ATOM    161  CB  ALA d   1      27.457  15.834 -18.200  0.00  0.00    -0.049 C 
ATOM    162  H   ALA d   1      27.690  14.977 -18.850  0.00  0.00     0.030 H 
ATOM    163  H   ALA d   1      28.146  16.662 -18.423  0.00  0.00     0.030 H 
ATOM    164  H   ALA d   1      26.422  16.160 -18.381  0.00  0.00     0.030 H 
ENDBRANCH  30 161
BRANCH  72 165
ATOM    165  CB  GLU d   1      22.566  10.146 -12.011  0.00  0.00    -0.029 C 
ATOM    166  H   GLU d   1      21.516  10.061 -12.329  0.00  0.00     0.037 H 
ATOM    167  H   GLU d   1      22.663   9.801 -10.971  0.00  0.00     0.037 H 
BRANCH 165 168
ATOM    168  CG  GLU d   1      23.406   9.230 -12.896  0.00  0.00     0.018 C 
ATOM    169  H   GLU d   1      23.748   9.804 -13.770  0.00  0.00     0.049 H 
ATOM    170  H   GLU d   1      22.777   8.392 -13.231  0.00  0.00     0.049 H 
BRANCH 168 171
ATOM    171  CD  GLU d   1      24.616   8.670 -12.182  0.00  0.00     0.172 C 
ATOM    172  OE1 GLU d   1      24.956   9.160 -11.077  0.00  0.00    -0.648 OA
ATOM    173  OE2 GLU d   1      25.217   7.716 -12.710  0.00  0.00    -0.648 OA
ENDBRANCH 168 171
ENDBRANCH 165 168
ENDBRANCH  72 165
BRANCH  36 174
ATOM    174  CB  LEU d   1      31.219  15.593 -13.731  0.00  0.00    -0.035 C 
ATOM    175  H   LEU d   1      32.276  15.425 -13.479  0.00  0.00     0.037 H 
ATOM    176  H   LEU d   1      30.598  15.420 -12.840  0.00  0.00     0.037 H 
BRANCH 174 177
ATOM    177  CG  LEU d   1      31.042  17.057 -14.184  0.00  0.00    -0.059 C 
ATOM    178  H   LEU d   1      29.989  17.190 -14.473  0.00  0.00     0.038 H 
BRANCH 177 179
ATOM    179  CD1 LEU d   1      31.343  18.042 -13.062  0.00  0.00    -0.073 C 
ATOM    180  H   LEU d   1      31.204  19.070 -13.429  0.00  0.00     0.028 H 
ATOM    181  H   LEU d   1      32.382  17.910 -12.727  0.00  0.00     0.028 H 
ATOM    182  H   LEU d   1      30.660  17.858 -12.220  0.00  0.00     0.028 H 
ENDBRANCH 177 179
BRANCH 177 183
ATOM    183  CD2 LEU d   1      31.904  17.365 -15.402  0.00  0.00    -0.073 C 
ATOM    184  H   LEU d   1      31.676  16.647 -16.203  0.00  0.00     0.028 H 
ATOM    185  H   LEU d   1      32.967  17.285 -15.129  0.00  0.00     0.028 H 
ATOM    186  H   LEU d   1      31.691  18.386 -15.753  0.00  0.00     0.028 H 
ENDBRANCH 177 183
ENDBRANCH 174 177
ENDBRANCH  36 174
BRANCH  42 187
ATOM    187  CB  ARG d   1      29.509   7.007 -11.428  0.00  0.00    -0.036 C 
ATOM    188  H   ARG d   1      28.959   6.499 -10.623  0.00  0.00     0.036 H 
ATOM    189  H   ARG d   1      30.559   7.139 -11.128  0.00  0.00     0.036 H 
BRANCH 187 190
ATOM    190  CG  ARG d   1      29.474   6.115 -12.671  0.00  0.00    -0.048 C 
ATOM    191  H   ARG d   1      29.764   6.709 -13.550  0.00  0.00     0.035 H 
ATOM    192  H   ARG d   1      28.454   5.728 -12.810  0.00  0.00     0.035 H 
BRANCH 190 193
ATOM    193  CD  ARG d   1      30.435   4.946 -12.519  0.00  0.00     0.009 C 
ATOM    194  H   ARG d   1      30.118   4.134 -13.190  0.00  0.00     0.064 H 
ATOM    195  H   ARG d   1      30.406   4.593 -11.477  0.00  0.00     0.064 H 
BRANCH 193 196
ATOM    196  NE  ARG d   1      31.803   5.326 -12.851  0.00  0.00    -0.227 N 
ATOM    197  CZ  ARG d   1      32.799   4.465 -13.033  0.00  0.00     0.665 C 
ATOM    198  NH1 ARG d   1      32.586   3.154 -12.909  0.00  0.00    -0.235 N 
ATOM    199  NH2 ARG d   1      34.006   4.922 -13.355  0.00  0.00    -0.235 N 
ATOM    200  H   ARG d   1      33.361   2.491 -13.051  0.00  0.00     0.174 HD
ATOM    201  H   ARG d   1      31.646   2.805 -12.671  0.00  0.00     0.174 HD
ATOM    202  H   ARG d   1      34.165   5.935 -13.449  0.00  0.00     0.174 HD
ATOM    203  H   ARG d   1      34.782   4.263 -13.510  0.00  0.00     0.174 HD
ATOM    204  H   ARG d   1      32.012   6.330 -12.951  0.00  0.00     0.177 HD
ENDBRANCH 193 196
ENDBRANCH 190 193
ENDBRANCH 187 190
ENDBRANCH  42 187
TORSDOF 30
