REMARK  30 active torsions:
REMARK  status: ('A' for Active; 'I' for Inactive)
REMARK    1  A    between atoms: N_1  and  CA_2 
REMARK    2  A    between atoms: CA_2  and  C_3 
REMARK       I    between atoms: C_3  and  N_5 
REMARK    3  A    between atoms: N_5  and  CA_6 
REMARK    4  A    between atoms: CA_15  and  CB_18 
REMARK    5  A    between atoms: CA_20  and  CB_23 
REMARK    6  A    between atoms: CB_23  and  CG_24 
REMARK    7  A    between atoms: CG_24  and  CD1_25 
REMARK    8  A    between atoms: CG_24  and  CD2_26 
REMARK    9  A    between atoms: CA_32  and  CB_35 
REMARK   10  A    between atoms: CB_35  and  CG_36 
REMARK   11  A    between atoms: CG_36  and  CD_37 
REMARK   12  A    between atoms: CD_37  and  NE_38 
REMARK       I    between atoms: NE_38  and  CZ_39 
REMARK       I    between atoms: CZ_39  and  NH1_40 
REMARK       I    between atoms: CZ_39  and  NH2_41 
REMARK   13  A    between atoms: CA_53  and  CB_56 
REMARK   14  A    between atoms: CB_56  and  CG_57 
REMARK   15  A    between atoms: CG_57  and  CD_58 
REMARK   16  A    between atoms: CA_62  and  CB_65 
REMARK   17  A    between atoms: CB_65  and  CG_66 
REMARK       I    between atoms: CG_66  and  ND2_68 
REMARK   18  A    between atoms: CA_70  and  CB_73 
REMARK   19  A    between atoms: CB_73  and  CG_74 
REMARK   20  A    between atoms: CA_80  and  CB_83 
REMARK   21  A    between atoms: CB_83  and  CG_84 
REMARK   22  A    between atoms: CG_84  and  CD_85 
REMARK   23  A    between atoms: CD_85  and  NE_86 
REMARK       I    between atoms: NE_86  and  CZ_87 
REMARK       I    between atoms: CZ_87  and  NH1_88 
REMARK   24  A    between atoms: CA_91  and  C_92 
REMARK       I    between atoms: C_92  and  N_96 
REMARK   25  A    between atoms: N_96  and  CA_97 
REMARK   26  A    between atoms: CA_97  and  C_98 
REMARK   27  A    between atoms: CA_97  and  CB_100 
REMARK       I    between atoms: C_98  and  N_104 
REMARK   28  A    between atoms: CB_100  and  CG_101 
REMARK   29  A    between atoms: CG_101  and  CD1_102 
REMARK   30  A    between atoms: CG_101  and  CD2_103 
ROOT
ATOM      1  N   GLY d   1      -4.292 -12.270 -14.082  0.00  0.00    -0.351 N 
ATOM      2  CA  GLY d   1      -4.434 -10.830 -13.834  0.00  0.00     0.069 C 
ATOM      3  C   GLY d   1      -3.366 -10.225 -12.933  0.00  0.00     0.236 C 
ATOM      4  O   GLY d   1      -2.371 -10.859 -12.583  0.00  0.00    -0.272 OA
ATOM      5  N   GLY d   1      -1.519  -9.476  -9.802  0.00  0.00    -0.351 N 
ATOM      6  CA  GLY d   1      -1.351 -10.375  -8.661  0.00  0.00     0.069 C 
ATOM      7  C   GLY d   1      -0.565 -11.619  -9.023  0.00  0.00     0.236 C 
ATOM      8  O   GLY d   1      -0.044 -12.294  -8.143  0.00  0.00    -0.272 OA
ATOM      9  H   GLY d   1      -3.401 -12.702 -13.945  0.00  0.00     0.163 HD
ATOM     10  H   GLY d   1      -5.414 -10.659 -13.364  0.00  0.00     0.078 H 
ATOM     11  H   GLY d   1      -4.397 -10.311 -14.803  0.00  0.00     0.078 H 
ATOM     12  H   GLY d   1      -0.707  -9.095 -10.243  0.00  0.00     0.163 HD
ATOM     13  H   GLY d   1      -2.345 -10.677  -8.299  0.00  0.00     0.078 H 
ATOM     14  H   GLY d   1      -0.817  -9.838  -7.863  0.00  0.00     0.078 H 
ATOM     15  CA  81R d   1      -0.702 -17.501 -13.766  0.00  0.00     0.090 C 
ATOM     16  CB  81R d   1      -1.665 -17.101 -12.681  0.00  0.00    -0.025 C 
ATOM     17  CG  81R d   1      -1.160 -16.824 -11.287  0.00  0.00     0.012 C 
ATOM     18  CD1 81R d   1      -1.165 -18.027 -10.366  0.00  0.00    -0.001 C 
ATOM     19  SE  81R d   1      -0.983 -19.495 -11.120  0.00  0.00    -0.096 SA
ATOM     20  SD2 81R d   1      -2.092 -15.776 -10.360  0.00  0.00    -0.092 SA
ATOM     21  C   81R d   1      -0.645 -16.434 -14.672  0.00  0.00     0.241 C 
ATOM     22  O   81R d   1       0.241 -15.562 -14.579  0.00  0.00    -0.271 OA
ATOM     23  H   81R d   1      -1.065 -18.436 -14.219  0.00  0.00     0.087 H 
ATOM     24  H   81R d   1      -2.402 -17.913 -12.596  0.00  0.00     0.038 H 
ATOM     25  H   81R d   1      -2.167 -16.184 -13.024  0.00  0.00     0.038 H 
ATOM     26  H   81R d   1      -0.139 -16.427 -11.388  0.00  0.00     0.059 H 
ATOM     27  H   81R d   1      -2.123 -18.038  -9.826  0.00  0.00     0.051 H 
ATOM     28  H   81R d   1      -0.341 -17.909  -9.647  0.00  0.00     0.051 H 
ATOM     29  N   ALA d   1      -1.560 -16.406 -15.647  0.00  0.00    -0.346 N 
ATOM     30  CA  ALA d   1      -1.724 -15.228 -16.525  0.00  0.00     0.086 C 
ATOM     31  C   ALA d   1      -3.123 -14.647 -16.328  0.00  0.00     0.240 C 
ATOM     32  O   ALA d   1      -3.704 -14.089 -17.245  0.00  0.00    -0.271 OA
ATOM     33  H   ALA d   1      -2.148 -17.203 -15.786  0.00  0.00     0.163 HD
ATOM     34  H   ALA d   1      -0.986 -14.468 -16.230  0.00  0.00     0.086 H 
ATOM     35  N   LEU d   1      -3.632 -14.756 -15.103  0.00  0.00    -0.346 N 
ATOM     36  CA  LEU d   1      -5.042 -14.494 -14.794  0.00  0.00     0.089 C 
ATOM     37  C   LEU d   1      -5.323 -13.018 -14.486  0.00  0.00     0.240 C 
ATOM     38  O   LEU d   1      -6.462 -12.572 -14.630  0.00  0.00    -0.271 OA
ATOM     39  H   LEU d   1      -3.024 -15.030 -14.357  0.00  0.00     0.163 HD
ATOM     40  H   LEU d   1      -5.633 -14.766 -15.681  0.00  0.00     0.087 H 
ATOM     41  N   ARG d   1      -3.594  -8.980 -12.547  0.00  0.00    -0.346 N 
ATOM     42  CA  ARG d   1      -2.731  -8.317 -11.569  0.00  0.00     0.089 C 
ATOM     43  C   ARG d   1      -2.718  -9.151 -10.269  0.00  0.00     0.240 C 
ATOM     44  O   ARG d   1      -3.768  -9.523  -9.734  0.00  0.00    -0.271 OA
ATOM     45  N   ARG d   1       5.185 -18.804  -9.254  0.00  0.00    -0.346 N 
ATOM     46  CA  ARG d   1       5.516 -20.195  -9.518  0.00  0.00     0.089 C 
ATOM     47  C   ARG d   1       4.200 -20.947  -9.494  0.00  0.00     0.241 C 
ATOM     48  O   ARG d   1       3.553 -21.030  -8.451  0.00  0.00    -0.271 OA
ATOM     49  H   ARG d   1      -4.372  -8.482 -12.931  0.00  0.00     0.163 HD
ATOM     50  H   ARG d   1      -1.707  -8.278 -11.968  0.00  0.00     0.087 H 
ATOM     51  H   ARG d   1       4.998 -18.521  -8.313  0.00  0.00     0.163 HD
ATOM     52  H   ARG d   1       5.994 -20.292 -10.504  0.00  0.00     0.087 H 
ATOM     53  N   CYS d   1      -0.445 -11.874 -10.327  0.00  0.00    -0.346 N 
ATOM     54  CA  CYS d   1       0.123 -13.105 -10.878  0.00  0.00     0.098 C 
ATOM     55  C   CYS d   1       1.530 -12.962 -11.429  0.00  0.00     0.241 C 
ATOM     56  O   CYS d   1       2.146 -13.963 -11.800  0.00  0.00    -0.271 OA
ATOM     57  CB  CYS d   1      -0.751 -13.612 -12.029  0.00  0.00     0.013 C 
ATOM     58  SG  CYS d   1      -2.404 -14.163 -11.544  0.00  0.00    -0.095 SA
ATOM     59  N   CYS d   1       3.779 -21.473 -10.635  0.00  0.00    -0.345 N 
ATOM     60  CA  CYS d   1       2.440 -22.067 -10.712  0.00  0.00     0.098 C 
ATOM     61  CB  CYS d   1       1.525 -21.189 -11.545  0.00  0.00     0.013 C 
ATOM     62  SG  CYS d   1       0.998 -19.689 -10.678  0.00  0.00    -0.095 SA
ATOM     63  H   CYS d   1      -0.764 -11.178 -10.970  0.00  0.00     0.163 HD
ATOM     64  H   CYS d   1       0.140 -13.856 -10.075  0.00  0.00     0.088 H 
ATOM     65  H   CYS d   1      -0.234 -14.459 -12.503  0.00  0.00     0.053 H 
ATOM     66  H   CYS d   1      -0.863 -12.796 -12.758  0.00  0.00     0.053 H 
ATOM     67  H   CYS d   1       4.372 -21.465 -11.440  0.00  0.00     0.163 HD
ATOM     68  H   CYS d   1       2.032 -22.109  -9.691  0.00  0.00     0.088 H 
ATOM     69  H   CYS d   1       0.631 -21.771 -11.814  0.00  0.00     0.053 H 
ATOM     70  H   CYS d   1       2.060 -20.895 -12.460  0.00  0.00     0.053 H 
ATOM     71  N   GLU d   1       2.046 -11.739 -11.506  0.00  0.00    -0.346 N 
ATOM     72  CA  GLU d   1       3.365 -11.528 -12.104  0.00  0.00     0.090 C 
ATOM     73  C   GLU d   1       4.432 -12.336 -11.350  0.00  0.00     0.241 C 
ATOM     74  O   GLU d   1       4.446 -12.346 -10.120  0.00  0.00    -0.271 OA
ATOM     75  H   GLU d   1       1.530 -10.959 -11.153  0.00  0.00     0.163 HD
ATOM     76  H   GLU d   1       3.335 -11.873 -13.148  0.00  0.00     0.087 H 
ATOM     77  N   ASN d   1       5.295 -13.029 -12.086  0.00  0.00    -0.346 N 
ATOM     78  CA  ASN d   1       6.513 -13.635 -11.500  0.00  0.00     0.097 C 
ATOM     79  C   ASN d   1       6.151 -14.667 -10.410  0.00  0.00     0.241 C 
ATOM     80  O   ASN d   1       6.742 -14.684  -9.316  0.00  0.00    -0.271 OA
ATOM     81  H   ASN d   1       5.117 -13.145 -13.063  0.00  0.00     0.163 HD
ATOM     82  H   ASN d   1       7.065 -14.154 -12.298  0.00  0.00     0.088 H 
ATOM     83  N   HIS d   1       5.149 -15.496 -10.708  0.00  0.00    -0.346 N 
ATOM     84  CA  HIS d   1       4.684 -16.511  -9.777  0.00  0.00     0.094 C 
ATOM     85  C   HIS d   1       5.123 -17.898 -10.222  0.00  0.00     0.241 C 
ATOM     86  O   HIS d   1       5.416 -18.130 -11.393  0.00  0.00    -0.271 OA
ATOM     87  H   HIS d   1       4.704 -15.417 -11.600  0.00  0.00     0.163 HD
ATOM     88  H   HIS d   1       5.141 -16.308  -8.797  0.00  0.00     0.088 H 
ENDROOT
BRANCH  60  89
ATOM     89  C   CYS d   1       2.475 -23.482 -11.248  0.00  0.00     0.241 C 
ATOM     90  O   CYS d   1       2.446 -23.718 -12.459  0.00  0.00    -0.271 OA
ATOM     91  N   LEU d   1       2.497 -24.417 -10.310  0.00  0.00    -0.346 N 
ATOM     92  H   LEU d   1       2.312 -24.151  -9.364  0.00  0.00     0.163 HD
BRANCH  91  93
ATOM     93  CA  LEU d   1       2.778 -25.809 -10.598  0.00  0.00     0.089 C 
ATOM     94  H   LEU d   1       3.451 -25.882 -11.465  0.00  0.00     0.087 H 
BRANCH  93  95
ATOM     95  C   LEU d   1       1.446 -26.467 -10.923  0.00  0.00     0.238 C 
ATOM     96  O   LEU d   1       1.257 -27.014 -12.005  0.00  0.00    -0.271 OA
ATOM     97  N   NH2 d   1       0.490 -26.369  -9.962  0.00  0.00    -0.368 N 
ATOM     98  H   NH2 d   1      -0.410 -26.779 -10.109  0.00  0.00     0.159 HD
ATOM     99  H   NH2 d   1       0.687 -25.887  -9.108  0.00  0.00     0.159 HD
ENDBRANCH  93  95
BRANCH  93 100
ATOM    100  CB  LEU d   1       3.442 -26.491  -9.388  0.00  0.00    -0.035 C 
ATOM    101  H   LEU d   1       3.998 -27.355  -9.781  0.00  0.00     0.037 H 
ATOM    102  H   LEU d   1       2.626 -26.844  -8.740  0.00  0.00     0.037 H 
BRANCH 100 103
ATOM    103  CG  LEU d   1       4.421 -25.715  -8.479  0.00  0.00    -0.059 C 
ATOM    104  H   LEU d   1       4.974 -26.469  -7.900  0.00  0.00     0.038 H 
BRANCH 103 105
ATOM    105  CD1 LEU d   1       5.444 -24.944  -9.304  0.00  0.00    -0.073 C 
ATOM    106  H   LEU d   1       6.125 -24.403  -8.631  0.00  0.00     0.028 H 
ATOM    107  H   LEU d   1       4.924 -24.225  -9.954  0.00  0.00     0.028 H 
ATOM    108  H   LEU d   1       6.021 -25.647  -9.922  0.00  0.00     0.028 H 
ENDBRANCH 103 105
BRANCH 103 109
ATOM    109  CD2 LEU d   1       3.732 -24.801  -7.460  0.00  0.00    -0.073 C 
ATOM    110  H   LEU d   1       3.001 -25.384  -6.880  0.00  0.00     0.028 H 
ATOM    111  H   LEU d   1       3.216 -23.986  -7.989  0.00  0.00     0.028 H 
ATOM    112  H   LEU d   1       4.485 -24.377  -6.779  0.00  0.00     0.028 H 
ENDBRANCH 103 109
ENDBRANCH 100 103
ENDBRANCH  93 100
ENDBRANCH  91  93
ENDBRANCH  60  89
BRANCH  46 113
ATOM    113  CB  ARG d   1       6.454 -20.740  -8.446  0.00  0.00    -0.036 C 
ATOM    114  H   ARG d   1       5.844 -21.135  -7.620  0.00  0.00     0.036 H 
ATOM    115  H   ARG d   1       7.078 -19.912  -8.078  0.00  0.00     0.036 H 
BRANCH 113 116
ATOM    116  CG  ARG d   1       7.371 -21.850  -8.938  0.00  0.00    -0.048 C 
ATOM    117  H   ARG d   1       8.200 -21.400  -9.504  0.00  0.00     0.035 H 
ATOM    118  H   ARG d   1       6.797 -22.518  -9.597  0.00  0.00     0.035 H 
BRANCH 116 119
ATOM    119  CD  ARG d   1       7.950 -22.672  -7.790  0.00  0.00     0.009 C 
ATOM    120  H   ARG d   1       8.966 -22.997  -8.061  0.00  0.00     0.064 H 
ATOM    121  H   ARG d   1       7.314 -23.555  -7.627  0.00  0.00     0.064 H 
BRANCH 119 122
ATOM    122  NE  ARG d   1       8.014 -21.905  -6.559  0.00  0.00    -0.227 N 
ATOM    123  CZ  ARG d   1       8.878 -20.924  -6.314  0.00  0.00     0.665 C 
ATOM    124  NH1 ARG d   1       9.789 -20.554  -7.216  0.00  0.00    -0.235 N 
ATOM    125  NH2 ARG d   1       8.825 -20.298  -5.151  0.00  0.00    -0.235 N 
ATOM    126  H   ARG d   1      10.447 -19.791  -7.001  0.00  0.00     0.174 HD
ATOM    127  H   ARG d   1       9.835 -21.031  -8.127  0.00  0.00     0.174 HD
ATOM    128  H   ARG d   1       8.126 -20.576  -4.448  0.00  0.00     0.174 HD
ATOM    129  H   ARG d   1       9.483 -19.532  -4.948  0.00  0.00     0.174 HD
ATOM    130  H   ARG d   1       7.338 -22.139  -5.818  0.00  0.00     0.177 HD
ENDBRANCH 119 122
ENDBRANCH 116 119
ENDBRANCH 113 116
ENDBRANCH  46 113
BRANCH  84 131
ATOM    131  CB  HIS d   1       3.163 -16.449  -9.611  0.00  0.00     0.004 C 
ATOM    132  H   HIS d   1       2.786 -17.473  -9.475  0.00  0.00     0.046 H 
ATOM    133  H   HIS d   1       2.731 -16.018 -10.526  0.00  0.00     0.046 H 
BRANCH 131 134
ATOM    134  CG  HIS d   1       2.721 -15.624  -8.446  0.00  0.00     0.053 A 
ATOM    135  ND1 HIS d   1       2.957 -14.266  -8.360  0.00  0.00    -0.247 NA
ATOM    136  CE1 HIS d   1       2.472 -13.809  -7.218  0.00  0.00     0.064 A 
ATOM    137  NE2 HIS d   1       1.929 -14.817  -6.560  0.00  0.00    -0.359 N 
ATOM    138  H   HIS d   1       2.513 -12.775  -6.877  0.00  0.00     0.143 H 
ATOM    139  CD2 HIS d   1       2.081 -15.966  -7.304  0.00  0.00     0.002 A 
ATOM    140  H   HIS d   1       1.468 -14.754  -5.641  0.00  0.00     0.166 HD
ATOM    141  H   HIS d   1       1.748 -16.965  -7.025  0.00  0.00     0.114 H 
ENDBRANCH 131 134
ENDBRANCH  84 131
BRANCH  15 142
ATOM    142  N   81R d   1       0.758 -17.592 -13.514  0.00  0.00    -0.346 N 
ATOM    143  C   GLY d   1       1.467 -18.697 -13.767  0.00  0.00     0.243 C 
ATOM    144  O   GLY d   1       0.955 -19.786 -14.056  0.00  0.00    -0.272 OA
ATOM    145  H   81R d   1       1.231 -16.794 -13.140  0.00  0.00     0.163 HD
BRANCH 143 146
ATOM    146  CA  GLY d   1       2.972 -18.574 -13.610  0.00  0.00     0.152 C 
ATOM    147  H   GLY d   1       3.308 -17.689 -14.170  0.00  0.00     0.090 H 
ATOM    148  H   GLY d   1       3.199 -18.441 -12.542  0.00  0.00     0.090 H 
BRANCH 146 149
ATOM    149  N   GLY d   1       3.728 -19.758 -14.107  0.00  0.00    -0.071 N 
ATOM    150  H   GLY d   1       4.715 -19.607 -13.972  0.00  0.00     0.274 HD
ATOM    151  H   GLY d   1       3.540 -19.889 -15.088  0.00  0.00     0.274 HD
ATOM    152  H   GLY d   1       3.440 -20.579 -13.597  0.00  0.00     0.274 HD
ENDBRANCH 146 149
ENDBRANCH 143 146
ENDBRANCH  15 142
BRANCH  78 153
ATOM    153  CB  ASN d   1       7.417 -12.516 -10.918  0.00  0.00     0.036 C 
ATOM    154  H   ASN d   1       6.977 -12.170  -9.971  0.00  0.00     0.051 H 
ATOM    155  H   ASN d   1       7.445 -11.682 -11.635  0.00  0.00     0.051 H 
BRANCH 153 156
ATOM    156  CG  ASN d   1       8.852 -12.970 -10.648  0.00  0.00     0.217 C 
ATOM    157  OD1 ASN d   1       9.433 -13.698 -11.441  0.00  0.00    -0.274 OA
ATOM    158  ND2 ASN d   1       9.436 -12.509  -9.529  0.00  0.00    -0.370 N 
ATOM    159  H   ASN d   1      10.374 -12.777  -9.308  0.00  0.00     0.159 HD
ATOM    160  H   ASN d   1       8.933 -11.898  -8.918  0.00  0.00     0.159 HD
ENDBRANCH 153 156
ENDBRANCH  78 153
BRANCH  30 161
ATOM    161  CB  ALA d   1      -1.474 -15.590 -17.995  0.00  0.00    -0.049 C 
ATOM    162  H   ALA d   1      -1.603 -14.694 -18.620  0.00  0.00     0.030 H 
ATOM    163  H   ALA d   1      -2.191 -16.363 -18.309  0.00  0.00     0.030 H 
ATOM    164  H   ALA d   1      -0.449 -15.972 -18.109  0.00  0.00     0.030 H 
ENDBRANCH  30 161
BRANCH  72 165
ATOM    165  CB  GLU d   1       3.728 -10.046 -12.090  0.00  0.00    -0.029 C 
ATOM    166  H   GLU d   1       4.754  -9.937 -12.472  0.00  0.00     0.037 H 
ATOM    167  H   GLU d   1       3.684  -9.688 -11.051  0.00  0.00     0.037 H 
BRANCH 165 168
ATOM    168  CG  GLU d   1       2.808  -9.178 -12.934  0.00  0.00     0.018 C 
ATOM    169  H   GLU d   1       2.408  -9.792 -13.754  0.00  0.00     0.049 H 
ATOM    170  H   GLU d   1       3.399  -8.349 -13.351  0.00  0.00     0.049 H 
BRANCH 168 171
ATOM    171  CD  GLU d   1       1.657  -8.601 -12.170  0.00  0.00     0.172 C 
ATOM    172  OE1 GLU d   1       1.342  -9.090 -11.056  0.00  0.00    -0.648 OA
ATOM    173  OE2 GLU d   1       1.091  -7.621 -12.673  0.00  0.00    -0.648 OA
ENDBRANCH 168 171
ENDBRANCH 165 168
ENDBRANCH  72 165
BRANCH  36 174
ATOM    174  CB  LEU d   1      -5.499 -15.381 -13.623  0.00  0.00    -0.035 C 
ATOM    175  H   LEU d   1      -6.580 -15.232 -13.485  0.00  0.00     0.037 H 
ATOM    176  H   LEU d   1      -4.965 -15.052 -12.719  0.00  0.00     0.037 H 
BRANCH 174 177
ATOM    177  CG  LEU d   1      -5.246 -16.887 -13.803  0.00  0.00    -0.059 C 
ATOM    178  H   LEU d   1      -4.163 -17.030 -13.936  0.00  0.00     0.038 H 
BRANCH 177 179
ATOM    179  CD1 LEU d   1      -5.674 -17.682 -12.584  0.00  0.00    -0.073 C 
ATOM    180  H   LEU d   1      -5.476 -18.750 -12.755  0.00  0.00     0.028 H 
ATOM    181  H   LEU d   1      -6.749 -17.532 -12.408  0.00  0.00     0.028 H 
ATOM    182  H   LEU d   1      -5.107 -17.340 -11.706  0.00  0.00     0.028 H 
ENDBRANCH 177 179
BRANCH 177 183
ATOM    183  CD2 LEU d   1      -5.947 -17.416 -15.045  0.00  0.00    -0.073 C 
ATOM    184  H   LEU d   1      -5.629 -16.833 -15.922  0.00  0.00     0.028 H 
ATOM    185  H   LEU d   1      -7.036 -17.324 -14.919  0.00  0.00     0.028 H 
ATOM    186  H   LEU d   1      -5.683 -18.474 -15.193  0.00  0.00     0.028 H 
ENDBRANCH 177 183
ENDBRANCH 174 177
ENDBRANCH  36 174
BRANCH  42 187
ATOM    187  CB  ARG d   1      -3.202  -6.887 -11.329  0.00  0.00    -0.036 C 
ATOM    188  H   ARG d   1      -2.574  -6.445 -10.541  0.00  0.00     0.036 H 
ATOM    189  H   ARG d   1      -4.247  -6.921 -10.988  0.00  0.00     0.036 H 
BRANCH 187 190
ATOM    190  CG  ARG d   1      -3.130  -5.986 -12.559  0.00  0.00    -0.048 C 
ATOM    191  H   ARG d   1      -3.351  -6.584 -13.455  0.00  0.00     0.035 H 
ATOM    192  H   ARG d   1      -2.116  -5.567 -12.638  0.00  0.00     0.035 H 
BRANCH 190 193
ATOM    193  CD  ARG d   1      -4.137  -4.839 -12.464  0.00  0.00     0.009 C 
ATOM    194  H   ARG d   1      -3.827  -4.049 -13.163  0.00  0.00     0.064 H 
ATOM    195  H   ARG d   1      -4.118  -4.447 -11.436  0.00  0.00     0.064 H 
BRANCH 193 196
ATOM    196  NE  ARG d   1      -5.523  -5.226 -12.787  0.00  0.00    -0.227 N 
ATOM    197  CZ  ARG d   1      -6.528  -4.363 -12.968  0.00  0.00     0.665 C 
ATOM    198  NH1 ARG d   1      -6.324  -3.061 -12.857  0.00  0.00    -0.235 N 
ATOM    199  NH2 ARG d   1      -7.743  -4.794 -13.259  0.00  0.00    -0.235 N 
ATOM    200  H   ARG d   1      -7.104  -2.404 -12.998  0.00  0.00     0.174 HD
ATOM    201  H   ARG d   1      -5.385  -2.704 -12.629  0.00  0.00     0.174 HD
ATOM    202  H   ARG d   1      -7.923  -5.804 -13.350  0.00  0.00     0.174 HD
ATOM    203  H   ARG d   1      -8.510  -4.120 -13.395  0.00  0.00     0.174 HD
ATOM    204  H   ARG d   1      -5.731  -6.231 -12.880  0.00  0.00     0.177 HD
ENDBRANCH 193 196
ENDBRANCH 190 193
ENDBRANCH 187 190
ENDBRANCH  42 187
TORSDOF 30
