REMARK  29 active torsions:
REMARK  status: ('A' for Active; 'I' for Inactive)
REMARK    1  A    between atoms: N_1  and  CA_2 
REMARK    2  A    between atoms: CA_2  and  C_3 
REMARK       I    between atoms: C_3  and  N_5 
REMARK    3  A    between atoms: N_5  and  CA_6 
REMARK    4  A    between atoms: CA_15  and  CB_18 
REMARK    5  A    between atoms: CB_18  and  CG_19 
REMARK    6  A    between atoms: CG_19  and  CD1_20 
REMARK    7  A    between atoms: CG_19  and  CD2_21 
REMARK    8  A    between atoms: CA_27  and  CB_30 
REMARK    9  A    between atoms: CB_30  and  CG_31 
REMARK   10  A    between atoms: CG_31  and  CD_32 
REMARK   11  A    between atoms: CD_32  and  NE_33 
REMARK       I    between atoms: NE_33  and  CZ_34 
REMARK       I    between atoms: CZ_34  and  NH1_35 
REMARK       I    between atoms: CZ_34  and  NH2_36 
REMARK   12  A    between atoms: CA_48  and  CB_51 
REMARK   13  A    between atoms: CB_51  and  CG_52 
REMARK   14  A    between atoms: CG_52  and  CD_53 
REMARK   15  A    between atoms: CA_57  and  CB_60 
REMARK   16  A    between atoms: CB_60  and  CG_61 
REMARK       I    between atoms: CG_61  and  ND2_63 
REMARK   17  A    between atoms: CA_65  and  CB_68 
REMARK   18  A    between atoms: CB_68  and  CG_69 
REMARK   19  A    between atoms: CA_75  and  CB_78 
REMARK   20  A    between atoms: CB_78  and  CG_79 
REMARK   21  A    between atoms: CG_79  and  CD_80 
REMARK   22  A    between atoms: CD_80  and  NE_81 
REMARK       I    between atoms: NE_81  and  CZ_82 
REMARK       I    between atoms: CZ_82  and  NH1_83 
REMARK   23  A    between atoms: CA_86  and  C_87 
REMARK       I    between atoms: C_87  and  N_91 
REMARK   24  A    between atoms: N_91  and  CA_92 
REMARK   25  A    between atoms: CA_92  and  C_93 
REMARK   26  A    between atoms: CA_92  and  CB_95 
REMARK       I    between atoms: C_93  and  N_99 
REMARK   27  A    between atoms: CB_95  and  CG_96 
REMARK   28  A    between atoms: CG_96  and  CD1_97 
REMARK   29  A    between atoms: CG_96  and  CD2_98 
ROOT
ATOM      1  N   GLY d   1      29.927  12.407 -14.032  0.00  0.00    -0.351 N 
ATOM      2  CA  GLY d   1      30.190  10.970 -13.890  0.00  0.00     0.069 C 
ATOM      3  C   GLY d   1      29.300  10.252 -12.890  0.00  0.00     0.236 C 
ATOM      4  O   GLY d   1      28.284  10.778 -12.450  0.00  0.00    -0.272 OA
ATOM      5  N   GLY d   1      27.873   9.226  -9.648  0.00  0.00    -0.351 N 
ATOM      6  CA  GLY d   1      27.750   9.991  -8.422  0.00  0.00     0.069 C 
ATOM      7  C   GLY d   1      27.006  11.289  -8.636  0.00  0.00     0.236 C 
ATOM      8  O   GLY d   1      26.519  11.895  -7.673  0.00  0.00    -0.272 OA
ATOM      9  H   GLY d   1      29.160  12.705 -14.600  0.00  0.00     0.163 HD
ATOM     10  H   GLY d   1      31.235  10.844 -13.569  0.00  0.00     0.078 H 
ATOM     11  H   GLY d   1      30.049  10.498 -14.873  0.00  0.00     0.078 H 
ATOM     12  H   GLY d   1      27.046   8.841 -10.058  0.00  0.00     0.163 HD
ATOM     13  H   GLY d   1      28.757  10.218  -8.042  0.00  0.00     0.078 H 
ATOM     14  H   GLY d   1      27.206   9.388  -7.680  0.00  0.00     0.078 H 
ATOM     15  CA  81R d   1      30.647  17.437 -11.263  0.00  0.00     0.090 C 
ATOM     16  CB  81R d   1      30.313  16.804  -9.959  0.00  0.00    -0.025 C 
ATOM     17  CG  81R d   1      28.881  16.550  -9.584  0.00  0.00     0.012 C 
ATOM     18  CD1 81R d   1      28.324  17.716  -8.792  0.00  0.00    -0.001 C 
ATOM     19  SE  81R d   1      26.640  17.750  -8.846  0.00  0.00    -0.096 SA
ATOM     20  SD2 81R d   1      28.685  15.120  -8.694  0.00  0.00    -0.092 SA
ATOM     21  C   81R d   1      30.093  16.682 -12.300  0.00  0.00     0.241 C 
ATOM     22  O   81R d   1      28.959  16.922 -12.744  0.00  0.00    -0.271 OA
ATOM     23  H   81R d   1      31.742  17.453 -11.361  0.00  0.00     0.087 H 
ATOM     24  H   81R d   1      30.735  17.452  -9.176  0.00  0.00     0.038 H 
ATOM     25  H   81R d   1      30.822  15.829  -9.941  0.00  0.00     0.038 H 
ATOM     26  H   81R d   1      28.302  16.454 -10.514  0.00  0.00     0.059 H 
ATOM     27  H   81R d   1      28.714  18.654  -9.214  0.00  0.00     0.051 H 
ATOM     28  H   81R d   1      28.646  17.623  -7.744  0.00  0.00     0.051 H 
ATOM     29  N   LEU d   1      30.857  15.694 -12.780  0.00  0.00    -0.346 N 
ATOM     30  CA  LEU d   1      30.438  14.773 -13.838  0.00  0.00     0.089 C 
ATOM     31  C   LEU d   1      30.678  13.326 -13.429  0.00  0.00     0.240 C 
ATOM     32  O   LEU d   1      31.550  13.051 -12.601  0.00  0.00    -0.271 OA
ATOM     33  H   LEU d   1      31.771  15.577 -12.392  0.00  0.00     0.163 HD
ATOM     34  H   LEU d   1      29.370  14.930 -14.051  0.00  0.00     0.087 H 
ATOM     35  N   ARG d   1      29.682   9.022 -12.562  0.00  0.00    -0.346 N 
ATOM     36  CA  ARG d   1      28.985   8.243 -11.550  0.00  0.00     0.089 C 
ATOM     37  C   ARG d   1      29.037   9.017 -10.247  0.00  0.00     0.240 C 
ATOM     38  O   ARG d   1      30.105   9.422  -9.816  0.00  0.00    -0.271 OA
ATOM     39  N   ARG d   1      21.545  19.044  -9.776  0.00  0.00    -0.346 N 
ATOM     40  CA  ARG d   1      21.588  20.398 -10.319  0.00  0.00     0.089 C 
ATOM     41  C   ARG d   1      22.996  20.818 -10.770  0.00  0.00     0.241 C 
ATOM     42  O   ARG d   1      23.132  21.606 -11.695  0.00  0.00    -0.271 OA
ATOM     43  H   ARG d   1      30.472   8.620 -13.025  0.00  0.00     0.163 HD
ATOM     44  H   ARG d   1      27.938   8.098 -11.854  0.00  0.00     0.087 H 
ATOM     45  H   ARG d   1      21.270  18.908  -8.824  0.00  0.00     0.163 HD
ATOM     46  H   ARG d   1      20.933  20.426 -11.202  0.00  0.00     0.087 H 
ATOM     47  N   CYS d   1      26.908  11.709  -9.898  0.00  0.00    -0.346 N 
ATOM     48  CA  CYS d   1      26.382  13.020 -10.264  0.00  0.00     0.098 C 
ATOM     49  C   CYS d   1      25.041  13.004 -11.021  0.00  0.00     0.241 C 
ATOM     50  O   CYS d   1      24.493  14.064 -11.337  0.00  0.00    -0.271 OA
ATOM     51  CB  CYS d   1      27.436  13.763 -11.091  0.00  0.00     0.013 C 
ATOM     52  SG  CYS d   1      29.034  13.860 -10.244  0.00  0.00    -0.095 SA
ATOM     53  N   CYS d   1      24.043  20.281 -10.155  0.00  0.00    -0.345 N 
ATOM     54  CA  CYS d   1      25.410  20.671 -10.522  0.00  0.00     0.098 C 
ATOM     55  CB  CYS d   1      26.288  20.795  -9.275  0.00  0.00     0.013 C 
ATOM     56  SG  CYS d   1      26.051  19.496  -8.053  0.00  0.00    -0.095 SA
ATOM     57  H   CYS d   1      27.209  11.096 -10.628  0.00  0.00     0.163 HD
ATOM     58  H   CYS d   1      26.218  13.578  -9.330  0.00  0.00     0.088 H 
ATOM     59  H   CYS d   1      27.077  14.784 -11.286  0.00  0.00     0.053 H 
ATOM     60  H   CYS d   1      27.574  13.234 -12.046  0.00  0.00     0.053 H 
ATOM     61  H   CYS d   1      23.899  19.603  -9.434  0.00  0.00     0.163 HD
ATOM     62  H   CYS d   1      25.347  21.666 -10.987  0.00  0.00     0.088 H 
ATOM     63  H   CYS d   1      26.067  21.760  -8.796  0.00  0.00     0.053 H 
ATOM     64  H   CYS d   1      27.340  20.776  -9.594  0.00  0.00     0.053 H 
ATOM     65  N   GLU d   1      24.500  11.819 -11.295  0.00  0.00    -0.346 N 
ATOM     66  CA  GLU d   1      23.204  11.705 -11.970  0.00  0.00     0.090 C 
ATOM     67  C   GLU d   1      22.143  12.501 -11.232  0.00  0.00     0.241 C 
ATOM     68  O   GLU d   1      22.123  12.510  -9.988  0.00  0.00    -0.271 OA
ATOM     69  H   GLU d   1      24.989  10.987 -11.034  0.00  0.00     0.163 HD
ATOM     70  H   GLU d   1      23.304  12.089 -12.996  0.00  0.00     0.087 H 
ATOM     71  N   ASN d   1      21.257  13.155 -11.987  0.00  0.00    -0.346 N 
ATOM     72  CA  ASN d   1      20.068  13.785 -11.408  0.00  0.00     0.097 C 
ATOM     73  C   ASN d   1      20.444  14.829 -10.343  0.00  0.00     0.241 C 
ATOM     74  O   ASN d   1      19.805  14.915  -9.297  0.00  0.00    -0.271 OA
ATOM     75  H   ASN d   1      21.409  13.216 -12.973  0.00  0.00     0.163 HD
ATOM     76  H   ASN d   1      19.521  14.302 -12.210  0.00  0.00     0.088 H 
ATOM     77  N   HIS d   1      21.517  15.579 -10.615  0.00  0.00    -0.346 N 
ATOM     78  CA  HIS d   1      21.971  16.679  -9.768  0.00  0.00     0.094 C 
ATOM     79  C   HIS d   1      21.862  17.990 -10.517  0.00  0.00     0.241 C 
ATOM     80  O   HIS d   1      22.122  18.056 -11.725  0.00  0.00    -0.271 OA
ATOM     81  H   HIS d   1      22.038  15.376 -11.444  0.00  0.00     0.163 HD
ATOM     82  H   HIS d   1      21.351  16.712  -8.860  0.00  0.00     0.088 H 
ENDROOT
BRANCH  54  83
ATOM     83  C   CYS d   1      26.070  19.737 -11.544  0.00  0.00     0.241 C 
ATOM     84  O   CYS d   1      27.276  19.818 -11.757  0.00  0.00    -0.271 OA
ATOM     85  N   LEU d   1      25.285  18.862 -12.173  0.00  0.00    -0.346 N 
ATOM     86  H   LEU d   1      24.305  18.857 -11.971  0.00  0.00     0.163 HD
BRANCH  85  87
ATOM     87  CA  LEU d   1      25.812  17.911 -13.147  0.00  0.00     0.089 C 
ATOM     88  H   LEU d   1      26.628  17.339 -12.682  0.00  0.00     0.087 H 
BRANCH  87  89
ATOM     89  C   LEU d   1      26.356  18.645 -14.379  0.00  0.00     0.238 C 
ATOM     90  O   LEU d   1      25.716  19.572 -14.873  0.00  0.00    -0.271 OA
ATOM     91  N   NH2 d   1      27.542  18.213 -14.878  0.00  0.00    -0.368 N 
ATOM     92  H   NH2 d   1      27.939  18.659 -15.680  0.00  0.00     0.159 HD
ATOM     93  H   NH2 d   1      28.019  17.449 -14.443  0.00  0.00     0.159 HD
ENDBRANCH  87  89
BRANCH  87  94
ATOM     94  CB  LEU d   1      24.707  16.949 -13.575  0.00  0.00    -0.035 C 
ATOM     95  H   LEU d   1      23.845  17.562 -13.875  0.00  0.00     0.037 H 
ATOM     96  H   LEU d   1      24.441  16.351 -12.691  0.00  0.00     0.037 H 
BRANCH  94  97
ATOM     97  CG  LEU d   1      24.977  15.964 -14.719  0.00  0.00    -0.059 C 
ATOM     98  H   LEU d   1      25.261  16.544 -15.609  0.00  0.00     0.038 H 
BRANCH  97  99
ATOM     99  CD1 LEU d   1      26.114  15.020 -14.396  0.00  0.00    -0.073 C 
ATOM    100  H   LEU d   1      26.272  14.334 -15.241  0.00  0.00     0.028 H 
ATOM    101  H   LEU d   1      25.865  14.440 -13.495  0.00  0.00     0.028 H 
ATOM    102  H   LEU d   1      27.032  15.599 -14.217  0.00  0.00     0.028 H 
ENDBRANCH  97  99
BRANCH  97 103
ATOM    103  CD2 LEU d   1      23.709  15.185 -15.039  0.00  0.00    -0.073 C 
ATOM    104  H   LEU d   1      22.895  15.888 -15.271  0.00  0.00     0.028 H 
ATOM    105  H   LEU d   1      23.427  14.571 -14.171  0.00  0.00     0.028 H 
ATOM    106  H   LEU d   1      23.888  14.533 -15.907  0.00  0.00     0.028 H 
ENDBRANCH  97 103
ENDBRANCH  94  97
ENDBRANCH  87  94
ENDBRANCH  85  87
ENDBRANCH  54  83
BRANCH  40 107
ATOM    107  CB  ARG d   1      21.043  21.388  -9.285  0.00  0.00    -0.036 C 
ATOM    108  H   ARG d   1      21.417  22.393  -9.530  0.00  0.00     0.036 H 
ATOM    109  H   ARG d   1      21.407  21.093  -8.290  0.00  0.00     0.036 H 
BRANCH 107 110
ATOM    110  CG  ARG d   1      19.527  21.430  -9.253  0.00  0.00    -0.048 C 
ATOM    111  H   ARG d   1      19.147  20.421  -9.034  0.00  0.00     0.035 H 
ATOM    112  H   ARG d   1      19.158  21.756 -10.237  0.00  0.00     0.035 H 
BRANCH 110 113
ATOM    113  CD  ARG d   1      19.015  22.391  -8.192  0.00  0.00     0.009 C 
ATOM    114  H   ARG d   1      17.932  22.535  -8.319  0.00  0.00     0.064 H 
ATOM    115  H   ARG d   1      19.528  23.358  -8.295  0.00  0.00     0.064 H 
BRANCH 113 116
ATOM    116  NE  ARG d   1      19.279  21.840  -6.875  0.00  0.00    -0.227 N 
ATOM    117  CZ  ARG d   1      18.554  20.877  -6.305  0.00  0.00     0.665 C 
ATOM    118  NH1 ARG d   1      17.487  20.368  -6.921  0.00  0.00    -0.235 N 
ATOM    119  NH2 ARG d   1      18.896  20.427  -5.107  0.00  0.00    -0.235 N 
ATOM    120  H   ARG d   1      16.937  19.624  -6.468  0.00  0.00     0.174 HD
ATOM    121  H   ARG d   1      17.213  20.718  -7.850  0.00  0.00     0.174 HD
ATOM    122  H   ARG d   1      19.719  20.817  -4.626  0.00  0.00     0.174 HD
ATOM    123  H   ARG d   1      18.338  19.688  -4.656  0.00  0.00     0.174 HD
ATOM    124  H   ARG d   1      20.078  22.218  -6.346  0.00  0.00     0.177 HD
ENDBRANCH 113 116
ENDBRANCH 110 113
ENDBRANCH 107 110
ENDBRANCH  40 107
BRANCH  78 125
ATOM    125  CB  HIS d   1      23.446  16.520  -9.381  0.00  0.00     0.004 C 
ATOM    126  H   HIS d   1      23.851  17.516  -9.150  0.00  0.00     0.046 H 
ATOM    127  H   HIS d   1      23.984  16.096 -10.241  0.00  0.00     0.046 H 
BRANCH 125 128
ATOM    128  CG  HIS d   1      23.679  15.634  -8.199  0.00  0.00     0.053 A 
ATOM    129  ND1 HIS d   1      23.437  14.276  -8.223  0.00  0.00    -0.247 NA
ATOM    130  CE1 HIS d   1      23.751  13.756  -7.046  0.00  0.00     0.064 A 
ATOM    131  NE2 HIS d   1      24.193  14.726  -6.263  0.00  0.00    -0.359 N 
ATOM    132  H   HIS d   1      23.660  12.707  -6.769  0.00  0.00     0.143 H 
ATOM    133  CD2 HIS d   1      24.166  15.910  -6.964  0.00  0.00     0.002 A 
ATOM    134  H   HIS d   1      24.506  14.614  -5.288  0.00  0.00     0.166 HD
ATOM    135  H   HIS d   1      24.478  16.886  -6.596  0.00  0.00     0.114 H 
ENDBRANCH 125 128
ENDBRANCH  78 125
BRANCH  15 136
ATOM    136  N   81R d   1      30.137  18.819 -11.437  0.00  0.00    -0.346 N 
ATOM    137  C   GLY d   1      30.735  19.867 -10.864  0.00  0.00     0.243 C 
ATOM    138  O   GLY d   1      31.708  19.766 -10.112  0.00  0.00    -0.272 OA
ATOM    139  H   81R d   1      29.323  18.970 -11.998  0.00  0.00     0.163 HD
BRANCH 137 140
ATOM    140  CA  GLY d   1      30.151  21.233 -11.165  0.00  0.00     0.152 C 
ATOM    141  H   GLY d   1      29.058  21.189 -11.050  0.00  0.00     0.090 H 
ATOM    142  H   GLY d   1      30.566  21.965 -10.456  0.00  0.00     0.090 H 
BRANCH 140 143
ATOM    143  N   GLY d   1      30.475  21.663 -12.549  0.00  0.00    -0.071 N 
ATOM    144  H   GLY d   1      30.075  22.572 -12.721  0.00  0.00     0.274 HD
ATOM    145  H   GLY d   1      30.094  20.999 -13.205  0.00  0.00     0.274 HD
ATOM    146  H   GLY d   1      31.476  21.710 -12.661  0.00  0.00     0.274 HD
ENDBRANCH 140 143
ENDBRANCH 137 140
ENDBRANCH  15 136
BRANCH  72 147
ATOM    147  CB  ASN d   1      19.159  12.686 -10.827  0.00  0.00     0.036 C 
ATOM    148  H   ASN d   1      19.607  12.324  -9.890  0.00  0.00     0.051 H 
ATOM    149  H   ASN d   1      19.107  11.860 -11.551  0.00  0.00     0.051 H 
BRANCH 147 150
ATOM    150  CG  ASN d   1      17.752  13.154 -10.534  0.00  0.00     0.217 C 
ATOM    151  OD1 ASN d   1      17.170  13.938 -11.281  0.00  0.00    -0.274 OA
ATOM    152  ND2 ASN d   1      17.181  12.649  -9.441  0.00  0.00    -0.370 N 
ATOM    153  H   ASN d   1      16.251  12.919  -9.193  0.00  0.00     0.159 HD
ATOM    154  H   ASN d   1      17.683  12.000  -8.869  0.00  0.00     0.159 HD
ENDBRANCH 147 150
ENDBRANCH  72 147
BRANCH  30 155
ATOM    155  CB  LEU d   1      31.269  15.006 -15.108  0.00  0.00    -0.035 C 
ATOM    156  H   LEU d   1      31.172  14.096 -15.719  0.00  0.00     0.037 H 
ATOM    157  H   LEU d   1      32.314  15.120 -14.784  0.00  0.00     0.037 H 
BRANCH 155 158
ATOM    158  CG  LEU d   1      30.969  16.179 -16.026  0.00  0.00    -0.059 C 
ATOM    159  H   LEU d   1      31.107  17.119 -15.471  0.00  0.00     0.038 H 
BRANCH 158 160
ATOM    160  CD1 LEU d   1      31.925  16.148 -17.205  0.00  0.00    -0.073 C 
ATOM    161  H   LEU d   1      31.711  16.996 -17.873  0.00  0.00     0.028 H 
ATOM    162  H   LEU d   1      31.796  15.205 -17.757  0.00  0.00     0.028 H 
ATOM    163  H   LEU d   1      32.960  16.221 -16.840  0.00  0.00     0.028 H 
ENDBRANCH 158 160
BRANCH 158 164
ATOM    164  CD2 LEU d   1      29.547  16.099 -16.516  0.00  0.00    -0.073 C 
ATOM    165  H   LEU d   1      28.861  16.122 -15.656  0.00  0.00     0.028 H 
ATOM    166  H   LEU d   1      29.404  15.162 -17.074  0.00  0.00     0.028 H 
ATOM    167  H   LEU d   1      29.338  16.954 -17.175  0.00  0.00     0.028 H 
ENDBRANCH 158 164
ENDBRANCH 155 158
ENDBRANCH  30 155
BRANCH  66 168
ATOM    168  CB  GLU d   1      22.733  10.252 -12.015  0.00  0.00    -0.029 C 
ATOM    169  H   GLU d   1      21.703  10.241 -12.402  0.00  0.00     0.037 H 
ATOM    170  H   GLU d   1      22.743   9.860 -10.987  0.00  0.00     0.037 H 
BRANCH 168 171
ATOM    171  CG  GLU d   1      23.574   9.319 -12.884  0.00  0.00     0.018 C 
ATOM    172  H   GLU d   1      23.961   9.896 -13.736  0.00  0.00     0.049 H 
ATOM    173  H   GLU d   1      22.924   8.512 -13.253  0.00  0.00     0.049 H 
BRANCH 171 174
ATOM    174  CD  GLU d   1      24.750   8.691 -12.161  0.00  0.00     0.172 C 
ATOM    175  OE1 GLU d   1      25.066   9.098 -11.015  0.00  0.00    -0.648 OA
ATOM    176  OE2 GLU d   1      25.362   7.755 -12.737  0.00  0.00    -0.648 OA
ENDBRANCH 171 174
ENDBRANCH 168 171
ENDBRANCH  66 168
BRANCH  36 177
ATOM    177  CB  ARG d   1      29.645   6.884 -11.368  0.00  0.00    -0.036 C 
ATOM    178  H   ARG d   1      29.195   6.388 -10.495  0.00  0.00     0.036 H 
ATOM    179  H   ARG d   1      30.720   7.036 -11.191  0.00  0.00     0.036 H 
BRANCH 177 180
ATOM    180  CG  ARG d   1      29.475   5.986 -12.576  0.00  0.00    -0.048 C 
ATOM    181  H   ARG d   1      29.658   6.571 -13.489  0.00  0.00     0.035 H 
ATOM    182  H   ARG d   1      28.448   5.593 -12.592  0.00  0.00     0.035 H 
BRANCH 180 183
ATOM    183  CD  ARG d   1      30.449   4.829 -12.524  0.00  0.00     0.009 C 
ATOM    184  H   ARG d   1      30.117   4.056 -13.232  0.00  0.00     0.064 H 
ATOM    185  H   ARG d   1      30.452   4.415 -11.505  0.00  0.00     0.064 H 
BRANCH 183 186
ATOM    186  NE  ARG d   1      31.802   5.227 -12.869  0.00  0.00    -0.227 N 
ATOM    187  CZ  ARG d   1      32.815   4.371 -13.001  0.00  0.00     0.665 C 
ATOM    188  NH1 ARG d   1      32.622   3.073 -12.794  0.00  0.00    -0.235 N 
ATOM    189  NH2 ARG d   1      34.025   4.812 -13.321  0.00  0.00    -0.235 N 
ATOM    190  H   ARG d   1      33.406   2.413 -12.896  0.00  0.00     0.174 HD
ATOM    191  H   ARG d   1      31.688   2.727 -12.531  0.00  0.00     0.174 HD
ATOM    192  H   ARG d   1      34.181   5.817 -13.483  0.00  0.00     0.174 HD
ATOM    193  H   ARG d   1      34.809   4.149 -13.408  0.00  0.00     0.174 HD
ATOM    194  H   ARG d   1      31.990   6.228 -13.020  0.00  0.00     0.177 HD
ENDBRANCH 183 186
ENDBRANCH 180 183
ENDBRANCH 177 180
ENDBRANCH  36 177
TORSDOF 29
