REMARK  30 active torsions:
REMARK  status: ('A' for Active; 'I' for Inactive)
REMARK    1  A    between atoms: CA_2  and  N_1 
REMARK    2  A    between atoms: C_3  and  CA_2 
REMARK       I    between atoms: N_6  and  C_3 
REMARK    3  A    between atoms: N_6  and  CA_7 
REMARK    4  A    between atoms: CA_22  and  CB_25 
REMARK    5  A    between atoms: CA_27  and  CB_30 
REMARK    6  A    between atoms: CB_30  and  CG_31 
REMARK    7  A    between atoms: CG_31  and  CD1_32 
REMARK    8  A    between atoms: CG_31  and  CD2_33 
REMARK    9  A    between atoms: CA_39  and  CB_42 
REMARK   10  A    between atoms: CB_42  and  CG_43 
REMARK   11  A    between atoms: CG_43  and  CD_44 
REMARK   12  A    between atoms: CD_44  and  NE_45 
REMARK       I    between atoms: NE_45  and  CZ_46 
REMARK       I    between atoms: CZ_46  and  NH1_47 
REMARK       I    between atoms: CZ_46  and  NH2_48 
REMARK   13  A    between atoms: CA_60  and  CB_63 
REMARK   14  A    between atoms: CB_63  and  CG_64 
REMARK   15  A    between atoms: CG_64  and  CD_65 
REMARK   16  A    between atoms: CA_69  and  CB_72 
REMARK   17  A    between atoms: CB_72  and  CG_73 
REMARK       I    between atoms: CG_73  and  ND2_75 
REMARK   18  A    between atoms: CA_77  and  CB_80 
REMARK   19  A    between atoms: CB_80  and  CG_81 
REMARK   20  A    between atoms: CA_87  and  CB_90 
REMARK   21  A    between atoms: CB_90  and  CG_91 
REMARK   22  A    between atoms: CG_91  and  CD_92 
REMARK   23  A    between atoms: CD_92  and  NE_93 
REMARK       I    between atoms: NE_93  and  CZ_94 
REMARK       I    between atoms: CZ_94  and  NH1_95 
REMARK   24  A    between atoms: CA_98  and  C_99 
REMARK       I    between atoms: C_99  and  N_103 
REMARK   25  A    between atoms: N_103  and  CA_104 
REMARK   26  A    between atoms: CA_104  and  C_105 
REMARK   27  A    between atoms: CA_104  and  CB_107 
REMARK       I    between atoms: C_105  and  N_111 
REMARK   28  A    between atoms: CB_107  and  CG_108 
REMARK   29  A    between atoms: CG_108  and  CD1_109 
REMARK   30  A    between atoms: CG_108  and  CD2_110 
ROOT
ATOM      1  N   GLY d   1      -3.749 -12.373 -13.987  0.00  0.00    -0.351 N 
ATOM      2  CA  GLY d   1      -4.020 -10.949 -13.822  0.00  0.00     0.069 C 
ATOM      3  C   GLY d   1      -3.073 -10.254 -12.866  0.00  0.00     0.236 C 
ATOM      4  O   GLY d   1      -2.045 -10.808 -12.454  0.00  0.00    -0.272 OA
ATOM      5  N   GLY d   1      -1.546  -9.201  -9.658  0.00  0.00    -0.351 N 
ATOM      6  CA  GLY d   1      -1.384  -9.996  -8.448  0.00  0.00     0.069 C 
ATOM      7  C   GLY d   1      -0.584 -11.260  -8.681  0.00  0.00     0.236 C 
ATOM      8  O   GLY d   1      -0.032 -11.838  -7.737  0.00  0.00    -0.272 OA
ATOM      9  H   GLY d   1      -2.860 -12.660 -14.343  0.00  0.00     0.163 HD
ATOM     10  H   GLY d   1      -5.045 -10.833 -13.441  0.00  0.00     0.078 H 
ATOM     11  H   GLY d   1      -3.938 -10.464 -14.806  0.00  0.00     0.078 H 
ATOM     12  H   GLY d   1      -0.734  -8.790 -10.073  0.00  0.00     0.163 HD
ATOM     13  H   GLY d   1      -2.380 -10.274  -8.074  0.00  0.00     0.078 H 
ATOM     14  H   GLY d   1      -0.866  -9.386  -7.693  0.00  0.00     0.078 H 
ATOM     15  C   823 d   1      -0.209 -16.449 -14.848  0.00  0.00     0.241 C 
ATOM     16  CA  823 d   1       0.189 -17.850 -14.353  0.00  0.00     0.097 C 
ATOM     17  CB  823 d   1      -0.803 -18.520 -13.399  0.00  0.00     0.036 C 
ATOM     18  CG  823 d   1      -1.028 -17.762 -12.102  0.00  0.00     0.222 C 
ATOM     19  OD2 823 d   1      -1.362 -16.625 -12.288  0.00  0.00    -0.273 OA
ATOM     20  ND  823 d   1      -0.899 -18.275 -10.813  0.00  0.00    -0.352 N 
ATOM     21  O   823 d   1       0.249 -15.416 -14.338  0.00  0.00    -0.271 OA
ATOM     22  CE  823 d   1      -0.530 -19.676 -10.544  0.00  0.00    -0.002 C 
ATOM     23  CE2 823 d   1      -1.163 -17.493  -9.599  0.00  0.00    -0.002 C 
ATOM     24  CZ2 823 d   1      -2.634 -17.073  -9.506  0.00  0.00    -0.041 C 
ATOM     25  CH2 823 d   1      -2.879 -16.200  -8.284  0.00  0.00    -0.012 C 
ATOM     26  ST2 823 d   1      -2.138 -14.532  -8.325  0.00  0.00    -0.098 SA
ATOM     27  CZ  823 d   1       0.797 -19.934  -9.816  0.00  0.00    -0.041 C 
ATOM     28  CH  823 d   1       0.785 -21.343  -9.242  0.00  0.00    -0.012 C 
ATOM     29  ST  823 d   1       0.669 -22.704 -10.464  0.00  0.00    -0.098 SA
ATOM     30  H   823 d   1       0.198 -18.486 -15.251  0.00  0.00     0.088 H 
ATOM     31  H   823 d   1      -0.421 -19.521 -13.152  0.00  0.00     0.051 H 
ATOM     32  H   823 d   1      -1.769 -18.614 -13.916  0.00  0.00     0.051 H 
ATOM     33  H   823 d   1      -0.480 -20.195 -11.512  0.00  0.00     0.064 H 
ATOM     34  H   823 d   1      -1.332 -20.116  -9.933  0.00  0.00     0.064 H 
ATOM     35  H   823 d   1      -0.534 -16.590  -9.612  0.00  0.00     0.064 H 
ATOM     36  H   823 d   1      -0.910 -18.103  -8.720  0.00  0.00     0.064 H 
ATOM     37  H   823 d   1      -3.261 -17.974  -9.435  0.00  0.00     0.036 H 
ATOM     38  H   823 d   1      -2.904 -16.509 -10.411  0.00  0.00     0.036 H 
ATOM     39  H   823 d   1      -2.472 -16.727  -7.408  0.00  0.00     0.050 H 
ATOM     40  H   823 d   1      -3.966 -16.082  -8.168  0.00  0.00     0.050 H 
ATOM     41  H   823 d   1       0.917 -19.205  -9.001  0.00  0.00     0.036 H 
ATOM     42  H   823 d   1       1.632 -19.832 -10.525  0.00  0.00     0.036 H 
ATOM     43  H   823 d   1      -0.078 -21.424  -8.565  0.00  0.00     0.050 H 
ATOM     44  H   823 d   1       1.714 -21.482  -8.670  0.00  0.00     0.050 H 
ATOM     45  N   ALA d   1      -1.063 -16.456 -15.863  0.00  0.00    -0.346 N 
ATOM     46  CA  ALA d   1      -1.448 -15.249 -16.576  0.00  0.00     0.086 C 
ATOM     47  C   ALA d   1      -2.834 -14.823 -16.113  0.00  0.00     0.240 C 
ATOM     48  O   ALA d   1      -3.663 -14.423 -16.927  0.00  0.00    -0.271 OA
ATOM     49  H   ALA d   1      -1.459 -17.328 -16.150  0.00  0.00     0.163 HD
ATOM     50  H   ALA d   1      -0.730 -14.447 -16.352  0.00  0.00     0.086 H 
ATOM     51  N   LEU d   1      -3.074 -14.904 -14.803  0.00  0.00    -0.346 N 
ATOM     52  CA  LEU d   1      -4.417 -14.708 -14.246  0.00  0.00     0.089 C 
ATOM     53  C   LEU d   1      -4.654 -13.303 -13.677  0.00  0.00     0.240 C 
ATOM     54  O   LEU d   1      -5.654 -13.070 -12.985  0.00  0.00    -0.271 OA
ATOM     55  H   LEU d   1      -2.316 -15.104 -14.182  0.00  0.00     0.163 HD
ATOM     56  H   LEU d   1      -5.133 -14.841 -15.071  0.00  0.00     0.087 H 
ATOM     57  N   ARG d   1      -3.421  -9.015 -12.549  0.00  0.00    -0.346 N 
ATOM     58  CA  ARG d   1      -2.695  -8.241 -11.563  0.00  0.00     0.089 C 
ATOM     59  C   ARG d   1      -2.723  -8.999 -10.232  0.00  0.00     0.240 C 
ATOM     60  O   ARG d   1      -3.777  -9.403  -9.757  0.00  0.00    -0.271 OA
ATOM     61  N   ARG d   1       5.204 -18.813  -9.236  0.00  0.00    -0.346 N 
ATOM     62  CA  ARG d   1       5.919 -20.076  -9.372  0.00  0.00     0.089 C 
ATOM     63  C   ARG d   1       4.898 -21.170  -9.135  0.00  0.00     0.241 C 
ATOM     64  O   ARG d   1       4.137 -21.100  -8.171  0.00  0.00    -0.271 OA
ATOM     65  H   ARG d   1      -4.209  -8.602 -13.005  0.00  0.00     0.163 HD
ATOM     66  H   ARG d   1      -1.650  -8.130 -11.889  0.00  0.00     0.087 H 
ATOM     67  H   ARG d   1       4.696 -18.639  -8.393  0.00  0.00     0.163 HD
ATOM     68  H   ARG d   1       6.369 -20.172 -10.371  0.00  0.00     0.087 H 
ATOM     69  N   CYS d   1      -0.496 -11.679  -9.944  0.00  0.00    -0.346 N 
ATOM     70  CA  CYS d   1       0.025 -12.991 -10.287  0.00  0.00     0.098 C 
ATOM     71  C   CYS d   1       1.341 -12.961 -11.076  0.00  0.00     0.241 C 
ATOM     72  O   CYS d   1       1.848 -14.015 -11.458  0.00  0.00    -0.271 OA
ATOM     73  CB  CYS d   1      -1.058 -13.747 -11.057  0.00  0.00     0.013 C 
ATOM     74  SG  CYS d   1      -2.635 -13.787 -10.158  0.00  0.00    -0.095 SA
ATOM     75  N   CYS d   1       4.861 -22.175  -9.997  0.00  0.00    -0.345 N 
ATOM     76  CA  CYS d   1       3.885 -23.240  -9.811  0.00  0.00     0.098 C 
ATOM     77  CB  CYS d   1       3.347 -23.709 -11.160  0.00  0.00     0.013 C 
ATOM     78  SG  CYS d   1       2.214 -22.446 -11.801  0.00  0.00    -0.095 SA
ATOM     79  H   CYS d   1      -0.798 -11.071 -10.678  0.00  0.00     0.163 HD
ATOM     80  H   CYS d   1       0.222 -13.529  -9.348  0.00  0.00     0.088 H 
ATOM     81  H   CYS d   1      -0.719 -14.780 -11.224  0.00  0.00     0.053 H 
ATOM     82  H   CYS d   1      -1.215 -13.252 -12.026  0.00  0.00     0.053 H 
ATOM     83  H   CYS d   1       5.497 -22.202 -10.768  0.00  0.00     0.163 HD
ATOM     84  H   CYS d   1       3.033 -22.802  -9.271  0.00  0.00     0.088 H 
ATOM     85  H   CYS d   1       2.809 -24.660 -11.034  0.00  0.00     0.053 H 
ATOM     86  H   CYS d   1       4.181 -23.850 -11.863  0.00  0.00     0.053 H 
ATOM     87  N   GLU d   1       1.913 -11.770 -11.275  0.00  0.00    -0.346 N 
ATOM     88  CA  GLU d   1       3.188 -11.618 -11.992  0.00  0.00     0.090 C 
ATOM     89  C   GLU d   1       4.278 -12.399 -11.280  0.00  0.00     0.241 C 
ATOM     90  O   GLU d   1       4.302 -12.436 -10.046  0.00  0.00    -0.271 OA
ATOM     91  H   GLU d   1       1.458 -10.952 -10.924  0.00  0.00     0.163 HD
ATOM     92  H   GLU d   1       3.066 -12.003 -13.015  0.00  0.00     0.087 H 
ATOM     93  N   ASN d   1       5.162 -13.015 -12.052  0.00  0.00    -0.346 N 
ATOM     94  CA  ASN d   1       6.381 -13.607 -11.509  0.00  0.00     0.097 C 
ATOM     95  C   ASN d   1       6.063 -14.655 -10.429  0.00  0.00     0.241 C 
ATOM     96  O   ASN d   1       6.717 -14.704  -9.388  0.00  0.00    -0.271 OA
ATOM     97  H   ASN d   1       4.989 -13.076 -13.035  0.00  0.00     0.163 HD
ATOM     98  H   ASN d   1       6.925 -14.106 -12.325  0.00  0.00     0.088 H 
ATOM     99  N   HIS d   1       5.040 -15.473 -10.680  0.00  0.00    -0.346 N 
ATOM    100  CA  HIS d   1       4.654 -16.536  -9.749  0.00  0.00     0.094 C 
ATOM    101  C   HIS d   1       5.200 -17.886 -10.184  0.00  0.00     0.241 C 
ATOM    102  O   HIS d   1       5.617 -18.077 -11.326  0.00  0.00    -0.271 OA
ATOM    103  H   HIS d   1       4.522 -15.357 -11.527  0.00  0.00     0.163 HD
ATOM    104  H   HIS d   1       5.110 -16.300  -8.776  0.00  0.00     0.088 H 
ENDROOT
BRANCH  76 105
ATOM    105  C   CYS d   1       4.423 -24.362  -8.919  0.00  0.00     0.241 C 
ATOM    106  O   CYS d   1       5.478 -24.929  -9.191  0.00  0.00    -0.271 OA
ATOM    107  N   LEU d   1       3.662 -24.631  -7.848  0.00  0.00    -0.346 N 
ATOM    108  H   LEU d   1       2.728 -24.273  -7.858  0.00  0.00     0.163 HD
BRANCH 107 109
ATOM    109  CA  LEU d   1       4.066 -25.406  -6.652  0.00  0.00     0.089 C 
ATOM    110  H   LEU d   1       3.138 -25.729  -6.158  0.00  0.00     0.087 H 
BRANCH 109 111
ATOM    111  C   LEU d   1       4.825 -24.527  -5.651  0.00  0.00     0.238 C 
ATOM    112  O   LEU d   1       6.009 -24.231  -5.826  0.00  0.00    -0.271 OA
ATOM    113  N   NH2 d   1       4.114 -24.109  -4.570  0.00  0.00    -0.368 N 
ATOM    114  H   NH2 d   1       4.549 -23.533  -3.878  0.00  0.00     0.159 HD
ATOM    115  H   NH2 d   1       3.156 -24.378  -4.467  0.00  0.00     0.159 HD
ENDBRANCH 109 111
BRANCH 109 116
ATOM    116  CB  LEU d   1       4.856 -26.689  -6.988  0.00  0.00    -0.035 C 
ATOM    117  H   LEU d   1       5.537 -26.443  -7.816  0.00  0.00     0.037 H 
ATOM    118  H   LEU d   1       4.127 -27.441  -7.324  0.00  0.00     0.037 H 
BRANCH 116 119
ATOM    119  CG  LEU d   1       5.704 -27.342  -5.880  0.00  0.00    -0.059 C 
ATOM    120  H   LEU d   1       6.576 -26.695  -5.706  0.00  0.00     0.038 H 
BRANCH 119 121
ATOM    121  CD1 LEU d   1       4.964 -27.479  -4.551  0.00  0.00    -0.073 C 
ATOM    122  H   LEU d   1       5.626 -27.951  -3.810  0.00  0.00     0.028 H 
ATOM    123  H   LEU d   1       4.069 -28.102  -4.692  0.00  0.00     0.028 H 
ATOM    124  H   LEU d   1       4.665 -26.483  -4.194  0.00  0.00     0.028 H 
ENDBRANCH 119 121
BRANCH 119 125
ATOM    125  CD2 LEU d   1       6.208 -28.701  -6.348  0.00  0.00    -0.073 C 
ATOM    126  H   LEU d   1       6.738 -28.586  -7.305  0.00  0.00     0.028 H 
ATOM    127  H   LEU d   1       5.355 -29.383  -6.481  0.00  0.00     0.028 H 
ATOM    128  H   LEU d   1       6.895 -29.116  -5.596  0.00  0.00     0.028 H 
ENDBRANCH 119 125
ENDBRANCH 116 119
ENDBRANCH 109 116
ENDBRANCH 107 109
ENDBRANCH  76 105
BRANCH  62 129
ATOM    129  CB  ARG d   1       7.002 -20.128  -8.292  0.00  0.00    -0.036 C 
ATOM    130  H   ARG d   1       6.532 -20.474  -7.360  0.00  0.00     0.036 H 
ATOM    131  H   ARG d   1       7.387 -19.107  -8.152  0.00  0.00     0.036 H 
BRANCH 129 132
ATOM    132  CG  ARG d   1       8.179 -21.030  -8.578  0.00  0.00    -0.048 C 
ATOM    133  H   ARG d   1       8.486 -20.905  -9.627  0.00  0.00     0.035 H 
ATOM    134  H   ARG d   1       7.886 -22.076  -8.404  0.00  0.00     0.035 H 
BRANCH 132 135
ATOM    135  CD  ARG d   1       9.345 -20.678  -7.668  0.00  0.00     0.009 C 
ATOM    136  H   ARG d   1       9.679 -19.657  -7.906  0.00  0.00     0.064 H 
ATOM    137  H   ARG d   1      10.165 -21.386  -7.859  0.00  0.00     0.064 H 
BRANCH 135 138
ATOM    138  NE  ARG d   1       9.000 -20.736  -6.240  0.00  0.00    -0.227 N 
ATOM    139  CZ  ARG d   1       8.797 -21.861  -5.557  0.00  0.00     0.665 C 
ATOM    140  NH1 ARG d   1       8.870 -23.044  -6.161  0.00  0.00    -0.235 N 
ATOM    141  NH2 ARG d   1       8.514 -21.806  -4.261  0.00  0.00    -0.235 N 
ATOM    142  H   ARG d   1       8.711 -23.908  -5.623  0.00  0.00     0.174 HD
ATOM    143  H   ARG d   1       9.085 -23.096  -7.167  0.00  0.00     0.174 HD
ATOM    144  H   ARG d   1       8.455 -20.895  -3.785  0.00  0.00     0.174 HD
ATOM    145  H   ARG d   1       8.353 -22.675  -3.732  0.00  0.00     0.174 HD
ATOM    146  H   ARG d   1       8.909 -19.844  -5.732  0.00  0.00     0.177 HD
ENDBRANCH 135 138
ENDBRANCH 132 135
ENDBRANCH 129 132
ENDBRANCH  62 129
BRANCH 100 147
ATOM    147  CB  HIS d   1       3.138 -16.571  -9.541  0.00  0.00     0.004 C 
ATOM    148  H   HIS d   1       2.844 -17.601  -9.291  0.00  0.00     0.046 H 
ATOM    149  H   HIS d   1       2.650 -16.268 -10.479  0.00  0.00     0.046 H 
BRANCH 147 150
ATOM    150  CG  HIS d   1       2.670 -15.664  -8.447  0.00  0.00     0.053 A 
ATOM    151  ND1 HIS d   1       2.944 -14.315  -8.439  0.00  0.00    -0.247 NA
ATOM    152  CE1 HIS d   1       2.427 -13.772  -7.350  0.00  0.00     0.064 A 
ATOM    153  NE2 HIS d   1       1.832 -14.720  -6.650  0.00  0.00    -0.359 N 
ATOM    154  H   HIS d   1       2.483 -12.719  -7.076  0.00  0.00     0.143 H 
ATOM    155  CD2 HIS d   1       1.966 -15.914  -7.315  0.00  0.00     0.002 A 
ATOM    156  H   HIS d   1       1.346 -14.586  -5.752  0.00  0.00     0.166 HD
ATOM    157  H   HIS d   1       1.580 -16.880  -6.994  0.00  0.00     0.114 H 
ENDBRANCH 147 150
ENDBRANCH 100 147
BRANCH  94 158
ATOM    158  CB  ASN d   1       7.266 -12.480 -10.936  0.00  0.00     0.036 C 
ATOM    159  H   ASN d   1       6.827 -12.139  -9.987  0.00  0.00     0.051 H 
ATOM    160  H   ASN d   1       7.280 -11.647 -11.654  0.00  0.00     0.051 H 
BRANCH 158 161
ATOM    161  CG  ASN d   1       8.696 -12.918 -10.677  0.00  0.00     0.217 C 
ATOM    162  OD1 ASN d   1       9.284 -13.660 -11.471  0.00  0.00    -0.274 OA
ATOM    163  ND2 ASN d   1       9.278 -12.428  -9.576  0.00  0.00    -0.370 N 
ATOM    164  H   ASN d   1      10.219 -12.681  -9.353  0.00  0.00     0.159 HD
ATOM    165  H   ASN d   1       8.771 -11.809  -8.976  0.00  0.00     0.159 HD
ENDBRANCH 158 161
ENDBRANCH  94 158
BRANCH  16 166
ATOM    166  N   823 d   1       1.545 -17.859 -13.843  0.00  0.00    -0.346 N 
ATOM    167  C   GLY d   1       2.206 -19.006 -13.848  0.00  0.00     0.243 C 
ATOM    168  O   GLY d   1       1.657 -20.082 -14.121  0.00  0.00    -0.272 OA
ATOM    169  H   823 d   1       1.970 -17.022 -13.497  0.00  0.00     0.163 HD
BRANCH 167 170
ATOM    170  CA  GLY d   1       3.672 -18.951 -13.505  0.00  0.00     0.152 C 
ATOM    171  H   GLY d   1       4.045 -17.933 -13.689  0.00  0.00     0.090 H 
ATOM    172  H   GLY d   1       3.801 -19.202 -12.442  0.00  0.00     0.090 H 
BRANCH 170 173
ATOM    173  N   GLY d   1       4.457 -19.910 -14.327  0.00  0.00    -0.071 N 
ATOM    174  H   GLY d   1       5.431 -19.850 -14.075  0.00  0.00     0.274 HD
ATOM    175  H   GLY d   1       4.348 -19.684 -15.303  0.00  0.00     0.274 HD
ATOM    176  H   GLY d   1       4.124 -20.847 -14.160  0.00  0.00     0.274 HD
ENDBRANCH 170 173
ENDBRANCH 167 170
ENDBRANCH  16 166
BRANCH  88 177
ATOM    177  CB  GLU d   1       3.641 -10.150 -12.054  0.00  0.00    -0.029 C 
ATOM    178  H   GLU d   1       4.671 -10.125 -12.439  0.00  0.00     0.037 H 
ATOM    179  H   GLU d   1       3.621  -9.741 -11.033  0.00  0.00     0.037 H 
BRANCH 177 180
ATOM    180  CG  GLU d   1       2.780  -9.258 -12.941  0.00  0.00     0.018 C 
ATOM    181  H   GLU d   1       2.373  -9.867 -13.762  0.00  0.00     0.049 H 
ATOM    182  H   GLU d   1       3.413  -8.460 -13.356  0.00  0.00     0.049 H 
BRANCH 180 183
ATOM    183  CD  GLU d   1       1.630  -8.623 -12.196  0.00  0.00     0.172 C 
ATOM    184  OE1 GLU d   1       1.298  -9.073 -11.073  0.00  0.00    -0.648 OA
ATOM    185  OE2 GLU d   1       1.070  -7.648 -12.732  0.00  0.00    -0.648 OA
ENDBRANCH 180 183
ENDBRANCH 177 180
ENDBRANCH  88 177
BRANCH  46 186
ATOM    186  CB  ALA d   1      -1.441 -15.521 -18.078  0.00  0.00    -0.049 C 
ATOM    187  H   ALA d   1      -1.732 -14.608 -18.617  0.00  0.00     0.030 H 
ATOM    188  H   ALA d   1      -2.154 -16.326 -18.308  0.00  0.00     0.030 H 
ATOM    189  H   ALA d   1      -0.431 -15.825 -18.391  0.00  0.00     0.030 H 
ENDBRANCH  46 186
BRANCH  52 190
ATOM    190  CB  LEU d   1      -4.704 -15.791 -13.207  0.00  0.00    -0.035 C 
ATOM    191  H   LEU d   1      -5.740 -15.681 -12.855  0.00  0.00     0.037 H 
ATOM    192  H   LEU d   1      -4.014 -15.663 -12.360  0.00  0.00     0.037 H 
BRANCH 190 193
ATOM    193  CG  LEU d   1      -4.523 -17.209 -13.789  0.00  0.00    -0.059 C 
ATOM    194  H   LEU d   1      -3.485 -17.292 -14.145  0.00  0.00     0.038 H 
BRANCH 193 195
ATOM    195  CD1 LEU d   1      -4.736 -18.278 -12.730  0.00  0.00    -0.073 C 
ATOM    196  H   LEU d   1      -4.599 -19.272 -13.180  0.00  0.00     0.028 H 
ATOM    197  H   LEU d   1      -5.756 -18.196 -12.326  0.00  0.00     0.028 H 
ATOM    198  H   LEU d   1      -4.007 -18.140 -11.918  0.00  0.00     0.028 H 
ENDBRANCH 193 195
BRANCH 193 199
ATOM    199  CD2 LEU d   1      -5.442 -17.445 -14.981  0.00  0.00    -0.073 C 
ATOM    200  H   LEU d   1      -5.273 -16.662 -15.735  0.00  0.00     0.028 H 
ATOM    201  H   LEU d   1      -6.490 -17.413 -14.648  0.00  0.00     0.028 H 
ATOM    202  H   LEU d   1      -5.227 -18.430 -15.421  0.00  0.00     0.028 H 
ENDBRANCH 193 199
ENDBRANCH 190 193
ENDBRANCH  52 190
BRANCH  58 203
ATOM    203  CB  ARG d   1      -3.312  -6.855 -11.426  0.00  0.00    -0.036 C 
ATOM    204  H   ARG d   1      -2.790  -6.320 -10.619  0.00  0.00     0.036 H 
ATOM    205  H   ARG d   1      -4.374  -6.971 -11.163  0.00  0.00     0.036 H 
BRANCH 203 206
ATOM    206  CG  ARG d   1      -3.218  -6.019 -12.701  0.00  0.00    -0.048 C 
ATOM    207  H   ARG d   1      -3.473  -6.648 -13.567  0.00  0.00     0.035 H 
ATOM    208  H   ARG d   1      -2.191  -5.641 -12.812  0.00  0.00     0.035 H 
BRANCH 206 209
ATOM    209  CD  ARG d   1      -4.178  -4.846 -12.636  0.00  0.00     0.009 C 
ATOM    210  H   ARG d   1      -3.868  -4.091 -13.374  0.00  0.00     0.064 H 
ATOM    211  H   ARG d   1      -4.139  -4.410 -11.627  0.00  0.00     0.064 H 
BRANCH 209 212
ATOM    212  NE  ARG d   1      -5.548  -5.250 -12.922  0.00  0.00    -0.227 N 
ATOM    213  CZ  ARG d   1      -6.569  -4.403 -13.034  0.00  0.00     0.665 C 
ATOM    214  NH1 ARG d   1      -6.386  -3.099 -12.874  0.00  0.00    -0.235 N 
ATOM    215  NH2 ARG d   1      -7.774  -4.867 -13.317  0.00  0.00    -0.235 N 
ATOM    216  H   ARG d   1      -7.183  -2.452 -12.963  0.00  0.00     0.174 HD
ATOM    217  H   ARG d   1      -5.447  -2.733 -12.661  0.00  0.00     0.174 HD
ATOM    218  H   ARG d   1      -7.920  -5.879 -13.442  0.00  0.00     0.174 HD
ATOM    219  H   ARG d   1      -8.567  -4.217 -13.413  0.00  0.00     0.174 HD
ATOM    220  H   ARG d   1      -5.739  -6.255 -13.045  0.00  0.00     0.177 HD
ENDBRANCH 209 212
ENDBRANCH 206 209
ENDBRANCH 203 206
ENDBRANCH  58 203
TORSDOF 30
