REMARK  5 active torsions:
REMARK  status: ('A' for Active; 'I' for Inactive)
REMARK    1  A    between atoms: O1_1  and  C2_2 
REMARK    2  A    between atoms: C5_5  and  C6_6 
REMARK    3  A    between atoms: C6_6  and  C7_7 
REMARK    4  A    between atoms: C7_7  and  N8_8 
REMARK    5  A    between atoms: N8_8  and  C9_9 
ROOT
ATOM      1  C2  4MT d   1      52.787 -14.264  -3.414  0.00  0.00     0.065 A 
ATOM      2  C3  4MT d   1      52.064 -14.778  -4.513  0.00  0.00    -0.051 A 
ATOM      3  C4  4MT d   1      52.685 -14.920  -5.750  0.00  0.00    -0.074 A 
ATOM      4  C5  4MT d   1      54.012 -14.558  -5.892  0.00  0.00    -0.057 A 
ATOM      5  C11 4MT d   1      54.732 -14.049  -4.790  0.00  0.00    -0.074 A 
ATOM      6  C12 4MT d   1      54.116 -13.904  -3.561  0.00  0.00    -0.051 A 
ATOM      7  H2  4MT d   1      51.025 -15.062  -4.393  0.00  0.00     0.087 H 
ATOM      8  H3  4MT d   1      52.133 -15.312  -6.596  0.00  0.00     0.084 H 
ATOM      9  H10 4MT d   1      55.773 -13.770  -4.908  0.00  0.00     0.084 H 
ATOM     10  H11 4MT d   1      54.670 -13.511  -2.717  0.00  0.00     0.087 H 
ENDROOT
BRANCH   4  11
ATOM     11  C6  4MT d   1      54.711 -14.721  -7.221  0.00  0.00    -0.026 C 
ATOM     12  H4  4MT d   1      54.504 -15.729  -7.611  0.00  0.00     0.042 H 
ATOM     13  H5  4MT d   1      55.794 -14.601  -7.071  0.00  0.00     0.042 H 
BRANCH  11  14
ATOM     14  C7  4MT d   1      54.236 -13.687  -8.244  0.00  0.00    -0.004 C 
ATOM     15  H6  4MT d   1      53.187 -13.875  -8.515  0.00  0.00     0.064 H 
ATOM     16  H7  4MT d   1      54.862 -13.732  -9.148  0.00  0.00     0.064 H 
BRANCH  14  17
ATOM     17  N8  4MT d   1      54.362 -12.407  -7.620  0.00  0.00    -0.390 N 
ATOM     18  H8  4MT d   1      53.776 -12.169  -6.846  0.00  0.00     0.159 HD
BRANCH  17  19
ATOM     19  C9  4MT d   1      55.316 -11.477  -8.097  0.00  0.00     0.036 C 
ATOM     20  S10 4MT d   1      56.459 -11.915  -9.244  0.00  0.00    -0.075 SA
ATOM     21  H9  4MT d   1      55.308 -10.458  -7.712  0.00  0.00     0.129 H 
ENDBRANCH  17  19
ENDBRANCH  14  17
ENDBRANCH  11  14
ENDBRANCH   4  11
BRANCH   1  22
ATOM     22  O1  4MT d   1      52.180 -14.137  -2.168  0.00  0.00    -0.361 OA
ATOM     23  H1  4MT d   1      51.891 -14.991  -1.869  0.00  0.00     0.217 HD
ENDBRANCH   1  22
TORSDOF 5
