REMARK  8 active torsions:
REMARK  status: ('A' for Active; 'I' for Inactive)
REMARK    1  A    between atoms: C1_1  and  N10_10 
REMARK    2  A    between atoms: C3_3  and  C17_17 
REMARK    3  A    between atoms: N10_10  and  C11_11 
REMARK    4  A    between atoms: C14_14  and  C18_18 
REMARK       I    between atoms: C18_18  and  N20_20 
REMARK    5  A    between atoms: C27_27  and  N31_31 
REMARK       I    between atoms: N31_31  and  C32_32 
REMARK    6  A    between atoms: C32_32  and  C33_33 
REMARK    7  A    between atoms: C37_37  and  S40_40 
REMARK    8  A    between atoms: S40_40  and  C41_41 
ROOT
ATOM      1  C1  2V1 d   1      22.840   5.771   0.062  0.00  0.00     0.175 A 
ATOM      2  N2  2V1 d   1      23.982   6.200   0.575  0.00  0.00    -0.225 NA
ATOM      3  C3  2V1 d   1      24.128   6.459   1.894  0.00  0.00     0.085 A 
ATOM      4  C4  2V1 d   1      23.072   6.287   2.760  0.00  0.00     0.015 A 
ATOM      5  C5  2V1 d   1      21.715   5.579   0.930  0.00  0.00     0.180 A 
ATOM      6  N6  2V1 d   1      21.851   5.848   2.285  0.00  0.00    -0.311 N 
ATOM      7  C7  2V1 d   1      20.646   5.586   2.878  0.00  0.00     0.003 A 
ATOM      8  C8  2V1 d   1      19.805   5.177   1.893  0.00  0.00     0.020 A 
ATOM      9  N9  2V1 d   1      20.469   5.174   0.733  0.00  0.00    -0.238 NA
ATOM     10  H   2V1 d   1      23.199   6.497   3.821  0.00  0.00     0.116 H 
ATOM     11  H   2V1 d   1      20.407   5.686   3.936  0.00  0.00     0.114 H 
ATOM     12  H   2V1 d   1      18.761   4.897   2.026  0.00  0.00     0.117 H 
ENDROOT
BRANCH   3  13
ATOM     13  C17 2V1 d   1      25.448   6.937   2.401  0.00  0.00    -0.004 A 
ATOM     14  C26 2V1 d   1      26.346   7.560   1.530  0.00  0.00    -0.045 A 
ATOM     15  C27 2V1 d   1      27.582   8.005   1.996  0.00  0.00     0.035 A 
ATOM     16  H   2V1 d   1      26.080   7.698   0.488  0.00  0.00     0.088 H 
ATOM     17  C28 2V1 d   1      27.904   7.833   3.342  0.00  0.00    -0.057 A 
ATOM     18  C29 2V1 d   1      27.017   7.222   4.212  0.00  0.00    -0.080 A 
ATOM     19  H   2V1 d   1      28.861   8.182   3.712  0.00  0.00     0.086 H 
ATOM     20  C30 2V1 d   1      25.796   6.779   3.748  0.00  0.00    -0.071 A 
ATOM     21  H   2V1 d   1      27.282   7.092   5.255  0.00  0.00     0.083 H 
ATOM     22  H   2V1 d   1      25.101   6.305   4.431  0.00  0.00     0.084 H 
BRANCH  15  23
ATOM     23  N31 2V1 d   1      28.520   8.644   1.167  0.00  0.00    -0.323 N 
ATOM     24  C32 2V1 d   1      28.643   8.568  -0.185  0.00  0.00     0.256 C 
ATOM     25  O34 2V1 d   1      27.911   7.895  -0.885  0.00  0.00    -0.267 OA
ATOM     26  H   2V1 d   1      29.183   9.231   1.632  0.00  0.00     0.169 HD
BRANCH  24  27
ATOM     27  C33 2V1 d   1      29.733   9.348  -0.809  0.00  0.00     0.032 A 
ATOM     28  C35 2V1 d   1      30.403   8.879  -1.952  0.00  0.00    -0.066 A 
ATOM     29  C36 2V1 d   1      31.426   9.635  -2.505  0.00  0.00    -0.061 A 
ATOM     30  H   2V1 d   1      30.122   7.932  -2.399  0.00  0.00     0.085 H 
ATOM     31  C37 2V1 d   1      31.792  10.851  -1.923  0.00  0.00     0.058 A 
ATOM     32  H   2V1 d   1      31.942   9.282  -3.390  0.00  0.00     0.085 H 
ATOM     33  C38 2V1 d   1      31.128  11.308  -0.786  0.00  0.00    -0.061 A 
ATOM     34  C39 2V1 d   1      30.106  10.567  -0.226  0.00  0.00    -0.066 A 
ATOM     35  H   2V1 d   1      31.416  12.252  -0.338  0.00  0.00     0.085 H 
ATOM     36  H   2V1 d   1      29.595  10.926   0.660  0.00  0.00     0.085 H 
BRANCH  31  37
ATOM     37  S40 2V1 d   1      33.103  11.813  -2.635  0.00  0.00     0.171 S 
ATOM     38  O42 2V1 d   1      34.198  10.907  -2.685  0.00  0.00    -0.223 OA
ATOM     39  O43 2V1 d   1      32.546  12.317  -3.842  0.00  0.00    -0.223 OA
BRANCH  37  40
ATOM     40  C41 2V1 d   1      33.478  13.188  -1.499  0.00  0.00     0.020 C 
ATOM     41  H   2V1 d   1      34.289  13.800  -1.919  0.00  0.00     0.049 H 
ATOM     42  H   2V1 d   1      33.791  12.784  -0.525  0.00  0.00     0.049 H 
ATOM     43  H   2V1 d   1      32.580  13.810  -1.367  0.00  0.00     0.049 H 
ENDBRANCH  37  40
ENDBRANCH  31  37
ENDBRANCH  24  27
ENDBRANCH  15  23
ENDBRANCH   3  13
BRANCH   1  44
ATOM     44  N10 2V1 d   1      22.711   5.511  -1.304  0.00  0.00    -0.338 N 
ATOM     45  H   2V1 d   1      21.762   5.318  -1.655  0.00  0.00     0.167 HD
BRANCH  44  46
ATOM     46  C11 2V1 d   1      23.749   5.489  -2.237  0.00  0.00     0.033 A 
ATOM     47  C12 2V1 d   1      23.539   4.856  -3.462  0.00  0.00    -0.056 A 
ATOM     48  C13 2V1 d   1      24.545   4.816  -4.413  0.00  0.00    -0.066 A 
ATOM     49  H   2V1 d   1      22.582   4.392  -3.671  0.00  0.00     0.086 H 
ATOM     50  C14 2V1 d   1      25.791   5.419  -4.162  0.00  0.00     0.032 A 
ATOM     51  H   2V1 d   1      24.371   4.316  -5.359  0.00  0.00     0.085 H 
ATOM     52  C15 2V1 d   1      25.982   6.070  -2.928  0.00  0.00    -0.066 A 
ATOM     53  C16 2V1 d   1      24.977   6.100  -1.983  0.00  0.00    -0.056 A 
ATOM     54  H   2V1 d   1      26.929   6.553  -2.718  0.00  0.00     0.085 H 
ATOM     55  H   2V1 d   1      25.143   6.602  -1.037  0.00  0.00     0.086 H 
BRANCH  50  56
ATOM     56  C18 2V1 d   1      26.870   5.369  -5.196  0.00  0.00     0.253 C 
ATOM     57  O19 2V1 d   1      26.545   5.461  -6.362  0.00  0.00    -0.267 OA
ATOM     58  N20 2V1 d   1      28.200   5.208  -4.921  0.00  0.00    -0.344 N 
ATOM     59  C21 2V1 d   1      28.742   5.074  -3.544  0.00  0.00     0.018 C 
ATOM     60  C25 2V1 d   1      29.199   5.166  -6.022  0.00  0.00     0.018 C 
ATOM     61  C22 2V1 d   1      29.600   3.802  -3.462  0.00  0.00     0.034 C 
ATOM     62  H   2V1 d   1      27.911   5.005  -2.826  0.00  0.00     0.067 H 
ATOM     63  H   2V1 d   1      29.361   5.952  -3.305  0.00  0.00     0.067 H 
ATOM     64  O23 2V1 d   1      30.575   3.819  -4.518  0.00  0.00    -0.388 OA
ATOM     65  H   2V1 d   1      28.956   2.917  -3.570  0.00  0.00     0.076 H 
ATOM     66  H   2V1 d   1      30.112   3.766  -2.489  0.00  0.00     0.076 H 
ATOM     67  C24 2V1 d   1      30.072   3.908  -5.863  0.00  0.00     0.034 C 
ATOM     68  H   2V1 d   1      29.468   3.016  -6.085  0.00  0.00     0.076 H 
ATOM     69  H   2V1 d   1      30.918   3.962  -6.564  0.00  0.00     0.076 H 
ATOM     70  H   2V1 d   1      29.834   6.063  -5.977  0.00  0.00     0.067 H 
ATOM     71  H   2V1 d   1      28.678   5.133  -6.990  0.00  0.00     0.067 H 
ENDBRANCH  50  56
ENDBRANCH  44  46
ENDBRANCH   1  44
TORSDOF 8
