REMARK  10 active torsions:
REMARK  status: ('A' for Active; 'I' for Inactive)
REMARK    1  A    between atoms: C1_1  and  C2_2 
REMARK    2  A    between atoms: C3_3  and  C20_20 
REMARK    3  A    between atoms: C7_7  and  N8_8 
REMARK       I    between atoms: N8_8  and  C9_9 
REMARK    4  A    between atoms: C9_9  and  C11_11 
REMARK    5  A    between atoms: N22_22  and  C44_43 
REMARK    6  A    between atoms: C25_25  and  N27_27 
REMARK    7  A    between atoms: N27_27  and  C28_28 
REMARK    8  A    between atoms: C31_31  and  C34_34 
REMARK    9  A    between atoms: N38_37  and  C43_42 
REMARK   10  A    between atoms: N41_40  and  C42_41 
ROOT
ATOM      1  C20 2VL d   1     -37.159  28.199  -9.795  0.00  0.00     0.085 A 
ATOM      2  C21 2VL d   1     -36.294  28.877  -8.975  0.00  0.00     0.011 A 
ATOM      3  N22 2VL d   1     -34.986  29.066  -9.324  0.00  0.00    -0.324 N 
ATOM      4  C23 2VL d   1     -34.528  28.608 -10.512  0.00  0.00     0.293 A 
ATOM      5  O24 2VL d   1     -33.363  28.755 -10.895  0.00  0.00    -0.264 OA
ATOM      6  C25 2VL d   1     -35.466  27.885 -11.363  0.00  0.00     0.198 A 
ATOM      7  N26 2VL d   1     -36.714  27.706 -10.972  0.00  0.00    -0.224 NA
ATOM      8  H17 2VL d   1     -36.656  29.273  -8.027  0.00  0.00     0.115 H 
ENDROOT
BRANCH   1   9
ATOM      9  C3  2VL d   1     -38.593  27.992  -9.433  0.00  0.00     0.002 A 
ATOM     10  C2  2VL d   1     -39.047  27.739  -8.115  0.00  0.00    -0.023 A 
ATOM     11  C7  2VL d   1     -40.418  27.575  -7.870  0.00  0.00     0.042 A 
ATOM     12  C6  2VL d   1     -41.333  27.638  -8.920  0.00  0.00    -0.057 A 
ATOM     13  C5  2VL d   1     -40.889  27.893 -10.209  0.00  0.00    -0.080 A 
ATOM     14  H6  2VL d   1     -42.389  27.488  -8.729  0.00  0.00     0.086 H 
ATOM     15  C4  2VL d   1     -39.531  28.075 -10.467  0.00  0.00    -0.070 A 
ATOM     16  H5  2VL d   1     -41.603  27.951 -11.022  0.00  0.00     0.083 H 
ATOM     17  H4  2VL d   1     -39.199  28.283 -11.478  0.00  0.00     0.084 H 
BRANCH  10  18
ATOM     18  C1  2VL d   1     -38.071  27.649  -6.950  0.00  0.00    -0.048 C 
ATOM     19  H1  2VL d   1     -37.046  27.800  -7.318  0.00  0.00     0.033 H 
ATOM     20  H2  2VL d   1     -38.150  26.657  -6.481  0.00  0.00     0.033 H 
ATOM     21  H3  2VL d   1     -38.312  28.425  -6.209  0.00  0.00     0.033 H 
ENDBRANCH  10  18
BRANCH  11  22
ATOM     22  N8  2VL d   1     -40.793  27.279  -6.547  0.00  0.00    -0.322 N 
ATOM     23  C9  2VL d   1     -40.936  28.200  -5.572  0.00  0.00     0.263 C 
ATOM     24  O10 2VL d   1     -40.769  29.379  -5.802  0.00  0.00    -0.267 OA
ATOM     25  H7  2VL d   1     -40.965  26.322  -6.314  0.00  0.00     0.169 HD
BRANCH  23  26
ATOM     26  C11 2VL d   1     -41.209  27.813  -4.191  0.00  0.00     0.073 A 
ATOM     27  C12 2VL d   1     -41.033  26.594  -3.587  0.00  0.00    -0.054 A 
ATOM     28  C13 2VL d   1     -41.330  26.607  -2.215  0.00  0.00    -0.043 A 
ATOM     29  H8  2VL d   1     -40.697  25.705  -4.119  0.00  0.00     0.086 H 
ATOM     30  C14 2VL d   1     -41.717  27.817  -1.739  0.00  0.00    -0.010 A 
ATOM     31  C19 2VL d   1     -41.262  25.386  -1.297  0.00  0.00    -0.040 C 
ATOM     32  S15 2VL d   1     -41.690  28.981  -2.985  0.00  0.00    -0.089 SA
ATOM     33  C16 2VL d   1     -42.095  28.125  -0.288  0.00  0.00    -0.034 C 
ATOM     34  C17 2VL d   1     -42.283  26.822   0.498  0.00  0.00    -0.061 C 
ATOM     35  H9  2VL d   1     -43.034  28.698  -0.271  0.00  0.00     0.040 H 
ATOM     36  H10 2VL d   1     -41.294  28.718   0.178  0.00  0.00     0.040 H 
ATOM     37  C18 2VL d   1     -41.132  25.855   0.160  0.00  0.00    -0.061 C 
ATOM     38  H11 2VL d   1     -43.243  26.361   0.222  0.00  0.00     0.033 H 
ATOM     39  H12 2VL d   1     -42.276  27.039   1.576  0.00  0.00     0.033 H 
ATOM     40  H13 2VL d   1     -41.177  24.984   0.830  0.00  0.00     0.033 H 
ATOM     41  H14 2VL d   1     -40.170  26.371   0.294  0.00  0.00     0.033 H 
ATOM     42  H15 2VL d   1     -40.389  24.773  -1.565  0.00  0.00     0.040 H 
ATOM     43  H16 2VL d   1     -42.179  24.789  -1.411  0.00  0.00     0.040 H 
ENDBRANCH  23  26
ENDBRANCH  11  22
ENDBRANCH   1   9
BRANCH   3  44
ATOM     44  C44 2VL d   1     -34.087  29.785  -8.406  0.00  0.00    -0.011 C 
ATOM     45  H35 2VL d   1     -34.642  30.074  -7.501  0.00  0.00     0.057 H 
ATOM     46  H36 2VL d   1     -33.701  30.687  -8.903  0.00  0.00     0.057 H 
ATOM     47  H37 2VL d   1     -33.247  29.131  -8.128  0.00  0.00     0.057 H 
ENDBRANCH   3  44
BRANCH   6  48
ATOM     48  N27 2VL d   1     -34.955  27.412 -12.551  0.00  0.00    -0.336 N 
ATOM     49  H18 2VL d   1     -33.928  27.394 -12.627  0.00  0.00     0.168 HD
BRANCH  48  50
ATOM     50  C28 2VL d   1     -35.663  26.953 -13.668  0.00  0.00     0.033 A 
ATOM     51  C29 2VL d   1     -37.042  26.770 -13.701  0.00  0.00    -0.057 A 
ATOM     52  C30 2VL d   1     -37.640  26.297 -14.873  0.00  0.00    -0.072 A 
ATOM     53  H19 2VL d   1     -37.646  26.992 -12.828  0.00  0.00     0.086 H 
ATOM     54  C31 2VL d   1     -36.863  26.013 -15.991  0.00  0.00    -0.018 A 
ATOM     55  H20 2VL d   1     -38.714  26.151 -14.910  0.00  0.00     0.084 H 
ATOM     56  C32 2VL d   1     -35.493  26.190 -15.959  0.00  0.00    -0.072 A 
ATOM     57  C33 2VL d   1     -34.896  26.665 -14.799  0.00  0.00    -0.057 A 
ATOM     58  H21 2VL d   1     -34.891  25.960 -16.831  0.00  0.00     0.084 H 
ATOM     59  H22 2VL d   1     -33.823  26.814 -14.771  0.00  0.00     0.086 H 
BRANCH  54  60
ATOM     60  C34 2VL d   1     -37.478  25.503 -17.273  0.00  0.00     0.204 C 
ATOM     61  C36 2VL d   1     -38.542  26.478 -17.700  0.00  0.00     0.255 C 
ATOM     62  O37 2VL d   1     -38.180  27.595 -18.016  0.00  0.00    -0.271 OA
ATOM     63  N38 2VL d   1     -39.849  26.152 -17.711  0.00  0.00    -0.353 N 
ATOM     64  C39 2VL d   1     -40.304  24.812 -17.335  0.00  0.00     0.020 C 
ATOM     65  C40 2VL d   1     -39.226  23.792 -17.719  0.00  0.00     0.099 C 
ATOM     66  H24 2VL d   1     -41.239  24.578 -17.865  0.00  0.00     0.066 H 
ATOM     67  H25 2VL d   1     -40.478  24.773 -16.250  0.00  0.00     0.066 H 
ATOM     68  N41 2VL d   1     -37.981  24.143 -17.002  0.00  0.00    -0.057 N 
ATOM     69  H26 2VL d   1     -39.052  23.825 -18.805  0.00  0.00     0.078 H 
ATOM     70  H27 2VL d   1     -39.550  22.781 -17.430  0.00  0.00     0.078 H 
ATOM     71  H28 2VL d   1     -38.229  24.136 -16.025  0.00  0.00     0.280 HD
ATOM     72  H23 2VL d   1     -36.714  25.448 -18.062  0.00  0.00     0.107 H 
BRANCH  63  73
ATOM     73  C43 2VL d   1     -40.861  27.138 -18.126  0.00  0.00    -0.016 C 
ATOM     74  H32 2VL d   1     -40.366  28.088 -18.375  0.00  0.00     0.056 H 
ATOM     75  H33 2VL d   1     -41.574  27.300 -17.304  0.00  0.00     0.056 H 
ATOM     76  H34 2VL d   1     -41.399  26.762 -19.009  0.00  0.00     0.056 H 
ENDBRANCH  63  73
BRANCH  68  77
ATOM     77  C42 2VL d   1     -36.914  23.141 -17.152  0.00  0.00     0.068 C 
ATOM     78  H29 2VL d   1     -36.023  23.468 -16.595  0.00  0.00     0.068 H 
ATOM     79  H30 2VL d   1     -36.661  23.032 -18.217  0.00  0.00     0.068 H 
ATOM     80  H31 2VL d   1     -37.260  22.175 -16.756  0.00  0.00     0.068 H 
ENDBRANCH  68  77
ENDBRANCH  54  60
ENDBRANCH  48  50
ENDBRANCH   6  48
TORSDOF 10
