REMARK  4 active torsions:
REMARK  status: ('A' for Active; 'I' for Inactive)
REMARK    1  A    between atoms: CAN_2  and  CAL_4 
REMARK    2  A    between atoms: CAL_4  and  CAR_5 
REMARK    3  A    between atoms: CAO_7  and  CAA_8 
REMARK    4  A    between atoms: CAS_11  and  NAM_12 
ROOT
ATOM      1  CAR LUR d   1     -17.493  40.305  25.440  0.00  0.00    -0.021 A 
ATOM      2  CAK LUR d   1     -18.836  40.407  25.110  0.00  0.00    -0.069 A 
ATOM      3  CAO LUR d   1     -19.365  41.641  24.750  0.00  0.00    -0.061 A 
ATOM      4  CAI LUR d   1     -18.562  42.780  24.714  0.00  0.00    -0.075 A 
ATOM      5  CAJ LUR d   1     -17.210  42.728  25.042  0.00  0.00    -0.056 A 
ATOM      6  CAS LUR d   1     -16.638  41.516  25.406  0.00  0.00     0.039 A 
ATOM      7  H   LUR d   1     -19.471  39.528  25.133  0.00  0.00     0.085 H 
ATOM      8  H   LUR d   1     -19.000  43.728  24.424  0.00  0.00     0.084 H 
ATOM      9  H   LUR d   1     -16.607  43.629  25.013  0.00  0.00     0.087 H 
ENDROOT
BRANCH   6  10
ATOM     10  NAM LUR d   1     -15.329  41.410  25.731  0.00  0.00    -0.352 N 
ATOM     11  CAT LUR d   1     -14.442  42.417  25.567  0.00  0.00     0.093 A 
ATOM     12  CAQ LUR d   1     -13.798  43.057  26.737  0.00  0.00     0.063 A 
ATOM     13  CAP LUR d   1     -14.063  42.904  24.219  0.00  0.00     0.144 A 
ATOM     14 CLE  LUR d   1     -14.202  42.510  28.396  0.00  0.00    -0.082 Cl
ATOM     15  CAH LUR d   1     -12.883  44.082  26.534  0.00  0.00    -0.059 A 
ATOM     16  CAF LUR d   1     -12.565  44.510  25.246  0.00  0.00    -0.078 A 
ATOM     17  H   LUR d   1     -12.411  44.555  27.387  0.00  0.00     0.086 H 
ATOM     18  CAG LUR d   1     -13.139  43.937  24.111  0.00  0.00    -0.043 A 
ATOM     19  H   LUR d   1     -11.848  45.314  25.122  0.00  0.00     0.083 H 
ATOM     20  H   LUR d   1     -12.860  44.303  23.130  0.00  0.00     0.088 H 
ATOM     21  FAD LUR d   1     -14.613  42.359  23.121  0.00  0.00    -0.204 F 
ATOM     22  H   LUR d   1     -14.992  40.519  26.122  0.00  0.00     0.166 HD
ENDBRANCH   6  10
BRANCH   1  23
ATOM     23  CAL LUR d   1     -16.898  38.975  25.832  0.00  0.00     0.042 C 
ATOM     24  H   LUR d   1     -17.519  38.162  25.429  0.00  0.00     0.056 H 
ATOM     25  H   LUR d   1     -15.879  38.894  25.425  0.00  0.00     0.056 H 
BRANCH  23  26
ATOM     26  CAN LUR d   1     -16.849  38.874  27.334  0.00  0.00     0.177 C 
ATOM     27  OAB LUR d   1     -17.645  38.171  27.933  0.00  0.00    -0.648 OA
ATOM     28  OAC LUR d   1     -15.940  39.558  28.023  0.00  0.00    -0.648 OA
ENDBRANCH  23  26
ENDBRANCH   1  23
BRANCH   3  29
ATOM     29  CAA LUR d   1     -20.824  41.741  24.393  0.00  0.00    -0.051 C 
ATOM     30  H   LUR d   1     -21.068  42.782  24.136  0.00  0.00     0.033 H 
ATOM     31  H   LUR d   1     -21.434  41.422  25.251  0.00  0.00     0.033 H 
ATOM     32  H   LUR d   1     -21.036  41.091  23.531  0.00  0.00     0.033 H 
ENDBRANCH   3  29
TORSDOF 4
