REMARK  9 active torsions:
REMARK  status: ('A' for Active; 'I' for Inactive)
REMARK    1  A    between atoms: C1_1  and  S1_12 
REMARK    2  A    between atoms: C2_2  and  O2_3 
REMARK    3  A    between atoms: C3_4  and  O3_5 
REMARK    4  A    between atoms: C4_6  and  O4_7 
REMARK    5  A    between atoms: C5_8  and  C6_10 
REMARK    6  A    between atoms: C6_10  and  O6_11 
REMARK    7  A    between atoms: S1_12  and  C1'_13 
REMARK    8  A    between atoms: C1'_13  and  C2'_14 
REMARK    9  A    between atoms: C1'_13  and  C3'_15 
ROOT
ATOM      1  C1  IPT d   1      26.142 -31.777   6.159  0.00  0.00     0.110 C 
ATOM      2  C2  IPT d   1      25.435 -32.969   6.705  0.00  0.00     0.096 C 
ATOM      3  C3  IPT d   1      24.269 -32.500   7.518  0.00  0.00     0.090 C 
ATOM      4  C4  IPT d   1      24.727 -31.536   8.577  0.00  0.00     0.089 C 
ATOM      5  C5  IPT d   1      25.567 -30.465   7.944  0.00  0.00     0.087 C 
ATOM      6  O5  IPT d   1      26.621 -31.028   7.228  0.00  0.00    -0.363 OA
ATOM      7  H   IPT d   1      25.436 -31.163   5.581  0.00  0.00     0.104 H 
ATOM      8  H   IPT d   1      26.122 -33.528   7.357  0.00  0.00     0.092 H 
ATOM      9  H   IPT d   1      23.559 -31.982   6.857  0.00  0.00     0.091 H 
ATOM     10  H   IPT d   1      23.851 -31.078   9.059  0.00  0.00     0.091 H 
ATOM     11  H   IPT d   1      24.938 -29.879   7.258  0.00  0.00     0.090 H 
ENDROOT
BRANCH   1  12
ATOM     12  S1  IPT d   1      27.449 -32.318   5.077  0.00  0.00    -0.131 SA
BRANCH  12  13
ATOM     13  C1' IPT d   1      27.969 -30.969   4.050  0.00  0.00    -0.014 C 
ATOM     14  H   IPT d   1      29.068 -30.930   4.023  0.00  0.00     0.055 H 
BRANCH  13  15
ATOM     15  C2' IPT d   1      27.421 -31.102   2.668  0.00  0.00    -0.065 C 
ATOM     16  H   IPT d   1      27.760 -30.253   2.056  0.00  0.00     0.028 H 
ATOM     17  H   IPT d   1      26.322 -31.109   2.708  0.00  0.00     0.028 H 
ATOM     18  H   IPT d   1      27.778 -32.042   2.221  0.00  0.00     0.028 H 
ENDBRANCH  13  15
BRANCH  13  19
ATOM     19  C3' IPT d   1      27.413 -29.697   4.577  0.00  0.00    -0.065 C 
ATOM     20  H   IPT d   1      27.737 -28.863   3.938  0.00  0.00     0.028 H 
ATOM     21  H   IPT d   1      27.776 -29.535   5.603  0.00  0.00     0.028 H 
ATOM     22  H   IPT d   1      26.314 -29.751   4.580  0.00  0.00     0.028 H 
ENDBRANCH  13  19
ENDBRANCH  12  13
ENDBRANCH   1  12
BRANCH   2  23
ATOM     23  O2  IPT d   1      25.032 -33.799   5.679  0.00  0.00    -0.389 OA
ATOM     24  H   IPT d   1      24.443 -33.326   5.103  0.00  0.00     0.210 HD
ENDBRANCH   2  23
BRANCH   3  25
ATOM     25  O3  IPT d   1      23.634 -33.597   8.082  0.00  0.00    -0.390 OA
ATOM     26  H   IPT d   1      23.330 -34.175   7.392  0.00  0.00     0.210 HD
ENDBRANCH   3  25
BRANCH   5  27
ATOM     27  C6  IPT d   1      26.124 -29.558   8.996  0.00  0.00     0.043 C 
ATOM     28  H   IPT d   1      26.988 -30.045   9.472  0.00  0.00     0.078 H 
ATOM     29  H   IPT d   1      25.349 -29.363   9.752  0.00  0.00     0.078 H 
BRANCH  27  30
ATOM     30  O6  IPT d   1      26.528 -28.358   8.440  0.00  0.00    -0.398 OA
ATOM     31  H   IPT d   1      26.878 -27.796   9.122  0.00  0.00     0.209 HD
ENDBRANCH  27  30
ENDBRANCH   5  27
BRANCH   4  32
ATOM     32  O4  IPT d   1      25.479 -32.209   9.529  0.00  0.00    -0.390 OA
ATOM     33  H   IPT d   1      26.236 -32.603   9.112  0.00  0.00     0.210 HD
ENDBRANCH   4  32
TORSDOF 9
