REMARK  12 active torsions:
REMARK  status: ('A' for Active; 'I' for Inactive)
REMARK    1  A    between atoms: O1_7  and  C1_1 
REMARK    2  A    between atoms: C2_2  and  O2_8 
REMARK    3  A    between atoms: C3_3  and  O3_9 
REMARK    4  A    between atoms: C4_4  and  O4_10 
REMARK    5  A    between atoms: C5_5  and  C6_6 
REMARK    6  A    between atoms: C6_6  and  O6_12 
REMARK    7  A    between atoms: C4'_16  and  O1_7 
REMARK    8  A    between atoms: C1'_13  and  O1'_19 
REMARK    9  A    between atoms: C2'_14  and  O2'_20 
REMARK   10  A    between atoms: C3'_15  and  O3'_21 
REMARK   11  A    between atoms: C5'_17  and  C6'_18 
REMARK   12  A    between atoms: C6'_18  and  O6'_23 
ROOT
ATOM      1  O1  LBT d   1      56.644  15.053   5.923  0.00  0.00    -0.348 OA
ENDROOT
BRANCH   1   2
ATOM      2  C1  LBT d   1      57.973  14.736   5.661  0.00  0.00     0.159 C 
ATOM      3  C2  LBT d   1      58.805  14.806   6.927  0.00  0.00     0.110 C 
ATOM      4  C3  LBT d   1      60.175  14.273   6.726  0.00  0.00     0.092 C 
ATOM      5  H   LBT d   1      58.311  14.217   7.713  0.00  0.00     0.094 H 
ATOM      6  C4  LBT d   1      60.239  12.921   6.073  0.00  0.00     0.090 C 
ATOM      7  H   LBT d   1      60.655  14.957   6.011  0.00  0.00     0.091 H 
ATOM      8  C5  LBT d   1      59.385  12.928   4.825  0.00  0.00     0.089 C 
ATOM      9  H   LBT d   1      61.277  12.644   5.836  0.00  0.00     0.091 H 
ATOM     10  O5  LBT d   1      58.028  13.362   5.142  0.00  0.00    -0.348 OA
ATOM     11  H   LBT d   1      59.834  13.643   4.120  0.00  0.00     0.090 H 
ATOM     12  H   LBT d   1      58.378  15.436   4.916  0.00  0.00     0.133 H 
BRANCH   3  13
ATOM     13  O2  LBT d   1      58.874  16.168   7.328  0.00  0.00    -0.388 OA
ATOM     14  H   LBT d   1      59.360  16.233   8.142  0.00  0.00     0.210 HD
ENDBRANCH   3  13
BRANCH   4  15
ATOM     15  O3  LBT d   1      60.968  14.371   7.969  0.00  0.00    -0.390 OA
ATOM     16  H   LBT d   1      61.881  14.193   7.776  0.00  0.00     0.210 HD
ENDBRANCH   4  15
BRANCH   6  17
ATOM     17  O4  LBT d   1      59.661  12.020   6.974  0.00  0.00    -0.390 OA
ATOM     18  H   LBT d   1      60.178  11.995   7.771  0.00  0.00     0.210 HD
ENDBRANCH   6  17
BRANCH   8  19
ATOM     19  C6  LBT d   1      59.275  11.586   4.131  0.00  0.00     0.043 C 
ATOM     20  H   LBT d   1      58.562  11.681   3.299  0.00  0.00     0.078 H 
ATOM     21  H   LBT d   1      58.897  10.849   4.855  0.00  0.00     0.078 H 
BRANCH  19  22
ATOM     22  O6  LBT d   1      60.469  11.132   3.631  0.00  0.00    -0.398 OA
ATOM     23  H   LBT d   1      60.803  11.755   2.997  0.00  0.00     0.209 HD
ENDBRANCH  19  22
ENDBRANCH   8  19
ENDBRANCH   1   2
BRANCH   1  24
ATOM     24  C4' LBT d   1      55.910  15.435   4.754  0.00  0.00     0.096 C 
ATOM     25  C3' LBT d   1      54.891  14.415   4.454  0.00  0.00     0.092 C 
ATOM     26  C2' LBT d   1      53.961  14.869   3.432  0.00  0.00     0.110 C 
ATOM     27  H   LBT d   1      54.342  14.172   5.375  0.00  0.00     0.091 H 
ATOM     28  C1' LBT d   1      53.316  16.174   3.865  0.00  0.00     0.156 C 
ATOM     29  H   LBT d   1      54.506  15.023   2.489  0.00  0.00     0.094 H 
ATOM     30  O5' LBT d   1      54.349  17.192   4.080  0.00  0.00    -0.349 OA
ATOM     31  H   LBT d   1      52.629  16.512   3.075  0.00  0.00     0.133 H 
ATOM     32  C5' LBT d   1      55.277  16.771   5.105  0.00  0.00     0.089 C 
ATOM     33  H   LBT d   1      54.698  16.608   6.026  0.00  0.00     0.090 H 
ATOM     34  H   LBT d   1      56.583  15.546   3.891  0.00  0.00     0.091 H 
BRANCH  25  35
ATOM     35  O3' LBT d   1      55.505  13.281   3.950  0.00  0.00    -0.390 OA
ATOM     36  H   LBT d   1      54.846  12.624   3.757  0.00  0.00     0.210 HD
ENDBRANCH  25  35
BRANCH  26  37
ATOM     37  O2' LBT d   1      52.944  13.908   3.238  0.00  0.00    -0.388 OA
ATOM     38  H   LBT d   1      53.334  13.087   2.962  0.00  0.00     0.210 HD
ENDBRANCH  26  37
BRANCH  28  39
ATOM     39  O1' LBT d   1      52.616  16.006   5.028  0.00  0.00    -0.369 OA
ATOM     40  H   LBT d   1      51.943  15.348   4.899  0.00  0.00     0.212 HD
ENDBRANCH  28  39
BRANCH  32  41
ATOM     41  C6' LBT d   1      56.266  17.891   5.404  0.00  0.00     0.043 C 
ATOM     42  H   LBT d   1      56.547  18.359   4.449  0.00  0.00     0.078 H 
ATOM     43  H   LBT d   1      57.156  17.442   5.869  0.00  0.00     0.078 H 
BRANCH  41  44
ATOM     44  O6' LBT d   1      55.800  18.893   6.251  0.00  0.00    -0.398 OA
ATOM     45  H   LBT d   1      56.482  19.542   6.377  0.00  0.00     0.209 HD
ENDBRANCH  41  44
ENDBRANCH  32  41
ENDBRANCH   1  24
TORSDOF 12
