REMARK WARNING: 32 MAX_TORS EXCEEDED!!!
REMARK  60 active torsions:
REMARK  status: ('A' for Active; 'I' for Inactive)
REMARK    1  A    between atoms: N_1  and  CA_2 
REMARK    2  A    between atoms: CA_2  and  C_3 
REMARK       I    between atoms: C_3  and  N_5 
REMARK    3  A    between atoms: N_5  and  CA_6 
REMARK    4  A    between atoms: CA_6  and  C_7 
REMARK    5  A    between atoms: CA_6  and  CB_9 
REMARK       I    between atoms: C_7  and  N_11 
REMARK    6  A    between atoms: CB_9  and  OG_10 
REMARK    7  A    between atoms: N_11  and  CA_12 
REMARK    8  A    between atoms: CA_12  and  C_13 
REMARK    9  A    between atoms: CA_12  and  CB_15 
REMARK       I    between atoms: C_13  and  N_19 
REMARK   10  A    between atoms: CB_15  and  CG_16 
REMARK   11  A    between atoms: N_19  and  CA_20 
REMARK   12  A    between atoms: CA_20  and  C_21 
REMARK   13  A    between atoms: CA_20  and  CB_23 
REMARK       I    between atoms: C_21  and  N_24 
REMARK   14  A    between atoms: N_24  and  CA_25 
REMARK   15  A    between atoms: CA_25  and  C_26 
REMARK   16  A    between atoms: CA_25  and  CB_28 
REMARK       I    between atoms: C_26  and  N_35 
REMARK   17  A    between atoms: CB_28  and  CG_29 
REMARK   18  A    between atoms: CG_29  and  CD_30 
REMARK   19  A    between atoms: CD_30  and  NE_31 
REMARK       I    between atoms: NE_31  and  CZ_32 
REMARK       I    between atoms: CZ_32  and  NH1_33 
REMARK       I    between atoms: CZ_32  and  NH2_34 
REMARK   20  A    between atoms: N_35  and  CA_36 
REMARK   21  A    between atoms: CA_36  and  C_37 
REMARK   22  A    between atoms: CA_36  and  CB_39 
REMARK       I    between atoms: C_37  and  N_46 
REMARK   23  A    between atoms: CB_39  and  CG_40 
REMARK   24  A    between atoms: N_46  and  CA_47 
REMARK   25  A    between atoms: CA_47  and  C_48 
REMARK   26  A    between atoms: CA_47  and  CB_50 
REMARK       I    between atoms: C_48  and  N_54 
REMARK   27  A    between atoms: CB_50  and  CG_51 
REMARK   28  A    between atoms: CG_51  and  CD1_52 
REMARK   29  A    between atoms: CG_51  and  CD2_53 
REMARK   30  A    between atoms: N_54  and  CA_55 
REMARK   31  A    between atoms: CA_55  and  C_56 
REMARK   32  A    between atoms: CA_55  and  CB_58 
REMARK       I    between atoms: C_56  and  N_65 
REMARK   33  A    between atoms: CB_58  and  CG_59 
REMARK   34  A    between atoms: CG_59  and  CD_60 
REMARK   35  A    between atoms: CD_60  and  NE_61 
REMARK       I    between atoms: NE_61  and  CZ_62 
REMARK       I    between atoms: CZ_62  and  NH1_63 
REMARK   36  A    between atoms: N_65  and  CA_66 
REMARK   37  A    between atoms: CA_66  and  C_67 
REMARK       I    between atoms: C_67  and  N_69 
REMARK   38  A    between atoms: N_69  and  CA_70 
REMARK   39  A    between atoms: CA_70  and  C_71 
REMARK   40  A    between atoms: CA_70  and  CB_73 
REMARK       I    between atoms: C_71  and  N_81 
REMARK   41  A    between atoms: CB_73  and  CG_74 
REMARK   42  A    between atoms: CZ_79  and  OH_80 
REMARK   43  A    between atoms: N_81  and  CA_82 
REMARK   44  A    between atoms: CA_82  and  C_83 
REMARK   45  A    between atoms: CA_82  and  CB_85 
REMARK       I    between atoms: C_83  and  N_91 
REMARK   46  A    between atoms: CB_85  and  CG_86 
REMARK   47  A    between atoms: N_91  and  CA_92 
REMARK   48  A    between atoms: CA_92  and  C_93 
REMARK   49  A    between atoms: CA_92  and  CB_95 
REMARK       I    between atoms: C_93  and  N_99 
REMARK   50  A    between atoms: CB_95  and  CG_96 
REMARK   51  A    between atoms: CG_96  and  CD1_97 
REMARK   52  A    between atoms: CG_96  and  CD2_98 
REMARK   53  A    between atoms: N_99  and  CA_100 
REMARK   54  A    between atoms: CA_100  and  C_101 
REMARK   55  A    between atoms: CA_100  and  CB_103 
REMARK       I    between atoms: C_101  and  N_111 
REMARK   56  A    between atoms: CB_103  and  CG_104 
REMARK   57  A    between atoms: CZ_109  and  OH_110 
REMARK   58  A    between atoms: N_111  and  CA_112 
REMARK   59  A    between atoms: CA_112  and  C_113 
REMARK   60  A    between atoms: CA_112  and  CB_115 
ROOT
ATOM      1  CA  ARG d   1      44.423 -14.200  18.556  0.00  0.00     0.089 C 
ATOM      2  H   ARG d   1      43.335 -14.081  18.669  0.00  0.00     0.087 H 
ENDROOT
BRANCH   1   3
ATOM      3  N   ARG d   1      44.975 -14.670  19.817  0.00  0.00    -0.346 N 
ATOM      4  C   LEU d   1      44.192 -15.006  20.835  0.00  0.00     0.241 C 
ATOM      5  O   LEU d   1      42.967 -14.876  20.811  0.00  0.00    -0.271 OA
ATOM      6  H   ARG d   1      45.967 -14.742  19.919  0.00  0.00     0.163 HD
BRANCH   4   7
ATOM      7  CA  LEU d   1      44.891 -15.558  22.068  0.00  0.00     0.089 C 
ATOM      8  H   LEU d   1      45.847 -15.031  22.201  0.00  0.00     0.087 H 
BRANCH   7   9
ATOM      9  N   LEU d   1      44.062 -15.327  23.241  0.00  0.00    -0.346 N 
ATOM     10  C   PHE d   1      44.376 -14.401  24.138  0.00  0.00     0.241 C 
ATOM     11  O   PHE d   1      45.432 -13.769  24.107  0.00  0.00    -0.271 OA
ATOM     12  H   LEU d   1      43.238 -15.878  23.374  0.00  0.00     0.163 HD
BRANCH  10  13
ATOM     13  CA  PHE d   1      43.353 -14.155  25.239  0.00  0.00     0.093 C 
ATOM     14  H   PHE d   1      42.943 -15.123  25.561  0.00  0.00     0.088 H 
BRANCH  13  15
ATOM     15  N   PHE d   1      43.981 -13.513  26.384  0.00  0.00    -0.346 N 
ATOM     16  C   ARG d   1      43.726 -13.901  27.627  0.00  0.00     0.241 C 
ATOM     17  O   ARG d   1      42.962 -14.828  27.899  0.00  0.00    -0.271 OA
ATOM     18  H   PHE d   1      44.621 -12.760  26.230  0.00  0.00     0.163 HD
BRANCH  16  19
ATOM     19  CA  ARG d   1      44.434 -13.122  28.727  0.00  0.00     0.089 C 
ATOM     20  H   ARG d   1      44.483 -12.067  28.419  0.00  0.00     0.087 H 
BRANCH  19  21
ATOM     21  N   ARG d   1      43.696 -13.190  29.982  0.00  0.00    -0.346 N 
ATOM     22  C   ALA d   1      42.648 -12.404  30.199  0.00  0.00     0.240 C 
ATOM     23  O   ALA d   1      42.250 -11.585  29.374  0.00  0.00    -0.271 OA
ATOM     24  H   ARG d   1      43.983 -13.837  30.689  0.00  0.00     0.163 HD
BRANCH  22  25
ATOM     25  CA  ALA d   1      41.956 -12.548  31.544  0.00  0.00     0.086 C 
ATOM     26  H   ALA d   1      42.414 -13.378  32.101  0.00  0.00     0.086 H 
BRANCH  25  27
ATOM     27  N   ALA d   1      42.144 -11.311  32.285  0.00  0.00    -0.346 N 
ATOM     28  C   ASP d   1      43.283 -11.066  32.924  0.00  0.00     0.241 C 
ATOM     29  O   ASP d   1      44.167 -11.911  33.056  0.00  0.00    -0.271 OA
ATOM     30  H   ALA d   1      41.407 -10.636  32.314  0.00  0.00     0.163 HD
BRANCH  28  31
ATOM     31  CA  ASP d   1      43.446  -9.671  33.509  0.00  0.00     0.098 C 
ATOM     32  H   ASP d   1      42.449  -9.231  33.657  0.00  0.00     0.088 H 
BRANCH  31  33
ATOM     33  N   ASP d   1      44.121  -9.734  34.798  0.00  0.00    -0.345 N 
ATOM     34  C   SER d   1      43.438  -9.781  35.936  0.00  0.00     0.243 C 
ATOM     35  O   SER d   1      42.210  -9.728  35.981  0.00  0.00    -0.271 OA
ATOM     36  H   ASP d   1      45.121  -9.742  34.827  0.00  0.00     0.163 HD
BRANCH  34  37
ATOM     37  CA  SER d   1      44.263  -9.906  37.214  0.00  0.00     0.109 C 
ATOM     38  H   SER d   1      44.598 -10.950  37.302  0.00  0.00     0.090 H 
BRANCH  37  39
ATOM     39  N   SER d   1      45.447  -9.055  37.185  0.00  0.00    -0.344 N 
ATOM     40  C   GLY d   1      46.619  -9.501  36.744  0.00  0.00     0.243 C 
ATOM     41  O   GLY d   1      46.780 -10.639  36.299  0.00  0.00    -0.272 OA
ATOM     42  H   SER d   1      45.375  -8.111  37.505  0.00  0.00     0.163 HD
BRANCH  40  43
ATOM     43  CA  GLY d   1      47.775  -8.523  36.809  0.00  0.00     0.152 C 
ATOM     44  H   GLY d   1      48.598  -8.906  36.188  0.00  0.00     0.090 H 
ATOM     45  H   GLY d   1      47.440  -7.552  36.415  0.00  0.00     0.090 H 
BRANCH  43  46
ATOM     46  N   GLY d   1      48.260  -8.335  38.164  0.00  0.00    -0.071 N 
ATOM     47  H   GLY d   1      49.026  -7.679  38.159  0.00  0.00     0.274 HD
ATOM     48  H   GLY d   1      48.576  -9.218  38.533  0.00  0.00     0.274 HD
ATOM     49  H   GLY d   1      47.515  -7.977  38.741  0.00  0.00     0.274 HD
ENDBRANCH  43  46
ENDBRANCH  40  43
ENDBRANCH  37  39
BRANCH  37  50
ATOM     50  CB  SER d   1      43.398  -9.575  38.430  0.00  0.00     0.044 C 
ATOM     51  H   SER d   1      43.993  -9.717  39.344  0.00  0.00     0.077 H 
ATOM     52  H   SER d   1      42.530 -10.251  38.449  0.00  0.00     0.077 H 
BRANCH  50  53
ATOM     53  OG  SER d   1      42.941  -8.235  38.378  0.00  0.00    -0.398 OA
ATOM     54  H   SER d   1      42.423  -8.108  37.592  0.00  0.00     0.209 HD
ENDBRANCH  50  53
ENDBRANCH  37  50
ENDBRANCH  34  37
ENDBRANCH  31  33
BRANCH  31  55
ATOM     55  CB  ASP d   1      44.233  -8.790  32.535  0.00  0.00     0.043 C 
ATOM     56  H   ASP d   1      44.264  -7.765  32.934  0.00  0.00     0.052 H 
ATOM     57  H   ASP d   1      43.716  -8.790  31.564  0.00  0.00     0.052 H 
BRANCH  55  58
ATOM     58  CG  ASP d   1      45.657  -9.274  32.327  0.00  0.00     0.175 C 
ATOM     59  OD1 ASP d   1      46.256  -9.802  33.289  0.00  0.00    -0.648 OA
ATOM     60  OD2 ASP d   1      46.179  -9.127  31.202  0.00  0.00    -0.648 OA
ENDBRANCH  55  58
ENDBRANCH  31  55
ENDBRANCH  28  31
ENDBRANCH  25  27
BRANCH  25  61
ATOM     61  CB  ALA d   1      40.480 -12.842  31.356  0.00  0.00    -0.049 C 
ATOM     62  H   ALA d   1      40.362 -13.780  30.794  0.00  0.00     0.030 H 
ATOM     63  H   ALA d   1      40.010 -12.019  30.798  0.00  0.00     0.030 H 
ATOM     64  H   ALA d   1      39.998 -12.940  32.340  0.00  0.00     0.030 H 
ENDBRANCH  25  61
ENDBRANCH  22  25
ENDBRANCH  19  21
BRANCH  19  65
ATOM     65  CB  ARG d   1      45.865 -13.629  28.912  0.00  0.00    -0.036 C 
ATOM     66  H   ARG d   1      46.350 -13.671  27.925  0.00  0.00     0.036 H 
ATOM     67  H   ARG d   1      45.823 -14.640  29.343  0.00  0.00     0.036 H 
BRANCH  65  68
ATOM     68  CG  ARG d   1      46.706 -12.752  29.824  0.00  0.00    -0.048 C 
ATOM     69  H   ARG d   1      46.200 -12.657  30.796  0.00  0.00     0.035 H 
ATOM     70  H   ARG d   1      46.811 -11.757  29.367  0.00  0.00     0.035 H 
BRANCH  68  71
ATOM     71  CD  ARG d   1      48.085 -13.344  30.041  0.00  0.00     0.009 C 
ATOM     72  H   ARG d   1      48.646 -13.294  29.096  0.00  0.00     0.064 H 
ATOM     73  H   ARG d   1      47.977 -14.395  30.348  0.00  0.00     0.064 H 
BRANCH  71  74
ATOM     74  NE  ARG d   1      48.830 -12.626  31.070  0.00  0.00    -0.227 N 
ATOM     75  CZ  ARG d   1      49.935 -13.084  31.649  0.00  0.00     0.665 C 
ATOM     76  NH1 ARG d   1      50.425 -14.267  31.304  0.00  0.00    -0.235 N 
ATOM     77  NH2 ARG d   1      50.546 -12.363  32.578  0.00  0.00    -0.235 N 
ATOM     78  H   ARG d   1      51.282 -14.621  31.754  0.00  0.00     0.174 HD
ATOM     79  H   ARG d   1      49.949 -14.832  30.586  0.00  0.00     0.174 HD
ATOM     80  H   ARG d   1      50.168 -11.444  32.848  0.00  0.00     0.174 HD
ATOM     81  H   ARG d   1      51.399 -12.722  33.030  0.00  0.00     0.174 HD
ATOM     82  H   ARG d   1      48.477 -11.705  31.367  0.00  0.00     0.177 HD
ENDBRANCH  71  74
ENDBRANCH  68  71
ENDBRANCH  65  68
ENDBRANCH  19  65
ENDBRANCH  16  19
ENDBRANCH  13  15
BRANCH  13  83
ATOM     83  CB  PHE d   1      42.207 -13.291  24.704  0.00  0.00    -0.014 C 
ATOM     84  H   PHE d   1      41.523 -13.068  25.536  0.00  0.00     0.043 H 
ATOM     85  H   PHE d   1      41.671 -13.864  23.933  0.00  0.00     0.043 H 
BRANCH  83  86
ATOM     86  CG  PHE d   1      42.657 -11.990  24.099  0.00  0.00    -0.056 A 
ATOM     87  CD1 PHE d   1      42.980 -10.909  24.904  0.00  0.00    -0.077 A 
ATOM     88  CE1 PHE d   1      43.395  -9.712  24.350  0.00  0.00    -0.082 A 
ATOM     89  H   PHE d   1      42.906 -11.003  25.981  0.00  0.00     0.084 H 
ATOM     90  CZ  PHE d   1      43.487  -9.582  22.979  0.00  0.00    -0.083 A 
ATOM     91  H   PHE d   1      43.648  -8.876  24.992  0.00  0.00     0.083 H 
ATOM     92  CE2 PHE d   1      43.165 -10.649  22.164  0.00  0.00    -0.082 A 
ATOM     93  H   PHE d   1      43.811  -8.644  22.543  0.00  0.00     0.083 H 
ATOM     94  CD2 PHE d   1      42.751 -11.844  22.724  0.00  0.00    -0.077 A 
ATOM     95  H   PHE d   1      43.237 -10.550  21.087  0.00  0.00     0.083 H 
ATOM     96  H   PHE d   1      42.497 -12.677  22.079  0.00  0.00     0.084 H 
ENDBRANCH  83  86
ENDBRANCH  13  83
ENDBRANCH  10  13
ENDBRANCH   7   9
BRANCH   7  97
ATOM     97  CB  LEU d   1      45.177 -17.050  21.887  0.00  0.00    -0.035 C 
ATOM     98  H   LEU d   1      45.701 -17.176  20.928  0.00  0.00     0.037 H 
ATOM     99  H   LEU d   1      44.210 -17.573  21.847  0.00  0.00     0.037 H 
BRANCH  97 100
ATOM    100  CG  LEU d   1      46.024 -17.721  22.971  0.00  0.00    -0.059 C 
ATOM    101  H   LEU d   1      45.485 -17.643  23.927  0.00  0.00     0.038 H 
BRANCH 100 102
ATOM    102  CD1 LEU d   1      46.225 -19.195  22.657  0.00  0.00    -0.073 C 
ATOM    103  H   LEU d   1      46.835 -19.658  23.447  0.00  0.00     0.028 H 
ATOM    104  H   LEU d   1      46.738 -19.297  21.689  0.00  0.00     0.028 H 
ATOM    105  H   LEU d   1      45.247 -19.696  22.608  0.00  0.00     0.028 H 
ENDBRANCH 100 102
BRANCH 100 106
ATOM    106  CD2 LEU d   1      47.363 -17.013  23.121  0.00  0.00    -0.073 C 
ATOM    107  H   LEU d   1      47.192 -15.950  23.347  0.00  0.00     0.028 H 
ATOM    108  H   LEU d   1      47.932 -17.102  22.183  0.00  0.00     0.028 H 
ATOM    109  H   LEU d   1      47.933 -17.476  23.941  0.00  0.00     0.028 H 
ENDBRANCH 100 106
ENDBRANCH  97 100
ENDBRANCH   7  97
ENDBRANCH   4   7
ENDBRANCH   1   3
BRANCH   1 110
ATOM    110  C   ARG d   1      44.693 -15.227  17.468  0.00  0.00     0.240 C 
ATOM    111  O   ARG d   1      45.766 -15.828  17.424  0.00  0.00    -0.271 OA
ATOM    112  N   GLY d   1      43.711 -15.436  16.599  0.00  0.00    -0.351 N 
ATOM    113  H   GLY d   1      42.852 -14.934  16.699  0.00  0.00     0.163 HD
BRANCH 112 114
ATOM    114  CA  GLY d   1      43.861 -16.377  15.509  0.00  0.00     0.069 C 
ATOM    115  H   GLY d   1      42.884 -16.519  15.023  0.00  0.00     0.078 H 
ATOM    116  H   GLY d   1      44.213 -17.338  15.913  0.00  0.00     0.078 H 
BRANCH 114 117
ATOM    117  C   GLY d   1      44.854 -15.884  14.479  0.00  0.00     0.236 C 
ATOM    118  O   GLY d   1      44.991 -14.679  14.263  0.00  0.00    -0.272 OA
ATOM    119  N   TYR d   1      45.558 -16.820  13.852  0.00  0.00    -0.346 N 
ATOM    120  H   TYR d   1      45.456 -17.775  14.132  0.00  0.00     0.163 HD
BRANCH 119 121
ATOM    121  CA  TYR d   1      46.474 -16.494  12.769  0.00  0.00     0.093 C 
ATOM    122  H   TYR d   1      46.961 -15.532  12.987  0.00  0.00     0.088 H 
BRANCH 121 123
ATOM    123  C   TYR d   1      45.693 -16.377  11.469  0.00  0.00     0.241 C 
ATOM    124  O   TYR d   1      44.616 -16.955  11.332  0.00  0.00    -0.271 OA
ATOM    125  N   HIS d   1      46.235 -15.627  10.516  0.00  0.00    -0.346 N 
ATOM    126  H   HIS d   1      47.091 -15.144  10.699  0.00  0.00     0.163 HD
BRANCH 125 127
ATOM    127  CA  HIS d   1      45.605 -15.495   9.210  0.00  0.00     0.094 C 
ATOM    128  H   HIS d   1      44.541 -15.254   9.354  0.00  0.00     0.088 H 
BRANCH 127 129
ATOM    129  C   HIS d   1      45.715 -16.805   8.444  0.00  0.00     0.241 C 
ATOM    130  O   HIS d   1      46.757 -17.459   8.467  0.00  0.00    -0.271 OA
ATOM    131  N   LEU d   1      44.637 -17.190   7.769  0.00  0.00    -0.346 N 
ATOM    132  H   LEU d   1      43.795 -16.655   7.838  0.00  0.00     0.163 HD
BRANCH 131 133
ATOM    133  CA  LEU d   1      44.666 -18.379   6.931  0.00  0.00     0.089 C 
ATOM    134  H   LEU d   1      45.109 -19.204   7.508  0.00  0.00     0.087 H 
BRANCH 133 135
ATOM    135  C   LEU d   1      45.546 -18.114   5.714  0.00  0.00     0.241 C 
ATOM    136  O   LEU d   1      45.871 -16.962   5.422  0.00  0.00    -0.271 OA
ATOM    137  N   TYR d   1      45.927 -19.179   5.014  0.00  0.00    -0.346 N 
ATOM    138  H   TYR d   1      45.505 -20.064   5.213  0.00  0.00     0.163 HD
BRANCH 137 139
ATOM    139  CA  TYR d   1      46.942 -19.101   3.962  0.00  0.00     0.093 C 
ATOM    140  H   TYR d   1      47.889 -18.853   4.464  0.00  0.00     0.088 H 
BRANCH 139 141
ATOM    141  C   TYR d   1      46.711 -18.011   2.913  0.00  0.00     0.241 C 
ATOM    142  O   TYR d   1      47.415 -17.000   2.900  0.00  0.00    -0.271 OA
ATOM    143  N   ALA d   1      45.735 -18.216   2.035  0.00  0.00    -0.345 N 
ATOM    144  H   ALA d   1      45.164 -19.033   2.114  0.00  0.00     0.163 HD
BRANCH 143 145
ATOM    145  CA  ALA d   1      45.484 -17.265   0.956  0.00  0.00     0.093 C 
ATOM    146  H   ALA d   1      45.588 -16.251   1.369  0.00  0.00     0.089 H 
BRANCH 145 147
ATOM    147  C   ALA d   1      44.075 -17.396   0.392  0.00  0.00     0.196 C 
ATOM    148  O   ALA d   1      43.817 -17.009  -0.748  0.00  0.00    -0.646 OA
ATOM    149  O1  ALA d   1      43.165 -17.905   1.099  0.00  0.00    -0.646 OA
ENDBRANCH 145 147
BRANCH 145 150
ATOM    150  CB  ALA d   1      46.518 -17.436  -0.151  0.00  0.00    -0.048 C 
ATOM    151  H   ALA d   1      46.316 -16.714  -0.956  0.00  0.00     0.030 H 
ATOM    152  H   ALA d   1      46.459 -18.458  -0.553  0.00  0.00     0.030 H 
ATOM    153  H   ALA d   1      47.524 -17.259   0.257  0.00  0.00     0.030 H 
ENDBRANCH 145 150
ENDBRANCH 143 145
ENDBRANCH 139 141
BRANCH 139 154
ATOM    154  CB  TYR d   1      47.130 -20.463   3.286  0.00  0.00    -0.014 C 
ATOM    155  H   TYR d   1      46.147 -20.823   2.948  0.00  0.00     0.043 H 
ATOM    156  H   TYR d   1      47.543 -21.165   4.025  0.00  0.00     0.043 H 
BRANCH 154 157
ATOM    157  CG  TYR d   1      48.060 -20.419   2.095  0.00  0.00    -0.056 A 
ATOM    158  CD1 TYR d   1      49.326 -19.856   2.198  0.00  0.00    -0.074 A 
ATOM    159  CE1 TYR d   1      50.179 -19.810   1.113  0.00  0.00    -0.051 A 
ATOM    160  H   TYR d   1      49.650 -19.445   3.147  0.00  0.00     0.084 H 
ATOM    161  CZ  TYR d   1      49.773 -20.339  -0.094  0.00  0.00     0.065 A 
ATOM    162  H   TYR d   1      51.161 -19.361   1.210  0.00  0.00     0.087 H 
ATOM    163  CE2 TYR d   1      48.523 -20.907  -0.222  0.00  0.00    -0.051 A 
ATOM    164  CD2 TYR d   1      47.675 -20.946   0.869  0.00  0.00    -0.074 A 
ATOM    165  H   TYR d   1      48.207 -21.321  -1.173  0.00  0.00     0.087 H 
ATOM    166  H   TYR d   1      46.694 -21.395   0.766  0.00  0.00     0.084 H 
BRANCH 161 167
ATOM    167  OH  TYR d   1      50.621 -20.298  -1.177  0.00  0.00    -0.361 OA
ATOM    168  H   TYR d   1      51.435 -19.878  -0.925  0.00  0.00     0.217 HD
ENDBRANCH 161 167
ENDBRANCH 154 157
ENDBRANCH 139 154
ENDBRANCH 137 139
ENDBRANCH 133 135
BRANCH 133 169
ATOM    169  CB  LEU d   1      43.254 -18.791   6.520  0.00  0.00    -0.035 C 
ATOM    170  H   LEU d   1      43.332 -19.646   5.832  0.00  0.00     0.037 H 
ATOM    171  H   LEU d   1      42.786 -17.942   5.999  0.00  0.00     0.037 H 
BRANCH 169 172
ATOM    172  CG  LEU d   1      42.346 -19.196   7.685  0.00  0.00    -0.059 C 
ATOM    173  H   LEU d   1      42.240 -18.330   8.354  0.00  0.00     0.038 H 
BRANCH 172 174
ATOM    174  CD1 LEU d   1      40.973 -19.577   7.181  0.00  0.00    -0.073 C 
ATOM    175  H   LEU d   1      40.337 -19.864   8.031  0.00  0.00     0.028 H 
ATOM    176  H   LEU d   1      41.060 -20.425   6.485  0.00  0.00     0.028 H 
ATOM    177  H   LEU d   1      40.523 -18.719   6.660  0.00  0.00     0.028 H 
ENDBRANCH 172 174
BRANCH 172 178
ATOM    178  CD2 LEU d   1      42.955 -20.339   8.481  0.00  0.00    -0.073 C 
ATOM    179  H   LEU d   1      43.953 -20.045   8.840  0.00  0.00     0.028 H 
ATOM    180  H   LEU d   1      43.043 -21.227   7.838  0.00  0.00     0.028 H 
ATOM    181  H   LEU d   1      42.310 -20.572   9.341  0.00  0.00     0.028 H 
ENDBRANCH 172 178
ENDBRANCH 169 172
ENDBRANCH 133 169
ENDBRANCH 131 133
ENDBRANCH 127 129
BRANCH 127 182
ATOM    182  CB  HIS d   1      46.259 -14.373   8.404  0.00  0.00     0.004 C 
ATOM    183  H   HIS d   1      45.765 -14.318   7.423  0.00  0.00     0.046 H 
ATOM    184  H   HIS d   1      47.322 -14.619   8.267  0.00  0.00     0.046 H 
BRANCH 182 185
ATOM    185  CG  HIS d   1      46.167 -13.027   9.054  0.00  0.00     0.053 A 
ATOM    186  ND1 HIS d   1      45.036 -12.245   8.990  0.00  0.00    -0.247 NA
ATOM    187  CE1 HIS d   1      45.245 -11.117   9.648  0.00  0.00     0.064 A 
ATOM    188  NE2 HIS d   1      46.473 -11.141  10.133  0.00  0.00    -0.359 N 
ATOM    189  H   HIS d   1      44.527 -10.307   9.769  0.00  0.00     0.143 H 
ATOM    190  CD2 HIS d   1      47.073 -12.325   9.775  0.00  0.00     0.002 A 
ATOM    191  H   HIS d   1      46.911 -10.393  10.690  0.00  0.00     0.166 HD
ATOM    192  H   HIS d   1      48.086 -12.639  10.024  0.00  0.00     0.114 H 
ENDBRANCH 182 185
ENDBRANCH 127 182
ENDBRANCH 125 127
ENDBRANCH 121 123
BRANCH 121 193
ATOM    193  CB  TYR d   1      47.546 -17.574  12.629  0.00  0.00    -0.014 C 
ATOM    194  H   TYR d   1      48.163 -17.335  11.750  0.00  0.00     0.043 H 
ATOM    195  H   TYR d   1      47.043 -18.540  12.473  0.00  0.00     0.043 H 
BRANCH 193 196
ATOM    196  CG  TYR d   1      48.460 -17.705  13.826  0.00  0.00    -0.056 A 
ATOM    197  CD1 TYR d   1      48.810 -16.595  14.583  0.00  0.00    -0.074 A 
ATOM    198  CE1 TYR d   1      49.647 -16.712  15.677  0.00  0.00    -0.051 A 
ATOM    199  H   TYR d   1      48.420 -15.620  14.312  0.00  0.00     0.084 H 
ATOM    200  CZ  TYR d   1      50.140 -17.951  16.026  0.00  0.00     0.065 A 
ATOM    201  H   TYR d   1      49.914 -15.835  16.256  0.00  0.00     0.087 H 
ATOM    202  CE2 TYR d   1      49.806 -19.068  15.292  0.00  0.00    -0.051 A 
ATOM    203  CD2 TYR d   1      48.970 -18.940  14.200  0.00  0.00    -0.074 A 
ATOM    204  H   TYR d   1      50.197 -20.040  15.569  0.00  0.00     0.087 H 
ATOM    205  H   TYR d   1      48.708 -19.820  13.625  0.00  0.00     0.084 H 
BRANCH 200 206
ATOM    206  OH  TYR d   1      50.973 -18.077  17.114  0.00  0.00    -0.361 OA
ATOM    207  H   TYR d   1      51.809 -18.430  16.832  0.00  0.00     0.217 HD
ENDBRANCH 200 206
ENDBRANCH 193 196
ENDBRANCH 121 193
ENDBRANCH 119 121
ENDBRANCH 114 117
ENDBRANCH 112 114
ENDBRANCH   1 110
BRANCH   1 208
ATOM    208  CB  ARG d   1      45.023 -12.846  18.176  0.00  0.00    -0.036 C 
ATOM    209  H   ARG d   1      46.117 -12.952  18.143  0.00  0.00     0.036 H 
ATOM    210  H   ARG d   1      44.748 -12.118  18.953  0.00  0.00     0.036 H 
BRANCH 208 211
ATOM    211  CG  ARG d   1      44.557 -12.305  16.832  0.00  0.00    -0.048 C 
ATOM    212  H   ARG d   1      43.480 -12.499  16.718  0.00  0.00     0.035 H 
ATOM    213  H   ARG d   1      45.109 -12.812  16.027  0.00  0.00     0.035 H 
BRANCH 211 214
ATOM    214  CD  ARG d   1      44.806 -10.813  16.743  0.00  0.00     0.009 C 
ATOM    215  H   ARG d   1      44.470 -10.450  15.761  0.00  0.00     0.064 H 
ATOM    216  H   ARG d   1      45.883 -10.620  16.857  0.00  0.00     0.064 H 
BRANCH 214 217
ATOM    217  NE  ARG d   1      44.080 -10.100  17.790  0.00  0.00    -0.227 N 
ATOM    218  CZ  ARG d   1      44.528  -9.011  18.405  0.00  0.00     0.665 C 
ATOM    219  NH1 ARG d   1      45.706  -8.498  18.079  0.00  0.00    -0.235 N 
ATOM    220  NH2 ARG d   1      43.795  -8.435  19.348  0.00  0.00    -0.235 N 
ATOM    221  H   ARG d   1      46.050  -7.654  18.558  0.00  0.00     0.174 HD
ATOM    222  H   ARG d   1      46.277  -8.944  17.347  0.00  0.00     0.174 HD
ATOM    223  H   ARG d   1      42.879  -8.832  19.603  0.00  0.00     0.174 HD
ATOM    224  H   ARG d   1      44.141  -7.591  19.826  0.00  0.00     0.174 HD
ATOM    225  H   ARG d   1      43.159 -10.466  18.071  0.00  0.00     0.177 HD
ENDBRANCH 214 217
ENDBRANCH 211 214
ENDBRANCH 208 211
ENDBRANCH   1 208
TORSDOF 60
