REMARK  6 active torsions:
REMARK  status: ('A' for Active; 'I' for Inactive)
REMARK    1  A    between atoms: C23_7  and  C22_8 
REMARK    2  A    between atoms: C22_8  and  N21_9 
REMARK       I    between atoms: N21_9  and  C19_10 
REMARK    3  A    between atoms: C19_10  and  C16_12 
REMARK    4  A    between atoms: N13_15  and  C11_18 
REMARK    5  A    between atoms: C11_18  and  C12_19 
REMARK    6  A    between atoms: C11_18  and  C1_20 
ROOT
ATOM      1  C16 P85 d   1     -14.081  47.587 -39.021  0.00  0.00     0.026 C 
ATOM      2  C17 P85 d   1     -14.121  46.135 -39.226  0.00  0.00    -0.031 C 
ATOM      3  C18 P85 d   1     -15.468  45.702 -39.724  0.00  0.00     0.085 C 
ATOM      4  N13 P85 d   1     -16.619  46.104 -38.853  0.00  0.00    -0.063 N 
ATOM      5  C14 P85 d   1     -16.393  47.373 -38.097  0.00  0.00     0.085 C 
ATOM      6  C15 P85 d   1     -14.997  47.941 -37.919  0.00  0.00    -0.031 C 
ATOM      7  H   P85 d   1     -14.419  48.101 -39.933  0.00  0.00     0.054 H 
ATOM      8  H   P85 d   1     -13.911  45.630 -38.271  0.00  0.00     0.036 H 
ATOM      9  H   P85 d   1     -13.356  45.854 -39.965  0.00  0.00     0.036 H 
ATOM     10  H   P85 d   1     -15.467  44.605 -39.804  0.00  0.00     0.076 H 
ATOM     11  H   P85 d   1     -15.623  46.143 -40.720  0.00  0.00     0.076 H 
ATOM     12  H   P85 d   1     -16.607  45.395 -38.137  0.00  0.00     0.280 HD
ATOM     13  H   P85 d   1     -16.795  47.210 -37.086  0.00  0.00     0.076 H 
ATOM     14  H   P85 d   1     -16.983  48.149 -38.606  0.00  0.00     0.076 H 
ATOM     15  H   P85 d   1     -15.070  49.037 -37.863  0.00  0.00     0.036 H 
ATOM     16  H   P85 d   1     -14.579  47.553 -36.978  0.00  0.00     0.036 H 
ENDROOT
BRANCH   4  17
ATOM     17  C11 P85 d   1     -18.095  45.992 -39.428  0.00  0.00     0.126 C 
ATOM     18  H   P85 d   1     -18.192  46.787 -40.182  0.00  0.00     0.091 H 
BRANCH  17  19
ATOM     19  C12 P85 d   1     -19.272  46.112 -38.534  0.00  0.00    -0.045 C 
ATOM     20  H   P85 d   1     -20.194  46.006 -39.125  0.00  0.00     0.030 H 
ATOM     21  H   P85 d   1     -19.262  47.097 -38.044  0.00  0.00     0.030 H 
ATOM     22  H   P85 d   1     -19.234  45.322 -37.770  0.00  0.00     0.030 H 
ENDBRANCH  17  19
BRANCH  17  23
ATOM     23  C1  P85 d   1     -18.227  44.575 -40.140  0.00  0.00    -0.017 A 
ATOM     24  C2  P85 d   1     -18.302  43.470 -39.357  0.00  0.00    -0.074 A 
ATOM     25  C3  P85 d   1     -18.395  42.122 -39.963  0.00  0.00    -0.082 A 
ATOM     26  H   P85 d   1     -18.294  43.575 -38.278  0.00  0.00     0.084 H 
ATOM     27  C4  P85 d   1     -18.382  41.997 -41.319  0.00  0.00    -0.072 A 
ATOM     28  H   P85 d   1     -18.473  41.243 -39.333  0.00  0.00     0.083 H 
ATOM     29  C5  P85 d   1     -18.313  43.194 -42.166  0.00  0.00    -0.025 A 
ATOM     30  H   P85 d   1     -18.423  41.014 -41.773  0.00  0.00     0.084 H 
ATOM     31  C6  P85 d   1     -18.223  44.439 -41.609  0.00  0.00    -0.018 A 
ATOM     32  C10 P85 d   1     -18.299  43.047 -43.566  0.00  0.00    -0.072 A 
ATOM     33  C7  P85 d   1     -18.108  45.609 -42.446  0.00  0.00    -0.072 A 
ATOM     34  C8  P85 d   1     -18.112  45.464 -43.829  0.00  0.00    -0.082 A 
ATOM     35  H   P85 d   1     -18.019  46.593 -42.000  0.00  0.00     0.084 H 
ATOM     36  C9  P85 d   1     -18.199  44.206 -44.386  0.00  0.00    -0.082 A 
ATOM     37  H   P85 d   1     -18.047  46.338 -44.467  0.00  0.00     0.083 H 
ATOM     38  H   P85 d   1     -18.191  44.098 -45.465  0.00  0.00     0.083 H 
ATOM     39  H   P85 d   1     -18.364  42.062 -44.014  0.00  0.00     0.084 H 
ENDBRANCH  17  23
ENDBRANCH   4  17
BRANCH   1  40
ATOM     40  C19 P85 d   1     -12.630  47.963 -38.755  0.00  0.00     0.222 C 
ATOM     41  N21 P85 d   1     -11.818  48.436 -39.807  0.00  0.00    -0.356 N 
ATOM     42  H   P85 d   1     -12.205  48.539 -40.723  0.00  0.00     0.162 HD
ATOM     43  O20 P85 d   1     -12.205  47.867 -37.647  0.00  0.00    -0.273 OA
BRANCH  41  44
ATOM     44  C22 P85 d   1     -10.410  48.779 -39.570  0.00  0.00     0.019 C 
ATOM     45  H   P85 d   1     -10.264  49.862 -39.698  0.00  0.00     0.071 H 
ATOM     46  H   P85 d   1     -10.123  48.489 -38.549  0.00  0.00     0.071 H 
BRANCH  44  47
ATOM     47  C23 P85 d   1      -9.576  48.034 -40.562  0.00  0.00    -0.040 A 
ATOM     48  C28 P85 d   1      -9.925  46.653 -40.864  0.00  0.00    -0.072 A 
ATOM     49  C27 P85 d   1      -9.224  45.924 -41.814  0.00  0.00    -0.045 A 
ATOM     50  H   P85 d   1     -10.748  46.185 -40.336  0.00  0.00     0.084 H 
ATOM     51  C26 P85 d   1      -8.164  46.560 -42.528  0.00  0.00     0.116 A 
ATOM     52  H   P85 d   1      -9.477  44.889 -42.011  0.00  0.00     0.088 H 
ATOM     53  F55 P85 d   1      -7.462  45.903 -43.442  0.00  0.00    -0.206 F 
ATOM     54  C25 P85 d   1      -7.859  47.951 -42.237  0.00  0.00    -0.045 A 
ATOM     55  C24 P85 d   1      -8.549  48.671 -41.271  0.00  0.00    -0.072 A 
ATOM     56  H   P85 d   1      -7.068  48.442 -42.792  0.00  0.00     0.088 H 
ATOM     57  H   P85 d   1      -8.298  49.706 -41.069  0.00  0.00     0.084 H 
ENDBRANCH  44  47
ENDBRANCH  41  44
ENDBRANCH   1  40
TORSDOF 6
