REMARK  6 active torsions:
REMARK  status: ('A' for Active; 'I' for Inactive)
REMARK    1  A    between atoms: C23_7  and  C22_8 
REMARK    2  A    between atoms: C22_8  and  N21_9 
REMARK       I    between atoms: N21_9  and  C19_10 
REMARK    3  A    between atoms: C19_10  and  C16_12 
REMARK    4  A    between atoms: N13_15  and  C11_18 
REMARK    5  A    between atoms: C11_18  and  C12_19 
REMARK    6  A    between atoms: C11_18  and  C10_20 
ROOT
ATOM      1  C16 S88 d   1     -13.673  48.027 -39.178  0.00  0.00     0.026 C 
ATOM      2  C15 S88 d   1     -14.537  48.343 -38.053  0.00  0.00    -0.031 C 
ATOM      3  C14 S88 d   1     -15.970  47.929 -38.406  0.00  0.00     0.085 C 
ATOM      4  N13 S88 d   1     -16.217  46.606 -39.046  0.00  0.00    -0.063 N 
ATOM      5  C18 S88 d   1     -15.113  46.159 -39.934  0.00  0.00     0.085 C 
ATOM      6  C17 S88 d   1     -13.714  46.569 -39.514  0.00  0.00    -0.031 C 
ATOM      7  H   S88 d   1     -13.999  48.607 -40.054  0.00  0.00     0.054 H 
ATOM      8  H   S88 d   1     -14.502  49.424 -37.851  0.00  0.00     0.036 H 
ATOM      9  H   S88 d   1     -14.201  47.793 -37.162  0.00  0.00     0.036 H 
ATOM     10  H   S88 d   1     -16.364  48.694 -39.091  0.00  0.00     0.076 H 
ATOM     11  H   S88 d   1     -16.547  47.944 -37.469  0.00  0.00     0.076 H 
ATOM     12  H   S88 d   1     -16.183  45.957 -38.276  0.00  0.00     0.280 HD
ATOM     13  H   S88 d   1     -15.298  46.573 -40.936  0.00  0.00     0.076 H 
ATOM     14  H   S88 d   1     -15.142  45.060 -39.980  0.00  0.00     0.076 H 
ATOM     15  H   S88 d   1     -13.416  45.986 -38.630  0.00  0.00     0.036 H 
ATOM     16  H   S88 d   1     -13.015  46.368 -40.339  0.00  0.00     0.036 H 
ENDROOT
BRANCH   4  17
ATOM     17  C11 S88 d   1     -17.632  46.413 -39.615  0.00  0.00     0.126 C 
ATOM     18  H   S88 d   1     -17.802  47.187 -40.378  0.00  0.00     0.091 H 
BRANCH  17  19
ATOM     19  C12 S88 d   1     -18.709  46.542 -38.558  0.00  0.00    -0.045 C 
ATOM     20  H   S88 d   1     -19.696  46.395 -39.021  0.00  0.00     0.030 H 
ATOM     21  H   S88 d   1     -18.661  47.544 -38.106  0.00  0.00     0.030 H 
ATOM     22  H   S88 d   1     -18.552  45.781 -37.780  0.00  0.00     0.030 H 
ENDBRANCH  17  19
BRANCH  17  23
ATOM     23  C10 S88 d   1     -17.752  45.015 -40.282  0.00  0.00    -0.017 A 
ATOM     24  C2  S88 d   1     -17.800  44.818 -41.777  0.00  0.00    -0.018 A 
ATOM     25  C1  S88 d   1     -17.737  45.926 -42.680  0.00  0.00    -0.072 A 
ATOM     26  C3  S88 d   1     -17.881  43.535 -42.284  0.00  0.00    -0.025 A 
ATOM     27  C6  S88 d   1     -17.764  45.724 -44.076  0.00  0.00    -0.082 A 
ATOM     28  H   S88 d   1     -17.668  46.934 -42.286  0.00  0.00     0.084 H 
ATOM     29  C5  S88 d   1     -17.834  44.413 -44.574  0.00  0.00    -0.082 A 
ATOM     30  H   S88 d   1     -17.731  46.569 -44.755  0.00  0.00     0.083 H 
ATOM     31  C4  S88 d   1     -17.923  43.330 -43.707  0.00  0.00    -0.072 A 
ATOM     32  H   S88 d   1     -17.819  44.244 -45.645  0.00  0.00     0.083 H 
ATOM     33  H   S88 d   1     -18.024  42.327 -44.105  0.00  0.00     0.084 H 
ATOM     34  C7  S88 d   1     -17.954  42.383 -41.381  0.00  0.00    -0.072 A 
ATOM     35  C8  S88 d   1     -17.960  42.579 -39.957  0.00  0.00    -0.082 A 
ATOM     36  H   S88 d   1     -18.004  41.380 -41.788  0.00  0.00     0.084 H 
ATOM     37  C9  S88 d   1     -17.846  43.909 -39.413  0.00  0.00    -0.074 A 
ATOM     38  H   S88 d   1     -18.050  41.727 -39.293  0.00  0.00     0.083 H 
ATOM     39  H   S88 d   1     -17.833  44.058 -38.339  0.00  0.00     0.084 H 
ENDBRANCH  17  23
ENDBRANCH   4  17
BRANCH   1  40
ATOM     40  C19 S88 d   1     -12.201  48.409 -38.813  0.00  0.00     0.222 C 
ATOM     41  N21 S88 d   1     -11.353  48.955 -39.803  0.00  0.00    -0.356 N 
ATOM     42  H   S88 d   1     -11.707  49.119 -40.724  0.00  0.00     0.162 HD
ATOM     43  O20 S88 d   1     -11.824  48.239 -37.670  0.00  0.00    -0.273 OA
BRANCH  41  44
ATOM     44  C22 S88 d   1      -9.977  49.279 -39.495  0.00  0.00     0.019 C 
ATOM     45  H   S88 d   1      -9.867  50.372 -39.443  0.00  0.00     0.071 H 
ATOM     46  H   S88 d   1      -9.711  48.837 -38.523  0.00  0.00     0.071 H 
BRANCH  44  47
ATOM     47  C23 S88 d   1      -9.021  48.720 -40.589  0.00  0.00    -0.038 A 
ATOM     48  C24 S88 d   1      -7.889  49.413 -40.979  0.00  0.00    -0.075 A 
ATOM     49  C25 S88 d   1      -7.044  48.874 -41.989  0.00  0.00    -0.080 A 
ATOM     50  H   S88 d   1      -7.647  50.363 -40.517  0.00  0.00     0.084 H 
ATOM     51  C26 S88 d   1      -7.370  47.652 -42.608  0.00  0.00    -0.046 A 
ATOM     52  H   S88 d   1      -6.146  49.406 -42.283  0.00  0.00     0.083 H 
ATOM     53  C27 S88 d   1      -8.495  46.980 -42.218  0.00  0.00     0.117 A 
ATOM     54  H   S88 d   1      -6.734  47.247 -43.387  0.00  0.00     0.088 H 
ATOM     55  F29 S88 d   1      -8.795  45.841 -42.792  0.00  0.00    -0.206 F 
ATOM     56  C28 S88 d   1      -9.340  47.495 -41.209  0.00  0.00    -0.038 A 
ATOM     57  H   S88 d   1     -10.229  46.950 -40.913  0.00  0.00     0.089 H 
ENDBRANCH  44  47
ENDBRANCH  41  44
ENDBRANCH   1  40
TORSDOF 6
