REMARK  2 active torsions:
REMARK  status: ('A' for Active; 'I' for Inactive)
REMARK    1  A    between atoms: CAI_9  and  NAA_1 
REMARK    2  A    between atoms: CAH_8  and  CAK_11 
ROOT
ATOM      1  FAD 5RG d   1     -19.906 -27.525  11.530  0.00  0.00    -0.206 F 
ATOM      2  CAE 5RG d   1     -20.317 -24.295  12.723  0.00  0.00    -0.054 A 
ATOM      3  CAF 5RG d   1     -20.223 -25.351  11.834  0.00  0.00    -0.043 A 
ATOM      4  CAG 5RG d   1     -19.816 -26.885  13.645  0.00  0.00    -0.027 A 
ATOM      5  CAI 5RG d   1     -20.163 -24.547  14.074  0.00  0.00     0.043 A 
ATOM      6  CAJ 5RG d   1     -19.979 -26.628  12.300  0.00  0.00     0.117 A 
ATOM      7  CAK 5RG d   1     -19.912 -25.834  14.537  0.00  0.00     0.069 A 
ATOM      8  H   5RG d   1     -20.508 -23.289  12.367  0.00  0.00     0.087 H 
ATOM      9  H   5RG d   1     -20.341 -25.176  10.771  0.00  0.00     0.088 H 
ATOM     10  H   5RG d   1     -19.617 -27.891  13.995  0.00  0.00     0.089 H 
ENDROOT
BRANCH   5  11
ATOM     11  NAA 5RG d   1     -20.243 -23.581  14.986  0.00  0.00    -0.398 N 
ATOM     12  H   5RG d   1     -20.427 -22.611  14.694  0.00  0.00     0.156 HD
ATOM     13  H   5RG d   1     -20.121 -23.804  15.984  0.00  0.00     0.156 HD
ENDBRANCH   5  11
BRANCH   7  14
ATOM     14  CAH 5RG d   1     -19.767 -26.090  15.888  0.00  0.00     0.211 C 
ATOM     15  OAB 5RG d   1     -19.472 -25.162  16.673  0.00  0.00    -0.644 OA
ATOM     16  OAC 5RG d   1     -19.952 -27.254  16.311  0.00  0.00    -0.644 OA
ENDBRANCH   7  14
TORSDOF 2
