REMARK  2 active torsions:
REMARK  status: ('A' for Active; 'I' for Inactive)
REMARK    1  A    between atoms: CAH_2  and  CAK_4 
REMARK    2  A    between atoms: CAI_10  and  NAA_11 
ROOT
ATOM      1  CAK 6F0 d   1     -18.134 -33.595  17.016  0.00  0.00     0.105 A 
ATOM      2  CAJ 6F0 d   1     -17.219 -33.924  16.000  0.00  0.00     0.135 A 
ATOM      3  FAD 6F0 d   1     -16.623 -35.122  15.914  0.00  0.00    -0.205 F 
ATOM      4  CAG 6F0 d   1     -16.917 -32.993  15.019  0.00  0.00    -0.044 A 
ATOM      5  CAE 6F0 d   1     -17.468 -31.723  15.011  0.00  0.00    -0.078 A 
ATOM      6  CAF 6F0 d   1     -18.357 -31.376  16.003  0.00  0.00    -0.056 A 
ATOM      7  CAI 6F0 d   1     -18.688 -32.298  16.979  0.00  0.00     0.046 A 
ATOM      8  H   6F0 d   1     -16.226 -33.269  14.231  0.00  0.00     0.088 H 
ATOM      9  H   6F0 d   1     -17.203 -31.013  14.236  0.00  0.00     0.083 H 
ATOM     10  H   6F0 d   1     -18.796 -30.385  16.019  0.00  0.00     0.086 H 
ENDROOT
BRANCH   1  11
ATOM     11  CAH 6F0 d   1     -18.487 -34.529  18.018  0.00  0.00     0.214 C 
ATOM     12  OAB 6F0 d   1     -17.865 -35.614  18.131  0.00  0.00    -0.644 OA
ATOM     13  OAC 6F0 d   1     -19.457 -34.294  18.789  0.00  0.00    -0.644 OA
ENDBRANCH   1  11
BRANCH   7  14
ATOM     14  NAA 6F0 d   1     -19.549 -31.958  17.920  0.00  0.00    -0.398 N 
ATOM     15  H   6F0 d   1     -19.805 -32.635  18.653  0.00  0.00     0.156 HD
ATOM     16  H   6F0 d   1     -19.965 -31.016  17.921  0.00  0.00     0.156 HD
ENDBRANCH   7  14
TORSDOF 2
