REMARK  6 active torsions:
REMARK  status: ('A' for Active; 'I' for Inactive)
REMARK    1  A    between atoms: C2_1  and  N1_15 
REMARK    2  A    between atoms: C7_3  and  C6_2 
REMARK    3  A    between atoms: C9_20  and  C7_3 
REMARK    4  A    between atoms: O14_21  and  C13_7 
REMARK    5  A    between atoms: C16_9  and  C15_8 
REMARK    6  A    between atoms: C15_8  and  O14_21 
ROOT
ATOM      1  C10 1VE d   1      19.497  24.522  -0.475  0.00  0.00    -0.069 A 
ATOM      2  C11 1VE d   1      20.170  25.717  -0.267  0.00  0.00    -0.079 A 
ATOM      3  C12 1VE d   1      19.725  26.877  -0.868  0.00  0.00    -0.051 A 
ATOM      4  C13 1VE d   1      18.620  26.839  -1.690  0.00  0.00     0.070 A 
ATOM      5  C26 1VE d   1      17.929  25.658  -1.883  0.00  0.00    -0.037 A 
ATOM      6  C9  1VE d   1      18.368  24.479  -1.286  0.00  0.00     0.019 A 
ATOM      7  H   1VE d   1      19.854  23.614  -0.002  0.00  0.00     0.085 H 
ATOM      8  H   1VE d   1      21.047  25.740   0.369  0.00  0.00     0.083 H 
ATOM      9  H   1VE d   1      20.242  27.814  -0.694  0.00  0.00     0.087 H 
ATOM     10  H   1VE d   1      17.040  25.649  -2.503  0.00  0.00     0.089 H 
ENDROOT
BRANCH   4  11
ATOM     11  O14 1VE d   1      18.213  28.053  -2.255  0.00  0.00    -0.344 OA
BRANCH  11  12
ATOM     12  C15 1VE d   1      16.818  28.310  -2.423  0.00  0.00     0.080 C 
ATOM     13  H   1VE d   1      16.251  27.641  -1.759  0.00  0.00     0.087 H 
ATOM     14  H   1VE d   1      16.614  29.356  -2.150  0.00  0.00     0.087 H 
BRANCH  12  15
ATOM     15  C16 1VE d   1      16.374  28.084  -3.825  0.00  0.00     0.129 A 
ATOM     16  N17 1VE d   1      15.552  27.115  -4.230  0.00  0.00    -0.231 NA
ATOM     17  C18 1VE d   1      15.377  27.287  -5.586  0.00  0.00     0.085 A 
ATOM     18  C19 1VE d   1      14.628  26.548  -6.522  0.00  0.00    -0.053 A 
ATOM     19  C23 1VE d   1      16.091  28.393  -5.990  0.00  0.00     0.062 A 
ATOM     20  C20 1VE d   1      14.616  26.943  -7.850  0.00  0.00    -0.081 A 
ATOM     21  H   1VE d   1      14.065  25.677  -6.206  0.00  0.00     0.087 H 
ATOM     22  C21 1VE d   1      15.329  28.061  -8.253  0.00  0.00    -0.081 A 
ATOM     23  H   1VE d   1      14.046  26.375  -8.577  0.00  0.00     0.083 H 
ATOM     24  C22 1VE d   1      16.071  28.790  -7.332  0.00  0.00    -0.055 A 
ATOM     25  H   1VE d   1      15.308  28.368  -9.292  0.00  0.00     0.083 H 
ATOM     26  H   1VE d   1      16.631  29.661  -7.651  0.00  0.00     0.087 H 
ATOM     27  N24 1VE d   1      16.691  28.867  -4.867  0.00  0.00    -0.341 N 
ATOM     28  H   1VE d   1      17.296  29.699  -4.823  0.00  0.00     0.167 HD
ENDBRANCH  12  15
ENDBRANCH  11  12
ENDBRANCH   4  11
BRANCH   6  29
ATOM     29  C7  1VE d   1      17.611  23.218  -1.558  0.00  0.00     0.217 C 
ATOM     30  O8  1VE d   1      16.541  23.279  -2.154  0.00  0.00    -0.285 OA
BRANCH  29  31
ATOM     31  C6  1VE d   1      18.094  21.872  -1.149  0.00  0.00     0.184 A 
ATOM     32  C2  1VE d   1      17.290  20.704  -1.016  0.00  0.00     0.186 A 
ATOM     33  N3  1VE d   1      18.038  19.701  -0.661  0.00  0.00    -0.085 NA
ATOM     34  O4  1VE d   1      19.307  20.214  -0.572  0.00  0.00    -0.104 OA
ATOM     35  N5  1VE d   1      19.333  21.561  -0.890  0.00  0.00    -0.097 NA
BRANCH  32  36
ATOM     36  N1  1VE d   1      15.953  20.611  -1.196  0.00  0.00    -0.380 N 
ATOM     37  H   1VE d   1      15.478  19.706  -1.071  0.00  0.00     0.158 HD
ATOM     38  H   1VE d   1      15.409  21.446  -1.458  0.00  0.00     0.158 HD
ENDBRANCH  32  36
ENDBRANCH  29  31
ENDBRANCH   6  29
TORSDOF 6
