REMARK  9 active torsions:
REMARK  status: ('A' for Active; 'I' for Inactive)
REMARK    1  A    between atoms: C2_2  and  C1_1 
REMARK    2  A    between atoms: O3_11  and  C2_2 
REMARK    3  A    between atoms: C4_12  and  C6_3 
REMARK    4  A    between atoms: C6_3  and  O7_14 
REMARK    5  A    between atoms: O7_14  and  C8_4 
REMARK    6  A    between atoms: C12_7  and  C14_9 
REMARK    7  A    between atoms: C14_9  and  C16_10 
REMARK    8  A    between atoms: O3_11  and  C4_12 
REMARK    9  A    between atoms: C20_20  and  N21_21 
ROOT
ATOM      1  C8  1VJ d   1      18.652  26.836  -2.007  0.00  0.00     0.070 A 
ATOM      2  C10 1VJ d   1      20.099  25.884  -0.363  0.00  0.00    -0.079 A 
ATOM      3  C11 1VJ d   1      19.506  24.653  -0.550  0.00  0.00    -0.069 A 
ATOM      4  C12 1VJ d   1      18.477  24.505  -1.470  0.00  0.00     0.019 A 
ATOM      5  C13 1VJ d   1      18.056  25.614  -2.197  0.00  0.00    -0.037 A 
ATOM      6  C9  1VJ d   1      19.671  26.980  -1.093  0.00  0.00    -0.051 A 
ATOM      7  H   1VJ d   1      20.902  25.994   0.357  0.00  0.00     0.083 H 
ATOM      8  H   1VJ d   1      19.845  23.798   0.024  0.00  0.00     0.085 H 
ATOM      9  H   1VJ d   1      17.253  25.513  -2.918  0.00  0.00     0.089 H 
ATOM     10  H   1VJ d   1      20.137  27.948  -0.945  0.00  0.00     0.087 H 
ENDROOT
BRANCH   1  11
ATOM     11  O7  1VJ d   1      18.244  27.961  -2.725  0.00  0.00    -0.342 OA
BRANCH  11  12
ATOM     12  C6  1VJ d   1      18.041  27.798  -4.132  0.00  0.00     0.106 C 
ATOM     13  H   1VJ d   1      18.397  28.702  -4.647  0.00  0.00     0.090 H 
ATOM     14  H   1VJ d   1      18.621  26.928  -4.474  0.00  0.00     0.090 H 
BRANCH  12  15
ATOM     15  C4  1VJ d   1      16.596  27.582  -4.480  0.00  0.00     0.283 C 
ATOM     16  O5  1VJ d   1      15.687  27.555  -3.685  0.00  0.00    -0.263 OA
BRANCH  15  17
ATOM     17  O3  1VJ d   1      16.456  27.422  -5.810  0.00  0.00    -0.320 OA
BRANCH  17  18
ATOM     18  C2  1VJ d   1      15.127  27.088  -6.304  0.00  0.00     0.026 C 
ATOM     19  H   1VJ d   1      14.821  26.108  -5.909  0.00  0.00     0.074 H 
ATOM     20  H   1VJ d   1      14.408  27.855  -5.980  0.00  0.00     0.074 H 
BRANCH  18  21
ATOM     21  C1  1VJ d   1      15.171  27.036  -7.826  0.00  0.00    -0.056 C 
ATOM     22  H   1VJ d   1      14.173  26.784  -8.213  0.00  0.00     0.030 H 
ATOM     23  H   1VJ d   1      15.892  26.270  -8.146  0.00  0.00     0.030 H 
ATOM     24  H   1VJ d   1      15.480  28.016  -8.218  0.00  0.00     0.030 H 
ENDBRANCH  18  21
ENDBRANCH  17  18
ENDBRANCH  15  17
ENDBRANCH  12  15
ENDBRANCH  11  12
ENDBRANCH   1  11
BRANCH   4  25
ATOM     25  C14 1VJ d   1      17.787  23.210  -1.729  0.00  0.00     0.217 C 
ATOM     26  O15 1VJ d   1      16.760  23.220  -2.400  0.00  0.00    -0.285 OA
BRANCH  25  27
ATOM     27  C16 1VJ d   1      18.293  21.908  -1.207  0.00  0.00     0.184 A 
ATOM     28  N17 1VJ d   1      19.532  21.691  -0.864  0.00  0.00    -0.097 NA
ATOM     29  O18 1VJ d   1      19.563  20.368  -0.444  0.00  0.00    -0.104 OA
ATOM     30  N19 1VJ d   1      18.349  19.782  -0.531  0.00  0.00    -0.085 NA
ATOM     31  C20 1VJ d   1      17.555  20.703  -0.995  0.00  0.00     0.186 A 
BRANCH  31  32
ATOM     32  N21 1VJ d   1      16.238  20.487  -1.220  0.00  0.00    -0.380 N 
ATOM     33  H   1VJ d   1      15.827  19.563  -1.023  0.00  0.00     0.158 HD
ATOM     34  H   1VJ d   1      15.647  21.246  -1.588  0.00  0.00     0.158 HD
ENDBRANCH  31  32
ENDBRANCH  25  27
ENDBRANCH   4  25
TORSDOF 9
