REMARK  3 active torsions:
REMARK  status: ('A' for Active; 'I' for Inactive)
REMARK    1  A    between atoms: C2_1  and  N1_9 
REMARK    2  A    between atoms: C7_3  and  C6_2 
REMARK    3  A    between atoms: C9_14  and  C7_3 
ROOT
ATOM      1  C10 1VK d   1      17.694  25.453  -2.043  0.00  0.00    -0.069 A 
ATOM      2  C11 1VK d   1      18.305  26.678  -1.893  0.00  0.00    -0.082 A 
ATOM      3  C12 1VK d   1      19.403  26.805  -1.070  0.00  0.00    -0.083 A 
ATOM      4  C13 1VK d   1      19.892  25.707  -0.396  0.00  0.00    -0.082 A 
ATOM      5  C14 1VK d   1      19.284  24.473  -0.542  0.00  0.00    -0.069 A 
ATOM      6  C9  1VK d   1      18.177  24.334  -1.368  0.00  0.00     0.017 A 
ATOM      7  H   1VK d   1      16.830  25.359  -2.691  0.00  0.00     0.085 H 
ATOM      8  H   1VK d   1      17.922  27.543  -2.423  0.00  0.00     0.083 H 
ATOM      9  H   1VK d   1      19.883  27.770  -0.953  0.00  0.00     0.083 H 
ATOM     10  H   1VK d   1      20.756  25.811   0.251  0.00  0.00     0.083 H 
ATOM     11  H   1VK d   1      19.673  23.612  -0.010  0.00  0.00     0.085 H 
ENDROOT
BRANCH   6  12
ATOM     12  C7  1VK d   1      17.467  23.034  -1.577  0.00  0.00     0.216 C 
ATOM     13  O8  1VK d   1      16.385  23.033  -2.159  0.00  0.00    -0.285 OA
BRANCH  12  14
ATOM     14  C6  1VK d   1      18.009  21.729  -1.114  0.00  0.00     0.184 A 
ATOM     15  C2  1VK d   1      17.249  20.536  -0.915  0.00  0.00     0.186 A 
ATOM     16  N3  1VK d   1      18.039  19.585  -0.509  0.00  0.00    -0.085 NA
ATOM     17  O4  1VK d   1      19.290  20.161  -0.448  0.00  0.00    -0.104 OA
ATOM     18  N5  1VK d   1      19.258  21.489  -0.826  0.00  0.00    -0.097 NA
BRANCH  15  19
ATOM     19  N1  1VK d   1      15.916  20.371  -1.105  0.00  0.00    -0.380 N 
ATOM     20  H   1VK d   1      15.480  19.455  -0.926  0.00  0.00     0.158 HD
ATOM     21  H   1VK d   1      15.340  21.162  -1.428  0.00  0.00     0.158 HD
ENDBRANCH  15  19
ENDBRANCH  12  14
ENDBRANCH   6  12
TORSDOF 3
