REMARK WARNING: 32 MAX_TORS EXCEEDED!!!
REMARK  62 active torsions:
REMARK  status: ('A' for Active; 'I' for Inactive)
REMARK    1  A    between atoms: N_1  and  CA_2 
REMARK    2  A    between atoms: CA_2  and  C_3 
REMARK    3  A    between atoms: CA_2  and  CB_5 
REMARK       I    between atoms: C_3  and  N_10 
REMARK    4  A    between atoms: CB_5  and  CG_6 
REMARK    5  A    between atoms: CG_6  and  CD_7 
REMARK    6  A    between atoms: N_10  and  CA_11 
REMARK    7  A    between atoms: CA_11  and  C_12 
REMARK    8  A    between atoms: CA_11  and  CB_14 
REMARK       I    between atoms: C_12  and  N_18 
REMARK    9  A    between atoms: CB_14  and  CG_15 
REMARK   10  A    between atoms: N_18  and  CA_19 
REMARK   11  A    between atoms: CA_19  and  C_20 
REMARK   12  A    between atoms: CA_19  and  CB_22 
REMARK       I    between atoms: C_20  and  N_26 
REMARK   13  A    between atoms: CB_22  and  CG_23 
REMARK   14  A    between atoms: CG_23  and  SD_24 
REMARK   15  A    between atoms: SD_24  and  CE_25 
REMARK   16  A    between atoms: N_26  and  CA_27 
REMARK   17  A    between atoms: CA_27  and  C_28 
REMARK   18  A    between atoms: CA_27  and  CB_30 
REMARK       I    between atoms: C_28  and  N_38 
REMARK   19  A    between atoms: CB_30  and  CG_31 
REMARK   20  A    between atoms: CZ_36  and  OH_37 
REMARK   21  A    between atoms: N_38  and  CA_39 
REMARK   22  A    between atoms: CA_39  and  C_40 
REMARK   23  A    between atoms: CA_39  and  CB_42 
REMARK       I    between atoms: C_40  and  N_49 
REMARK   24  A    between atoms: CB_42  and  CG_43 
REMARK   25  A    between atoms: CG_43  and  CD_44 
REMARK   26  A    between atoms: CD_44  and  NE_45 
REMARK       I    between atoms: NE_45  and  CZ_46 
REMARK       I    between atoms: CZ_46  and  NH1_47 
REMARK   27  A    between atoms: N_49  and  CA_50 
REMARK   28  A    between atoms: CA_50  and  C_51 
REMARK   29  A    between atoms: CA_50  and  CB_53 
REMARK       I    between atoms: C_51  and  N_54 
REMARK   30  A    between atoms: N_54  and  CA_55 
REMARK   31  A    between atoms: CA_55  and  C_56 
REMARK   32  A    between atoms: CA_55  and  CB_58 
REMARK       I    between atoms: C_56  and  N_59 
REMARK   33  A    between atoms: N_59  and  CA_60 
REMARK   34  A    between atoms: CA_60  and  C_61 
REMARK   35  A    between atoms: CA_60  and  CB_63 
REMARK       I    between atoms: C_61  and  N_67 
REMARK   36  A    between atoms: CB_63  and  CG_64 
REMARK   37  A    between atoms: N_67  and  CA_68 
REMARK   38  A    between atoms: CA_68  and  C_69 
REMARK   39  A    between atoms: CA_68  and  CB_71 
REMARK       I    between atoms: C_69  and  N_76 
REMARK   40  A    between atoms: CB_71  and  CG_72 
REMARK   41  A    between atoms: CG_72  and  CD_73 
REMARK   42  A    between atoms: N_76  and  CA_77 
REMARK   43  A    between atoms: CA_77  and  C_78 
REMARK   44  A    between atoms: CA_77  and  CB_80 
REMARK       I    between atoms: C_78  and  N_84 
REMARK   45  A    between atoms: CB_80  and  CG1_81 
REMARK   46  A    between atoms: CB_80  and  CG2_82 
REMARK   47  A    between atoms: CG1_81  and  CD1_83 
REMARK   48  A    between atoms: N_84  and  CA_85 
REMARK   49  A    between atoms: CA_85  and  C_86 
REMARK   50  A    between atoms: CA_85  and  CB_88 
REMARK       I    between atoms: C_86  and  N_89 
REMARK   51  A    between atoms: N_89  and  CA_90 
REMARK   52  A    between atoms: CA_90  and  C_91 
REMARK   53  A    between atoms: CA_90  and  CB_93 
REMARK       I    between atoms: C_91  and  N_98 
REMARK   54  A    between atoms: CB_93  and  CG_94 
REMARK   55  A    between atoms: CG_94  and  CD_95 
REMARK   56  A    between atoms: CD_95  and  CE_96 
REMARK   57  A    between atoms: CE_96  and  NZ_97 
REMARK   58  A    between atoms: N_98  and  CA_99 
REMARK   59  A    between atoms: CA_99  and  C_100 
REMARK   60  A    between atoms: CA_99  and  CB_102 
REMARK   61  A    between atoms: CB_102  and  CG_103 
REMARK   62  A    between atoms: CG_103  and  CD_104 
ROOT
ATOM      1  C   ALA d   1       6.602  -6.204   3.897  0.00  0.00     0.240 C 
ATOM      2  O   ALA d   1       6.591  -5.731   2.761  0.00  0.00    -0.271 OA
ATOM      3  N   ALA d   1       5.528  -6.735   4.474  0.00  0.00    -0.346 N 
ATOM      4  H   ALA d   1       5.591  -7.042   5.423  0.00  0.00     0.163 HD
ENDROOT
BRANCH   3   5
ATOM      5  CA  ALA d   1       4.259  -6.884   3.766  0.00  0.00     0.086 C 
ATOM      6  H   ALA d   1       4.442  -7.525   2.891  0.00  0.00     0.086 H 
BRANCH   5   7
ATOM      7  C   ALA d   1       3.703  -5.557   3.253  0.00  0.00     0.240 C 
ATOM      8  O   ALA d   1       3.146  -5.496   2.158  0.00  0.00    -0.271 OA
ATOM      9  N   ASP d   1       3.860  -4.499   4.043  0.00  0.00    -0.346 N 
ATOM     10  H   ASP d   1       4.342  -4.602   4.913  0.00  0.00     0.163 HD
BRANCH   9  11
ATOM     11  CA  ASP d   1       3.340  -3.189   3.662  0.00  0.00     0.098 C 
ATOM     12  H   ASP d   1       2.307  -3.336   3.313  0.00  0.00     0.088 H 
BRANCH  11  13
ATOM     13  C   ASP d   1       4.127  -2.566   2.508  0.00  0.00     0.241 C 
ATOM     14  O   ASP d   1       3.543  -1.958   1.613  0.00  0.00    -0.271 OA
ATOM     15  N   GLU d   1       5.448  -2.726   2.531  0.00  0.00    -0.346 N 
ATOM     16  H   GLU d   1       5.867  -3.201   3.304  0.00  0.00     0.163 HD
BRANCH  15  17
ATOM     17  CA  GLU d   1       6.302  -2.225   1.455  0.00  0.00     0.090 C 
ATOM     18  H   GLU d   1       6.071  -1.160   1.307  0.00  0.00     0.087 H 
BRANCH  17  19
ATOM     19  C   GLU d   1       6.029  -2.955   0.143  0.00  0.00     0.241 C 
ATOM     20  O   GLU d   1       6.155  -2.377  -0.937  0.00  0.00    -0.271 OA
ATOM     21  N   ILE d   1       5.658  -4.227   0.245  0.00  0.00    -0.346 N 
ATOM     22  H   ILE d   1       5.654  -4.662   1.145  0.00  0.00     0.163 HD
BRANCH  21  23
ATOM     23  CA  ILE d   1       5.256  -5.005  -0.921  0.00  0.00     0.092 C 
ATOM     24  H   ILE d   1       5.964  -4.799  -1.738  0.00  0.00     0.088 H 
BRANCH  23  25
ATOM     25  C   ILE d   1       3.856  -4.574  -1.365  0.00  0.00     0.241 C 
ATOM     26  O   ILE d   1       3.538  -4.586  -2.554  0.00  0.00    -0.271 OA
ATOM     27  N   GLU d   1       3.032  -4.174  -0.399  0.00  0.00    -0.346 N 
ATOM     28  H   GLU d   1       3.353  -4.187   0.548  0.00  0.00     0.163 HD
BRANCH  27  29
ATOM     29  CA  GLU d   1       1.673  -3.716  -0.681  0.00  0.00     0.086 C 
ATOM     30  H   GLU d   1       1.212  -4.433  -1.376  0.00  0.00     0.086 H 
BRANCH  29  31
ATOM     31  C   GLU d   1       1.658  -2.340  -1.344  0.00  0.00     0.240 C 
ATOM     32  O   GLU d   1       0.681  -1.967  -1.995  0.00  0.00    -0.271 OA
ATOM     33  N   LYS d   1       2.740  -1.587  -1.170  0.00  0.00    -0.346 N 
ATOM     34  H   LYS d   1       3.485  -1.932  -0.599  0.00  0.00     0.163 HD
BRANCH  33  35
ATOM     35  CA  LYS d   1       2.870  -0.271  -1.789  0.00  0.00     0.089 C 
ATOM     36  H   LYS d   1       1.947   0.296  -1.599  0.00  0.00     0.087 H 
BRANCH  35  37
ATOM     37  C   LYS d   1       3.060  -0.402  -3.296  0.00  0.00     0.241 C 
ATOM     38  O   LYS d   1       2.765   0.523  -4.052  0.00  0.00    -0.271 OA
ATOM     39  N   GLU d   1       3.552  -1.560  -3.724  0.00  0.00    -0.345 N 
ATOM     40  H   GLU d   1       3.720  -2.290  -3.061  0.00  0.00     0.163 HD
BRANCH  39  41
ATOM     41  CA  GLU d   1       3.855  -1.800  -5.131  0.00  0.00     0.097 C 
ATOM     42  H   GLU d   1       3.888  -0.829  -5.646  0.00  0.00     0.089 H 
BRANCH  41  43
ATOM     43  C   GLU d   1       2.787  -2.658  -5.802  0.00  0.00     0.196 C 
ATOM     44  O   GLU d   1       1.906  -3.204  -5.138  0.00  0.00    -0.646 OA
ATOM     45  O1  GLU d   1       2.807  -2.810  -7.053  0.00  0.00    -0.646 OA
ENDBRANCH  41  43
BRANCH  41  46
ATOM     46  CB  GLU d   1       5.226  -2.466  -5.263  0.00  0.00    -0.028 C 
ATOM     47  H   GLU d   1       5.203  -3.412  -4.702  0.00  0.00     0.037 H 
ATOM     48  H   GLU d   1       5.977  -1.796  -4.820  0.00  0.00     0.037 H 
BRANCH  46  49
ATOM     49  CG  GLU d   1       5.646  -2.771  -6.690  0.00  0.00     0.018 C 
ATOM     50  H   GLU d   1       5.675  -1.830  -7.259  0.00  0.00     0.049 H 
ATOM     51  H   GLU d   1       4.905  -3.449  -7.140  0.00  0.00     0.049 H 
BRANCH  49  52
ATOM     52  CD  GLU d   1       7.012  -3.426  -6.760  0.00  0.00     0.172 C 
ATOM     53  OE1 GLU d   1       7.639  -3.603  -5.694  0.00  0.00    -0.648 OA
ATOM     54  OE2 GLU d   1       7.458  -3.764  -7.876  0.00  0.00    -0.648 OA
ENDBRANCH  49  52
ENDBRANCH  46  49
ENDBRANCH  41  46
ENDBRANCH  39  41
ENDBRANCH  35  37
BRANCH  35  55
ATOM     55  CB  LYS d   1       4.050   0.498  -1.186  0.00  0.00    -0.038 C 
ATOM     56  H   LYS d   1       4.190   1.421  -1.768  0.00  0.00     0.036 H 
ATOM     57  H   LYS d   1       4.948  -0.131  -1.274  0.00  0.00     0.036 H 
BRANCH  55  58
ATOM     58  CG  LYS d   1       3.883   0.883   0.277  0.00  0.00    -0.061 C 
ATOM     59  H   LYS d   1       4.878   1.049   0.716  0.00  0.00     0.033 H 
ATOM     60  H   LYS d   1       3.382   0.059   0.806  0.00  0.00     0.033 H 
BRANCH  58  61
ATOM     61  CD  LYS d   1       3.055   2.149   0.443  0.00  0.00    -0.043 C 
ATOM     62  H   LYS d   1       2.877   2.322   1.514  0.00  0.00     0.035 H 
ATOM     63  H   LYS d   1       2.092   2.017  -0.072  0.00  0.00     0.035 H 
BRANCH  61  64
ATOM     64  CE  LYS d   1       3.769   3.360  -0.143  0.00  0.00     0.080 C 
ATOM     65  H   LYS d   1       3.880   3.216  -1.228  0.00  0.00     0.075 H 
ATOM     66  H   LYS d   1       4.763   3.444   0.320  0.00  0.00     0.075 H 
BRANCH  64  67
ATOM     67  NZ  LYS d   1       3.018   4.624   0.099  0.00  0.00    -0.079 N 
ATOM     68  H   LYS d   1       3.524   5.397  -0.304  0.00  0.00     0.274 HD
ATOM     69  H   LYS d   1       2.916   4.769   1.091  0.00  0.00     0.274 HD
ATOM     70  H   LYS d   1       2.107   4.560  -0.327  0.00  0.00     0.274 HD
ENDBRANCH  64  67
ENDBRANCH  61  64
ENDBRANCH  58  61
ENDBRANCH  55  58
ENDBRANCH  35  55
ENDBRANCH  33  35
ENDBRANCH  29  31
BRANCH  29  71
ATOM     71  CB  GLU d   1       0.838  -3.687   0.603  0.00  0.00    -0.049 C 
ATOM     72  H   GLU d   1      -0.180  -3.340   0.371  0.00  0.00     0.030 H 
ATOM     73  H   GLU d   1       1.302  -3.002   1.327  0.00  0.00     0.030 H 
ATOM     74  H   GLU d   1       0.792  -4.698   1.033  0.00  0.00     0.030 H 
ENDBRANCH  29  71
ENDBRANCH  27  29
ENDBRANCH  23  25
BRANCH  23  75
ATOM     75  CB  ILE d   1       5.282  -6.527  -0.627  0.00  0.00    -0.030 C 
ATOM     76  H   ILE d   1       4.556  -6.738   0.172  0.00  0.00     0.043 H 
BRANCH  75  77
ATOM     77  CG1 ILE d   1       6.671  -6.959  -0.150  0.00  0.00    -0.063 C 
ATOM     78  H   ILE d   1       6.959  -6.322   0.699  0.00  0.00     0.033 H 
ATOM     79  H   ILE d   1       7.382  -6.813  -0.977  0.00  0.00     0.033 H 
BRANCH  77  80
ATOM     80  CD1 ILE d   1       6.746  -8.409   0.294  0.00  0.00    -0.076 C 
ATOM     81  H   ILE d   1       7.771  -8.640   0.620  0.00  0.00     0.027 H 
ATOM     82  H   ILE d   1       6.472  -9.064  -0.546  0.00  0.00     0.027 H 
ATOM     83  H   ILE d   1       6.050  -8.573   1.129  0.00  0.00     0.027 H 
ENDBRANCH  77  80
ENDBRANCH  75  77
BRANCH  75  84
ATOM     84  CG2 ILE d   1       4.890  -7.328  -1.860  0.00  0.00    -0.071 C 
ATOM     85  H   ILE d   1       3.892  -7.014  -2.199  0.00  0.00     0.028 H 
ATOM     86  H   ILE d   1       4.873  -8.399  -1.611  0.00  0.00     0.028 H 
ATOM     87  H   ILE d   1       5.622  -7.149  -2.661  0.00  0.00     0.028 H 
ENDBRANCH  75  84
ENDBRANCH  23  75
ENDBRANCH  21  23
ENDBRANCH  17  19
BRANCH  17  88
ATOM     88  CB  GLU d   1       7.781  -2.344   1.833  0.00  0.00    -0.029 C 
ATOM     89  H   GLU d   1       8.349  -2.602   0.927  0.00  0.00     0.037 H 
ATOM     90  H   GLU d   1       7.884  -3.152   2.573  0.00  0.00     0.037 H 
BRANCH  88  91
ATOM     91  CG  GLU d   1       8.378  -1.076   2.425  0.00  0.00     0.018 C 
ATOM     92  H   GLU d   1       9.380  -1.307   2.817  0.00  0.00     0.049 H 
ATOM     93  H   GLU d   1       7.733  -0.733   3.247  0.00  0.00     0.049 H 
BRANCH  91  94
ATOM     94  CD  GLU d   1       8.501   0.041   1.405  0.00  0.00     0.172 C 
ATOM     95  OE1 GLU d   1       8.344   1.220   1.790  0.00  0.00    -0.648 OA
ATOM     96  OE2 GLU d   1       8.759  -0.259   0.220  0.00  0.00    -0.648 OA
ENDBRANCH  91  94
ENDBRANCH  88  91
ENDBRANCH  17  88
ENDBRANCH  15  17
ENDBRANCH  11  13
BRANCH  11  97
ATOM     97  CB  ASP d   1       3.290  -2.242   4.867  0.00  0.00     0.043 C 
ATOM     98  H   ASP d   1       2.573  -2.642   5.599  0.00  0.00     0.052 H 
ATOM     99  H   ASP d   1       2.950  -1.254   4.524  0.00  0.00     0.052 H 
BRANCH  97 100
ATOM    100  CG  ASP d   1       4.636  -2.084   5.543  0.00  0.00     0.175 C 
ATOM    101  OD1 ASP d   1       4.933  -0.971   6.028  0.00  0.00    -0.648 OA
ATOM    102  OD2 ASP d   1       5.397  -3.071   5.594  0.00  0.00    -0.648 OA
ENDBRANCH  97 100
ENDBRANCH  11  97
ENDBRANCH   9  11
ENDBRANCH   5   7
BRANCH   5 103
ATOM    103  CB  ALA d   1       3.236  -7.582   4.654  0.00  0.00    -0.049 C 
ATOM    104  H   ALA d   1       2.287  -7.687   4.108  0.00  0.00     0.030 H 
ATOM    105  H   ALA d   1       3.072  -6.985   5.563  0.00  0.00     0.030 H 
ATOM    106  H   ALA d   1       3.611  -8.578   4.932  0.00  0.00     0.030 H 
ENDBRANCH   5 103
ENDBRANCH   3   5
BRANCH   1 107
ATOM    107  CA  ALA d   1       7.880  -6.203   4.725  0.00  0.00     0.086 C 
ATOM    108  H   ALA d   1       7.925  -7.140   5.300  0.00  0.00     0.086 H 
BRANCH 107 109
ATOM    109  N   ALA d   1       9.046  -6.138   3.855  0.00  0.00    -0.346 N 
ATOM    110  C   ARG d   1       9.376  -7.143   3.050  0.00  0.00     0.241 C 
ATOM    111  O   ARG d   1       8.761  -8.209   3.017  0.00  0.00    -0.271 OA
ATOM    112  H   ALA d   1       9.614  -5.315   3.863  0.00  0.00     0.163 HD
BRANCH 110 113
ATOM    113  CA  ARG d   1      10.579  -6.907   2.145  0.00  0.00     0.089 C 
ATOM    114  H   ARG d   1      11.327  -6.337   2.716  0.00  0.00     0.087 H 
BRANCH 113 115
ATOM    115  N   ARG d   1      11.202  -8.154   1.714  0.00  0.00    -0.346 N 
ATOM    116  C   TYR d   1      12.012  -8.835   2.518  0.00  0.00     0.241 C 
ATOM    117  O   TYR d   1      12.236  -8.498   3.680  0.00  0.00    -0.271 OA
ATOM    118  H   ARG d   1      11.016  -8.503   0.796  0.00  0.00     0.163 HD
BRANCH 116 119
ATOM    119  CA  TYR d   1      12.675 -10.078   1.930  0.00  0.00     0.093 C 
ATOM    120  H   TYR d   1      13.065 -10.665   2.775  0.00  0.00     0.088 H 
BRANCH 119 121
ATOM    121  N   TYR d   1      11.770 -10.949   1.185  0.00  0.00    -0.346 N 
ATOM    122  C   MET d   1      11.573 -12.207   1.566  0.00  0.00     0.241 C 
ATOM    123  O   MET d   1      11.992 -12.653   2.635  0.00  0.00    -0.271 OA
ATOM    124  H   TYR d   1      11.294 -10.595   0.380  0.00  0.00     0.163 HD
BRANCH 122 125
ATOM    125  CA  MET d   1      10.787 -13.099   0.612  0.00  0.00     0.090 C 
ATOM    126  H   MET d   1       9.830 -13.364   1.085  0.00  0.00     0.087 H 
BRANCH 125 127
ATOM    127  N   MET d   1      10.508 -12.426  -0.650  0.00  0.00    -0.346 N 
ATOM    128  C   ASP d   1       9.271 -12.105  -1.016  0.00  0.00     0.241 C 
ATOM    129  O   ASP d   1       8.288 -12.296  -0.299  0.00  0.00    -0.271 OA
ATOM    130  H   MET d   1      11.269 -12.199  -1.258  0.00  0.00     0.163 HD
BRANCH 128 131
ATOM    131  CA  ASP d   1       9.121 -11.468  -2.394  0.00  0.00     0.098 C 
ATOM    132  H   ASP d   1      10.061 -11.616  -2.945  0.00  0.00     0.088 H 
BRANCH 131 133
ATOM    133  N   ASP d   1       8.045 -12.094  -3.154  0.00  0.00    -0.345 N 
ATOM    134  C   GLU d   1       8.158 -13.324  -3.645  0.00  0.00     0.249 C 
ATOM    135  O   GLU d   1       9.154 -14.026  -3.474  0.00  0.00    -0.271 OA
ATOM    136  H   ASP d   1       7.199 -11.584  -3.310  0.00  0.00     0.163 HD
BRANCH 134 137
ATOM    137  CA  GLU d   1       6.968 -13.837  -4.451  0.00  0.00     0.176 C 
ATOM    138  H   GLU d   1       6.711 -13.075  -5.201  0.00  0.00     0.099 H 
BRANCH 137 139
ATOM    139  N   GLU d   1       7.293 -15.072  -5.157  0.00  0.00    -0.066 N 
ATOM    140  H   GLU d   1       6.488 -15.383  -5.678  0.00  0.00     0.275 HD
ATOM    141  H   GLU d   1       7.556 -15.781  -4.490  0.00  0.00     0.275 HD
ATOM    142  H   GLU d   1       8.059 -14.905  -5.790  0.00  0.00     0.275 HD
ENDBRANCH 137 139
BRANCH 137 143
ATOM    143  CB  GLU d   1       5.755 -14.041  -3.541  0.00  0.00    -0.021 C 
ATOM    144  H   GLU d   1       4.862 -14.142  -4.175  0.00  0.00     0.037 H 
ATOM    145  H   GLU d   1       5.652 -13.153  -2.900  0.00  0.00     0.037 H 
BRANCH 143 146
ATOM    146  CG  GLU d   1       5.846 -15.266  -2.647  0.00  0.00     0.018 C 
ATOM    147  H   GLU d   1       6.744 -15.178  -2.018  0.00  0.00     0.049 H 
ATOM    148  H   GLU d   1       5.929 -16.160  -3.282  0.00  0.00     0.049 H 
BRANCH 146 149
ATOM    149  CD  GLU d   1       4.636 -15.421  -1.746  0.00  0.00     0.172 C 
ATOM    150  OE1 GLU d   1       4.303 -16.571  -1.388  0.00  0.00    -0.648 OA
ATOM    151  OE2 GLU d   1       4.020 -14.393  -1.392  0.00  0.00    -0.648 OA
ENDBRANCH 146 149
ENDBRANCH 143 146
ENDBRANCH 137 143
ENDBRANCH 134 137
ENDBRANCH 131 133
BRANCH 131 152
ATOM    152  CB  ASP d   1       8.873  -9.964  -2.256  0.00  0.00     0.043 C 
ATOM    153  H   ASP d   1       7.996  -9.809  -1.610  0.00  0.00     0.052 H 
ATOM    154  H   ASP d   1       8.672  -9.547  -3.254  0.00  0.00     0.052 H 
BRANCH 152 155
ATOM    155  CG  ASP d   1      10.055  -9.232  -1.653  0.00  0.00     0.175 C 
ATOM    156  OD1 ASP d   1      10.895  -8.723  -2.424  0.00  0.00    -0.648 OA
ATOM    157  OD2 ASP d   1      10.144  -9.163  -0.409  0.00  0.00    -0.648 OA
ENDBRANCH 152 155
ENDBRANCH 131 152
ENDBRANCH 128 131
ENDBRANCH 125 127
BRANCH 125 158
ATOM    158  CB  MET d   1      11.590 -14.376   0.359  0.00  0.00    -0.030 C 
ATOM    159  H   MET d   1      11.601 -14.963   1.289  0.00  0.00     0.037 H 
ATOM    160  H   MET d   1      12.618 -14.088   0.095  0.00  0.00     0.037 H 
BRANCH 158 161
ATOM    161  CG  MET d   1      11.047 -15.258  -0.750  0.00  0.00    -0.021 C 
ATOM    162  H   MET d   1      10.915 -14.649  -1.657  0.00  0.00     0.049 H 
ATOM    163  H   MET d   1      10.074 -15.665  -0.437  0.00  0.00     0.049 H 
BRANCH 161 164
ATOM    164  SD  MET d   1      12.161 -16.627  -1.123  0.00  0.00    -0.173 SA
BRANCH 164 165
ATOM    165  CE  MET d   1      12.297 -17.398   0.487  0.00  0.00    -0.035 C 
ATOM    166  H   MET d   1      12.962 -18.272   0.420  0.00  0.00     0.041 H 
ATOM    167  H   MET d   1      11.301 -17.720   0.825  0.00  0.00     0.041 H 
ATOM    168  H   MET d   1      12.712 -16.676   1.206  0.00  0.00     0.041 H 
ENDBRANCH 164 165
ENDBRANCH 161 164
ENDBRANCH 158 161
ENDBRANCH 125 158
ENDBRANCH 122 125
ENDBRANCH 119 121
BRANCH 119 169
ATOM    169  CB  TYR d   1      13.861  -9.681   1.048  0.00  0.00    -0.014 C 
ATOM    170  H   TYR d   1      14.549  -9.063   1.644  0.00  0.00     0.043 H 
ATOM    171  H   TYR d   1      13.484  -9.094   0.198  0.00  0.00     0.043 H 
BRANCH 169 172
ATOM    172  CG  TYR d   1      14.626 -10.869   0.510  0.00  0.00    -0.056 A 
ATOM    173  CD1 TYR d   1      15.557 -11.533   1.299  0.00  0.00    -0.074 A 
ATOM    174  CE1 TYR d   1      16.256 -12.622   0.815  0.00  0.00    -0.051 A 
ATOM    175  H   TYR d   1      15.738 -11.191   2.312  0.00  0.00     0.084 H 
ATOM    176  CZ  TYR d   1      16.028 -13.061  -0.472  0.00  0.00     0.065 A 
ATOM    177  H   TYR d   1      16.980 -13.128   1.444  0.00  0.00     0.087 H 
ATOM    178  CE2 TYR d   1      15.107 -12.419  -1.275  0.00  0.00    -0.051 A 
ATOM    179  CD2 TYR d   1      14.413 -11.331  -0.782  0.00  0.00    -0.074 A 
ATOM    180  H   TYR d   1      14.929 -12.766  -2.286  0.00  0.00     0.087 H 
ATOM    181  H   TYR d   1      13.690 -10.829  -1.415  0.00  0.00     0.084 H 
BRANCH 176 182
ATOM    182  OH  TYR d   1      16.722 -14.145  -0.958  0.00  0.00    -0.361 OA
ATOM    183  H   TYR d   1      17.311 -14.469  -0.287  0.00  0.00     0.217 HD
ENDBRANCH 176 182
ENDBRANCH 169 172
ENDBRANCH 119 169
ENDBRANCH 116 119
ENDBRANCH 113 115
BRANCH 113 184
ATOM    184  CB  ARG d   1      10.159  -6.071   0.935  0.00  0.00    -0.036 C 
ATOM    185  H   ARG d   1       9.565  -5.218   1.295  0.00  0.00     0.036 H 
ATOM    186  H   ARG d   1       9.538  -6.700   0.280  0.00  0.00     0.036 H 
BRANCH 184 187
ATOM    187  CG  ARG d   1      11.317  -5.532   0.117  0.00  0.00    -0.048 C 
ATOM    188  H   ARG d   1      11.916  -6.374  -0.261  0.00  0.00     0.035 H 
ATOM    189  H   ARG d   1      11.945  -4.893   0.756  0.00  0.00     0.035 H 
BRANCH 187 190
ATOM    190  CD  ARG d   1      10.806  -4.716  -1.057  0.00  0.00     0.009 C 
ATOM    191  H   ARG d   1      11.665  -4.335  -1.628  0.00  0.00     0.064 H 
ATOM    192  H   ARG d   1      10.216  -3.870  -0.674  0.00  0.00     0.064 H 
BRANCH 190 193
ATOM    193  NE  ARG d   1       9.967  -5.517  -1.943  0.00  0.00    -0.227 N 
ATOM    194  CZ  ARG d   1       9.308  -5.030  -2.989  0.00  0.00     0.665 C 
ATOM    195  NH1 ARG d   1       9.385  -3.739  -3.282  0.00  0.00    -0.235 N 
ATOM    196  NH2 ARG d   1       8.569  -5.834  -3.741  0.00  0.00    -0.235 N 
ATOM    197  H   ARG d   1       8.873  -3.364  -4.093  0.00  0.00     0.174 HD
ATOM    198  H   ARG d   1       9.957  -3.112  -2.698  0.00  0.00     0.174 HD
ATOM    199  H   ARG d   1       8.507  -6.837  -3.516  0.00  0.00     0.174 HD
ATOM    200  H   ARG d   1       8.057  -5.455  -4.550  0.00  0.00     0.174 HD
ATOM    201  H   ARG d   1       9.880  -6.524  -1.745  0.00  0.00     0.177 HD
ENDBRANCH 190 193
ENDBRANCH 187 190
ENDBRANCH 184 187
ENDBRANCH 113 184
ENDBRANCH 110 113
ENDBRANCH 107 109
BRANCH 107 202
ATOM    202  CB  ALA d   1       7.880  -5.040   5.700  0.00  0.00    -0.049 C 
ATOM    203  H   ALA d   1       6.994  -5.105   6.348  0.00  0.00     0.030 H 
ATOM    204  H   ALA d   1       7.857  -4.093   5.141  0.00  0.00     0.030 H 
ATOM    205  H   ALA d   1       8.790  -5.079   6.317  0.00  0.00     0.030 H 
ENDBRANCH 107 202
ENDBRANCH   1 107
TORSDOF 62
