REMARK  5 active torsions:
REMARK  status: ('A' for Active; 'I' for Inactive)
REMARK    1  A    between atoms: O2_9  and  C1_1 
REMARK    2  A    between atoms: C3_2  and  O2_9 
REMARK    3  A    between atoms: C9_11  and  C7_5 
REMARK    4  A    between atoms: C11_7  and  C9_11 
REMARK    5  A    between atoms: C15_8  and  N16_16 
ROOT
ATOM      1  C3  1ZC d   1      18.406  26.882  -0.248  0.00  0.00     0.069 A 
ATOM      2  C5  1ZC d   1      19.911  25.845   1.305  0.00  0.00    -0.079 A 
ATOM      3  C6  1ZC d   1      19.269  24.633   1.124  0.00  0.00    -0.069 A 
ATOM      4  C7  1ZC d   1      18.181  24.534   0.265  0.00  0.00     0.019 A 
ATOM      5  C8  1ZC d   1      17.756  25.670  -0.417  0.00  0.00    -0.037 A 
ATOM      6  C4  1ZC d   1      19.486  26.967   0.621  0.00  0.00    -0.051 A 
ATOM      7  H   1ZC d   1      20.751  25.914   1.986  0.00  0.00     0.083 H 
ATOM      8  H   1ZC d   1      19.617  23.755   1.656  0.00  0.00     0.085 H 
ATOM      9  H   1ZC d   1      16.907  25.606  -1.088  0.00  0.00     0.089 H 
ATOM     10  H   1ZC d   1      19.995  27.913   0.762  0.00  0.00     0.087 H 
ENDROOT
BRANCH   4  11
ATOM     11  C9  1ZC d   1      17.450  23.260   0.002  0.00  0.00     0.217 C 
ATOM     12  O10 1ZC d   1      16.392  23.293  -0.620  0.00  0.00    -0.285 OA
BRANCH  11  13
ATOM     13  C11 1ZC d   1      17.943  21.935   0.434  0.00  0.00     0.184 A 
ATOM     14  C15 1ZC d   1      17.133  20.779   0.515  0.00  0.00     0.186 A 
ATOM     15  N14 1ZC d   1      17.855  19.765   0.886  0.00  0.00    -0.085 NA
ATOM     16  O13 1ZC d   1      19.112  20.257   1.028  0.00  0.00    -0.104 OA
ATOM     17  N12 1ZC d   1      19.168  21.610   0.738  0.00  0.00    -0.097 NA
BRANCH  14  18
ATOM     18  N16 1ZC d   1      15.810  20.706   0.280  0.00  0.00    -0.380 N 
ATOM     19  H   1ZC d   1      15.320  19.805   0.370  0.00  0.00     0.158 HD
ATOM     20  H   1ZC d   1      15.287  21.552   0.010  0.00  0.00     0.158 HD
ENDBRANCH  14  18
ENDBRANCH  11  13
ENDBRANCH   4  11
BRANCH   1  21
ATOM     21  O2  1ZC d   1      18.072  28.056  -0.871  0.00  0.00    -0.356 OA
BRANCH  21  22
ATOM     22  C1  1ZC d   1      17.109  28.010  -1.923  0.00  0.00     0.010 C 
ATOM     23  H   1ZC d   1      16.950  29.024  -2.319  0.00  0.00     0.066 H 
ATOM     24  H   1ZC d   1      16.159  27.615  -1.534  0.00  0.00     0.066 H 
ATOM     25  H   1ZC d   1      17.476  27.356  -2.728  0.00  0.00     0.066 H 
ENDBRANCH  21  22
ENDBRANCH   1  21
TORSDOF 5
