REMARK  2 active torsions:
REMARK  status: ('A' for Active; 'I' for Inactive)
REMARK    1  A    between atoms: C2_2  and  C1_1 
REMARK    2  A    between atoms: C8_5  and  C7_4 
ROOT
ATOM      1  C2  1WC d   1      16.553  32.482  -2.086  0.00  0.00     0.036 A 
ATOM      2  C6  1WC d   1      17.898  31.839  -3.723  0.00  0.00     0.034 A 
ATOM      3  C7  1WC d   1      16.688  31.520  -3.075  0.00  0.00     0.019 A 
ATOM      4  N3  1WC d   1      17.623  33.284  -2.178  0.00  0.00    -0.282 N 
ATOM      5  N5  1WC d   1      18.466  32.908  -3.178  0.00  0.00    -0.186 NA
ATOM      6  H   1WC d   1      18.313  31.281  -4.561  0.00  0.00     0.118 H 
ATOM      7  H   1WC d   1      17.788  34.093  -1.562  0.00  0.00     0.189 HD
ENDROOT
BRANCH   3   8
ATOM      8  C8  1WC d   1      15.789  30.393  -3.423  0.00  0.00    -0.001 A 
ATOM      9  C13 1WC d   1      16.241  29.096  -3.659  0.00  0.00     0.045 A 
ATOM     10  C12 1WC d   1      15.360  28.082  -3.987  0.00  0.00    -0.061 A 
ATOM     11 CL1  1WC d   1      17.927  28.711  -3.537  0.00  0.00    -0.083 Cl
ATOM     12  C11 1WC d   1      14.011  28.351  -4.093  0.00  0.00    -0.081 A 
ATOM     13  H   1WC d   1      15.729  27.078  -4.160  0.00  0.00     0.086 H 
ATOM     14  C10 1WC d   1      13.542  29.630  -3.871  0.00  0.00    -0.082 A 
ATOM     15  H   1WC d   1      13.319  27.557  -4.351  0.00  0.00     0.083 H 
ATOM     16  C9  1WC d   1      14.419  30.647  -3.537  0.00  0.00    -0.070 A 
ATOM     17  H   1WC d   1      12.482  29.839  -3.959  0.00  0.00     0.083 H 
ATOM     18  H   1WC d   1      14.041  31.648  -3.362  0.00  0.00     0.084 H 
ENDBRANCH   3   8
BRANCH   1  19
ATOM     19  C1  1WC d   1      15.497  32.710  -1.060  0.00  0.00    -0.035 C 
ATOM     20  H   1WC d   1      15.759  33.590  -0.454  0.00  0.00     0.035 H 
ATOM     21  H   1WC d   1      15.421  31.826  -0.410  0.00  0.00     0.035 H 
ATOM     22  H   1WC d   1      14.532  32.883  -1.559  0.00  0.00     0.035 H 
ENDBRANCH   1  19
TORSDOF 2
