REMARK  1 active torsions:
REMARK  status: ('A' for Active; 'I' for Inactive)
REMARK    1  A    between atoms: CAI_9  and  CAJ_10 
ROOT
ATOM      1  CAC BZ2 d   1      19.978  25.735   1.262  0.00  0.00    -0.082 A 
ATOM      2  CAD BZ2 d   1      18.942  24.858   0.976  0.00  0.00    -0.080 A 
ATOM      3  CAE BZ2 d   1      19.945  27.042   0.793  0.00  0.00    -0.070 A 
ATOM      4  CAF BZ2 d   1      17.862  25.286   0.228  0.00  0.00    -0.049 A 
ATOM      5  CAG BZ2 d   1      18.467  28.680  -0.613  0.00  0.00    -0.031 A 
ATOM      6  OAH BZ2 d   1      16.869  27.161  -0.986  0.00  0.00    -0.303 OA
ATOM      7  CAJ BZ2 d   1      17.280  28.458  -1.215  0.00  0.00     0.153 A 
ATOM      8  CAK BZ2 d   1      18.857  27.490   0.019  0.00  0.00     0.001 A 
ATOM      9  CAL BZ2 d   1      17.848  26.588  -0.235  0.00  0.00     0.086 A 
ATOM     10  H   BZ2 d   1      20.820  25.398   1.856  0.00  0.00     0.083 H 
ATOM     11  H   BZ2 d   1      18.980  23.837   1.339  0.00  0.00     0.083 H 
ATOM     12  H   BZ2 d   1      20.759  27.719   1.024  0.00  0.00     0.084 H 
ATOM     13  H   BZ2 d   1      17.041  24.613   0.008  0.00  0.00     0.087 H 
ATOM     14  H   BZ2 d   1      19.023  29.616  -0.617  0.00  0.00     0.089 H 
ENDROOT
BRANCH   7  15
ATOM     15  CAI BZ2 d   1      16.402  29.336  -2.025  0.00  0.00     0.234 C 
ATOM     16  OAA BZ2 d   1      16.822  30.492  -2.286  0.00  0.00    -0.642 OA
ATOM     17  OAB BZ2 d   1      15.297  28.872  -2.403  0.00  0.00    -0.642 OA
ENDBRANCH   7  15
TORSDOF 1
