REMARK  4 active torsions:
REMARK  status: ('A' for Active; 'I' for Inactive)
REMARK    1  A    between atoms: C8_4  and  C13_7 
REMARK    2  A    between atoms: C21_9  and  C30_12 
REMARK    3  A    between atoms: N7_16  and  C22_10 
REMARK    4  A    between atoms: C22_10  and  C23_25 
ROOT
ATOM      1  C1  1TT d   1      17.365 -17.532 -23.292  0.00  0.00     0.245 A 
ATOM      2  C2  1TT d   1      16.783 -16.238 -22.949  0.00  0.00     0.063 A 
ATOM      3  C3  1TT d   1      17.587 -15.073 -22.826  0.00  0.00     0.104 A 
ATOM      4  C8  1TT d   1      21.520 -17.483 -24.333  0.00  0.00     0.124 C 
ATOM      5  C9  1TT d   1      20.961 -18.749 -23.665  0.00  0.00    -0.021 C 
ATOM      6  C10 1TT d   1      19.443 -18.837 -23.837  0.00  0.00     0.022 C 
ATOM      7  C20 1TT d   1      15.291 -12.347 -21.809  0.00  0.00     0.038 C 
ATOM      8  C21 1TT d   1      15.664 -13.439 -22.791  0.00  0.00     0.030 C 
ATOM      9  N4  1TT d   1      18.957 -15.145 -23.116  0.00  0.00    -0.180 N 
ATOM     10  N5  1TT d   1      18.807 -17.546 -23.515  0.00  0.00    -0.150 N 
ATOM     11  C6  1TT d   1      19.536 -16.328 -23.394  0.00  0.00     0.687 A 
ATOM     12  N7  1TT d   1      20.955 -16.298 -23.661  0.00  0.00    -0.200 N 
ATOM     13  N11 1TT d   1      17.127 -13.851 -22.643  0.00  0.00    -0.361 N 
ATOM     14  O12 1TT d   1      16.796 -18.625 -23.408  0.00  0.00    -0.272 OA
ATOM     15  C17 1TT d   1      18.085 -12.751 -22.452  0.00  0.00     0.016 C 
ATOM     16  C18 1TT d   1      17.550 -11.750 -21.453  0.00  0.00     0.034 C 
ATOM     17  O19 1TT d   1      16.253 -11.273 -21.817  0.00  0.00    -0.388 OA
ATOM     18  H   1TT d   1      16.279 -16.371 -21.980  0.00  0.00     0.059 H 
ATOM     19  H   1TT d   1      16.035 -16.018 -23.725  0.00  0.00     0.059 H 
ATOM     20  H   1TT d   1      22.606 -17.477 -24.159  0.00  0.00     0.087 H 
ATOM     21  H   1TT d   1      21.200 -18.725 -22.592  0.00  0.00     0.038 H 
ATOM     22  H   1TT d   1      21.427 -19.633 -24.125  0.00  0.00     0.038 H 
ATOM     23  H   1TT d   1      19.047 -19.612 -23.164  0.00  0.00     0.066 H 
ATOM     24  H   1TT d   1      19.212 -19.103 -24.879  0.00  0.00     0.066 H 
ATOM     25  H   1TT d   1      15.245 -12.777 -20.798  0.00  0.00     0.077 H 
ATOM     26  H   1TT d   1      14.304 -11.944 -22.081  0.00  0.00     0.077 H 
ATOM     27  H   1TT d   1      15.056 -14.318 -22.529  0.00  0.00     0.075 H 
ATOM     28  H   1TT d   1      19.525 -14.286 -23.116  0.00  0.00     0.185 HD
ATOM     29  H   1TT d   1      18.254 -12.247 -23.415  0.00  0.00     0.067 H 
ATOM     30  H   1TT d   1      19.036 -13.160 -22.081  0.00  0.00     0.067 H 
ATOM     31  H   1TT d   1      18.241 -10.896 -21.401  0.00  0.00     0.076 H 
ATOM     32  H   1TT d   1      17.487 -12.232 -20.466  0.00  0.00     0.076 H 
ENDROOT
BRANCH   8  33
ATOM     33  C30 1TT d   1      15.324 -13.090 -24.231  0.00  0.00    -0.055 C 
ATOM     34  H   1TT d   1      15.619 -13.921 -24.889  0.00  0.00     0.030 H 
ATOM     35  H   1TT d   1      15.866 -12.179 -24.525  0.00  0.00     0.030 H 
ATOM     36  H   1TT d   1      14.241 -12.918 -24.321  0.00  0.00     0.030 H 
ENDBRANCH   8  33
BRANCH  12  37
ATOM     37  C22 1TT d   1      21.637 -14.943 -23.703  0.00  0.00     0.037 C 
ATOM     38  H   1TT d   1      20.997 -14.238 -24.253  0.00  0.00     0.072 H 
ATOM     39  H   1TT d   1      22.601 -15.045 -24.223  0.00  0.00     0.072 H 
BRANCH  37  40
ATOM     40  C23 1TT d   1      21.882 -14.403 -22.325  0.00  0.00    -0.021 A 
ATOM     41  C24 1TT d   1      21.642 -13.055 -22.002  0.00  0.00    -0.051 A 
ATOM     42  C25 1TT d   1      21.879 -12.622 -20.668  0.00  0.00     0.052 A 
ATOM     43  H   1TT d   1      21.284 -12.361 -22.754  0.00  0.00     0.087 H 
ATOM     44  C26 1TT d   1      22.343 -13.543 -19.686  0.00  0.00     0.023 A 
ATOM     45 CL1  1TT d   1      21.567 -10.986 -20.218  0.00  0.00    -0.083 Cl
ATOM     46  N27 1TT d   1      22.568 -14.856 -19.993  0.00  0.00    -0.271 NA
ATOM     47  H   1TT d   1      22.521 -13.196 -18.675  0.00  0.00     0.117 H 
ATOM     48  C28 1TT d   1      22.334 -15.263 -21.278  0.00  0.00     0.009 A 
ATOM     49  H   1TT d   1      22.503 -16.307 -21.517  0.00  0.00     0.115 H 
ENDBRANCH  37  40
ENDBRANCH  12  37
BRANCH   4  50
ATOM     50  C13 1TT d   1      21.323 -17.436 -25.836  0.00  0.00     0.408 C 
ATOM     51  F14 1TT d   1      20.103 -17.020 -26.180  0.00  0.00    -0.169 F 
ATOM     52  F15 1TT d   1      22.186 -16.598 -26.401  0.00  0.00    -0.169 F 
ATOM     53  F16 1TT d   1      21.500 -18.622 -26.420  0.00  0.00    -0.169 F 
ENDBRANCH   4  50
TORSDOF 4
