REMARK  10 active torsions:
REMARK  status: ('A' for Active; 'I' for Inactive)
REMARK    1  A    between atoms: C2_2  and  NA2_3 
REMARK       I    between atoms: N5_8  and  CP1_33 
REMARK    2  A    between atoms: C9_13  and  C6_9 
REMARK    3  A    between atoms: N10_14  and  C9_13 
REMARK    4  A    between atoms: C14_18  and  N10_14 
REMARK    5  A    between atoms: C11_15  and  C_21 
REMARK       I    between atoms: C_21  and  N_23 
REMARK    6  A    between atoms: N_23  and  CA_24 
REMARK    7  A    between atoms: CA_24  and  CB_25 
REMARK    8  A    between atoms: CA_24  and  CT_30 
REMARK    9  A    between atoms: CB_25  and  CG_26 
REMARK   10  A    between atoms: CG_26  and  CD_27 
ROOT
ATOM      1  C11 FON d   1      14.367  -5.249  24.318  0.00  0.00     0.032 A 
ATOM      2  C12 FON d   1      15.117  -5.269  23.133  0.00  0.00    -0.066 A 
ATOM      3  C13 FON d   1      16.513  -5.232  23.166  0.00  0.00    -0.057 A 
ATOM      4  C14 FON d   1      17.151  -5.191  24.411  0.00  0.00     0.028 A 
ATOM      5  C15 FON d   1      16.398  -5.162  25.582  0.00  0.00    -0.057 A 
ATOM      6  C16 FON d   1      15.013  -5.195  25.541  0.00  0.00    -0.066 A 
ATOM      7  H   FON d   1      14.606  -5.314  22.178  0.00  0.00     0.085 H 
ATOM      8  H   FON d   1      17.089  -5.235  22.248  0.00  0.00     0.086 H 
ATOM      9  H   FON d   1      16.903  -5.113  26.540  0.00  0.00     0.086 H 
ATOM     10  H   FON d   1      14.439  -5.179  26.461  0.00  0.00     0.085 H 
ENDROOT
BRANCH   4  11
ATOM     11  N10 FON d   1      18.488  -5.129  24.568  0.00  0.00    -0.388 N 
ATOM     12  H   FON d   1      18.840  -4.364  25.161  0.00  0.00     0.159 HD
BRANCH  11  13
ATOM     13  C9  FON d   1      19.487  -6.007  24.004  0.00  0.00     0.013 C 
ATOM     14  H   FON d   1      20.193  -6.357  24.772  0.00  0.00     0.067 H 
ATOM     15  H   FON d   1      19.025  -6.874  23.509  0.00  0.00     0.067 H 
BRANCH  13  16
ATOM     16  C6  FON d   1      20.167  -5.097  23.003  0.00  0.00     0.045 C 
ATOM     17  N5  FON d   1      20.861  -3.950  23.621  0.00  0.00    -0.331 N 
ATOM     18  C4A FON d   1      20.799  -2.923  22.696  0.00  0.00     0.150 A 
ATOM     19  CP1 FON d   1      21.471  -3.874  24.741  0.00  0.00     0.172 C 
ATOM     20  C4  FON d   1      20.392  -1.526  22.948  0.00  0.00     0.266 A 
ATOM     21  C8A FON d   1      21.093  -3.341  21.308  0.00  0.00     0.151 A 
ATOM     22  H   FON d   1      21.848  -2.655  22.893  0.00  0.00     0.100 H 
ATOM     23  N3  FON d   1      20.358  -0.733  21.851  0.00  0.00    -0.156 N 
ATOM     24  O4  FON d   1      20.099  -1.091  24.096  0.00  0.00    -0.270 OA
ATOM     25  C2  FON d   1      20.650  -1.175  20.597  0.00  0.00     0.702 A 
ATOM     26  H   FON d   1      20.105   0.227  21.968  0.00  0.00     0.187 HD
ATOM     27  N1  FON d   1      21.011  -2.436  20.340  0.00  0.00    -0.049 NA
ATOM     28  N8  FON d   1      21.455  -4.639  21.066  0.00  0.00    -0.373 N 
ATOM     29  C7  FON d   1      21.203  -5.700  22.054  0.00  0.00     0.014 C 
ATOM     30  H   FON d   1      21.913  -4.878  20.175  0.00  0.00     0.161 HD
ATOM     31  H   FON d   1      20.805  -6.601  21.565  0.00  0.00     0.067 H 
ATOM     32  H   FON d   1      22.126  -5.955  22.596  0.00  0.00     0.067 H 
ATOM     33  O3  FON d   1      20.907  -3.833  25.829  0.00  0.00    -0.283 OA
ATOM     34  H   FON d   1      22.559  -3.844  24.729  0.00  0.00     0.180 H 
ATOM     35  H   FON d   1      19.354  -4.701  22.377  0.00  0.00     0.077 H 
BRANCH  25  36
ATOM     36  NA2 FON d   1      20.597  -0.298  19.568  0.00  0.00    -0.233 N 
ATOM     37  H   FON d   1      20.814  -0.613  18.612  0.00  0.00     0.174 HD
ATOM     38  H   FON d   1      20.339   0.684  19.741  0.00  0.00     0.174 HD
ENDBRANCH  25  36
ENDBRANCH  13  16
ENDBRANCH  11  13
ENDBRANCH   4  11
BRANCH   1  39
ATOM     39  C   FON d   1      12.868  -5.284  24.332  0.00  0.00     0.252 C 
ATOM     40  O   FON d   1      12.246  -5.026  23.308  0.00  0.00    -0.268 OA
ATOM     41  N   FON d   1      12.283  -5.579  25.501  0.00  0.00    -0.342 N 
ATOM     42  H   FON d   1      12.799  -5.359  26.329  0.00  0.00     0.163 HD
BRANCH  41  43
ATOM     43  CA  FON d   1      10.971  -6.188  25.690  0.00  0.00     0.097 C 
ATOM     44  H   FON d   1      10.220  -5.537  25.219  0.00  0.00     0.089 H 
BRANCH  43  45
ATOM     45  CB  FON d   1      10.888  -7.572  25.049  0.00  0.00    -0.028 C 
ATOM     46  H   FON d   1      11.046  -8.334  25.826  0.00  0.00     0.037 H 
ATOM     47  H   FON d   1      11.676  -7.658  24.286  0.00  0.00     0.037 H 
BRANCH  45  48
ATOM     48  CG  FON d   1       9.531  -7.814  24.388  0.00  0.00     0.018 C 
ATOM     49  H   FON d   1       9.141  -6.860  24.003  0.00  0.00     0.049 H 
ATOM     50  H   FON d   1       8.833  -8.221  25.134  0.00  0.00     0.049 H 
BRANCH  48  51
ATOM     51  CD  FON d   1       9.665  -8.797  23.242  0.00  0.00     0.172 C 
ATOM     52  OE1 FON d   1      10.716  -9.481  23.148  0.00  0.00    -0.648 OA
ATOM     53  OE2 FON d   1       8.712  -8.886  22.430  0.00  0.00    -0.648 OA
ENDBRANCH  48  51
ENDBRANCH  45  48
ENDBRANCH  43  45
BRANCH  43  54
ATOM     54  CT  FON d   1      10.650  -6.319  27.154  0.00  0.00     0.196 C 
ATOM     55  O1  FON d   1      11.595  -6.501  27.955  0.00  0.00    -0.646 OA
ATOM     56  O2  FON d   1       9.453  -6.237  27.519  0.00  0.00    -0.646 OA
ENDBRANCH  43  54
ENDBRANCH  41  43
ENDBRANCH   1  39
TORSDOF 10
