REMARK  32 active torsions:
REMARK  status: ('A' for Active; 'I' for Inactive)
REMARK    1  A    between atoms: N_1  and  CA_2 
REMARK    2  A    between atoms: CA_2  and  C_3 
REMARK    3  A    between atoms: CA_2  and  CB_5 
REMARK       I    between atoms: C_3  and  N_6 
REMARK    4  A    between atoms: N_6  and  CA_7 
REMARK    5  A    between atoms: CA_7  and  C_8 
REMARK    6  A    between atoms: CA_7  and  CB_10 
REMARK       I    between atoms: C_8  and  N_12 
REMARK    7  A    between atoms: CB_10  and  OG_11 
REMARK    8  A    between atoms: N_12  and  CA_13 
REMARK    9  A    between atoms: CA_13  and  C_14 
REMARK   10  A    between atoms: CA_13  and  CB_16 
REMARK       I    between atoms: C_14  and  N_23 
REMARK   11  A    between atoms: CB_16  and  CG_17 
REMARK   12  A    between atoms: CG_17  and  CD_18 
REMARK   13  A    between atoms: CD_18  and  NE_19 
REMARK       I    between atoms: NE_19  and  CZ_20 
REMARK       I    between atoms: CZ_20  and  NH1_21 
REMARK   14  A    between atoms: N_23  and  CA_24 
REMARK   15  A    between atoms: CA_24  and  C_25 
REMARK   16  A    between atoms: CA_24  and  CB_27 
REMARK       I    between atoms: C_25  and  N_37 
REMARK   17  A    between atoms: CB_27  and  CG_28 
REMARK   18  A    between atoms: N_37  and  CA_38 
REMARK   19  A    between atoms: CA_38  and  C_39 
REMARK   20  A    between atoms: CA_38  and  CB_41 
REMARK       I    between atoms: C_39  and  N_45 
REMARK   21  A    between atoms: CB_41  and  CG_42 
REMARK   22  A    between atoms: N_45  and  CA_46 
REMARK   23  A    between atoms: CA_46  and  C_47 
REMARK   24  A    between atoms: CA_46  and  CB_49 
REMARK       I    between atoms: C_47  and  N_54 
REMARK   25  A    between atoms: CB_49  and  CG_50 
REMARK   26  A    between atoms: CG_50  and  CD_51 
REMARK   27  A    between atoms: N_54  and  CA_55 
REMARK   28  A    between atoms: CA_55  and  C_56 
REMARK   29  A    between atoms: CA_55  and  CB_58 
REMARK       I    between atoms: C_56  and  N_61 
REMARK   30  A    between atoms: CB_58  and  OG1_59 
REMARK   31  A    between atoms: CB_58  and  CG2_60 
REMARK   32  A    between atoms: CA_62  and  C_63 
ROOT
ATOM      1  CA  TRP d   1      20.348 -63.087  94.173  0.00  0.00     0.093 C 
ATOM      2  H   TRP d   1      20.623 -62.319  94.910  0.00  0.00     0.088 H 
ENDROOT
BRANCH   1   3
ATOM      3  N   TRP d   1      21.491 -63.960  93.953  0.00  0.00    -0.346 N 
ATOM      4  C   ARG d   1      22.099 -64.553  94.983  0.00  0.00     0.241 C 
ATOM      5  O   ARG d   1      21.833 -64.287  96.161  0.00  0.00    -0.271 OA
ATOM      6  H   TRP d   1      21.824 -64.117  93.023  0.00  0.00     0.163 HD
BRANCH   4   7
ATOM      7  CA  ARG d   1      23.173 -65.575  94.655  0.00  0.00     0.089 C 
ATOM      8  H   ARG d   1      22.791 -66.571  94.923  0.00  0.00     0.087 H 
BRANCH   7   9
ATOM      9  N   ARG d   1      23.494 -65.579  93.227  0.00  0.00    -0.346 N 
ATOM     10  C   SER d   1      22.873 -66.404  92.382  0.00  0.00     0.243 C 
ATOM     11  O   SER d   1      22.025 -67.223  92.747  0.00  0.00    -0.271 OA
ATOM     12  H   ARG d   1      24.191 -64.952  92.879  0.00  0.00     0.163 HD
BRANCH  10  13
ATOM     13  CA  SER d   1      23.298 -66.313  90.920  0.00  0.00     0.109 C 
ATOM     14  H   SER d   1      24.397 -66.331  90.880  0.00  0.00     0.090 H 
BRANCH  13  15
ATOM     15  N   SER d   1      22.797 -67.450  90.148  0.00  0.00    -0.344 N 
ATOM     16  C   LYS d   1      23.359 -68.655  90.238  0.00  0.00     0.248 C 
ATOM     17  O   LYS d   1      24.234 -68.933  91.073  0.00  0.00    -0.271 OA
ATOM     18  H   SER d   1      22.015 -67.320  89.539  0.00  0.00     0.163 HD
BRANCH  16  19
ATOM     19  CA  LYS d   1      22.854 -69.712  89.247  0.00  0.00     0.172 C 
ATOM     20  H   LYS d   1      21.777 -69.553  89.091  0.00  0.00     0.098 H 
BRANCH  19  21
ATOM     21  N   LYS d   1      23.528 -69.592  87.957  0.00  0.00    -0.067 N 
ATOM     22  H   LYS d   1      23.177 -70.297  87.328  0.00  0.00     0.275 HD
ATOM     23  H   LYS d   1      24.520 -69.718  88.083  0.00  0.00     0.275 HD
ATOM     24  H   LYS d   1      23.352 -68.678  87.570  0.00  0.00     0.275 HD
ENDBRANCH  19  21
BRANCH  19  25
ATOM     25  CB  LYS d   1      23.061 -71.116  89.819  0.00  0.00    -0.042 C 
ATOM     26  H   LYS d   1      22.550 -71.195  90.790  0.00  0.00     0.030 H 
ATOM     27  H   LYS d   1      24.137 -71.302  89.955  0.00  0.00     0.030 H 
ATOM     28  H   LYS d   1      22.645 -71.860  89.124  0.00  0.00     0.030 H 
ENDBRANCH  19  25
ENDBRANCH  16  19
ENDBRANCH  13  15
BRANCH  13  29
ATOM     29  CB  SER d   1      22.816 -64.991  90.313  0.00  0.00     0.044 C 
ATOM     30  H   SER d   1      22.794 -65.091  89.218  0.00  0.00     0.077 H 
ATOM     31  H   SER d   1      23.520 -64.194  90.595  0.00  0.00     0.077 H 
BRANCH  29  32
ATOM     32  OG  SER d   1      21.518 -64.638  90.767  0.00  0.00    -0.398 OA
ATOM     33  H   SER d   1      21.257 -63.816  90.369  0.00  0.00     0.209 HD
ENDBRANCH  29  32
ENDBRANCH  13  29
ENDBRANCH  10  13
ENDBRANCH   7   9
BRANCH   7  34
ATOM     34  CB  ARG d   1      24.429 -65.306  95.474  0.00  0.00    -0.036 C 
ATOM     35  H   ARG d   1      24.172 -65.339  96.543  0.00  0.00     0.036 H 
ATOM     36  H   ARG d   1      24.814 -64.307  95.220  0.00  0.00     0.036 H 
BRANCH  34  37
ATOM     37  CG  ARG d   1      25.491 -66.319  95.199  0.00  0.00    -0.048 C 
ATOM     38  H   ARG d   1      25.874 -66.162  94.180  0.00  0.00     0.035 H 
ATOM     39  H   ARG d   1      25.049 -67.323  95.274  0.00  0.00     0.035 H 
BRANCH  37  40
ATOM     40  CD  ARG d   1      26.630 -66.224  96.159  0.00  0.00     0.009 C 
ATOM     41  H   ARG d   1      26.940 -65.171  96.234  0.00  0.00     0.064 H 
ATOM     42  H   ARG d   1      27.466 -66.826  95.774  0.00  0.00     0.064 H 
BRANCH  40  43
ATOM     43  NE  ARG d   1      26.284 -66.705  97.494  0.00  0.00    -0.227 N 
ATOM     44  CZ  ARG d   1      27.090 -66.604  98.543  0.00  0.00     0.665 C 
ATOM     45  NH1 ARG d   1      28.290 -66.051  98.411  0.00  0.00    -0.235 N 
ATOM     46  NH2 ARG d   1      26.713 -67.060  99.722  0.00  0.00    -0.235 N 
ATOM     47  H   ARG d   1      28.914 -65.974  99.227  0.00  0.00     0.174 HD
ATOM     48  H   ARG d   1      28.597 -65.699  97.493  0.00  0.00     0.174 HD
ATOM     49  H   ARG d   1      25.784 -67.491  99.835  0.00  0.00     0.174 HD
ATOM     50  H   ARG d   1      27.348 -66.985 100.530  0.00  0.00     0.174 HD
ATOM     51  H   ARG d   1      25.363 -67.147  97.629  0.00  0.00     0.177 HD
ENDBRANCH  40  43
ENDBRANCH  37  40
ENDBRANCH  34  37
ENDBRANCH   7  34
ENDBRANCH   4   7
ENDBRANCH   1   3
BRANCH   1  52
ATOM     52  C   TRP d   1      19.218 -63.928  94.730  0.00  0.00     0.241 C 
ATOM     53  O   TRP d   1      19.018 -65.069  94.310  0.00  0.00    -0.271 OA
ATOM     54  N   ASP d   1      18.519 -63.349  95.699  0.00  0.00    -0.345 N 
ATOM     55  H   ASP d   1      18.774 -62.418  95.961  0.00  0.00     0.163 HD
BRANCH  54  56
ATOM     56  CA  ASP d   1      17.403 -63.971  96.412  0.00  0.00     0.098 C 
ATOM     57  H   ASP d   1      16.957 -63.207  97.066  0.00  0.00     0.088 H 
BRANCH  56  58
ATOM     58  C   ASP d   1      17.837 -65.141  97.309  0.00  0.00     0.241 C 
ATOM     59  O   ASP d   1      17.007 -65.841  97.881  0.00  0.00    -0.271 OA
ATOM     60  N   GLU d   1      19.141 -65.331  97.480  0.00  0.00    -0.346 N 
ATOM     61  H   GLU d   1      19.800 -64.802  96.945  0.00  0.00     0.163 HD
BRANCH  60  62
ATOM     62  CA  GLU d   1      19.606 -66.315  98.452  0.00  0.00     0.090 C 
ATOM     63  H   GLU d   1      19.078 -67.261  98.262  0.00  0.00     0.087 H 
BRANCH  62  64
ATOM     64  C   GLU d   1      19.302 -65.872  99.885  0.00  0.00     0.241 C 
ATOM     65  O   GLU d   1      19.852 -64.886 100.369  0.00  0.00    -0.271 OA
ATOM     66  N   THR d   1      18.425 -66.607 100.559  0.00  0.00    -0.344 N 
ATOM     67  H   THR d   1      17.965 -67.361 100.089  0.00  0.00     0.163 HD
BRANCH  66  68
ATOM     68  CA  THR d   1      18.107 -66.354 101.964  0.00  0.00     0.114 C 
ATOM     69  H   THR d   1      17.929 -65.275 102.082  0.00  0.00     0.091 H 
BRANCH  68  70
ATOM     70  C   THR d   1      19.249 -66.770 102.902  0.00  0.00     0.246 C 
ATOM     71  O   THR d   1      20.067 -67.634 102.561  0.00  0.00    -0.271 OA
ATOM     72  N   PRO d   1      19.310 -66.150 104.095  0.00  0.00    -0.336 N 
ATOM     73  CA  PRO d   1      20.379 -66.553 105.020  0.00  0.00     0.098 C 
ATOM     74  CD  PRO d   1      18.566 -64.958 104.548  0.00  0.00    -0.001 C 
ATOM     75  CB  PRO d   1      20.294 -65.521 106.159  0.00  0.00    -0.035 C 
ATOM     76  H   PRO d   1      21.358 -66.496 104.522  0.00  0.00     0.089 H 
ATOM     77  CG  PRO d   1      19.038 -64.747 105.947  0.00  0.00    -0.048 C 
ATOM     78  H   PRO d   1      21.163 -64.848 106.126  0.00  0.00     0.036 H 
ATOM     79  H   PRO d   1      20.264 -66.033 107.132  0.00  0.00     0.036 H 
ATOM     80  H   PRO d   1      19.232 -63.677 106.113  0.00  0.00     0.035 H 
ATOM     81  H   PRO d   1      18.268 -65.094 106.652  0.00  0.00     0.035 H 
ATOM     82  H   PRO d   1      17.482 -65.142 104.525  0.00  0.00     0.064 H 
ATOM     83  H   PRO d   1      18.804 -64.087 103.920  0.00  0.00     0.064 H 
BRANCH  73  84
ATOM     84  C   PRO d   1      20.172 -67.971 105.543  0.00  0.00     0.196 C 
ATOM     85  O   PRO d   1      21.060 -68.816 105.410  0.00  0.00    -0.646 OA
ATOM     86  OXT PRO d   1      19.116 -68.290 106.096  0.00  0.00    -0.646 OA
ENDBRANCH  73  84
ENDBRANCH  68  70
BRANCH  68  87
ATOM     87  CB  THR d   1      16.843 -67.117 102.403  0.00  0.00     0.060 C 
ATOM     88  H   THR d   1      16.667 -66.929 103.472  0.00  0.00     0.086 H 
BRANCH  87  89
ATOM     89  OG1 THR d   1      17.050 -68.525 102.202  0.00  0.00    -0.393 OA
ATOM     90  H   THR d   1      17.793 -68.812 102.720  0.00  0.00     0.210 HD
ENDBRANCH  87  89
BRANCH  87  91
ATOM     91  CG2 THR d   1      15.621 -66.649 101.617  0.00  0.00    -0.050 C 
ATOM     92  H   THR d   1      14.735 -67.209 101.950  0.00  0.00     0.031 H 
ATOM     93  H   THR d   1      15.785 -66.826 100.544  0.00  0.00     0.031 H 
ATOM     94  H   THR d   1      15.463 -65.575 101.791  0.00  0.00     0.031 H 
ENDBRANCH  87  91
ENDBRANCH  68  87
ENDBRANCH  66  68
ENDBRANCH  62  64
BRANCH  62  95
ATOM     95  CB  GLU d   1      21.104 -66.557  98.297  0.00  0.00    -0.029 C 
ATOM     96  H   GLU d   1      21.623 -65.590  98.374  0.00  0.00     0.037 H 
ATOM     97  H   GLU d   1      21.286 -66.992  97.303  0.00  0.00     0.037 H 
BRANCH  95  98
ATOM     98  CG  GLU d   1      21.679 -67.500  99.350  0.00  0.00     0.018 C 
ATOM     99  H   GLU d   1      21.222 -68.493  99.226  0.00  0.00     0.049 H 
ATOM    100  H   GLU d   1      21.438 -67.107 100.349  0.00  0.00     0.049 H 
BRANCH  98 101
ATOM    101  CD  GLU d   1      23.186 -67.635  99.227  0.00  0.00     0.172 C 
ATOM    102  OE1 GLU d   1      23.877 -67.486 100.264  0.00  0.00    -0.648 OA
ATOM    103  OE2 GLU d   1      23.665 -67.893  98.102  0.00  0.00    -0.648 OA
ENDBRANCH  98 101
ENDBRANCH  95  98
ENDBRANCH  62  95
ENDBRANCH  60  62
ENDBRANCH  56  58
BRANCH  56 104
ATOM    104  CB  ASP d   1      16.347 -64.403  95.403  0.00  0.00     0.043 C 
ATOM    105  H   ASP d   1      15.450 -64.736  95.945  0.00  0.00     0.052 H 
ATOM    106  H   ASP d   1      16.744 -65.236  94.804  0.00  0.00     0.052 H 
BRANCH 104 107
ATOM    107  CG  ASP d   1      15.969 -63.272  94.479  0.00  0.00     0.175 C 
ATOM    108  OD1 ASP d   1      15.662 -62.178  95.012  0.00  0.00    -0.648 OA
ATOM    109  OD2 ASP d   1      16.039 -63.444  93.240  0.00  0.00    -0.648 OA
ENDBRANCH 104 107
ENDBRANCH  56 104
ENDBRANCH  54  56
ENDBRANCH   1  52
BRANCH   1 110
ATOM    110  CB  TRP d   1      19.909 -62.383  92.881  0.00  0.00    -0.012 C 
ATOM    111  H   TRP d   1      18.931 -61.910  93.052  0.00  0.00     0.044 H 
ATOM    112  H   TRP d   1      19.818 -63.135  92.084  0.00  0.00     0.044 H 
BRANCH 110 113
ATOM    113  CG  TRP d   1      20.881 -61.330  92.439  0.00  0.00    -0.028 A 
ATOM    114  CD1 TRP d   1      21.705 -61.385  91.356  0.00  0.00    -0.015 A 
ATOM    115  NE1 TRP d   1      22.459 -60.235  91.279  0.00  0.00    -0.365 N 
ATOM    116  H   TRP d   1      21.760 -62.216  90.654  0.00  0.00     0.112 H 
ATOM    117  CE2 TRP d   1      22.138 -59.420  92.329  0.00  0.00     0.042 A 
ATOM    118  H   TRP d   1      23.153 -60.023  90.548  0.00  0.00     0.165 HD
ATOM    119  CD2 TRP d   1      21.146 -60.079  93.084  0.00  0.00    -0.002 A 
ATOM    120  CZ2 TRP d   1      22.627 -58.162  92.676  0.00  0.00    -0.056 A 
ATOM    121  CE3 TRP d   1      20.640 -59.448  94.223  0.00  0.00    -0.070 A 
ATOM    122  CZ3 TRP d   1      21.126 -58.206  94.570  0.00  0.00    -0.082 A 
ATOM    123  H   TRP d   1      19.877 -59.928  94.825  0.00  0.00     0.084 H 
ATOM    124  CH2 TRP d   1      22.109 -57.571  93.798  0.00  0.00    -0.081 A 
ATOM    125  H   TRP d   1      20.742 -57.712  95.455  0.00  0.00     0.083 H 
ATOM    126  H   TRP d   1      22.467 -56.592  94.095  0.00  0.00     0.083 H 
ATOM    127  H   TRP d   1      23.388 -57.670  92.081  0.00  0.00     0.086 H 
ENDBRANCH 110 113
ENDBRANCH   1 110
TORSDOF 32
