REMARK  2 active torsions:
REMARK  status: ('A' for Active; 'I' for Inactive)
REMARK    1  A    between atoms: C2_2  and  C1_1 
REMARK    2  A    between atoms: C8_6  and  C7_5 
ROOT
ATOM      1  C2  1Z6 d   1      21.042  29.568  -8.932  0.00  0.00     0.036 A 
ATOM      2  N4  1Z6 d   1      22.284  31.281  -9.199  0.00  0.00    -0.186 NA
ATOM      3  C6  1Z6 d   1      21.030  31.748  -9.290  0.00  0.00     0.034 A 
ATOM      4  C7  1Z6 d   1      20.199  30.668  -9.128  0.00  0.00     0.017 A 
ATOM      5  N3  1Z6 d   1      22.322  29.940  -8.979  0.00  0.00    -0.282 N 
ATOM      6  H   1Z6 d   1      20.730  32.781  -9.459  0.00  0.00     0.118 H 
ATOM      7  H   1Z6 d   1      23.155  29.343  -8.872  0.00  0.00     0.189 HD
ENDROOT
BRANCH   4   8
ATOM      8  C8  1Z6 d   1      18.723  30.716  -9.160  0.00  0.00    -0.022 A 
ATOM      9  C14 1Z6 d   1      17.970  29.686  -8.600  0.00  0.00    -0.069 A 
ATOM     10  C13 1Z6 d   1      16.591  29.722  -8.635  0.00  0.00    -0.045 A 
ATOM     11  H   1Z6 d   1      18.473  28.848  -8.132  0.00  0.00     0.085 H 
ATOM     12  C11 1Z6 d   1      15.982  30.787  -9.223  0.00  0.00     0.116 A 
ATOM     13  H   1Z6 d   1      16.005  28.919  -8.203  0.00  0.00     0.088 H 
ATOM     14  C10 1Z6 d   1      16.673  31.822  -9.779  0.00  0.00    -0.045 A 
ATOM     15  F12 1Z6 d   1      14.623  30.821  -9.253  0.00  0.00    -0.206 F 
ATOM     16  C9  1Z6 d   1      18.055  31.787  -9.756  0.00  0.00    -0.069 A 
ATOM     17  H   1Z6 d   1      16.149  32.657 -10.231  0.00  0.00     0.088 H 
ATOM     18  H   1Z6 d   1      18.622  32.595 -10.203  0.00  0.00     0.085 H 
ENDBRANCH   4   8
BRANCH   1  19
ATOM     19  C1  1Z6 d   1      20.689  28.139  -8.696  0.00  0.00    -0.035 C 
ATOM     20  H   1Z6 d   1      21.610  27.547  -8.585  0.00  0.00     0.035 H 
ATOM     21  H   1Z6 d   1      20.110  27.758  -9.550  0.00  0.00     0.035 H 
ATOM     22  H   1Z6 d   1      20.087  28.057  -7.779  0.00  0.00     0.035 H 
ENDBRANCH   1  19
TORSDOF 2
