REMARK  2 active torsions:
REMARK  status: ('A' for Active; 'I' for Inactive)
REMARK    1  A    between atoms: C2_1  and  C5_2 
REMARK    2  A    between atoms: C10_3  and  C11_4 
ROOT
ATOM      1  C5  1Z8 d   1      17.679  21.117  -6.863  0.00  0.00     0.172 A 
ATOM      2  C10 1Z8 d   1      17.088  22.376  -6.878  0.00  0.00     0.026 A 
ATOM      3  N6  1Z8 d   1      16.783  20.138  -6.857  0.00  0.00    -0.170 NA
ATOM      4  N7  1Z8 d   1      15.596  20.781  -6.864  0.00  0.00    -0.288 N 
ATOM      5  C9  1Z8 d   1      15.740  22.115  -6.878  0.00  0.00     0.009 A 
ATOM      6  H   1Z8 d   1      14.684  20.302  -6.859  0.00  0.00     0.188 HD
ATOM      7  H   1Z8 d   1      14.938  22.852  -6.888  0.00  0.00     0.115 H 
ENDROOT
BRANCH   2   8
ATOM      8  C11 1Z8 d   1      17.685  23.726  -6.901  0.00  0.00    -0.022 A 
ATOM      9  C12 1Z8 d   1      17.037  24.769  -7.559  0.00  0.00    -0.072 A 
ATOM     10  C13 1Z8 d   1      17.594  26.033  -7.601  0.00  0.00    -0.082 A 
ATOM     11  H   1Z8 d   1      16.085  24.587  -8.044  0.00  0.00     0.084 H 
ATOM     12  C14 1Z8 d   1      18.801  26.275  -6.988  0.00  0.00    -0.083 A 
ATOM     13  H   1Z8 d   1      17.079  26.835  -8.118  0.00  0.00     0.083 H 
ATOM     14  C15 1Z8 d   1      19.458  25.261  -6.336  0.00  0.00    -0.082 A 
ATOM     15  H   1Z8 d   1      19.234  27.268  -7.020  0.00  0.00     0.083 H 
ATOM     16  C16 1Z8 d   1      18.913  23.989  -6.299  0.00  0.00    -0.072 A 
ATOM     17  H   1Z8 d   1      20.406  25.457  -5.849  0.00  0.00     0.083 H 
ATOM     18  H   1Z8 d   1      19.447  23.190  -5.797  0.00  0.00     0.084 H 
ENDBRANCH   2   8
BRANCH   1  19
ATOM     19  C2  1Z8 d   1      19.102  20.738  -6.862  0.00  0.00     0.437 C 
ATOM     20  F1  1Z8 d   1      19.254  19.501  -7.068  0.00  0.00    -0.164 F 
ATOM     21  F3  1Z8 d   1      19.709  20.988  -5.712  0.00  0.00    -0.164 F 
ATOM     22  F4  1Z8 d   1      19.806  21.362  -7.814  0.00  0.00    -0.164 F 
ENDBRANCH   1  19
TORSDOF 2
