REMARK  6 active torsions:
REMARK  status: ('A' for Active; 'I' for Inactive)
REMARK    1  A    between atoms: P_1  and  O5'_5 
REMARK    2  A    between atoms: O5'_5  and  C5'_6 
REMARK    3  A    between atoms: C5'_6  and  C4'_7 
REMARK    4  A    between atoms: C3'_9  and  O3'_10 
REMARK    5  A    between atoms: C2'_11  and  O2'_12 
REMARK    6  A    between atoms: C1'_13  and  N9_14 
ROOT
ATOM      1  C4' AMP d   1      53.592  87.723 104.941  0.00  0.00     0.089 C 
ATOM      2  O4' AMP d   1      53.276  87.050 106.188  0.00  0.00    -0.353 OA
ATOM      3  C3' AMP d   1      52.411  88.658 104.718  0.00  0.00     0.091 C 
ATOM      4  C2' AMP d   1      51.246  87.860 105.274  0.00  0.00     0.105 C 
ATOM      5  C1' AMP d   1      51.899  87.165 106.462  0.00  0.00     0.139 C 
ATOM      6  H   AMP d   1      53.653  87.002 104.112  0.00  0.00     0.090 H 
ATOM      7  H   AMP d   1      52.546  89.581 105.301  0.00  0.00     0.091 H 
ATOM      8  H   AMP d   1      50.396  88.496 105.561  0.00  0.00     0.093 H 
ATOM      9  H   AMP d   1      51.456  86.165 106.578  0.00  0.00     0.122 H 
ENDROOT
BRANCH   5  10
ATOM     10  N9  AMP d   1      51.738  87.908 107.730  0.00  0.00    -0.294 N 
ATOM     11  C8  AMP d   1      52.667  88.699 108.317  0.00  0.00     0.071 A 
ATOM     12  N7  AMP d   1      52.211  89.187 109.501  0.00  0.00    -0.236 NA
ATOM     13  H   AMP d   1      53.648  88.915 107.897  0.00  0.00     0.144 H 
ATOM     14  C5  AMP d   1      50.968  88.672 109.687  0.00  0.00     0.149 A 
ATOM     15  C6  AMP d   1      49.918  88.782 110.711  0.00  0.00     0.155 A 
ATOM     16  C4  AMP d   1      50.672  87.838 108.521  0.00  0.00     0.167 A 
ATOM     17  N6  AMP d   1      50.116  89.533 111.827  0.00  0.00    -0.382 N 
ATOM     18  N1  AMP d   1      48.778  88.087 110.513  0.00  0.00    -0.222 NA
ATOM     19  H   AMP d   1      49.374  89.604 112.538  0.00  0.00     0.157 HD
ATOM     20  H   AMP d   1      51.008  90.031 111.961  0.00  0.00     0.157 HD
ATOM     21  C2  AMP d   1      48.571  87.332 109.414  0.00  0.00     0.091 A 
ATOM     22  N3  AMP d   1      49.482  87.200 108.432  0.00  0.00    -0.222 NA
ATOM     23  H   AMP d   1      47.627  86.808 109.317  0.00  0.00     0.146 H 
ENDBRANCH   5  10
BRANCH   4  24
ATOM     24  O2' AMP d   1      50.853  86.863 104.341  0.00  0.00    -0.388 OA
ATOM     25  H   AMP d   1      50.124  86.368 104.696  0.00  0.00     0.210 HD
ENDBRANCH   4  24
BRANCH   1  26
ATOM     26  C5' AMP d   1      54.920  88.403 105.082  0.00  0.00     0.059 C 
ATOM     27  H   AMP d   1      55.710  87.642 105.165  0.00  0.00     0.079 H 
ATOM     28  H   AMP d   1      55.104  89.028 104.196  0.00  0.00     0.079 H 
BRANCH  26  29
ATOM     29  O5' AMP d   1      54.933  89.218 106.239  0.00  0.00    -0.280 OA
BRANCH  29  30
ATOM     30  P   AMP d   1      55.973  90.404 106.382  0.00  0.00     0.422 P 
ATOM     31  O1P AMP d   1      55.617  91.487 105.399  0.00  0.00    -0.617 OA
ATOM     32  O2P AMP d   1      57.373  89.833 106.317  0.00  0.00    -0.617 OA
ATOM     33  O3P AMP d   1      55.657  90.919 107.770  0.00  0.00    -0.617 OA
ENDBRANCH  29  30
ENDBRANCH  26  29
ENDBRANCH   1  26
BRANCH   3  34
ATOM     34  O3' AMP d   1      52.245  89.021 103.359  0.00  0.00    -0.390 OA
ATOM     35  H   AMP d   1      53.028  89.464 103.053  0.00  0.00     0.210 HD
ENDBRANCH   3  34
TORSDOF 6
