REMARK  10 active torsions:
REMARK  status: ('A' for Active; 'I' for Inactive)
REMARK    1  A    between atoms: O3B_8  and  PG_1 
REMARK    2  A    between atoms: PB_5  and  O3B_8 
REMARK    3  A    between atoms: O3A_12  and  PB_5 
REMARK    4  A    between atoms: PA_9  and  O3A_12 
REMARK    5  A    between atoms: PA_9  and  O5'_13 
REMARK    6  A    between atoms: O5'_13  and  C5'_14 
REMARK    7  A    between atoms: C5'_14  and  C4'_15 
REMARK    8  A    between atoms: C3'_17  and  O3'_18 
REMARK    9  A    between atoms: C2'_19  and  O2'_20 
REMARK   10  A    between atoms: C1'_21  and  N9_22 
ROOT
ATOM      1  C4' ATP d   1     -52.166  42.632 -20.841  0.00  0.00     0.089 C 
ATOM      2  O4' ATP d   1     -50.830  42.797 -21.330  0.00  0.00    -0.353 OA
ATOM      3  C3' ATP d   1     -52.422  43.834 -19.950  0.00  0.00     0.091 C 
ATOM      4  C2' ATP d   1     -51.054  44.228 -19.439  0.00  0.00     0.105 C 
ATOM      5  C1' ATP d   1     -50.107  43.745 -20.521  0.00  0.00     0.139 C 
ATOM      6  H   ATP d   1     -52.247  41.702 -20.260  0.00  0.00     0.090 H 
ATOM      7  H   ATP d   1     -52.856  44.658 -20.534  0.00  0.00     0.091 H 
ATOM      8  H   ATP d   1     -50.986  45.316 -19.291  0.00  0.00     0.093 H 
ATOM      9  H   ATP d   1     -49.246  43.238 -20.061  0.00  0.00     0.122 H 
ENDROOT
BRANCH   1  10
ATOM     10  C5' ATP d   1     -53.159  42.594 -21.987  0.00  0.00     0.058 C 
ATOM     11  H   ATP d   1     -53.208  41.580 -22.411  0.00  0.00     0.079 H 
ATOM     12  H   ATP d   1     -54.157  42.892 -21.633  0.00  0.00     0.079 H 
BRANCH  10  13
ATOM     13  O5' ATP d   1     -52.693  43.513 -22.968  0.00  0.00    -0.287 OA
BRANCH  13  14
ATOM     14  PA  ATP d   1     -53.476  43.825 -24.335  0.00  0.00     0.417 P 
ATOM     15  O1A ATP d   1     -52.619  44.791 -25.119  0.00  0.00    -0.624 OA
ATOM     16  O2A ATP d   1     -53.938  42.527 -24.961  0.00  0.00    -0.624 OA
BRANCH  14  17
ATOM     17  O3A ATP d   1     -54.756  44.635 -23.809  0.00  0.00    -0.180 OA
BRANCH  17  18
ATOM     18  PB  ATP d   1     -55.486  45.698 -24.770  0.00  0.00     0.428 P 
ATOM     19  O1B ATP d   1     -54.569  46.882 -24.992  0.00  0.00    -0.624 OA
ATOM     20  O2B ATP d   1     -56.852  45.892 -24.157  0.00  0.00    -0.624 OA
BRANCH  18  21
ATOM     21  O3B ATP d   1     -55.625  44.906 -26.181  0.00  0.00    -0.173 OA
BRANCH  21  22
ATOM     22  PG  ATP d   1     -55.154  45.492 -27.626  0.00  0.00     0.431 P 
ATOM     23  O1G ATP d   1     -55.936  46.775 -27.801  0.00  0.00    -0.616 OA
ATOM     24  O2G ATP d   1     -53.658  45.698 -27.522  0.00  0.00    -0.616 OA
ATOM     25  O3G ATP d   1     -55.531  44.389 -28.591  0.00  0.00    -0.616 OA
ENDBRANCH  21  22
ENDBRANCH  18  21
ENDBRANCH  17  18
ENDBRANCH  14  17
ENDBRANCH  13  14
ENDBRANCH  10  13
ENDBRANCH   1  10
BRANCH   3  26
ATOM     26  O3' ATP d   1     -53.322  43.493 -18.896  0.00  0.00    -0.390 OA
ATOM     27  H   ATP d   1     -52.945  42.795 -18.373  0.00  0.00     0.210 HD
ENDBRANCH   3  26
BRANCH   5  28
ATOM     28  N9  ATP d   1     -49.607  44.915 -21.300  0.00  0.00    -0.294 N 
ATOM     29  C8  ATP d   1     -50.094  45.353 -22.477  0.00  0.00     0.071 A 
ATOM     30  N7  ATP d   1     -49.411  46.440 -22.921  0.00  0.00    -0.236 NA
ATOM     31  H   ATP d   1     -50.929  44.894 -23.005  0.00  0.00     0.144 H 
ATOM     32  C5  ATP d   1     -48.460  46.716 -22.012  0.00  0.00     0.149 A 
ATOM     33  C6  ATP d   1     -47.393  47.738 -21.858  0.00  0.00     0.155 A 
ATOM     34  C4  ATP d   1     -48.594  45.711 -20.946  0.00  0.00     0.167 A 
ATOM     35  N6  ATP d   1     -47.206  48.699 -22.792  0.00  0.00    -0.382 N 
ATOM     36  N1  ATP d   1     -46.615  47.677 -20.753  0.00  0.00    -0.222 NA
ATOM     37  H   ATP d   1     -46.461  49.399 -22.668  0.00  0.00     0.157 HD
ATOM     38  H   ATP d   1     -47.809  48.730 -23.627  0.00  0.00     0.157 HD
ATOM     39  C2  ATP d   1     -46.795  46.722 -19.818  0.00  0.00     0.091 A 
ATOM     40  N3  ATP d   1     -47.742  45.767 -19.894  0.00  0.00    -0.222 NA
ATOM     41  H   ATP d   1     -46.139  46.723 -18.955  0.00  0.00     0.146 H 
ENDBRANCH   5  28
BRANCH   4  42
ATOM     42  O2' ATP d   1     -50.723  43.541 -18.230  0.00  0.00    -0.388 OA
ATOM     43  H   ATP d   1     -49.860  43.812 -17.939  0.00  0.00     0.210 HD
ENDBRANCH   4  42
TORSDOF 10
