REMARK  8 active torsions:
REMARK  status: ('A' for Active; 'I' for Inactive)
REMARK    1  A    between atoms: N1'_2  and  C2'_4 
REMARK    2  A    between atoms: C1'_9  and  S01_10 
REMARK    3  A    between atoms: S01_10  and  C1_11 
REMARK    4  A    between atoms: C5_13  and  C6_14 
REMARK    5  A    between atoms: C6_14  and  O6_15 
REMARK    6  A    between atoms: C4_16  and  O4_17 
REMARK    7  A    between atoms: C3_18  and  O3_19 
REMARK    8  A    between atoms: C2_20  and  O2_21 
ROOT
ATOM      1  C1  OTN d   1      26.113 -31.721   6.122  0.00  0.00     0.115 C 
ATOM      2  O5  OTN d   1      26.564 -30.803   7.179  0.00  0.00    -0.362 OA
ATOM      3  C5  OTN d   1      25.443 -30.396   7.977  0.00  0.00     0.087 C 
ATOM      4  C4  OTN d   1      24.782 -31.607   8.647  0.00  0.00     0.089 C 
ATOM      5  C3  OTN d   1      24.334 -32.531   7.551  0.00  0.00     0.090 C 
ATOM      6  C2  OTN d   1      25.561 -32.945   6.760  0.00  0.00     0.096 C 
ATOM      7  H   OTN d   1      25.347 -31.216   5.515  0.00  0.00     0.105 H 
ATOM      8  H   OTN d   1      24.704 -29.889   7.339  0.00  0.00     0.090 H 
ATOM      9  H   OTN d   1      23.921 -31.282   9.250  0.00  0.00     0.091 H 
ATOM     10  H   OTN d   1      23.636 -31.994   6.892  0.00  0.00     0.091 H 
ATOM     11  H   OTN d   1      26.312 -33.440   7.394  0.00  0.00     0.092 H 
ENDROOT
BRANCH   1  12
ATOM     12  S01 OTN d   1      27.420 -32.324   5.061  0.00  0.00    -0.093 SA
BRANCH  12  13
ATOM     13  C1' OTN d   1      27.684 -30.962   3.997  0.00  0.00     0.036 A 
ATOM     14  C2' OTN d   1      28.460 -30.998   2.833  0.00  0.00     0.119 A 
ATOM     15  C3' OTN d   1      28.614 -29.845   2.068  0.00  0.00    -0.050 A 
ATOM     16  C4' OTN d   1      28.056 -28.642   2.466  0.00  0.00    -0.081 A 
ATOM     17  H   OTN d   1      29.180 -29.890   1.145  0.00  0.00     0.087 H 
ATOM     18  C5' OTN d   1      27.317 -28.589   3.635  0.00  0.00    -0.082 A 
ATOM     19  H   OTN d   1      28.197 -27.749   1.867  0.00  0.00     0.083 H 
ATOM     20  C6' OTN d   1      27.145 -29.742   4.390  0.00  0.00    -0.064 A 
ATOM     21  H   OTN d   1      26.875 -27.654   3.959  0.00  0.00     0.083 H 
ATOM     22  H   OTN d   1      26.575 -29.689   5.311  0.00  0.00     0.085 H 
BRANCH  14  23
ATOM     23  N1' OTN d   1      29.027 -32.134   2.386  0.00  0.00    -0.114 N 
ATOM     24  O2' OTN d   1      29.818 -32.047   1.168  0.00  0.00    -0.532 OA
ATOM     25  O3' OTN d   1      28.915 -33.324   3.024  0.00  0.00    -0.532 OA
ENDBRANCH  14  23
ENDBRANCH  12  13
ENDBRANCH   1  12
BRANCH   6  26
ATOM     26  O2  OTN d   1      25.085 -33.805   5.745  0.00  0.00    -0.389 OA
ATOM     27  H   OTN d   1      24.463 -33.337   5.201  0.00  0.00     0.210 HD
ENDBRANCH   6  26
BRANCH   3  28
ATOM     28  C6  OTN d   1      25.950 -29.429   9.048  0.00  0.00     0.043 C 
ATOM     29  H   OTN d   1      26.700 -29.935   9.674  0.00  0.00     0.078 H 
ATOM     30  H   OTN d   1      25.108 -29.102   9.676  0.00  0.00     0.078 H 
BRANCH  28  31
ATOM     31  O6  OTN d   1      26.544 -28.293   8.417  0.00  0.00    -0.398 OA
ATOM     32  H   OTN d   1      27.271 -28.577   7.875  0.00  0.00     0.209 HD
ENDBRANCH  28  31
ENDBRANCH   3  28
BRANCH   5  33
ATOM     33  O3  OTN d   1      23.666 -33.716   8.074  0.00  0.00    -0.390 OA
ATOM     34  H   OTN d   1      23.399 -34.272   7.352  0.00  0.00     0.210 HD
ENDBRANCH   5  33
BRANCH   4  35
ATOM     35  O4  OTN d   1      25.723 -32.294   9.478  0.00  0.00    -0.390 OA
ATOM     36  H   OTN d   1      26.452 -32.593   8.948  0.00  0.00     0.210 HD
ENDBRANCH   4  35
TORSDOF 8
