REMARK  17 active torsions:
REMARK  status: ('A' for Active; 'I' for Inactive)
REMARK    1  A    between atoms: N_1  and  CA_2 
REMARK    2  A    between atoms: CA_2  and  C_3 
REMARK    3  A    between atoms: CA_2  and  CB_5 
REMARK       I    between atoms: C_3  and  N_9 
REMARK    4  A    between atoms: CB_5  and  CG_6 
REMARK    5  A    between atoms: N_9  and  CA_10 
REMARK    6  A    between atoms: CA_10  and  C_11 
REMARK    7  A    between atoms: CA_10  and  CB_13 
REMARK       I    between atoms: C_11  and  N_17 
REMARK    8  A    between atoms: CB_13  and  CG_14 
REMARK    9  A    between atoms: CG_14  and  CD1_15 
REMARK   10  A    between atoms: CG_14  and  CD2_16 
REMARK   11  A    between atoms: N_17  and  CA_18 
REMARK   12  A    between atoms: CA_18  and  C_19 
REMARK   13  A    between atoms: CA_18  and  CB_21 
REMARK       I    between atoms: C_19  and  N_29 
REMARK   14  A    between atoms: CB_21  and  CG_22 
REMARK   15  A    between atoms: CZ_27  and  OH_28 
REMARK   16  A    between atoms: N_29  and  CA_30 
REMARK   17  A    between atoms: CA_30  and  C_31 
ROOT
ATOM      1  CA  LEU d   1       9.736  -8.801  -2.373  0.00  0.00     0.089 C 
ATOM      2  H   LEU d   1       9.551  -8.962  -1.301  0.00  0.00     0.087 H 
ENDROOT
BRANCH   1   3
ATOM      3  N   LEU d   1      10.900  -9.621  -2.730  0.00  0.00    -0.346 N 
ATOM      4  C   ASP d   1      11.259 -10.696  -2.028  0.00  0.00     0.249 C 
ATOM      5  O   ASP d   1      10.557 -11.175  -1.142  0.00  0.00    -0.271 OA
ATOM      6  H   LEU d   1      11.444  -9.364  -3.529  0.00  0.00     0.163 HD
BRANCH   4   7
ATOM      7  CA  ASP d   1      12.619 -11.320  -2.373  0.00  0.00     0.185 C 
ATOM      8  H   ASP d   1      13.282 -10.518  -2.729  0.00  0.00     0.100 H 
BRANCH   7   9
ATOM      9  N   ASP d   1      13.243 -11.929  -1.198  0.00  0.00    -0.066 N 
ATOM     10  H   ASP d   1      14.131 -12.328  -1.458  0.00  0.00     0.275 HD
ATOM     11  H   ASP d   1      12.643 -12.653  -0.836  0.00  0.00     0.275 HD
ATOM     12  H   ASP d   1      13.385 -11.225  -0.490  0.00  0.00     0.275 HD
ENDBRANCH   7   9
BRANCH   7  13
ATOM     13  CB  ASP d   1      12.454 -12.336  -3.500  0.00  0.00     0.050 C 
ATOM     14  H   ASP d   1      11.669 -13.053  -3.218  0.00  0.00     0.052 H 
ATOM     15  H   ASP d   1      13.406 -12.870  -3.638  0.00  0.00     0.052 H 
BRANCH  13  16
ATOM     16  CG  ASP d   1      12.067 -11.679  -4.813  0.00  0.00     0.175 C 
ATOM     17  OD1 ASP d   1      12.969 -11.191  -5.541  0.00  0.00    -0.648 OA
ATOM     18  OD2 ASP d   1      10.849 -11.602  -5.087  0.00  0.00    -0.648 OA
ENDBRANCH  13  16
ENDBRANCH   7  13
ENDBRANCH   4   7
ENDBRANCH   1   3
BRANCH   1  19
ATOM     19  C   LEU d   1       8.415  -9.142  -3.110  0.00  0.00     0.241 C 
ATOM     20  O   LEU d   1       7.352  -8.627  -2.748  0.00  0.00    -0.271 OA
ATOM     21  N   TYR d   1       8.467 -10.004  -4.121  0.00  0.00    -0.346 N 
ATOM     22  H   TYR d   1       9.319 -10.486  -4.325  0.00  0.00     0.163 HD
BRANCH  21  23
ATOM     23  CA  TYR d   1       7.278 -10.246  -4.932  0.00  0.00     0.093 C 
ATOM     24  H   TYR d   1       6.483  -9.598  -4.535  0.00  0.00     0.088 H 
BRANCH  23  25
ATOM     25  C   TYR d   1       6.745 -11.691  -4.877  0.00  0.00     0.241 C 
ATOM     26  O   TYR d   1       5.784 -12.030  -5.573  0.00  0.00    -0.271 OA
ATOM     27  N   GLY d   1       7.322 -12.524  -4.017  0.00  0.00    -0.349 N 
ATOM     28  H   GLY d   1       8.049 -12.188  -3.418  0.00  0.00     0.163 HD
BRANCH  27  29
ATOM     29  CA  GLY d   1       6.912 -13.918  -3.934  0.00  0.00     0.075 C 
ATOM     30  H   GLY d   1       7.562 -14.410  -3.195  0.00  0.00     0.080 H 
ATOM     31  H   GLY d   1       7.075 -14.369  -4.924  0.00  0.00     0.080 H 
BRANCH  29  32
ATOM     32  C   GLY d   1       5.466 -14.202  -3.533  0.00  0.00     0.191 C 
ATOM     33  O   GLY d   1       5.135 -14.444  -2.369  0.00  0.00    -0.647 OA
ATOM     34  OXT GLY d   1       4.572 -14.226  -4.383  0.00  0.00    -0.647 OA
ENDBRANCH  29  32
ENDBRANCH  27  29
ENDBRANCH  23  25
BRANCH  23  35
ATOM     35  CB  TYR d   1       7.541  -9.828  -6.382  0.00  0.00    -0.014 C 
ATOM     36  H   TYR d   1       6.609  -9.946  -6.954  0.00  0.00     0.043 H 
ATOM     37  H   TYR d   1       8.314 -10.489  -6.801  0.00  0.00     0.043 H 
BRANCH  35  38
ATOM     38  CG  TYR d   1       8.009  -8.396  -6.519  0.00  0.00    -0.056 A 
ATOM     39  CD1 TYR d   1       9.366  -8.080  -6.485  0.00  0.00    -0.074 A 
ATOM     40  CE1 TYR d   1       9.797  -6.761  -6.592  0.00  0.00    -0.051 A 
ATOM     41  H   TYR d   1      10.096  -8.873  -6.374  0.00  0.00     0.084 H 
ATOM     42  CZ  TYR d   1       8.864  -5.749  -6.724  0.00  0.00     0.065 A 
ATOM     43  H   TYR d   1      10.856  -6.529  -6.572  0.00  0.00     0.087 H 
ATOM     44  CE2 TYR d   1       7.517  -6.035  -6.750  0.00  0.00    -0.051 A 
ATOM     45  CD2 TYR d   1       7.098  -7.357  -6.637  0.00  0.00    -0.074 A 
ATOM     46  H   TYR d   1       6.790  -5.238  -6.857  0.00  0.00     0.087 H 
ATOM     47  H   TYR d   1       6.037  -7.580  -6.641  0.00  0.00     0.084 H 
BRANCH  42  48
ATOM     48  OH  TYR d   1       9.268  -4.456  -6.833  0.00  0.00    -0.361 OA
ATOM     49  H   TYR d   1       8.904  -3.950  -6.116  0.00  0.00     0.217 HD
ENDBRANCH  42  48
ENDBRANCH  35  38
ENDBRANCH  23  35
ENDBRANCH  21  23
ENDBRANCH   1  19
BRANCH   1  50
ATOM     50  CB  LEU d   1      10.075  -7.311  -2.581  0.00  0.00    -0.035 C 
ATOM     51  H   LEU d   1       9.234  -6.725  -2.183  0.00  0.00     0.037 H 
ATOM     52  H   LEU d   1      10.159  -7.142  -3.665  0.00  0.00     0.037 H 
BRANCH  50  53
ATOM     53  CG  LEU d   1      11.358  -6.769  -1.932  0.00  0.00    -0.059 C 
ATOM     54  H   LEU d   1      12.216  -7.225  -2.447  0.00  0.00     0.038 H 
BRANCH  53  55
ATOM     55  CD1 LEU d   1      11.481  -5.247  -2.070  0.00  0.00    -0.073 C 
ATOM     56  H   LEU d   1      12.412  -4.910  -1.591  0.00  0.00     0.028 H 
ATOM     57  H   LEU d   1      10.622  -4.764  -1.582  0.00  0.00     0.028 H 
ATOM     58  H   LEU d   1      11.497  -4.976  -3.136  0.00  0.00     0.028 H 
ENDBRANCH  53  55
BRANCH  53  59
ATOM     59  CD2 LEU d   1      11.410  -7.168  -0.483  0.00  0.00    -0.073 C 
ATOM     60  H   LEU d   1      11.321  -8.261  -0.400  0.00  0.00     0.028 H 
ATOM     61  H   LEU d   1      10.580  -6.690   0.059  0.00  0.00     0.028 H 
ATOM     62  H   LEU d   1      12.367  -6.844  -0.048  0.00  0.00     0.028 H 
ENDBRANCH  53  59
ENDBRANCH  50  53
ENDBRANCH   1  50
TORSDOF 17
