REMARK  18 active torsions:
REMARK  status: ('A' for Active; 'I' for Inactive)
REMARK    1  A    between atoms: N_1  and  CA_2 
REMARK    2  A    between atoms: CA_2  and  C_3 
REMARK    3  A    between atoms: CA_2  and  CB_5 
REMARK       I    between atoms: C_3  and  N_9 
REMARK    4  A    between atoms: CB_5  and  CG_6 
REMARK    5  A    between atoms: N_9  and  CA_10 
REMARK    6  A    between atoms: CA_10  and  C_11 
REMARK    7  A    between atoms: CA_10  and  CB_13 
REMARK       I    between atoms: C_11  and  N_17 
REMARK    8  A    between atoms: CB_13  and  CG_14 
REMARK    9  A    between atoms: CG_14  and  SD_15 
REMARK   10  A    between atoms: SD_15  and  CE_16 
REMARK   11  A    between atoms: N_17  and  CA_18 
REMARK   12  A    between atoms: CA_18  and  C_19 
REMARK   13  A    between atoms: CA_18  and  CB_21 
REMARK       I    between atoms: C_19  and  N_29 
REMARK   14  A    between atoms: CB_21  and  CG_22 
REMARK   15  A    between atoms: CZ_27  and  OH_28 
REMARK   16  A    between atoms: N_29  and  CA_30 
REMARK   17  A    between atoms: CA_30  and  C_31 
REMARK   18  A    between atoms: CA_30  and  CB_33 
ROOT
ATOM      1  C   MET d   1       7.905  -8.776  -3.485  0.00  0.00     0.241 C 
ATOM      2  O   MET d   1       7.113  -7.850  -3.309  0.00  0.00    -0.271 OA
ATOM      3  N   TYR d   1       7.662  -9.784  -4.317  0.00  0.00    -0.346 N 
ATOM      4  H   TYR d   1       8.309 -10.545  -4.360  0.00  0.00     0.163 HD
ENDROOT
BRANCH   3   5
ATOM      5  CA  TYR d   1       6.474  -9.810  -5.171  0.00  0.00     0.093 C 
ATOM      6  H   TYR d   1       5.816  -8.993  -4.840  0.00  0.00     0.088 H 
BRANCH   5   7
ATOM      7  C   TYR d   1       5.689 -11.110  -5.036  0.00  0.00     0.241 C 
ATOM      8  O   TYR d   1       4.485 -11.145  -5.288  0.00  0.00    -0.271 OA
ATOM      9  N   ARG d   1       6.390 -12.180  -4.670  0.00  0.00    -0.345 N 
ATOM     10  H   ARG d   1       7.373 -12.080  -4.514  0.00  0.00     0.163 HD
BRANCH   9  11
ATOM     11  CA  ARG d   1       5.780 -13.495  -4.487  0.00  0.00     0.093 C 
ATOM     12  H   ARG d   1       5.300 -13.785  -5.434  0.00  0.00     0.089 H 
BRANCH  11  13
ATOM     13  C   ARG d   1       4.712 -13.481  -3.395  0.00  0.00     0.196 C 
ATOM     14  O   ARG d   1       4.346 -14.526  -2.856  0.00  0.00    -0.646 OA
ATOM     15  O1  ARG d   1       4.199 -12.386  -3.041  0.00  0.00    -0.646 OA
ENDBRANCH  11  13
BRANCH  11  16
ATOM     16  CB  ARG d   1       6.852 -14.532  -4.147  0.00  0.00    -0.048 C 
ATOM     17  H   ARG d   1       6.380 -15.516  -4.012  0.00  0.00     0.030 H 
ATOM     18  H   ARG d   1       7.363 -14.240  -3.218  0.00  0.00     0.030 H 
ATOM     19  H   ARG d   1       7.583 -14.585  -4.967  0.00  0.00     0.030 H 
ENDBRANCH  11  16
ENDBRANCH   9  11
ENDBRANCH   5   7
BRANCH   5  20
ATOM     20  CB  TYR d   1       6.839  -9.546  -6.635  0.00  0.00    -0.014 C 
ATOM     21  H   TYR d   1       5.918  -9.588  -7.236  0.00  0.00     0.043 H 
ATOM     22  H   TYR d   1       7.531 -10.334  -6.968  0.00  0.00     0.043 H 
BRANCH  20  23
ATOM     23  CG  TYR d   1       7.496  -8.207  -6.863  0.00  0.00    -0.056 A 
ATOM     24  CD1 TYR d   1       6.732  -7.063  -7.050  0.00  0.00    -0.074 A 
ATOM     25  CE1 TYR d   1       7.323  -5.834  -7.257  0.00  0.00    -0.051 A 
ATOM     26  H   TYR d   1       5.651  -7.137  -7.033  0.00  0.00     0.084 H 
ATOM     27  CZ  TYR d   1       8.696  -5.735  -7.276  0.00  0.00     0.065 A 
ATOM     28  H   TYR d   1       6.710  -4.952  -7.404  0.00  0.00     0.087 H 
ATOM     29  CE2 TYR d   1       9.481  -6.854  -7.090  0.00  0.00    -0.051 A 
ATOM     30  CD2 TYR d   1       8.880  -8.082  -6.883  0.00  0.00    -0.074 A 
ATOM     31  H   TYR d   1      10.562  -6.771  -7.106  0.00  0.00     0.087 H 
ATOM     32  H   TYR d   1       9.498  -8.960  -6.734  0.00  0.00     0.084 H 
BRANCH  27  33
ATOM     33  OH  TYR d   1       9.278  -4.507  -7.483  0.00  0.00    -0.361 OA
ATOM     34  H   TYR d   1       8.600  -3.851  -7.592  0.00  0.00     0.217 HD
ENDBRANCH  27  33
ENDBRANCH  20  23
ENDBRANCH   5  20
ENDBRANCH   3   5
BRANCH   1  35
ATOM     35  CA  MET d   1       9.232  -8.817  -2.729  0.00  0.00     0.090 C 
ATOM     36  H   MET d   1       9.008  -8.873  -1.654  0.00  0.00     0.087 H 
BRANCH  35  37
ATOM     37  N   MET d   1      10.041  -9.981  -3.077  0.00  0.00    -0.346 N 
ATOM     38  C   ASP d   1      10.050 -11.071  -2.315  0.00  0.00     0.249 C 
ATOM     39  O   ASP d   1       9.292 -11.222  -1.358  0.00  0.00    -0.271 OA
ATOM     40  H   MET d   1      10.600  -9.958  -3.906  0.00  0.00     0.163 HD
BRANCH  38  41
ATOM     41  CA  ASP d   1      11.061 -12.151  -2.683  0.00  0.00     0.185 C 
ATOM     42  H   ASP d   1      11.127 -12.859  -1.844  0.00  0.00     0.100 H 
BRANCH  41  43
ATOM     43  N   ASP d   1      10.638 -12.890  -3.864  0.00  0.00    -0.066 N 
ATOM     44  H   ASP d   1      11.324 -13.595  -4.083  0.00  0.00     0.275 HD
ATOM     45  H   ASP d   1      10.548 -12.256  -4.643  0.00  0.00     0.275 HD
ATOM     46  H   ASP d   1       9.749 -13.330  -3.684  0.00  0.00     0.275 HD
ENDBRANCH  41  43
BRANCH  41  47
ATOM     47  CB  ASP d   1      12.444 -11.532  -2.896  0.00  0.00     0.050 C 
ATOM     48  H   ASP d   1      12.469 -10.548  -2.405  0.00  0.00     0.052 H 
ATOM     49  H   ASP d   1      12.612 -11.408  -3.976  0.00  0.00     0.052 H 
BRANCH  47  50
ATOM     50  CG  ASP d   1      13.559 -12.388  -2.326  0.00  0.00     0.175 C 
ATOM     51  OD1 ASP d   1      13.339 -13.603  -2.128  0.00  0.00    -0.648 OA
ATOM     52  OD2 ASP d   1      14.656 -11.847  -2.071  0.00  0.00    -0.648 OA
ENDBRANCH  47  50
ENDBRANCH  41  47
ENDBRANCH  38  41
ENDBRANCH  35  37
BRANCH  35  53
ATOM     53  CB  MET d   1      10.012  -7.528  -2.993  0.00  0.00    -0.030 C 
ATOM     54  H   MET d   1       9.399  -6.680  -2.653  0.00  0.00     0.037 H 
ATOM     55  H   MET d   1      10.182  -7.446  -4.077  0.00  0.00     0.037 H 
BRANCH  53  56
ATOM     56  CG  MET d   1      11.358  -7.449  -2.295  0.00  0.00    -0.021 C 
ATOM     57  H   MET d   1      11.967  -8.314  -2.596  0.00  0.00     0.049 H 
ATOM     58  H   MET d   1      11.197  -7.474  -1.207  0.00  0.00     0.049 H 
BRANCH  56  59
ATOM     59  SD  MET d   1      12.241  -5.937  -2.720  0.00  0.00    -0.173 SA
BRANCH  59  60
ATOM     60  CE  MET d   1      10.991  -4.708  -2.351  0.00  0.00    -0.035 C 
ATOM     61  H   MET d   1      11.389  -3.705  -2.565  0.00  0.00     0.041 H 
ATOM     62  H   MET d   1      10.714  -4.774  -1.288  0.00  0.00     0.041 H 
ATOM     63  H   MET d   1      10.102  -4.890  -2.973  0.00  0.00     0.041 H 
ENDBRANCH  59  60
ENDBRANCH  56  59
ENDBRANCH  53  56
ENDBRANCH  35  53
ENDBRANCH   1  35
TORSDOF 18
