REMARK  5 active torsions:
REMARK  status: ('A' for Active; 'I' for Inactive)
REMARK    1  A    between atoms: C01_1  and  O02_2 
REMARK    2  A    between atoms: O02_2  and  C03_3 
REMARK    3  A    between atoms: N11_11  and  C12_12 
REMARK    4  A    between atoms: C14_14  and  N16_16 
REMARK    5  A    between atoms: N16_16  and  C17_17 
ROOT
ATOM      1  C12 1IS d   1      22.878  24.617  77.303  0.00  0.00     0.025 C 
ATOM      2  C13 1IS d   1      23.002  24.886  78.781  0.00  0.00    -0.026 C 
ATOM      3  C14 1IS d   1      22.036  23.738  78.936  0.00  0.00     0.015 C 
ATOM      4  C15 1IS d   1      22.678  23.183  77.675  0.00  0.00    -0.026 C 
ATOM      5  H   1IS d   1      21.931  25.041  76.937  0.00  0.00     0.073 H 
ATOM      6  H   1IS d   1      22.624  25.864  79.112  0.00  0.00     0.039 H 
ATOM      7  H   1IS d   1      24.003  24.717  79.206  0.00  0.00     0.039 H 
ATOM      8  H   1IS d   1      22.196  23.137  79.843  0.00  0.00     0.072 H 
ATOM      9  H   1IS d   1      23.602  22.607  77.834  0.00  0.00     0.039 H 
ATOM     10  H   1IS d   1      22.003  22.618  77.016  0.00  0.00     0.039 H 
ENDROOT
BRANCH   1  11
ATOM     11  N11 1IS d   1      23.778  25.018  76.345  0.00  0.00    -0.289 N 
ATOM     12  C03 1IS d   1      23.317  25.921  75.444  0.00  0.00     0.250 A 
ATOM     13  N04 1IS d   1      24.272  26.205  74.555  0.00  0.00    -0.205 NA
ATOM     14  C05 1IS d   1      25.386  25.448  74.882  0.00  0.00     0.107 A 
ATOM     15  C06 1IS d   1      26.664  25.351  74.290  0.00  0.00    -0.050 A 
ATOM     16  C10 1IS d   1      25.065  24.691  76.012  0.00  0.00     0.162 A 
ATOM     17  C07 1IS d   1      27.591  24.480  74.861  0.00  0.00    -0.064 A 
ATOM     18  H   1IS d   1      26.918  25.938  73.415  0.00  0.00     0.087 H 
ATOM     19  C08 1IS d   1      27.211  23.732  76.009  0.00  0.00     0.005 A 
ATOM     20  H   1IS d   1      28.583  24.375  74.438  0.00  0.00     0.085 H 
ATOM     21  N09 1IS d   1      26.003  23.845  76.546  0.00  0.00    -0.241 NA
ATOM     22  H   1IS d   1      27.927  23.052  76.457  0.00  0.00     0.114 H 
BRANCH  12  23
ATOM     23  O02 1IS d   1      22.012  26.447  75.514  0.00  0.00    -0.325 OA
BRANCH  23  24
ATOM     24  C01 1IS d   1      21.569  27.048  74.340  0.00  0.00     0.013 C 
ATOM     25  H   1IS d   1      20.547  27.428  74.486  0.00  0.00     0.067 H 
ATOM     26  H   1IS d   1      21.573  26.309  73.525  0.00  0.00     0.067 H 
ATOM     27  H   1IS d   1      22.237  27.883  74.081  0.00  0.00     0.067 H 
ENDBRANCH  23  24
ENDBRANCH  12  23
ENDBRANCH   1  11
BRANCH   3  28
ATOM     28  N16 1IS d   1      20.707  23.999  78.812  0.00  0.00    -0.364 N 
ATOM     29  H   1IS d   1      20.287  23.887  77.878  0.00  0.00     0.162 HD
BRANCH  28  30
ATOM     30  C17 1IS d   1      19.854  24.413  79.865  0.00  0.00     0.168 A 
ATOM     31  N18 1IS d   1      20.205  24.646  81.134  0.00  0.00    -0.224 NA
ATOM     32  C19 1IS d   1      19.183  25.046  81.996  0.00  0.00     0.076 A 
ATOM     33  C20 1IS d   1      19.399  25.332  83.388  0.00  0.00    -0.054 A 
ATOM     34  C24 1IS d   1      17.946  25.156  81.456  0.00  0.00     0.037 A 
ATOM     35  C21 1IS d   1      18.347  25.716  84.156  0.00  0.00    -0.081 A 
ATOM     36  H   1IS d   1      20.389  25.242  83.819  0.00  0.00     0.087 H 
ATOM     37  C22 1IS d   1      17.045  25.832  83.585  0.00  0.00    -0.082 A 
ATOM     38  H   1IS d   1      18.497  25.935  85.207  0.00  0.00     0.083 H 
ATOM     39  C23 1IS d   1      16.842  25.560  82.248  0.00  0.00    -0.064 A 
ATOM     40  H   1IS d   1      16.210  26.136  84.206  0.00  0.00     0.083 H 
ATOM     41  H   1IS d   1      15.855  25.654  81.810  0.00  0.00     0.085 H 
ATOM     42  S25 1IS d   1      18.141  24.725  79.768  0.00  0.00    -0.050 SA
ENDBRANCH  28  30
ENDBRANCH   3  28
TORSDOF 5
